# generated using pymatgen
data_La3Er(Tm4Sb3)4
_symmetry_space_group_name_H-M   'P 1'
_cell_length_a   8.07889015
_cell_length_b   9.22329600
_cell_length_c   11.77031200
_cell_angle_alpha   90.00000000
_cell_angle_beta   89.94938413
_cell_angle_gamma   90.00000000
_symmetry_Int_Tables_number   1
_chemical_formula_structural   La3Er(Tm4Sb3)4
_chemical_formula_sum   'La3 Er1 Tm16 Sb12'
_cell_volume   877.05262996
_cell_formula_units_Z   1
loop_
 _symmetry_equiv_pos_site_id
 _symmetry_equiv_pos_as_xyz
  1  'x, y, z'
loop_
 _atom_site_type_symbol
 _atom_site_label
 _atom_site_symmetry_multiplicity
 _atom_site_fract_x
 _atom_site_fract_y
 _atom_site_fract_z
 _atom_site_occupancy
  La  La0  1  0.318037  0.250000  0.220631  1
  La  La1  1  0.817274  0.250000  0.278995  1
  La  La2  1  0.683115  0.750000  0.779811  1
  Er  Er3  1  0.184526  0.750000  0.717822  1
  Tm  Tm4  1  0.349799  0.750000  0.216790  1
  Tm  Tm5  1  0.851554  0.750000  0.284260  1
  Tm  Tm6  1  0.647804  0.250000  0.781201  1
  Tm  Tm7  1  0.149017  0.250000  0.717199  1
  Tm  Tm8  1  0.689354  0.563718  0.061680  1
  Tm  Tm9  1  0.191375  0.937266  0.439550  1
  Tm  Tm10  1  0.310577  0.062708  0.936948  1
  Tm  Tm11  1  0.808165  0.437373  0.561896  1
  Tm  Tm12  1  0.310577  0.437292  0.936948  1
  Tm  Tm13  1  0.808165  0.062627  0.561896  1
  Tm  Tm14  1  0.689354  0.936282  0.061680  1
  Tm  Tm15  1  0.191375  0.562734  0.439550  1
  Tm  Tm16  1  0.473924  0.250000  0.489699  1
  Tm  Tm17  1  0.976665  0.250000  0.010404  1
  Tm  Tm18  1  0.524492  0.750000  0.514066  1
  Tm  Tm19  1  0.024814  0.750000  0.987722  1
  Sb  Sb20  1  0.401462  0.750000  0.963953  1
  Sb  Sb21  1  0.910074  0.750000  0.537821  1
  Sb  Sb22  1  0.596703  0.250000  0.032501  1
  Sb  Sb23  1  0.094533  0.250000  0.466674  1
  Sb  Sb24  1  0.564203  0.987627  0.330384  1
  Sb  Sb25  1  0.063856  0.511816  0.170546  1
  Sb  Sb26  1  0.429578  0.492202  0.671991  1
  Sb  Sb27  1  0.940996  0.007950  0.827232  1
  Sb  Sb28  1  0.429578  0.007798  0.671991  1
  Sb  Sb29  1  0.940996  0.492050  0.827232  1
  Sb  Sb30  1  0.564203  0.512373  0.330384  1
  Sb  Sb31  1  0.063856  0.988184  0.170546  1
