# generated using pymatgen
data_Sr9PdPt5
_symmetry_space_group_name_H-M   'P 1'
_cell_length_a   8.07222040
_cell_length_b   8.06368724
_cell_length_c   8.06520351
_cell_angle_alpha   71.77397388
_cell_angle_beta   71.89850883
_cell_angle_gamma   71.75443532
_symmetry_Int_Tables_number   1
_chemical_formula_structural   Sr9PdPt5
_chemical_formula_sum   'Sr9 Pd1 Pt5'
_cell_volume   460.20840576
_cell_formula_units_Z   1
loop_
 _symmetry_equiv_pos_site_id
 _symmetry_equiv_pos_as_xyz
  1  'x, y, z'
loop_
 _atom_site_type_symbol
 _atom_site_label
 _atom_site_symmetry_multiplicity
 _atom_site_fract_x
 _atom_site_fract_y
 _atom_site_fract_z
 _atom_site_occupancy
  Sr  Sr0  1  0.998782  0.000451  0.002988  1
  Sr  Sr1  1  0.794686  0.796179  0.798052  1
  Sr  Sr2  1  0.202420  0.203560  0.201146  1
  Sr  Sr3  1  0.327635  0.606860  0.847410  1
  Sr  Sr4  1  0.841051  0.328572  0.611043  1
  Sr  Sr5  1  0.614160  0.842886  0.324090  1
  Sr  Sr6  1  0.674691  0.388489  0.156810  1
  Sr  Sr7  1  0.155421  0.672042  0.387678  1
  Sr  Sr8  1  0.391684  0.158463  0.675381  1
  Pd  Pd9  1  0.146497  0.960349  0.585885  1
  Pt  Pt10  1  0.588016  0.148451  0.960003  1
  Pt  Pt11  1  0.960576  0.588879  0.146113  1
  Pt  Pt12  1  0.853393  0.039780  0.412429  1
  Pt  Pt13  1  0.410496  0.853046  0.039787  1
  Pt  Pt14  1  0.040492  0.411993  0.851185  1
