# generated using pymatgen
data_Zr2Co10Si7Tc2
_symmetry_space_group_name_H-M   'P 1'
_cell_length_a   9.05975447
_cell_length_b   9.09826121
_cell_length_c   3.67887500
_cell_angle_alpha   90.00000000
_cell_angle_beta   90.00000000
_cell_angle_gamma   120.09929863
_symmetry_Int_Tables_number   1
_chemical_formula_structural   Zr2Co10Si7Tc2
_chemical_formula_sum   'Zr2 Co10 Si7 Tc2'
_cell_volume   262.35241591
_cell_formula_units_Z   1
loop_
 _symmetry_equiv_pos_site_id
 _symmetry_equiv_pos_as_xyz
  1  'x, y, z'
loop_
 _atom_site_type_symbol
 _atom_site_label
 _atom_site_symmetry_multiplicity
 _atom_site_fract_x
 _atom_site_fract_y
 _atom_site_fract_z
 _atom_site_occupancy
  Zr  Zr0  1  0.998614  0.999120  0.000000  1
  Zr  Zr1  1  0.331496  0.664352  0.500000  1
  Co  Co2  1  0.290362  0.389285  0.000000  1
  Co  Co3  1  0.101133  0.708737  0.000000  1
  Co  Co4  1  0.380622  0.171520  0.000000  1
  Co  Co5  1  0.792808  0.620317  0.000000  1
  Co  Co6  1  0.821385  0.205416  0.000000  1
  Co  Co7  1  0.234873  0.949154  0.500000  1
  Co  Co8  1  0.049960  0.281092  0.500000  1
  Co  Co9  1  0.719425  0.773011  0.500000  1
  Co  Co10  1  0.567334  0.110598  0.500000  1
  Co  Co11  1  0.610893  0.903233  0.000000  1
  Si  Si12  1  0.662182  0.328838  0.000000  1
  Si  Si13  1  0.078317  0.448519  0.000000  1
  Si  Si14  1  0.257689  0.214111  0.500000  1
  Si  Si15  1  0.783257  0.044299  0.500000  1
  Si  Si16  1  0.960639  0.744959  0.500000  1
  Si  Si17  1  0.549218  0.629698  0.000000  1
  Si  Si18  1  0.375290  0.924763  0.000000  1
  Tc  Tc19  1  0.883723  0.451017  0.500000  1
  Tc  Tc20  1  0.550777  0.437963  0.500000  1
