# generated using pymatgen
data_DyTh2(AlCo)3
_symmetry_space_group_name_H-M   'P 1'
_cell_length_a   6.99173000
_cell_length_b   7.12493381
_cell_length_c   3.87732400
_cell_angle_alpha   90.00000000
_cell_angle_beta   90.00000000
_cell_angle_gamma   119.38346289
_symmetry_Int_Tables_number   1
_chemical_formula_structural   DyTh2(AlCo)3
_chemical_formula_sum   'Dy1 Th2 Al3 Co3'
_cell_volume   168.30341753
_cell_formula_units_Z   1
loop_
 _symmetry_equiv_pos_site_id
 _symmetry_equiv_pos_as_xyz
  1  'x, y, z'
loop_
 _atom_site_type_symbol
 _atom_site_label
 _atom_site_symmetry_multiplicity
 _atom_site_fract_x
 _atom_site_fract_y
 _atom_site_fract_z
 _atom_site_occupancy
  Dy  Dy0  1  0.584396  0.000000  0.000000  1
  Th  Th1  1  0.998882  0.576241  0.000000  1
  Th  Th2  1  0.422641  0.423759  0.000000  1
  Al  Al3  1  0.239535  0.000000  0.500000  1
  Al  Al4  1  0.992614  0.221644  0.500000  1
  Al  Al5  1  0.770970  0.778356  0.500000  1
  Co  Co6  1  0.313572  0.643560  0.500000  1
  Co  Co7  1  0.670013  0.356440  0.500000  1
  Co  Co8  1  0.007375  0.000000  0.000000  1
