# generated using pymatgen
data_Lu12Mn2TlTcHg
_symmetry_space_group_name_H-M   'P 1'
_cell_length_a   8.20822392
_cell_length_b   8.20842424
_cell_length_c   8.20822216
_cell_angle_alpha   107.69802399
_cell_angle_beta   109.37821230
_cell_angle_gamma   111.35717288
_symmetry_Int_Tables_number   1
_chemical_formula_structural   Lu12Mn2TlTcHg
_chemical_formula_sum   'Lu12 Mn2 Tl1 Tc1 Hg1'
_cell_volume   425.30151551
_cell_formula_units_Z   1
loop_
 _symmetry_equiv_pos_site_id
 _symmetry_equiv_pos_as_xyz
  1  'x, y, z'
loop_
 _atom_site_type_symbol
 _atom_site_label
 _atom_site_symmetry_multiplicity
 _atom_site_fract_x
 _atom_site_fract_y
 _atom_site_fract_z
 _atom_site_occupancy
  Lu  Lu0  1  0.308386  0.307994  0.616434  1
  Lu  Lu1  1  0.691614  0.692006  0.383566  1
  Lu  Lu2  1  0.691561  0.307994  0.999609  1
  Lu  Lu3  1  0.308439  0.692006  0.000391  1
  Lu  Lu4  1  0.191744  0.427773  0.236029  1
  Lu  Lu5  1  0.808256  0.572227  0.763971  1
  Lu  Lu6  1  0.191669  0.955730  0.764062  1
  Lu  Lu7  1  0.951372  0.192218  0.759264  1
  Lu  Lu8  1  0.808331  0.044270  0.235938  1
  Lu  Lu9  1  0.048628  0.807782  0.240736  1
  Lu  Lu10  1  0.432954  0.192218  0.240846  1
  Lu  Lu11  1  0.567046  0.807782  0.759154  1
  Mn  Mn12  1  0.384071  0.384198  0.000128  1
  Mn  Mn13  1  0.615929  0.615802  0.999872  1
  Tl  Tl14  1  0.000000  0.500000  0.500000  1
  Tc  Tc15  1  0.000000  0.000000  0.000000  1
  Hg  Hg16  1  0.500000  0.000000  0.500000  1
