# generated using pymatgen
data_Ce2MnAl20Fe2Ir
_symmetry_space_group_name_H-M   'P 1'
_cell_length_a   6.82454365
_cell_length_b   6.80843291
_cell_length_c   9.05635030
_cell_angle_alpha   90.28598990
_cell_angle_beta   89.98617283
_cell_angle_gamma   97.38127063
_symmetry_Int_Tables_number   1
_chemical_formula_structural   Ce2MnAl20Fe2Ir
_chemical_formula_sum   'Ce2 Mn1 Al20 Fe2 Ir1'
_cell_volume   417.30601454
_cell_formula_units_Z   1
loop_
 _symmetry_equiv_pos_site_id
 _symmetry_equiv_pos_as_xyz
  1  'x, y, z'
loop_
 _atom_site_type_symbol
 _atom_site_label
 _atom_site_symmetry_multiplicity
 _atom_site_fract_x
 _atom_site_fract_y
 _atom_site_fract_z
 _atom_site_occupancy
  Ce  Ce0  1  0.880106  0.127417  0.748727  1
  Ce  Ce1  1  0.119894  0.872583  0.251273  1
  Mn  Mn2  1  0.000000  0.500000  0.000000  1
  Al  Al3  1  0.410037  0.135557  0.744815  1
  Al  Al4  1  0.132962  0.412638  0.251580  1
  Al  Al5  1  0.589963  0.864443  0.255185  1
  Al  Al6  1  0.867038  0.587362  0.748420  1
  Al  Al7  1  0.521632  0.776661  0.744403  1
  Al  Al8  1  0.778146  0.520014  0.249891  1
  Al  Al9  1  0.478368  0.223339  0.255597  1
  Al  Al10  1  0.221854  0.479986  0.750109  1
  Al  Al11  1  0.839145  0.160572  0.401634  1
  Al  Al12  1  0.160855  0.839428  0.598366  1
  Al  Al13  1  0.844378  0.163650  0.100721  1
  Al  Al14  1  0.155622  0.836350  0.899279  1
  Al  Al15  1  0.627872  0.380930  0.947308  1
  Al  Al16  1  0.372128  0.619070  0.052692  1
  Al  Al17  1  0.625075  0.375824  0.551315  1
  Al  Al18  1  0.374925  0.624176  0.448685  1
  Al  Al19  1  0.778287  0.770268  0.002582  1
  Al  Al20  1  0.774207  0.772687  0.501249  1
  Al  Al21  1  0.221713  0.229732  0.997418  1
  Al  Al22  1  0.225793  0.227313  0.498751  1
  Fe  Fe23  1  0.500000  0.000000  0.500000  1
  Fe  Fe24  1  0.000000  0.500000  0.500000  1
  Ir  Ir25  1  0.500000  0.000000  0.000000  1
