# generated using pymatgen
data_Nd4Sm4Sc11Si16W
_symmetry_space_group_name_H-M   'P 1'
_cell_length_a   7.19035912
_cell_length_b   7.43166406
_cell_length_c   14.05356046
_cell_angle_alpha   90.21729753
_cell_angle_beta   89.71784440
_cell_angle_gamma   89.65132429
_symmetry_Int_Tables_number   1
_chemical_formula_structural   Nd4Sm4Sc11Si16W
_chemical_formula_sum   'Nd4 Sm4 Sc11 Si16 W1'
_cell_volume   750.94224474
_cell_formula_units_Z   1
loop_
 _symmetry_equiv_pos_site_id
 _symmetry_equiv_pos_as_xyz
  1  'x, y, z'
loop_
 _atom_site_type_symbol
 _atom_site_label
 _atom_site_symmetry_multiplicity
 _atom_site_fract_x
 _atom_site_fract_y
 _atom_site_fract_z
 _atom_site_occupancy
  Nd  Nd0  1  0.011771  0.171633  0.097206  1
  Nd  Nd1  1  0.989219  0.828174  0.898468  1
  Nd  Nd2  1  0.486862  0.674041  0.898635  1
  Nd  Nd3  1  0.992696  0.831164  0.595387  1
  Sm  Sm4  1  0.513600  0.325522  0.097461  1
  Sm  Sm5  1  0.011549  0.174175  0.403092  1
  Sm  Sm6  1  0.507462  0.326459  0.409132  1
  Sm  Sm7  1  0.487168  0.674061  0.597203  1
  Sc  Sc8  1  0.163136  0.490602  0.744409  1
  Sc  Sc9  1  0.838281  0.499248  0.252282  1
  Sc  Sc10  1  0.338635  0.001126  0.251901  1
  Sc  Sc11  1  0.656750  0.003632  0.747341  1
  Sc  Sc12  1  0.665565  0.826160  0.378988  1
  Sc  Sc13  1  0.169070  0.676462  0.378092  1
  Sc  Sc14  1  0.669386  0.824237  0.124796  1
  Sc  Sc15  1  0.832054  0.325072  0.623655  1
  Sc  Sc16  1  0.332828  0.177228  0.874976  1
  Sc  Sc17  1  0.828802  0.323640  0.870794  1
  Sc  Sc18  1  0.170732  0.675840  0.125985  1
  Si  Si19  1  0.044195  0.126147  0.744446  1
  Si  Si20  1  0.963502  0.879220  0.252252  1
  Si  Si21  1  0.466459  0.622605  0.251212  1
  Si  Si22  1  0.529433  0.368357  0.744681  1
  Si  Si23  1  0.289555  0.889514  0.745520  1
  Si  Si24  1  0.710215  0.121302  0.251624  1
  Si  Si25  1  0.215134  0.378647  0.251288  1
  Si  Si26  1  0.785396  0.618855  0.746173  1
  Si  Si27  1  0.173804  0.448184  0.542470  1
  Si  Si28  1  0.845094  0.532519  0.459635  1
  Si  Si29  1  0.338246  0.970158  0.470702  1
  Si  Si30  1  0.847501  0.536200  0.039139  1
  Si  Si31  1  0.641228  0.038143  0.546065  1
  Si  Si32  1  0.149818  0.464689  0.958879  1
  Si  Si33  1  0.655737  0.038376  0.958378  1
  Si  Si34  1  0.346829  0.962785  0.039251  1
  W  W35  1  0.332289  0.175822  0.628482  1
