# generated using pymatgen
data_Y2ErSn3Pd2Ru
_symmetry_space_group_name_H-M   'P 1'
_cell_length_a   7.78929545
_cell_length_b   7.79386468
_cell_length_c   3.69837400
_cell_angle_alpha   90.00000000
_cell_angle_beta   90.00000000
_cell_angle_gamma   120.01940884
_symmetry_Int_Tables_number   1
_chemical_formula_structural   Y2ErSn3Pd2Ru
_chemical_formula_sum   'Y2 Er1 Sn3 Pd2 Ru1'
_cell_volume   194.40504269
_cell_formula_units_Z   1
loop_
 _symmetry_equiv_pos_site_id
 _symmetry_equiv_pos_as_xyz
  1  'x, y, z'
loop_
 _atom_site_type_symbol
 _atom_site_label
 _atom_site_symmetry_multiplicity
 _atom_site_fract_x
 _atom_site_fract_y
 _atom_site_fract_z
 _atom_site_occupancy
  Y  Y0  1  0.395915  0.395913  0.500000  1
  Y  Y1  1  0.604085  0.999998  0.500000  1
  Er  Er2  1  0.000000  0.604445  0.500000  1
  Sn  Sn3  1  0.734474  0.734925  0.000000  1
  Sn  Sn4  1  0.265526  0.000451  0.000000  1
  Sn  Sn5  1  0.000000  0.264502  0.000000  1
  Pd  Pd6  1  0.670227  0.336179  0.000000  1
  Pd  Pd7  1  0.329773  0.665953  0.000000  1
  Ru  Ru8  1  0.000000  0.997634  0.500000  1
