# generated using pymatgen
data_Hf3TiNbSn3
_symmetry_space_group_name_H-M   'P 1'
_cell_length_a   8.32893800
_cell_length_b   8.32893759
_cell_length_c   5.56720000
_cell_angle_alpha   90.00000000
_cell_angle_beta   90.00000000
_cell_angle_gamma   119.99999368
_symmetry_Int_Tables_number   1
_chemical_formula_structural   Hf3TiNbSn3
_chemical_formula_sum   'Hf6 Ti2 Nb2 Sn6'
_cell_volume   334.46195195
_cell_formula_units_Z   2
loop_
 _symmetry_equiv_pos_site_id
 _symmetry_equiv_pos_as_xyz
  1  'x, y, z'
loop_
 _atom_site_type_symbol
 _atom_site_label
 _atom_site_symmetry_multiplicity
 _atom_site_fract_x
 _atom_site_fract_y
 _atom_site_fract_z
 _atom_site_occupancy
  Hf  Hf0  1  0.758703  0.758703  0.757126  1
  Hf  Hf1  1  0.241297  0.000000  0.757126  1
  Hf  Hf2  1  0.000000  0.241297  0.757126  1
  Hf  Hf3  1  0.241297  0.241297  0.242874  1
  Hf  Hf4  1  0.758703  0.000000  0.242874  1
  Hf  Hf5  1  0.000000  0.758703  0.242874  1
  Ti  Ti6  1  0.333333  0.666667  0.500000  1
  Ti  Ti7  1  0.666667  0.333333  0.500000  1
  Nb  Nb8  1  0.666667  0.333333  0.000000  1
  Nb  Nb9  1  0.333333  0.666667  0.000000  1
  Sn  Sn10  1  0.398957  0.398957  0.745118  1
  Sn  Sn11  1  0.601043  0.000000  0.745118  1
  Sn  Sn12  1  0.000000  0.601043  0.745118  1
  Sn  Sn13  1  0.601043  0.601043  0.254882  1
  Sn  Sn14  1  0.398957  0.000000  0.254882  1
  Sn  Sn15  1  0.000000  0.398957  0.254882  1
