# generated using pymatgen
data_DyLu19(Ir2Os)4
_symmetry_space_group_name_H-M   'P 1'
_cell_length_a   10.64112511
_cell_length_b   10.64429555
_cell_length_c   6.31193634
_cell_angle_alpha   89.96460683
_cell_angle_beta   89.98712055
_cell_angle_gamma   90.00972073
_symmetry_Int_Tables_number   1
_chemical_formula_structural   DyLu19(Ir2Os)4
_chemical_formula_sum   'Dy1 Lu19 Ir8 Os4'
_cell_volume   714.93569967
_cell_formula_units_Z   1
loop_
 _symmetry_equiv_pos_site_id
 _symmetry_equiv_pos_as_xyz
  1  'x, y, z'
loop_
 _atom_site_type_symbol
 _atom_site_label
 _atom_site_symmetry_multiplicity
 _atom_site_fract_x
 _atom_site_fract_y
 _atom_site_fract_z
 _atom_site_occupancy
  Dy  Dy0  1  0.086828  0.292591  0.124406  1
  Lu  Lu1  1  0.294357  0.085808  0.377395  1
  Lu  Lu2  1  0.293820  0.913636  0.877237  1
  Lu  Lu3  1  0.706076  0.086253  0.877062  1
  Lu  Lu4  1  0.706007  0.913624  0.376880  1
  Lu  Lu5  1  0.586385  0.794001  0.877067  1
  Lu  Lu6  1  0.586259  0.206074  0.376863  1
  Lu  Lu7  1  0.413732  0.793913  0.376954  1
  Lu  Lu8  1  0.413830  0.206002  0.876930  1
  Lu  Lu9  1  0.206328  0.414118  0.622924  1
  Lu  Lu10  1  0.206424  0.587114  0.122976  1
  Lu  Lu11  1  0.793170  0.414116  0.123040  1
  Lu  Lu12  1  0.793834  0.586536  0.622912  1
  Lu  Lu13  1  0.913548  0.706279  0.123179  1
  Lu  Lu14  1  0.913152  0.293967  0.622827  1
  Lu  Lu15  1  0.086403  0.706239  0.622790  1
  Lu  Lu16  1  0.999936  0.999834  0.500142  1
  Lu  Lu17  1  0.999625  0.999172  0.999648  1
  Lu  Lu18  1  0.500055  0.500222  0.000088  1
  Lu  Lu19  1  0.500094  0.500121  0.499747  1
  Ir  Ir20  1  0.846913  0.151619  0.250501  1
  Ir  Ir21  1  0.847737  0.847707  0.750017  1
  Ir  Ir22  1  0.152661  0.151528  0.747591  1
  Ir  Ir23  1  0.152172  0.847842  0.249929  1
  Ir  Ir24  1  0.652182  0.347824  0.749989  1
  Ir  Ir25  1  0.652210  0.652116  0.249980  1
  Ir  Ir26  1  0.349097  0.348005  0.250748  1
  Ir  Ir27  1  0.347803  0.652179  0.749966  1
  Os  Os28  1  0.500054  0.999997  0.124772  1
  Os  Os29  1  0.500010  0.999993  0.625133  1
  Os  Os30  1  0.999638  0.500869  0.874141  1
  Os  Os31  1  0.999657  0.500703  0.376167  1
