# generated using pymatgen
data_Ce2Nd6CdAgIr2
_symmetry_space_group_name_H-M   'P 1'
_cell_length_a   9.84762144
_cell_length_b   9.84762171
_cell_length_c   9.87761100
_cell_angle_alpha   59.89921330
_cell_angle_beta   59.89921239
_cell_angle_gamma   60.09456057
_symmetry_Int_Tables_number   1
_chemical_formula_structural   Ce2Nd6CdAgIr2
_chemical_formula_sum   'Ce4 Nd12 Cd2 Ag2 Ir4'
_cell_volume   676.77575179
_cell_formula_units_Z   2
loop_
 _symmetry_equiv_pos_site_id
 _symmetry_equiv_pos_as_xyz
  1  'x, y, z'
loop_
 _atom_site_type_symbol
 _atom_site_label
 _atom_site_symmetry_multiplicity
 _atom_site_fract_x
 _atom_site_fract_y
 _atom_site_fract_z
 _atom_site_occupancy
  Ce  Ce0  1  0.346649  0.346649  0.346611  1
  Ce  Ce1  1  0.346649  0.346649  0.960090  1
  Ce  Ce2  1  0.347711  0.958355  0.346966  1
  Ce  Ce3  1  0.958355  0.347711  0.346966  1
  Nd  Nd4  1  0.808722  0.191320  0.191918  1
  Nd  Nd5  1  0.191320  0.808722  0.808040  1
  Nd  Nd6  1  0.191320  0.808722  0.191918  1
  Nd  Nd7  1  0.808722  0.191320  0.808040  1
  Nd  Nd8  1  0.190889  0.190889  0.809111  1
  Nd  Nd9  1  0.806926  0.806926  0.193074  1
  Nd  Nd10  1  0.937893  0.559806  0.561255  1
  Nd  Nd11  1  0.559806  0.937893  0.941045  1
  Nd  Nd12  1  0.559806  0.937893  0.561255  1
  Nd  Nd13  1  0.937893  0.559806  0.941045  1
  Nd  Nd14  1  0.559925  0.559925  0.940075  1
  Nd  Nd15  1  0.939260  0.939260  0.560740  1
  Cd  Cd16  1  0.579911  0.264027  0.578030  1
  Cd  Cd17  1  0.264027  0.579911  0.578030  1
  Ag  Ag18  1  0.581296  0.581296  0.580298  1
  Ag  Ag19  1  0.581296  0.581296  0.257108  1
  Ir  Ir20  1  0.145750  0.145750  0.144752  1
  Ir  Ir21  1  0.145750  0.145750  0.563747  1
  Ir  Ir22  1  0.145666  0.564450  0.144941  1
  Ir  Ir23  1  0.564450  0.145666  0.144941  1
