# generated using pymatgen
data_CaPb2(ClO)2
_symmetry_space_group_name_H-M   'P 1'
_cell_length_a   6.83188226
_cell_length_b   6.83188251
_cell_length_c   7.86546126
_cell_angle_alpha   58.20961853
_cell_angle_beta   58.20961957
_cell_angle_gamma   33.16804351
_symmetry_Int_Tables_number   1
_chemical_formula_structural   CaPb2(ClO)2
_chemical_formula_sum   'Ca1 Pb2 Cl2 O2'
_cell_volume   167.78417005
_cell_formula_units_Z   1
loop_
 _symmetry_equiv_pos_site_id
 _symmetry_equiv_pos_as_xyz
  1  'x, y, z'
loop_
 _atom_site_type_symbol
 _atom_site_label
 _atom_site_symmetry_multiplicity
 _atom_site_fract_x
 _atom_site_fract_y
 _atom_site_fract_z
 _atom_site_occupancy
  Ca  Ca0  1  0.000000  0.000000  0.000000  1
  Pb  Pb1  1  0.188913  0.188913  0.230698  1
  Pb  Pb2  1  0.811087  0.811087  0.769302  1
  Cl  Cl3  1  0.435736  0.435736  0.292918  1
  Cl  Cl4  1  0.564264  0.564264  0.707082  1
  O  O5  1  0.194650  0.194650  0.931433  1
  O  O6  1  0.805350  0.805350  0.068567  1
