# generated using pymatgen
data_Nd3SiAuS7
_symmetry_space_group_name_H-M   'P 1'
_cell_length_a   10.29889600
_cell_length_b   10.29885578
_cell_length_c   5.83129600
_cell_angle_alpha   90.00000000
_cell_angle_beta   90.00000000
_cell_angle_gamma   119.99998590
_symmetry_Int_Tables_number   1
_chemical_formula_structural   Nd3SiAuS7
_chemical_formula_sum   'Nd6 Si2 Au2 S14'
_cell_volume   535.64299470
_cell_formula_units_Z   2
loop_
 _symmetry_equiv_pos_site_id
 _symmetry_equiv_pos_as_xyz
  1  'x, y, z'
loop_
 _atom_site_type_symbol
 _atom_site_label
 _atom_site_symmetry_multiplicity
 _atom_site_fract_x
 _atom_site_fract_y
 _atom_site_fract_z
 _atom_site_occupancy
  Nd  Nd0  1  0.122651  0.358233  0.251146  1
  Nd  Nd1  1  0.641770  0.764419  0.251144  1
  Nd  Nd2  1  0.235582  0.877350  0.251146  1
  Nd  Nd3  1  0.764417  0.122650  0.751147  1
  Nd  Nd4  1  0.358230  0.235580  0.751145  1
  Nd  Nd5  1  0.877349  0.641767  0.751147  1
  Si  Si6  1  0.666664  0.333333  0.162516  1
  Si  Si7  1  0.333335  0.666667  0.662517  1
  Au  Au8  1  0.000000  0.999999  0.284614  1
  Au  Au9  1  0.000000  0.000001  0.784615  1
  S  S10  1  0.885017  0.409776  0.016323  1
  S  S11  1  0.524757  0.114980  0.016319  1
  S  S12  1  0.590221  0.475241  0.016318  1
  S  S13  1  0.333335  0.666667  0.026050  1
  S  S14  1  0.908945  0.731026  0.266808  1
  S  S15  1  0.822085  0.091058  0.266808  1
  S  S16  1  0.268972  0.177916  0.266808  1
  S  S17  1  0.114984  0.590224  0.516322  1
  S  S18  1  0.409779  0.524759  0.516317  1
  S  S19  1  0.475243  0.885020  0.516320  1
  S  S20  1  0.666665  0.333333  0.526049  1
  S  S21  1  0.091055  0.268973  0.766807  1
  S  S22  1  0.731028  0.822084  0.766808  1
  S  S23  1  0.177915  0.908942  0.766808  1
