# generated using pymatgen
data_Sc3InPt2
_symmetry_space_group_name_H-M   'P 1'
_cell_length_a   4.57625300
_cell_length_b   6.17775352
_cell_length_c   8.42163580
_cell_angle_alpha   88.49887976
_cell_angle_beta   90.00000000
_cell_angle_gamma   90.00000000
_symmetry_Int_Tables_number   1
_chemical_formula_structural   Sc3InPt2
_chemical_formula_sum   'Sc6 In2 Pt4'
_cell_volume   238.00604613
_cell_formula_units_Z   2
loop_
 _symmetry_equiv_pos_site_id
 _symmetry_equiv_pos_as_xyz
  1  'x, y, z'
loop_
 _atom_site_type_symbol
 _atom_site_label
 _atom_site_symmetry_multiplicity
 _atom_site_fract_x
 _atom_site_fract_y
 _atom_site_fract_z
 _atom_site_occupancy
  Sc  Sc0  1  0.250000  0.476256  0.198160  1
  Sc  Sc1  1  0.750000  0.523744  0.801840  1
  Sc  Sc2  1  0.750000  0.689668  0.431447  1
  Sc  Sc3  1  0.250000  0.310332  0.568553  1
  Sc  Sc4  1  0.750000  0.161467  0.075459  1
  Sc  Sc5  1  0.250000  0.838533  0.924541  1
  In  In6  1  0.250000  0.969418  0.291470  1
  In  In7  1  0.750000  0.030582  0.708530  1
  Pt  Pt8  1  0.250000  0.268755  0.900866  1
  Pt  Pt9  1  0.750000  0.731245  0.099134  1
  Pt  Pt10  1  0.250000  0.740638  0.611379  1
  Pt  Pt11  1  0.750000  0.259362  0.388621  1
