# generated using pymatgen
data_YbEu4Nb3O14
_symmetry_space_group_name_H-M   'P 1'
_cell_length_a   7.50336178
_cell_length_b   7.50336088
_cell_length_c   7.50336100
_cell_angle_alpha   60.88102441
_cell_angle_beta   60.88103701
_cell_angle_gamma   60.88102977
_symmetry_Int_Tables_number   1
_chemical_formula_structural   YbEu4Nb3O14
_chemical_formula_sum   'Yb1 Eu4 Nb3 O14'
_cell_volume   304.64465126
_cell_formula_units_Z   1
loop_
 _symmetry_equiv_pos_site_id
 _symmetry_equiv_pos_as_xyz
  1  'x, y, z'
loop_
 _atom_site_type_symbol
 _atom_site_label
 _atom_site_symmetry_multiplicity
 _atom_site_fract_x
 _atom_site_fract_y
 _atom_site_fract_z
 _atom_site_occupancy
  Yb  Yb0  1  0.000000  0.000000  0.000000  1
  Eu  Eu1  1  0.500000  0.000000  0.500000  1
  Eu  Eu2  1  0.000000  0.500000  0.500000  1
  Eu  Eu3  1  0.500000  0.500000  0.000000  1
  Eu  Eu4  1  0.500000  0.500000  0.500000  1
  Nb  Nb5  1  0.000000  0.000000  0.500000  1
  Nb  Nb6  1  0.500000  0.000000  0.000000  1
  Nb  Nb7  1  0.000000  0.500000  0.000000  1
  O  O8  1  0.098887  0.098887  0.629049  1
  O  O9  1  0.901113  0.901113  0.370951  1
  O  O10  1  0.370951  0.901113  0.901113  1
  O  O11  1  0.629049  0.098887  0.098887  1
  O  O12  1  0.914189  0.310383  0.310383  1
  O  O13  1  0.085811  0.689617  0.689617  1
  O  O14  1  0.689617  0.689617  0.085811  1
  O  O15  1  0.310383  0.310383  0.914189  1
  O  O16  1  0.378332  0.378332  0.378332  1
  O  O17  1  0.621668  0.621668  0.621668  1
  O  O18  1  0.901113  0.370951  0.901113  1
  O  O19  1  0.098887  0.629049  0.098887  1
  O  O20  1  0.689617  0.085811  0.689617  1
  O  O21  1  0.310383  0.914189  0.310383  1
