# generated using pymatgen
data_PrTm7(Hf3Si4)4
_symmetry_space_group_name_H-M   'P 1'
_cell_length_a   7.25786469
_cell_length_b   7.25251871
_cell_length_c   13.33144005
_cell_angle_alpha   89.96854224
_cell_angle_beta   89.86072296
_cell_angle_gamma   90.03293056
_symmetry_Int_Tables_number   1
_chemical_formula_structural   PrTm7(Hf3Si4)4
_chemical_formula_sum   'Pr1 Tm7 Hf12 Si16'
_cell_volume   701.73537239
_cell_formula_units_Z   1
loop_
 _symmetry_equiv_pos_site_id
 _symmetry_equiv_pos_as_xyz
  1  'x, y, z'
loop_
 _atom_site_type_symbol
 _atom_site_label
 _atom_site_symmetry_multiplicity
 _atom_site_fract_x
 _atom_site_fract_y
 _atom_site_fract_z
 _atom_site_occupancy
  Pr  Pr0  1  0.657369  0.008568  0.284871  1
  Tm  Tm1  1  0.996809  0.345688  0.214087  1
  Tm  Tm2  1  0.004660  0.654847  0.715418  1
  Tm  Tm3  1  0.155850  0.496238  0.466495  1
  Tm  Tm4  1  0.503509  0.843118  0.033408  1
  Tm  Tm5  1  0.845124  0.504165  0.964433  1
  Tm  Tm6  1  0.495526  0.155034  0.536149  1
  Tm  Tm7  1  0.344923  0.995410  0.784743  1
  Hf  Hf8  1  0.174763  0.175218  0.998747  1
  Hf  Hf9  1  0.825699  0.824482  0.500783  1
  Hf  Hf10  1  0.324198  0.673848  0.250114  1
  Hf  Hf11  1  0.675523  0.324811  0.749923  1
  Hf  Hf12  1  0.150209  0.996812  0.375236  1
  Hf  Hf13  1  0.852388  0.002999  0.874081  1
  Hf  Hf14  1  0.503008  0.646985  0.626110  1
  Hf  Hf15  1  0.352484  0.497126  0.874801  1
  Hf  Hf16  1  0.493211  0.352376  0.122766  1
  Hf  Hf17  1  0.647602  0.504557  0.376759  1
  Hf  Hf18  1  0.997660  0.147727  0.626555  1
  Hf  Hf19  1  0.002239  0.849948  0.124127  1
  Si  Si20  1  0.356045  0.300195  0.316995  1
  Si  Si21  1  0.640163  0.704538  0.817792  1
  Si  Si22  1  0.204748  0.859890  0.568324  1
  Si  Si23  1  0.139621  0.794706  0.931743  1
  Si  Si24  1  0.796709  0.140194  0.065215  1
  Si  Si25  1  0.865406  0.208733  0.436509  1
  Si  Si26  1  0.295390  0.360091  0.682547  1
  Si  Si27  1  0.706360  0.634037  0.180677  1
  Si  Si28  1  0.290245  0.050556  0.184034  1
  Si  Si29  1  0.703647  0.951160  0.685805  1
  Si  Si30  1  0.447381  0.793521  0.438033  1
  Si  Si31  1  0.202693  0.549293  0.063733  1
  Si  Si32  1  0.548653  0.203141  0.934798  1
  Si  Si33  1  0.797178  0.452123  0.565251  1
  Si  Si34  1  0.048606  0.296831  0.814290  1
  Si  Si35  1  0.954402  0.701034  0.314650  1
