# generated using pymatgen
data_K6VFeF12
_symmetry_space_group_name_H-M   'P 1'
_cell_length_a   6.40532411
_cell_length_b   6.16632541
_cell_length_c   10.76207782
_cell_angle_alpha   55.14722532
_cell_angle_beta   90.00013524
_cell_angle_gamma   89.93127840
_symmetry_Int_Tables_number   1
_chemical_formula_structural   K6VFeF12
_chemical_formula_sum   'K6 V1 Fe1 F12'
_cell_volume   348.82451082
_cell_formula_units_Z   1
loop_
 _symmetry_equiv_pos_site_id
 _symmetry_equiv_pos_as_xyz
  1  'x, y, z'
loop_
 _atom_site_type_symbol
 _atom_site_label
 _atom_site_symmetry_multiplicity
 _atom_site_fract_x
 _atom_site_fract_y
 _atom_site_fract_z
 _atom_site_occupancy
  K  K0  1  0.500000  0.500000  0.000000  1
  K  K1  1  0.000000  0.500000  0.500000  1
  K  K2  1  0.051310  0.729474  0.754041  1
  K  K3  1  0.948690  0.270526  0.245959  1
  K  K4  1  0.550405  0.265279  0.748147  1
  K  K5  1  0.449595  0.734721  0.251853  1
  V  V6  1  0.500000  0.000000  0.500000  1
  Fe  Fe7  1  0.000000  0.000000  0.000000  1
  F  F8  1  0.753325  0.776293  0.559515  1
  F  F9  1  0.246675  0.223707  0.440485  1
  F  F10  1  0.253955  0.220054  0.939889  1
  F  F11  1  0.746045  0.779946  0.060111  1
  F  F12  1  0.457879  0.879812  0.713818  1
  F  F13  1  0.542121  0.120188  0.286182  1
  F  F14  1  0.957251  0.113814  0.789413  1
  F  F15  1  0.042749  0.886186  0.210587  1
  F  F16  1  0.326169  0.697556  0.541021  1
  F  F17  1  0.673831  0.302444  0.458979  1
  F  F18  1  0.829424  0.301475  0.958129  1
  F  F19  1  0.170576  0.698525  0.041871  1
