# generated using pymatgen
data_YLu9Cd3Tc
_symmetry_space_group_name_H-M   'P 1'
_cell_length_a   9.34245417
_cell_length_b   9.34245327
_cell_length_c   9.78092100
_cell_angle_alpha   90.00000000
_cell_angle_beta   90.00000000
_cell_angle_gamma   119.94266230
_symmetry_Int_Tables_number   1
_chemical_formula_structural   YLu9Cd3Tc
_chemical_formula_sum   'Y2 Lu18 Cd6 Tc2'
_cell_volume   739.74651343
_cell_formula_units_Z   2
loop_
 _symmetry_equiv_pos_site_id
 _symmetry_equiv_pos_as_xyz
  1  'x, y, z'
loop_
 _atom_site_type_symbol
 _atom_site_label
 _atom_site_symmetry_multiplicity
 _atom_site_fract_x
 _atom_site_fract_y
 _atom_site_fract_z
 _atom_site_occupancy
  Y  Y0  1  0.461340  0.921901  0.750000  1
  Y  Y1  1  0.078099  0.538660  0.750000  1
  Lu  Lu2  1  0.999866  0.000134  0.499827  1
  Lu  Lu3  1  0.999866  0.000134  0.000173  1
  Lu  Lu4  1  0.210051  0.789949  0.441703  1
  Lu  Lu5  1  0.211361  0.420441  0.442212  1
  Lu  Lu6  1  0.579559  0.788639  0.442212  1
  Lu  Lu7  1  0.789209  0.210791  0.556280  1
  Lu  Lu8  1  0.788279  0.579213  0.556237  1
  Lu  Lu9  1  0.420787  0.211721  0.556237  1
  Lu  Lu10  1  0.789209  0.210791  0.943720  1
  Lu  Lu11  1  0.788279  0.579213  0.943763  1
  Lu  Lu12  1  0.420787  0.211721  0.943763  1
  Lu  Lu13  1  0.210051  0.789949  0.058297  1
  Lu  Lu14  1  0.211361  0.420441  0.057788  1
  Lu  Lu15  1  0.579559  0.788639  0.057788  1
  Lu  Lu16  1  0.539246  0.460754  0.250000  1
  Lu  Lu17  1  0.539003  0.077672  0.250000  1
  Lu  Lu18  1  0.922328  0.460997  0.250000  1
  Lu  Lu19  1  0.462907  0.537093  0.750000  1
  Cd  Cd20  1  0.885666  0.114334  0.250000  1
  Cd  Cd21  1  0.885351  0.771473  0.250000  1
  Cd  Cd22  1  0.228527  0.114649  0.250000  1
  Cd  Cd23  1  0.112256  0.887744  0.750000  1
  Cd  Cd24  1  0.114329  0.225918  0.750000  1
  Cd  Cd25  1  0.774082  0.885671  0.750000  1
  Tc  Tc26  1  0.333072  0.666928  0.250000  1
  Tc  Tc27  1  0.665571  0.334429  0.750000  1
