# generated using pymatgen
data_Dy5Ho3(CoB14)2
_symmetry_space_group_name_H-M   'P 1'
_cell_length_a   7.21269532
_cell_length_b   7.21314532
_cell_length_c   7.49937600
_cell_angle_alpha   90.00000000
_cell_angle_beta   90.00000000
_cell_angle_gamma   89.96605746
_symmetry_Int_Tables_number   1
_chemical_formula_structural   Dy5Ho3(CoB14)2
_chemical_formula_sum   'Dy5 Ho3 Co2 B28'
_cell_volume   390.16411298
_cell_formula_units_Z   1
loop_
 _symmetry_equiv_pos_site_id
 _symmetry_equiv_pos_as_xyz
  1  'x, y, z'
loop_
 _atom_site_type_symbol
 _atom_site_label
 _atom_site_symmetry_multiplicity
 _atom_site_fract_x
 _atom_site_fract_y
 _atom_site_fract_z
 _atom_site_occupancy
  Dy  Dy0  1  0.693120  0.169954  0.500000  1
  Dy  Dy1  1  0.306950  0.830090  0.500000  1
  Dy  Dy2  1  0.806763  0.670136  0.000000  1
  Dy  Dy3  1  0.829978  0.693159  0.500000  1
  Dy  Dy4  1  0.170012  0.306813  0.500000  1
  Ho  Ho5  1  0.193180  0.330082  0.000000  1
  Ho  Ho6  1  0.669822  0.192969  0.000000  1
  Ho  Ho7  1  0.330071  0.806854  0.000000  1
  Co  Co8  1  0.000222  0.000370  0.000000  1
  Co  Co9  1  0.499881  0.499943  0.500000  1
  B  B10  1  0.174356  0.038783  0.230389  1
  B  B11  1  0.961290  0.174354  0.230421  1
  B  B12  1  0.038995  0.825889  0.230588  1
  B  B13  1  0.674093  0.461091  0.268691  1
  B  B14  1  0.325647  0.538650  0.268593  1
  B  B15  1  0.825864  0.961483  0.230529  1
  B  B16  1  0.538524  0.674131  0.268571  1
  B  B17  1  0.461240  0.325639  0.268537  1
  B  B18  1  0.825864  0.961483  0.769471  1
  B  B19  1  0.038995  0.825889  0.769412  1
  B  B20  1  0.961290  0.174354  0.769579  1
  B  B21  1  0.325647  0.538650  0.731407  1
  B  B22  1  0.674093  0.461091  0.731309  1
  B  B23  1  0.174356  0.038783  0.769611  1
  B  B24  1  0.461240  0.325639  0.731463  1
  B  B25  1  0.538524  0.674131  0.731429  1
  B  B26  1  0.088254  0.588144  0.249334  1
  B  B27  1  0.411835  0.088231  0.249170  1
  B  B28  1  0.588214  0.911710  0.249164  1
  B  B29  1  0.911788  0.411754  0.249505  1
  B  B30  1  0.911788  0.411754  0.750495  1
  B  B31  1  0.588214  0.911710  0.750836  1
  B  B32  1  0.411835  0.088231  0.750830  1
  B  B33  1  0.088254  0.588144  0.750666  1
  B  B34  1  0.000125  0.000126  0.388190  1
  B  B35  1  0.499777  0.499828  0.111344  1
  B  B36  1  0.000125  0.000126  0.611810  1
  B  B37  1  0.499777  0.499828  0.888656  1
