# generated using pymatgen
data_Lu3Zn3Pd2Pt
_symmetry_space_group_name_H-M   'P 1'
_cell_length_a   7.22421600
_cell_length_b   7.22421673
_cell_length_c   3.83654900
_cell_angle_alpha   90.00000000
_cell_angle_beta   90.00000000
_cell_angle_gamma   119.99998749
_symmetry_Int_Tables_number   1
_chemical_formula_structural   Lu3Zn3Pd2Pt
_chemical_formula_sum   'Lu3 Zn3 Pd2 Pt1'
_cell_volume   173.40152996
_cell_formula_units_Z   1
loop_
 _symmetry_equiv_pos_site_id
 _symmetry_equiv_pos_as_xyz
  1  'x, y, z'
loop_
 _atom_site_type_symbol
 _atom_site_label
 _atom_site_symmetry_multiplicity
 _atom_site_fract_x
 _atom_site_fract_y
 _atom_site_fract_z
 _atom_site_occupancy
  Lu  Lu0  1  0.597252  0.593241  0.000000  1
  Lu  Lu1  1  0.406759  0.004011  0.000000  1
  Lu  Lu2  1  0.995989  0.402748  0.000000  1
  Zn  Zn3  1  0.254527  0.254994  0.500000  1
  Zn  Zn4  1  0.745006  0.999534  0.500000  1
  Zn  Zn5  1  0.000466  0.745473  0.500000  1
  Pd  Pd6  1  0.000000  0.000000  0.000000  1
  Pd  Pd7  1  0.333333  0.666667  0.500000  1
  Pt  Pt8  1  0.666667  0.333333  0.500000  1
