# generated using pymatgen
data_Na3Nd(Si2O5)3
_symmetry_space_group_name_H-M   'P 1'
_cell_length_a   10.38325764
_cell_length_b   10.38325789
_cell_length_c   10.73115100
_cell_angle_alpha   59.04558756
_cell_angle_beta   59.04558673
_cell_angle_gamma   48.90356367
_symmetry_Int_Tables_number   1
_chemical_formula_structural   Na3Nd(Si2O5)3
_chemical_formula_sum   'Na6 Nd2 Si12 O30'
_cell_volume   719.36041857
_cell_formula_units_Z   2
loop_
 _symmetry_equiv_pos_site_id
 _symmetry_equiv_pos_as_xyz
  1  'x, y, z'
loop_
 _atom_site_type_symbol
 _atom_site_label
 _atom_site_symmetry_multiplicity
 _atom_site_fract_x
 _atom_site_fract_y
 _atom_site_fract_z
 _atom_site_occupancy
  Na  Na0  1  0.261889  0.759896  0.739704  1
  Na  Na1  1  0.759896  0.261889  0.739704  1
  Na  Na2  1  0.738111  0.240104  0.260296  1
  Na  Na3  1  0.240104  0.738111  0.260296  1
  Na  Na4  1  0.793942  0.793942  0.875286  1
  Na  Na5  1  0.206058  0.206058  0.124714  1
  Nd  Nd6  1  0.000000  0.000000  0.500000  1
  Nd  Nd7  1  0.500000  0.500000  0.000000  1
  Si  Si8  1  0.671805  0.025867  0.114044  1
  Si  Si9  1  0.524299  0.171527  0.688813  1
  Si  Si10  1  0.171527  0.524299  0.688813  1
  Si  Si11  1  0.025867  0.671805  0.114044  1
  Si  Si12  1  0.328195  0.974133  0.885956  1
  Si  Si13  1  0.475701  0.828473  0.311187  1
  Si  Si14  1  0.828473  0.475701  0.311187  1
  Si  Si15  1  0.974133  0.328195  0.885956  1
  Si  Si16  1  0.847175  0.847175  0.361858  1
  Si  Si17  1  0.347489  0.347489  0.443358  1
  Si  Si18  1  0.152825  0.152825  0.638142  1
  Si  Si19  1  0.652511  0.652511  0.556642  1
  O  O20  1  0.359882  0.359882  0.738686  1
  O  O21  1  0.855307  0.855307  0.042401  1
  O  O22  1  0.640118  0.640118  0.261314  1
  O  O23  1  0.144693  0.144693  0.957599  1
  O  O24  1  0.010543  0.489067  0.820198  1
  O  O25  1  0.989457  0.510933  0.179802  1
  O  O26  1  0.510933  0.989457  0.179802  1
  O  O27  1  0.489067  0.010543  0.820198  1
  O  O28  1  0.076661  0.076661  0.613354  1
  O  O29  1  0.576727  0.576727  0.732588  1
  O  O30  1  0.923339  0.923339  0.386646  1
  O  O31  1  0.423273  0.423273  0.267412  1
  O  O32  1  0.295170  0.989663  0.742193  1
  O  O33  1  0.487879  0.795405  0.473979  1
  O  O34  1  0.795405  0.487879  0.473979  1
  O  O35  1  0.989663  0.295170  0.742193  1
  O  O36  1  0.704830  0.010337  0.257807  1
  O  O37  1  0.512121  0.204595  0.526021  1
  O  O38  1  0.204595  0.512121  0.526021  1
  O  O39  1  0.010337  0.704830  0.257807  1
  O  O40  1  0.282128  0.894245  0.320739  1
  O  O41  1  0.379778  0.785622  0.006608  1
  O  O42  1  0.785622  0.379778  0.006608  1
  O  O43  1  0.894245  0.282128  0.320739  1
  O  O44  1  0.717872  0.105755  0.679261  1
  O  O45  1  0.620222  0.214378  0.993392  1
  O  O46  1  0.214378  0.620222  0.993392  1
  O  O47  1  0.105755  0.717872  0.679261  1
  O  O48  1  0.250018  0.250018  0.481923  1
  O  O49  1  0.749982  0.749982  0.518077  1
