# generated using pymatgen
data_Ti11Co8Si4Pd
_symmetry_space_group_name_H-M   'P 1'
_cell_length_a   7.68724076
_cell_length_b   7.71707088
_cell_length_c   7.71707114
_cell_angle_alpha   59.95076477
_cell_angle_beta   60.12779051
_cell_angle_gamma   60.12778463
_symmetry_Int_Tables_number   1
_chemical_formula_structural   Ti11Co8Si4Pd
_chemical_formula_sum   'Ti11 Co8 Si4 Pd1'
_cell_volume   324.21577867
_cell_formula_units_Z   1
loop_
 _symmetry_equiv_pos_site_id
 _symmetry_equiv_pos_as_xyz
  1  'x, y, z'
loop_
 _atom_site_type_symbol
 _atom_site_label
 _atom_site_symmetry_multiplicity
 _atom_site_fract_x
 _atom_site_fract_y
 _atom_site_fract_z
 _atom_site_occupancy
  Ti  Ti0  1  0.692935  0.307065  0.307065  1
  Ti  Ti1  1  0.699106  0.692225  0.309636  1
  Ti  Ti2  1  0.699106  0.309636  0.692225  1
  Ti  Ti3  1  0.557628  0.940886  0.557135  1
  Ti  Ti4  1  0.551223  0.948777  0.948777  1
  Ti  Ti5  1  0.299033  0.692225  0.309636  1
  Ti  Ti6  1  0.306496  0.693504  0.693504  1
  Ti  Ti7  1  0.944351  0.940886  0.557135  1
  Ti  Ti8  1  0.944351  0.557135  0.940886  1
  Ti  Ti9  1  0.557628  0.557135  0.940886  1
  Ti  Ti10  1  0.299033  0.309636  0.692225  1
  Co  Co11  1  0.338831  0.985609  0.336729  1
  Co  Co12  1  0.338831  0.336729  0.985609  1
  Co  Co13  1  0.913836  0.248460  0.923869  1
  Co  Co14  1  0.913836  0.923869  0.248460  1
  Co  Co15  1  0.992271  0.333476  0.333476  1
  Co  Co16  1  0.911682  0.912078  0.912078  1
  Co  Co17  1  0.264162  0.912078  0.912078  1
  Co  Co18  1  0.340776  0.333476  0.333476  1
  Si  Si19  1  0.125513  0.126250  0.126250  1
  Si  Si20  1  0.125037  0.125626  0.624299  1
  Si  Si21  1  0.125037  0.624299  0.125626  1
  Si  Si22  1  0.621988  0.126250  0.126250  1
  Pd  Pd23  1  0.937309  0.562691  0.562691  1
