# generated using pymatgen
data_Ho2PaAlIn2Ir3
_symmetry_space_group_name_H-M   'P 1'
_cell_length_a   7.41080726
_cell_length_b   7.42210345
_cell_length_c   3.85067700
_cell_angle_alpha   90.00000000
_cell_angle_beta   90.00000000
_cell_angle_gamma   117.92310793
_symmetry_Int_Tables_number   1
_chemical_formula_structural   Ho2PaAlIn2Ir3
_chemical_formula_sum   'Ho2 Pa1 Al1 In2 Ir3'
_cell_volume   187.14314981
_cell_formula_units_Z   1
loop_
 _symmetry_equiv_pos_site_id
 _symmetry_equiv_pos_as_xyz
  1  'x, y, z'
loop_
 _atom_site_type_symbol
 _atom_site_label
 _atom_site_symmetry_multiplicity
 _atom_site_fract_x
 _atom_site_fract_y
 _atom_site_fract_z
 _atom_site_occupancy
  Ho  Ho0  1  0.397483  0.991159  0.000000  1
  Ho  Ho1  1  0.005157  0.421711  0.000000  1
  Pa  Pa2  1  0.588917  0.587960  0.000000  1
  Al  Al3  1  0.004345  0.743761  0.500000  1
  In  In4  1  0.240705  0.241137  0.500000  1
  In  In5  1  0.747912  0.016841  0.500000  1
  Ir  Ir6  1  0.987056  0.955050  0.000000  1
  Ir  Ir7  1  0.677329  0.375075  0.500000  1
  Ir  Ir8  1  0.351094  0.667305  0.500000  1
