# generated using pymatgen
data_Ti2Al2PdRu3
_symmetry_space_group_name_H-M   'P 1'
_cell_length_a   4.33620200
_cell_length_b   6.16414016
_cell_length_c   12.91030652
_cell_angle_alpha   90.09589700
_cell_angle_beta   90.00015478
_cell_angle_gamma   89.99986880
_symmetry_Int_Tables_number   1
_chemical_formula_structural   Ti2Al2PdRu3
_chemical_formula_sum   'Ti6 Al6 Pd3 Ru9'
_cell_volume   345.07854300
_cell_formula_units_Z   3
loop_
 _symmetry_equiv_pos_site_id
 _symmetry_equiv_pos_as_xyz
  1  'x, y, z'
loop_
 _atom_site_type_symbol
 _atom_site_label
 _atom_site_symmetry_multiplicity
 _atom_site_fract_x
 _atom_site_fract_y
 _atom_site_fract_z
 _atom_site_occupancy
  Ti  Ti0  1  0.000049  0.999374  0.010197  1
  Ti  Ti1  1  0.500110  0.501025  0.168417  1
  Ti  Ti2  1  0.000112  0.999057  0.332179  1
  Ti  Ti3  1  0.500017  0.495878  0.492939  1
  Ti  Ti4  1  0.999899  0.011141  0.655861  1
  Ti  Ti5  1  0.499870  0.495220  0.840678  1
  Al  Al6  1  0.000024  0.499956  0.005433  1
  Al  Al7  1  0.500114  0.999751  0.168003  1
  Al  Al8  1  0.000099  0.499794  0.332444  1
  Al  Al9  1  0.500003  0.003079  0.496134  1
  Al  Al10  1  0.999875  0.495824  0.662470  1
  Al  Al11  1  0.499868  0.001896  0.835666  1
  Pd  Pd12  1  0.499877  0.748972  0.668623  1
  Pd  Pd13  1  0.999847  0.250144  0.832975  1
  Pd  Pd14  1  0.999904  0.749935  0.831435  1
  Ru  Ru15  1  0.500020  0.250414  0.997097  1
  Ru  Ru16  1  0.500025  0.749963  0.996024  1
  Ru  Ru17  1  0.000112  0.249533  0.165721  1
  Ru  Ru18  1  0.000089  0.750451  0.165777  1
  Ru  Ru19  1  0.500124  0.250650  0.333289  1
  Ru  Ru20  1  0.500077  0.749519  0.334211  1
  Ru  Ru21  1  0.000008  0.250495  0.501676  1
  Ru  Ru22  1  0.999994  0.750538  0.502458  1
  Ru  Ru23  1  0.499888  0.247395  0.670293  1
