# generated using pymatgen
data_Th6Al24Ru6PtRh
_symmetry_space_group_name_H-M   'P 1'
_cell_length_a   8.98853959
_cell_length_b   8.98853956
_cell_length_c   9.57268304
_cell_angle_alpha   89.98947185
_cell_angle_beta   90.01052582
_cell_angle_gamma   119.74194578
_symmetry_Int_Tables_number   1
_chemical_formula_structural   Th6Al24Ru6PtRh
_chemical_formula_sum   'Th6 Al24 Ru6 Pt1 Rh1'
_cell_volume   671.53092121
_cell_formula_units_Z   1
loop_
 _symmetry_equiv_pos_site_id
 _symmetry_equiv_pos_as_xyz
  1  'x, y, z'
loop_
 _atom_site_type_symbol
 _atom_site_label
 _atom_site_symmetry_multiplicity
 _atom_site_fract_x
 _atom_site_fract_y
 _atom_site_fract_z
 _atom_site_occupancy
  Th  Th0  1  0.193628  0.806372  0.248763  1
  Th  Th1  1  0.188537  0.386234  0.249609  1
  Th  Th2  1  0.613766  0.811463  0.249609  1
  Th  Th3  1  0.806372  0.193628  0.751237  1
  Th  Th4  1  0.811463  0.613766  0.750391  1
  Th  Th5  1  0.386234  0.188537  0.750391  1
  Al  Al6  1  0.563503  0.436497  0.247335  1
  Al  Al7  1  0.562787  0.128178  0.250137  1
  Al  Al8  1  0.871822  0.437213  0.250137  1
  Al  Al9  1  0.436497  0.563503  0.752665  1
  Al  Al10  1  0.437213  0.871822  0.749863  1
  Al  Al11  1  0.128178  0.562787  0.749863  1
  Al  Al12  1  0.323454  0.158040  0.422357  1
  Al  Al13  1  0.836866  0.163134  0.421880  1
  Al  Al14  1  0.841960  0.676546  0.422357  1
  Al  Al15  1  0.676546  0.841960  0.577643  1
  Al  Al16  1  0.163134  0.836866  0.578120  1
  Al  Al17  1  0.158040  0.323454  0.577643  1
  Al  Al18  1  0.675462  0.838450  0.922783  1
  Al  Al19  1  0.163322  0.836678  0.922097  1
  Al  Al20  1  0.161550  0.324538  0.922783  1
  Al  Al21  1  0.324538  0.161550  0.077217  1
  Al  Al22  1  0.836678  0.163322  0.077903  1
  Al  Al23  1  0.838450  0.675462  0.077217  1
  Al  Al24  1  0.668913  0.331087  0.515717  1
  Al  Al25  1  0.331087  0.668913  0.484283  1
  Al  Al26  1  0.332733  0.667267  0.014627  1
  Al  Al27  1  0.667267  0.332733  0.985373  1
  Al  Al28  1  0.999001  0.000999  0.249873  1
  Al  Al29  1  0.000999  0.999001  0.750127  1
  Ru  Ru30  1  0.000000  0.000000  0.500000  1
  Ru  Ru31  1  0.000000  0.000000  0.000000  1
  Ru  Ru32  1  0.500000  0.000000  0.500000  1
  Ru  Ru33  1  0.000000  0.500000  0.500000  1
  Ru  Ru34  1  0.500000  0.000000  0.000000  1
  Ru  Ru35  1  0.000000  0.500000  0.000000  1
  Pt  Pt36  1  0.500000  0.500000  0.500000  1
  Rh  Rh37  1  0.500000  0.500000  0.000000  1
