# generated using pymatgen
data_Rb2TmP2Se7
_symmetry_space_group_name_H-M   'P 1'
_cell_length_a   9.74293262
_cell_length_b   9.74293318
_cell_length_c   9.34464200
_cell_angle_alpha   74.81078385
_cell_angle_beta   74.81077687
_cell_angle_gamma   71.58952473
_symmetry_Int_Tables_number   1
_chemical_formula_structural   Rb2TmP2Se7
_chemical_formula_sum   'Rb4 Tm2 P4 Se14'
_cell_volume   796.51904650
_cell_formula_units_Z   2
loop_
 _symmetry_equiv_pos_site_id
 _symmetry_equiv_pos_as_xyz
  1  'x, y, z'
loop_
 _atom_site_type_symbol
 _atom_site_label
 _atom_site_symmetry_multiplicity
 _atom_site_fract_x
 _atom_site_fract_y
 _atom_site_fract_z
 _atom_site_occupancy
  Rb  Rb0  1  0.609918  0.048240  0.162486  1
  Rb  Rb1  1  0.951760  0.390082  0.837514  1
  Rb  Rb2  1  0.390082  0.951760  0.837514  1
  Rb  Rb3  1  0.048240  0.609918  0.162486  1
  Tm  Tm4  1  0.681057  0.318943  0.500000  1
  Tm  Tm5  1  0.318943  0.681057  0.500000  1
  P  P6  1  0.944938  0.944938  0.440146  1
  P  P7  1  0.055062  0.055062  0.559854  1
  P  P8  1  0.390977  0.390977  0.818176  1
  P  P9  1  0.609023  0.609023  0.181824  1
  Se  Se10  1  0.696062  0.367359  0.187918  1
  Se  Se11  1  0.632641  0.303938  0.812082  1
  Se  Se12  1  0.303938  0.632641  0.812082  1
  Se  Se13  1  0.367359  0.696062  0.187918  1
  Se  Se14  1  0.002875  0.002875  0.196450  1
  Se  Se15  1  0.997125  0.997125  0.803550  1
  Se  Se16  1  0.703056  0.018717  0.530120  1
  Se  Se17  1  0.981283  0.296944  0.469880  1
  Se  Se18  1  0.296944  0.981283  0.469880  1
  Se  Se19  1  0.018717  0.703056  0.530120  1
  Se  Se20  1  0.267104  0.267104  0.008498  1
  Se  Se21  1  0.732896  0.732896  0.991502  1
  Se  Se22  1  0.363735  0.363735  0.590045  1
  Se  Se23  1  0.636265  0.636265  0.409955  1
