# generated using pymatgen
data_PrNdNi10
_symmetry_space_group_name_H-M   'P 1'
_cell_length_a   3.97163000
_cell_length_b   4.95525000
_cell_length_c   8.63057500
_cell_angle_alpha   90.00000000
_cell_angle_beta   90.00000000
_cell_angle_gamma   90.00000000
_symmetry_Int_Tables_number   1
_chemical_formula_structural   PrNdNi10
_chemical_formula_sum   'Pr1 Nd1 Ni10'
_cell_volume   169.85333702
_cell_formula_units_Z   1
loop_
 _symmetry_equiv_pos_site_id
 _symmetry_equiv_pos_as_xyz
  1  'x, y, z'
loop_
 _atom_site_type_symbol
 _atom_site_label
 _atom_site_symmetry_multiplicity
 _atom_site_fract_x
 _atom_site_fract_y
 _atom_site_fract_z
 _atom_site_occupancy
  Pr  Pr0  1  0.000000  0.500000  0.500000  1
  Nd  Nd1  1  0.000000  0.000000  0.000000  1
  Ni  Ni2  1  0.000000  0.000000  0.332308  1
  Ni  Ni3  1  0.000000  0.500000  0.833606  1
  Ni  Ni4  1  0.000000  0.500000  0.166394  1
  Ni  Ni5  1  0.000000  0.000000  0.667692  1
  Ni  Ni6  1  0.500000  0.500000  0.000000  1
  Ni  Ni7  1  0.500000  0.000000  0.500000  1
  Ni  Ni8  1  0.500000  0.249604  0.249398  1
  Ni  Ni9  1  0.500000  0.750396  0.750602  1
  Ni  Ni10  1  0.500000  0.750396  0.249398  1
  Ni  Ni11  1  0.500000  0.249604  0.750602  1
