# generated using pymatgen
data_V12Re5Mo6Ir
_symmetry_space_group_name_H-M   'P 1'
_cell_length_a   4.29281100
_cell_length_b   6.10289000
_cell_length_c   13.06696400
_cell_angle_alpha   90.00000000
_cell_angle_beta   89.99994281
_cell_angle_gamma   90.00000000
_symmetry_Int_Tables_number   1
_chemical_formula_structural   V12Re5Mo6Ir
_chemical_formula_sum   'V12 Re5 Mo6 Ir1'
_cell_volume   342.33555313
_cell_formula_units_Z   1
loop_
 _symmetry_equiv_pos_site_id
 _symmetry_equiv_pos_as_xyz
  1  'x, y, z'
loop_
 _atom_site_type_symbol
 _atom_site_label
 _atom_site_symmetry_multiplicity
 _atom_site_fract_x
 _atom_site_fract_y
 _atom_site_fract_z
 _atom_site_occupancy
  V  V0  1  0.500001  0.245934  0.000000  1
  V  V1  1  0.500001  0.754066  0.000000  1
  V  V2  1  0.000024  0.248421  0.167621  1
  V  V3  1  0.000024  0.751579  0.167621  1
  V  V4  1  0.500021  0.250430  0.333088  1
  V  V5  1  0.500021  0.749571  0.333088  1
  V  V6  1  0.000000  0.250299  0.500000  1
  V  V7  1  0.000000  0.749700  0.500000  1
  V  V8  1  0.499980  0.250430  0.666912  1
  V  V9  1  0.499980  0.749571  0.666912  1
  V  V10  1  0.999976  0.248421  0.832379  1
  V  V11  1  0.999976  0.751579  0.832379  1
  Re  Re12  1  0.500019  0.000000  0.166480  1
  Re  Re13  1  0.000021  0.499999  0.332953  1
  Re  Re14  1  0.499999  0.000000  0.500000  1
  Re  Re15  1  0.999979  0.499999  0.667047  1
  Re  Re16  1  0.499982  0.000000  0.833521  1
  Mo  Mo17  1  0.000000  0.000000  0.000000  1
  Mo  Mo18  1  0.500014  0.499999  0.165069  1
  Mo  Mo19  1  0.000028  0.000000  0.333733  1
  Mo  Mo20  1  0.499999  0.499999  0.500000  1
  Mo  Mo21  1  0.999972  0.000000  0.666266  1
  Mo  Mo22  1  0.499986  0.499999  0.834931  1
  Ir  Ir23  1  0.000000  0.499999  0.000000  1
