# generated using pymatgen
data_DyY2Hg3Pd2
_symmetry_space_group_name_H-M   'P 1'
_cell_length_a   7.62143100
_cell_length_b   7.65285719
_cell_length_c   3.71182600
_cell_angle_alpha   90.00000000
_cell_angle_beta   90.00000000
_cell_angle_gamma   120.13649936
_symmetry_Int_Tables_number   1
_chemical_formula_structural   DyY2Hg3Pd2
_chemical_formula_sum   'Dy1 Y2 Hg3 Pd2'
_cell_volume   187.23169718
_cell_formula_units_Z   1
loop_
 _symmetry_equiv_pos_site_id
 _symmetry_equiv_pos_as_xyz
  1  'x, y, z'
loop_
 _atom_site_type_symbol
 _atom_site_label
 _atom_site_symmetry_multiplicity
 _atom_site_fract_x
 _atom_site_fract_y
 _atom_site_fract_z
 _atom_site_occupancy
  Dy  Dy0  1  0.000000  0.584079  0.500000  1
  Y  Y1  1  0.584833  0.999752  0.500000  1
  Y  Y2  1  0.415166  0.414918  0.500000  1
  Hg  Hg3  1  0.235665  0.999554  0.000000  1
  Hg  Hg4  1  0.000000  0.236660  0.000000  1
  Hg  Hg5  1  0.764335  0.763889  0.000000  1
  Pd  Pd6  1  0.669199  0.335174  0.000000  1
  Pd  Pd7  1  0.330801  0.665974  0.000000  1
