# generated using pymatgen
data_Tb3Y(Si4Tc3)2
_symmetry_space_group_name_H-M   'P 1'
_cell_length_a   6.80564437
_cell_length_b   6.80606121
_cell_length_c   6.78936134
_cell_angle_alpha   69.78490650
_cell_angle_beta   90.03534211
_cell_angle_gamma   89.99909858
_symmetry_Int_Tables_number   1
_chemical_formula_structural   Tb3Y(Si4Tc3)2
_chemical_formula_sum   'Tb3 Y1 Si8 Tc6'
_cell_volume   295.10928049
_cell_formula_units_Z   1
loop_
 _symmetry_equiv_pos_site_id
 _symmetry_equiv_pos_as_xyz
  1  'x, y, z'
loop_
 _atom_site_type_symbol
 _atom_site_label
 _atom_site_symmetry_multiplicity
 _atom_site_fract_x
 _atom_site_fract_y
 _atom_site_fract_z
 _atom_site_occupancy
  Tb  Tb0  1  0.167178  0.942038  0.191116  1
  Tb  Tb1  1  0.332708  0.441955  0.191264  1
  Tb  Tb2  1  0.832773  0.057976  0.808863  1
  Y  Y3  1  0.667627  0.558253  0.808488  1
  Si  Si4  1  0.552271  0.121519  0.103331  1
  Si  Si5  1  0.358072  0.630670  0.514161  1
  Si  Si6  1  0.857849  0.868995  0.486214  1
  Si  Si7  1  0.052049  0.378838  0.896402  1
  Si  Si8  1  0.142060  0.130832  0.514000  1
  Si  Si9  1  0.642026  0.369288  0.486306  1
  Si  Si10  1  0.947663  0.621226  0.103430  1
  Si  Si11  1  0.447699  0.878708  0.896386  1
  Tc  Tc12  1  0.849765  0.242567  0.240673  1
  Tc  Tc13  1  0.349896  0.257519  0.759462  1
  Tc  Tc14  1  0.150071  0.757328  0.759306  1
  Tc  Tc15  1  0.650186  0.742532  0.240555  1
  Tc  Tc16  1  0.500035  0.999760  0.500096  1
  Tc  Tc17  1  0.000072  0.499998  0.499947  1
