# generated using pymatgen
data_FeBi2Pt3O8
_symmetry_space_group_name_H-M   'P 1'
_cell_length_a   5.59112679
_cell_length_b   6.14497346
_cell_length_c   6.64111994
_cell_angle_alpha   115.10538715
_cell_angle_beta   97.15205116
_cell_angle_gamma   109.58537816
_symmetry_Int_Tables_number   1
_chemical_formula_structural   FeBi2Pt3O8
_chemical_formula_sum   'Fe1 Bi2 Pt3 O8'
_cell_volume   184.90313586
_cell_formula_units_Z   1
loop_
 _symmetry_equiv_pos_site_id
 _symmetry_equiv_pos_as_xyz
  1  'x, y, z'
loop_
 _atom_site_type_symbol
 _atom_site_label
 _atom_site_symmetry_multiplicity
 _atom_site_fract_x
 _atom_site_fract_y
 _atom_site_fract_z
 _atom_site_occupancy
  Fe  Fe0  1  0.500000  0.500000  0.000000  1
  Bi  Bi1  1  0.853111  0.249043  0.653091  1
  Bi  Bi2  1  0.146889  0.750957  0.346909  1
  Pt  Pt3  1  0.500000  0.500000  0.500000  1
  Pt  Pt4  1  0.500000  0.000000  0.000000  1
  Pt  Pt5  1  0.000000  0.000000  0.000000  1
  O  O6  1  0.646922  0.398991  0.228098  1
  O  O7  1  0.353078  0.601009  0.771902  1
  O  O8  1  0.877255  0.649894  0.995264  1
  O  O9  1  0.122745  0.350106  0.004736  1
  O  O10  1  0.522154  0.870113  0.239999  1
  O  O11  1  0.477846  0.129887  0.760001  1
  O  O12  1  0.840856  0.853585  0.648253  1
  O  O13  1  0.159144  0.146415  0.351747  1
