# generated using pymatgen
data_Y2B2Ir5
_symmetry_space_group_name_H-M   'P 1'
_cell_length_a   11.02515864
_cell_length_b   11.02515831
_cell_length_c   11.02515935
_cell_angle_alpha   28.79018920
_cell_angle_beta   28.79019124
_cell_angle_gamma   28.79019402
_symmetry_Int_Tables_number   1
_chemical_formula_structural   Y2B2Ir5
_chemical_formula_sum   'Y4 B4 Ir10'
_cell_volume   274.85067260
_cell_formula_units_Z   2
loop_
 _symmetry_equiv_pos_site_id
 _symmetry_equiv_pos_as_xyz
  1  'x, y, z'
loop_
 _atom_site_type_symbol
 _atom_site_label
 _atom_site_symmetry_multiplicity
 _atom_site_fract_x
 _atom_site_fract_y
 _atom_site_fract_z
 _atom_site_occupancy
  Y  Y0  1  0.152085  0.152085  0.152085  1
  Y  Y1  1  0.950257  0.950257  0.950257  1
  Y  Y2  1  0.847915  0.847915  0.847915  1
  Y  Y3  1  0.049743  0.049743  0.049743  1
  B  B4  1  0.617550  0.617550  0.617550  1
  B  B5  1  0.716105  0.716105  0.716105  1
  B  B6  1  0.382450  0.382450  0.382450  1
  B  B7  1  0.283895  0.283895  0.283895  1
  Ir  Ir8  1  0.405910  0.899659  0.405910  1
  Ir  Ir9  1  0.899659  0.405910  0.405910  1
  Ir  Ir10  1  0.500000  0.500000  0.000000  1
  Ir  Ir11  1  0.500000  0.000000  0.500000  1
  Ir  Ir12  1  0.000000  0.500000  0.500000  1
  Ir  Ir13  1  0.500000  0.500000  0.500000  1
  Ir  Ir14  1  0.594090  0.100341  0.594090  1
  Ir  Ir15  1  0.594090  0.594090  0.100341  1
  Ir  Ir16  1  0.100341  0.594090  0.594090  1
  Ir  Ir17  1  0.405910  0.405910  0.899659  1
