# generated using pymatgen
data_Hf6UTa5Tc12
_symmetry_space_group_name_H-M   'P 1'
_cell_length_a   4.56798600
_cell_length_b   6.47816800
_cell_length_c   13.75404300
_cell_angle_alpha   89.99945089
_cell_angle_beta   89.99949920
_cell_angle_gamma   90.00110024
_symmetry_Int_Tables_number   1
_chemical_formula_structural   Hf6UTa5Tc12
_chemical_formula_sum   'Hf6 U1 Ta5 Tc12'
_cell_volume   407.01212616
_cell_formula_units_Z   1
loop_
 _symmetry_equiv_pos_site_id
 _symmetry_equiv_pos_as_xyz
  1  'x, y, z'
loop_
 _atom_site_type_symbol
 _atom_site_label
 _atom_site_symmetry_multiplicity
 _atom_site_fract_x
 _atom_site_fract_y
 _atom_site_fract_z
 _atom_site_occupancy
  Hf  Hf0  1  0.000000  0.000000  0.000000  1
  Hf  Hf1  1  0.499934  0.499996  0.174113  1
  Hf  Hf2  1  0.999930  0.000002  0.334111  1
  Hf  Hf3  1  0.500001  0.500000  0.500000  1
  Hf  Hf4  1  0.000069  0.999998  0.665888  1
  Hf  Hf5  1  0.500066  0.500004  0.825887  1
  U  U6  1  0.000000  0.500000  0.000000  1
  Ta  Ta7  1  0.499931  0.000001  0.170208  1
  Ta  Ta8  1  0.999941  0.499999  0.336621  1
  Ta  Ta9  1  0.500001  0.000000  0.500000  1
  Ta  Ta10  1  0.000059  0.500001  0.663379  1
  Ta  Ta11  1  0.500068  0.999999  0.829792  1
  Tc  Tc12  1  0.499996  0.254994  0.000001  1
  Tc  Tc13  1  0.500006  0.745007  0.999999  1
  Tc  Tc14  1  0.999930  0.251127  0.164784  1
  Tc  Tc15  1  0.999930  0.748869  0.164780  1
  Tc  Tc16  1  0.499933  0.249220  0.333108  1
  Tc  Tc17  1  0.499934  0.750779  0.333108  1
  Tc  Tc18  1  0.000000  0.250274  0.499999  1
  Tc  Tc19  1  0.000000  0.749726  0.500001  1
  Tc  Tc20  1  0.500066  0.249220  0.666893  1
  Tc  Tc21  1  0.500067  0.750779  0.666893  1
  Tc  Tc22  1  0.000072  0.251132  0.835220  1
  Tc  Tc23  1  0.000072  0.748874  0.835216  1
