# generated using pymatgen
data_Dy8Tm12Si15Ge
_symmetry_space_group_name_H-M   'P 1'
_cell_length_a   7.33097807
_cell_length_b   7.63417308
_cell_length_c   14.45855437
_cell_angle_alpha   90.02937940
_cell_angle_beta   89.76059063
_cell_angle_gamma   90.07070820
_symmetry_Int_Tables_number   1
_chemical_formula_structural   Dy8Tm12Si15Ge
_chemical_formula_sum   'Dy8 Tm12 Si15 Ge1'
_cell_volume   809.17902586
_cell_formula_units_Z   1
loop_
 _symmetry_equiv_pos_site_id
 _symmetry_equiv_pos_as_xyz
  1  'x, y, z'
loop_
 _atom_site_type_symbol
 _atom_site_label
 _atom_site_symmetry_multiplicity
 _atom_site_fract_x
 _atom_site_fract_y
 _atom_site_fract_z
 _atom_site_occupancy
  Dy  Dy0  1  0.016502  0.179171  0.097056  1
  Dy  Dy1  1  0.983526  0.821115  0.902689  1
  Dy  Dy2  1  0.484084  0.679257  0.902593  1
  Dy  Dy3  1  0.983603  0.821496  0.597656  1
  Dy  Dy4  1  0.516219  0.320957  0.097266  1
  Dy  Dy5  1  0.014562  0.178408  0.402278  1
  Dy  Dy6  1  0.516266  0.319820  0.401930  1
  Dy  Dy7  1  0.487309  0.680597  0.597941  1
  Tm  Tm8  1  0.162633  0.509969  0.751106  1
  Tm  Tm9  1  0.837126  0.489843  0.250192  1
  Tm  Tm10  1  0.337650  0.010111  0.249986  1
  Tm  Tm11  1  0.662554  0.990156  0.750079  1
  Tm  Tm12  1  0.332011  0.175975  0.624340  1
  Tm  Tm13  1  0.668961  0.822141  0.376298  1
  Tm  Tm14  1  0.167953  0.679127  0.376829  1
  Tm  Tm15  1  0.670221  0.820677  0.122914  1
  Tm  Tm16  1  0.829930  0.322138  0.623023  1
  Tm  Tm17  1  0.329591  0.178769  0.876831  1
  Tm  Tm18  1  0.829364  0.320992  0.876815  1
  Tm  Tm19  1  0.170252  0.679120  0.123061  1
  Si  Si20  1  0.035083  0.107908  0.750125  1
  Si  Si21  1  0.964572  0.892965  0.249588  1
  Si  Si22  1  0.463687  0.607637  0.249641  1
  Si  Si23  1  0.535384  0.392801  0.750374  1
  Si  Si24  1  0.280283  0.871351  0.750487  1
  Si  Si25  1  0.720228  0.127746  0.249406  1
  Si  Si26  1  0.219690  0.372364  0.249798  1
  Si  Si27  1  0.780860  0.628266  0.750164  1
  Si  Si28  1  0.833402  0.533201  0.460008  1
  Si  Si29  1  0.339820  0.968075  0.460888  1
  Si  Si30  1  0.841495  0.531742  0.038991  1
  Si  Si31  1  0.660274  0.032264  0.539219  1
  Si  Si32  1  0.158484  0.468186  0.960922  1
  Si  Si33  1  0.658396  0.031843  0.960846  1
  Si  Si34  1  0.341449  0.968188  0.039077  1
  Ge  Ge35  1  0.166578  0.465623  0.539582  1
