# generated using pymatgen
data_La8Ho12Sn9Pb7
_symmetry_space_group_name_H-M   'P 1'
_cell_length_a   8.28060568
_cell_length_b   8.40211290
_cell_length_c   15.89034400
_cell_angle_alpha   90.02973858
_cell_angle_beta   89.94599506
_cell_angle_gamma   89.96289744
_symmetry_Int_Tables_number   1
_chemical_formula_structural   La8Ho12Sn9Pb7
_chemical_formula_sum   'La8 Ho12 Sn9 Pb7'
_cell_volume   1105.56319739
_cell_formula_units_Z   1
loop_
 _symmetry_equiv_pos_site_id
 _symmetry_equiv_pos_as_xyz
  1  'x, y, z'
loop_
 _atom_site_type_symbol
 _atom_site_label
 _atom_site_symmetry_multiplicity
 _atom_site_fract_x
 _atom_site_fract_y
 _atom_site_fract_z
 _atom_site_occupancy
  La  La0  1  0.520458  0.323182  0.901971  1
  La  La1  1  0.019341  0.177980  0.599557  1
  La  La2  1  0.481257  0.678038  0.400515  1
  La  La3  1  0.981104  0.819741  0.098543  1
  La  La4  1  0.483694  0.676009  0.098545  1
  La  La5  1  0.980875  0.821670  0.400506  1
  La  La6  1  0.518700  0.321957  0.599222  1
  La  La7  1  0.017419  0.179783  0.901538  1
  Ho  Ho8  1  0.360593  0.839564  0.874624  1
  Ho  Ho9  1  0.861379  0.660785  0.625249  1
  Ho  Ho10  1  0.638414  0.160742  0.374493  1
  Ho  Ho11  1  0.136695  0.339087  0.124618  1
  Ho  Ho12  1  0.640045  0.163408  0.124621  1
  Ho  Ho13  1  0.137754  0.339230  0.374678  1
  Ho  Ho14  1  0.361346  0.839812  0.625748  1
  Ho  Ho15  1  0.860669  0.659245  0.876118  1
  Ho  Ho16  1  0.194945  0.504329  0.750358  1
  Ho  Ho17  1  0.694794  0.995832  0.749874  1
  Ho  Ho18  1  0.804512  0.495603  0.247987  1
  Ho  Ho19  1  0.305388  0.004133  0.249929  1
  Sn  Sn20  1  0.802873  0.457740  0.043353  1
  Sn  Sn21  1  0.558080  0.628056  0.750294  1
  Sn  Sn22  1  0.057216  0.871529  0.750793  1
  Sn  Sn23  1  0.441211  0.372031  0.249986  1
  Sn  Sn24  1  0.942103  0.126906  0.249708  1
  Sn  Sn25  1  0.326243  0.143927  0.750706  1
  Sn  Sn26  1  0.826040  0.357191  0.750059  1
  Sn  Sn27  1  0.674026  0.857305  0.249576  1
  Sn  Sn28  1  0.174431  0.642571  0.249537  1
  Pb  Pb29  1  0.301734  0.041799  0.042672  1
  Pb  Pb30  1  0.800687  0.457378  0.457077  1
  Pb  Pb31  1  0.699160  0.957804  0.542697  1
  Pb  Pb32  1  0.199180  0.542651  0.957407  1
  Pb  Pb33  1  0.698055  0.957681  0.957401  1
  Pb  Pb34  1  0.199001  0.542898  0.542749  1
  Pb  Pb35  1  0.300579  0.042401  0.457292  1
