# generated using pymatgen
data_Tb2Er6Zn3Si12Pt
_symmetry_space_group_name_H-M   'P 1'
_cell_length_a   8.10547600
_cell_length_b   8.10547589
_cell_length_c   8.02318600
_cell_angle_alpha   90.00000000
_cell_angle_beta   90.00000000
_cell_angle_gamma   120.00000044
_symmetry_Int_Tables_number   1
_chemical_formula_structural   Tb2Er6Zn3Si12Pt
_chemical_formula_sum   'Tb2 Er6 Zn3 Si12 Pt1'
_cell_volume   456.49343145
_cell_formula_units_Z   1
loop_
 _symmetry_equiv_pos_site_id
 _symmetry_equiv_pos_as_xyz
  1  'x, y, z'
loop_
 _atom_site_type_symbol
 _atom_site_label
 _atom_site_symmetry_multiplicity
 _atom_site_fract_x
 _atom_site_fract_y
 _atom_site_fract_z
 _atom_site_occupancy
  Tb  Tb0  1  0.000000  0.000000  0.249236  1
  Tb  Tb1  1  0.000000  0.000000  0.751295  1
  Er  Er2  1  0.500464  0.000928  0.248977  1
  Er  Er3  1  0.499247  0.998493  0.750791  1
  Er  Er4  1  0.999072  0.499536  0.248977  1
  Er  Er5  1  0.001507  0.500753  0.750791  1
  Er  Er6  1  0.500464  0.499536  0.248977  1
  Er  Er7  1  0.499247  0.500753  0.750791  1
  Zn  Zn8  1  0.333333  0.666667  0.004023  1
  Zn  Zn9  1  0.666667  0.333333  0.994780  1
  Zn  Zn10  1  0.666667  0.333333  0.500195  1
  Si  Si11  1  0.167030  0.334061  0.997938  1
  Si  Si12  1  0.832463  0.664926  0.002255  1
  Si  Si13  1  0.665939  0.832970  0.997938  1
  Si  Si14  1  0.834325  0.668648  0.502069  1
  Si  Si15  1  0.335074  0.167537  0.002255  1
  Si  Si16  1  0.167133  0.334264  0.498090  1
  Si  Si17  1  0.167030  0.832970  0.997938  1
  Si  Si18  1  0.331352  0.165675  0.502069  1
  Si  Si19  1  0.832463  0.167537  0.002255  1
  Si  Si20  1  0.665736  0.832867  0.498090  1
  Si  Si21  1  0.834325  0.165675  0.502069  1
  Si  Si22  1  0.167133  0.832867  0.498090  1
  Pt  Pt23  1  0.333333  0.666667  0.500109  1
