# generated using pymatgen
data_Zr8Mn10Si16OsRu
_symmetry_space_group_name_H-M   'P 1'
_cell_length_a   9.80212464
_cell_length_b   9.80947662
_cell_length_c   13.15943084
_cell_angle_alpha   53.78266469
_cell_angle_beta   53.76450017
_cell_angle_gamma   30.73289550
_symmetry_Int_Tables_number   1
_chemical_formula_structural   Zr8Mn10Si16OsRu
_chemical_formula_sum   'Zr8 Mn10 Si16 Os1 Ru1'
_cell_volume   510.94652463
_cell_formula_units_Z   1
loop_
 _symmetry_equiv_pos_site_id
 _symmetry_equiv_pos_as_xyz
  1  'x, y, z'
loop_
 _atom_site_type_symbol
 _atom_site_label
 _atom_site_symmetry_multiplicity
 _atom_site_fract_x
 _atom_site_fract_y
 _atom_site_fract_z
 _atom_site_occupancy
  Zr  Zr0  1  0.035222  0.291994  0.642331  1
  Zr  Zr1  1  0.706340  0.963886  0.859778  1
  Zr  Zr2  1  0.967146  0.707758  0.355732  1
  Zr  Zr3  1  0.293863  0.038724  0.139707  1
  Zr  Zr4  1  0.295616  0.558989  0.644253  1
  Zr  Zr5  1  0.434917  0.706423  0.859869  1
  Zr  Zr6  1  0.706738  0.443330  0.349006  1
  Zr  Zr7  1  0.566529  0.292429  0.142413  1
  Mn  Mn8  1  0.851136  0.106567  0.917638  1
  Mn  Mn9  1  0.107815  0.850560  0.416343  1
  Mn  Mn10  1  0.149683  0.893057  0.083348  1
  Mn  Mn11  1  0.833933  0.645852  0.775322  1
  Mn  Mn12  1  0.351143  0.163922  0.728836  1
  Mn  Mn13  1  0.163400  0.356171  0.225646  1
  Mn  Mn14  1  0.646990  0.836625  0.272400  1
  Mn  Mn15  1  0.241506  0.512675  0.938501  1
  Mn  Mn16  1  0.486161  0.756350  0.564808  1
  Mn  Mn17  1  0.756850  0.486503  0.062347  1
  Si  Si18  1  0.968009  0.254308  0.897898  1
  Si  Si19  1  0.743004  0.023724  0.605463  1
  Si  Si20  1  0.035149  0.743288  0.101609  1
  Si  Si21  1  0.259176  0.968470  0.391774  1
  Si  Si22  1  0.136414  0.393573  0.896775  1
  Si  Si23  1  0.605675  0.858585  0.607141  1
  Si  Si24  1  0.865804  0.609210  0.100552  1
  Si  Si25  1  0.390744  0.135186  0.395371  1
  Si  Si26  1  0.083943  0.573916  0.565951  1
  Si  Si27  1  0.425242  0.914615  0.936576  1
  Si  Si28  1  0.909696  0.436253  0.431932  1
  Si  Si29  1  0.571797  0.090211  0.063990  1
  Si  Si30  1  0.606864  0.389715  0.756267  1
  Si  Si31  1  0.384187  0.620957  0.246215  1
  Si  Si32  1  0.123522  0.872856  0.755993  1
  Si  Si33  1  0.888814  0.116332  0.246974  1
  Os  Os34  1  0.891280  0.148276  0.584865  1
  Ru  Ru35  1  0.515693  0.238708  0.436379  1
