# generated using pymatgen
data_TbEr2Sn3Pd2Ru
_symmetry_space_group_name_H-M   'P 1'
_cell_length_a   7.79247993
_cell_length_b   7.79247864
_cell_length_c   3.68189700
_cell_angle_alpha   90.00000000
_cell_angle_beta   90.00000000
_cell_angle_gamma   120.28984198
_symmetry_Int_Tables_number   1
_chemical_formula_structural   TbEr2Sn3Pd2Ru
_chemical_formula_sum   'Tb1 Er2 Sn3 Pd2 Ru1'
_cell_volume   193.05352594
_cell_formula_units_Z   1
loop_
 _symmetry_equiv_pos_site_id
 _symmetry_equiv_pos_as_xyz
  1  'x, y, z'
loop_
 _atom_site_type_symbol
 _atom_site_label
 _atom_site_symmetry_multiplicity
 _atom_site_fract_x
 _atom_site_fract_y
 _atom_site_fract_z
 _atom_site_occupancy
  Tb  Tb0  1  0.395414  0.395414  0.500000  1
  Er  Er1  1  0.606485  0.999025  0.500000  1
  Er  Er2  1  0.999025  0.606485  0.500000  1
  Sn  Sn3  1  0.733521  0.733521  0.000000  1
  Sn  Sn4  1  0.265575  0.997981  0.000000  1
  Sn  Sn5  1  0.997981  0.265575  0.000000  1
  Pd  Pd6  1  0.669509  0.332583  0.000000  1
  Pd  Pd7  1  0.332583  0.669509  0.000000  1
  Ru  Ru8  1  0.999906  0.999906  0.500000  1
