# generated using pymatgen
data_Nb12Re6Tc5Mo
_symmetry_space_group_name_H-M   'P 1'
_cell_length_a   4.51721400
_cell_length_b   6.40430600
_cell_length_c   13.67791400
_cell_angle_alpha   90.00000000
_cell_angle_beta   90.00111522
_cell_angle_gamma   90.00000000
_symmetry_Int_Tables_number   1
_chemical_formula_structural   Nb12Re6Tc5Mo
_chemical_formula_sum   'Nb12 Re6 Tc5 Mo1'
_cell_volume   395.69686427
_cell_formula_units_Z   1
loop_
 _symmetry_equiv_pos_site_id
 _symmetry_equiv_pos_as_xyz
  1  'x, y, z'
loop_
 _atom_site_type_symbol
 _atom_site_label
 _atom_site_symmetry_multiplicity
 _atom_site_fract_x
 _atom_site_fract_y
 _atom_site_fract_z
 _atom_site_occupancy
  Nb  Nb0  1  0.499999  0.250046  0.000000  1
  Nb  Nb1  1  0.499999  0.749953  0.000000  1
  Nb  Nb2  1  0.999965  0.249767  0.166282  1
  Nb  Nb3  1  0.999965  0.750232  0.166282  1
  Nb  Nb4  1  0.499988  0.250083  0.333122  1
  Nb  Nb5  1  0.499988  0.749916  0.333122  1
  Nb  Nb6  1  0.000000  0.249709  0.500000  1
  Nb  Nb7  1  0.000000  0.750292  0.500000  1
  Nb  Nb8  1  0.500013  0.250083  0.666878  1
  Nb  Nb9  1  0.500013  0.749916  0.666878  1
  Nb  Nb10  1  0.000035  0.249767  0.833718  1
  Nb  Nb11  1  0.000035  0.750232  0.833718  1
  Re  Re12  1  0.000000  0.500000  0.000000  1
  Re  Re13  1  0.499972  0.000000  0.167796  1
  Re  Re14  1  0.999971  0.500000  0.333749  1
  Re  Re15  1  0.499999  0.000000  0.500000  1
  Re  Re16  1  0.000029  0.500000  0.666252  1
  Re  Re17  1  0.500029  0.000000  0.832204  1
  Tc  Tc18  1  0.499983  0.500000  0.167360  1
  Tc  Tc19  1  0.000004  0.000000  0.333837  1
  Tc  Tc20  1  0.499999  0.500000  0.500000  1
  Tc  Tc21  1  0.999996  0.000000  0.666163  1
  Tc  Tc22  1  0.500016  0.500000  0.832640  1
  Mo  Mo23  1  0.000000  0.000000  0.000000  1
