# generated using pymatgen
data_Dy3ErTm4(CdPt)2
_symmetry_space_group_name_H-M   'P 1'
_cell_length_a   9.61278331
_cell_length_b   9.61278327
_cell_length_c   9.61244000
_cell_angle_alpha   60.00117438
_cell_angle_beta   60.00117452
_cell_angle_gamma   60.01320496
_symmetry_Int_Tables_number   1
_chemical_formula_structural   Dy3ErTm4(CdPt)2
_chemical_formula_sum   'Dy6 Er2 Tm8 Cd4 Pt4'
_cell_volume   628.15667743
_cell_formula_units_Z   2
loop_
 _symmetry_equiv_pos_site_id
 _symmetry_equiv_pos_as_xyz
  1  'x, y, z'
loop_
 _atom_site_type_symbol
 _atom_site_label
 _atom_site_symmetry_multiplicity
 _atom_site_fract_x
 _atom_site_fract_y
 _atom_site_fract_z
 _atom_site_occupancy
  Dy  Dy0  1  0.936075  0.563864  0.564125  1
  Dy  Dy1  1  0.563864  0.936075  0.935936  1
  Dy  Dy2  1  0.563864  0.936075  0.564125  1
  Dy  Dy3  1  0.936075  0.563863  0.935936  1
  Dy  Dy4  1  0.564601  0.564601  0.935399  1
  Dy  Dy5  1  0.936646  0.936646  0.563353  1
  Er  Er6  1  0.352148  0.352148  0.351253  1
  Er  Er7  1  0.352148  0.352148  0.944452  1
  Tm  Tm8  1  0.353047  0.942867  0.352044  1
  Tm  Tm9  1  0.942867  0.353047  0.352044  1
  Tm  Tm10  1  0.811360  0.188623  0.189100  1
  Tm  Tm11  1  0.188623  0.811360  0.810916  1
  Tm  Tm12  1  0.188623  0.811360  0.189100  1
  Tm  Tm13  1  0.811360  0.188623  0.810916  1
  Tm  Tm14  1  0.189052  0.189052  0.810948  1
  Tm  Tm15  1  0.811334  0.811334  0.188666  1
  Cd  Cd16  1  0.581387  0.581387  0.581358  1
  Cd  Cd17  1  0.581387  0.581387  0.255868  1
  Cd  Cd18  1  0.581564  0.255184  0.581626  1
  Cd  Cd19  1  0.255184  0.581564  0.581626  1
  Pt  Pt20  1  0.142759  0.142759  0.144236  1
  Pt  Pt21  1  0.142759  0.142759  0.570248  1
  Pt  Pt22  1  0.142015  0.571261  0.143363  1
  Pt  Pt23  1  0.571261  0.142015  0.143363  1
