# generated using pymatgen
data_Tb2DyHfSn2Ir3
_symmetry_space_group_name_H-M   'P 1'
_cell_length_a   7.27807300
_cell_length_b   7.37846938
_cell_length_c   4.20319600
_cell_angle_alpha   90.00000000
_cell_angle_beta   90.00000000
_cell_angle_gamma   119.55089321
_symmetry_Int_Tables_number   1
_chemical_formula_structural   Tb2DyHfSn2Ir3
_chemical_formula_sum   'Tb2 Dy1 Hf1 Sn2 Ir3'
_cell_volume   196.35439381
_cell_formula_units_Z   1
loop_
 _symmetry_equiv_pos_site_id
 _symmetry_equiv_pos_as_xyz
  1  'x, y, z'
loop_
 _atom_site_type_symbol
 _atom_site_label
 _atom_site_symmetry_multiplicity
 _atom_site_fract_x
 _atom_site_fract_y
 _atom_site_fract_z
 _atom_site_occupancy
  Tb  Tb0  1  0.995384  0.584065  0.000000  1
  Tb  Tb1  1  0.411319  0.415935  0.000000  1
  Dy  Dy2  1  0.603181  0.000000  0.000000  1
  Hf  Hf3  1  0.249395  0.000000  0.500000  1
  Sn  Sn4  1  0.001569  0.253983  0.500000  1
  Sn  Sn5  1  0.747586  0.746017  0.500000  1
  Ir  Ir6  1  0.327445  0.680564  0.500000  1
  Ir  Ir7  1  0.646881  0.319436  0.500000  1
  Ir  Ir8  1  0.017242  0.000000  0.000000  1
