# generated using pymatgen
data_Pr6YInO12
_symmetry_space_group_name_H-M   'P 1'
_cell_length_a   6.99136958
_cell_length_b   6.99136981
_cell_length_c   6.99137038
_cell_angle_alpha   92.96189768
_cell_angle_beta   92.96189985
_cell_angle_gamma   92.96189328
_symmetry_Int_Tables_number   1
_chemical_formula_structural   Pr6YInO12
_chemical_formula_sum   'Pr6 Y1 In1 O12'
_cell_volume   340.31422152
_cell_formula_units_Z   1
loop_
 _symmetry_equiv_pos_site_id
 _symmetry_equiv_pos_as_xyz
  1  'x, y, z'
loop_
 _atom_site_type_symbol
 _atom_site_label
 _atom_site_symmetry_multiplicity
 _atom_site_fract_x
 _atom_site_fract_y
 _atom_site_fract_z
 _atom_site_occupancy
  Pr  Pr0  1  0.743382  0.929833  0.438285  1
  Pr  Pr1  1  0.438285  0.743382  0.929833  1
  Pr  Pr2  1  0.070167  0.561715  0.256618  1
  Pr  Pr3  1  0.929833  0.438285  0.743382  1
  Pr  Pr4  1  0.561715  0.256618  0.070167  1
  Pr  Pr5  1  0.256618  0.070167  0.561715  1
  Y  Y6  1  0.000000  0.000000  0.000000  1
  In  In7  1  0.500000  0.500000  0.500000  1
  O  O8  1  0.064208  0.910803  0.309940  1
  O  O9  1  0.690060  0.935792  0.089197  1
  O  O10  1  0.463338  0.804405  0.591750  1
  O  O11  1  0.089197  0.690060  0.935792  1
  O  O12  1  0.804405  0.591750  0.463338  1
  O  O13  1  0.408250  0.536662  0.195595  1
  O  O14  1  0.591750  0.463338  0.804405  1
  O  O15  1  0.195595  0.408250  0.536662  1
  O  O16  1  0.910803  0.309940  0.064208  1
  O  O17  1  0.536662  0.195595  0.408250  1
  O  O18  1  0.309940  0.064208  0.910803  1
  O  O19  1  0.935792  0.089197  0.690060  1
