# generated using pymatgen
data_Li3CeAs6Ir4Rh3
_symmetry_space_group_name_H-M   'P 1'
_cell_length_a   7.11820087
_cell_length_b   7.11634146
_cell_length_c   6.97742138
_cell_angle_alpha   109.08971485
_cell_angle_beta   109.05071449
_cell_angle_gamma   109.88153548
_symmetry_Int_Tables_number   1
_chemical_formula_structural   Li3CeAs6Ir4Rh3
_chemical_formula_sum   'Li3 Ce1 As6 Ir4 Rh3'
_cell_volume   273.37573971
_cell_formula_units_Z   1
loop_
 _symmetry_equiv_pos_site_id
 _symmetry_equiv_pos_as_xyz
  1  'x, y, z'
loop_
 _atom_site_type_symbol
 _atom_site_label
 _atom_site_symmetry_multiplicity
 _atom_site_fract_x
 _atom_site_fract_y
 _atom_site_fract_z
 _atom_site_occupancy
  Li  Li0  1  0.500174  0.000344  0.000176  1
  Li  Li1  1  0.999570  0.499277  0.998707  1
  Li  Li2  1  0.499710  0.499279  0.500569  1
  Ce  Ce3  1  0.998742  0.997477  0.498738  1
  As  As4  1  0.677520  0.678191  0.982440  1
  As  As5  1  0.322929  0.323562  0.017991  1
  As  As6  1  0.000674  0.678194  0.695748  1
  As  As7  1  0.000635  0.323564  0.305572  1
  As  As8  1  0.677332  0.999699  0.694932  1
  As  As9  1  0.322366  0.999700  0.304767  1
  Ir  Ir10  1  0.000655  0.001308  0.000656  1
  Ir  Ir11  1  0.250441  0.500888  0.750440  1
  Ir  Ir12  1  0.749785  0.252522  0.502174  1
  Ir  Ir13  1  0.502735  0.252517  0.750344  1
  Rh  Rh14  1  0.496402  0.749454  0.247368  1
  Rh  Rh15  1  0.747282  0.494562  0.247285  1
  Rh  Rh16  1  0.253048  0.749461  0.502093  1
