# generated using pymatgen
data_Ba14CdSb11
_symmetry_space_group_name_H-M   'P 1'
_cell_length_a   17.92246367
_cell_length_b   17.92246407
_cell_length_c   17.92246500
_cell_angle_alpha   94.37919761
_cell_angle_beta   117.50162997
_cell_angle_gamma   117.50778438
_symmetry_Int_Tables_number   1
_chemical_formula_structural   Ba14CdSb11
_chemical_formula_sum   'Ba56 Cd4 Sb44'
_cell_volume   4211.01304974
_cell_formula_units_Z   4
loop_
 _symmetry_equiv_pos_site_id
 _symmetry_equiv_pos_as_xyz
  1  'x, y, z'
loop_
 _atom_site_type_symbol
 _atom_site_label
 _atom_site_symmetry_multiplicity
 _atom_site_fract_x
 _atom_site_fract_y
 _atom_site_fract_z
 _atom_site_occupancy
  Ba  Ba0  1  0.144367  0.749478  0.892476  1
  Ba  Ba1  1  0.031260  0.745828  0.627682  1
  Ba  Ba2  1  0.025588  0.782514  0.398392  1
  Ba  Ba3  1  0.089795  0.524352  0.752183  1
  Ba  Ba4  1  0.353404  0.978573  0.874461  1
  Ba  Ba5  1  0.117922  0.371819  0.903005  1
  Ba  Ba6  1  0.104005  0.125739  0.978682  1
  Ba  Ba7  1  0.143698  0.893699  0.250000  1
  Ba  Ba8  1  0.147058  0.625739  0.521735  1
  Ba  Ba9  1  0.411606  0.748888  0.974658  1
  Ba  Ba10  1  0.468813  0.871819  0.753896  1
  Ba  Ba11  1  0.354633  0.874822  0.477550  1
  Ba  Ba12  1  0.356355  0.606355  0.750000  1
  Ba  Ba13  1  0.225021  0.974646  0.061840  1
  Ba  Ba14  1  0.272170  0.337612  0.747817  1
  Ba  Ba15  1  0.227137  0.751503  0.162898  1
  Ba  Ba16  1  0.104111  0.478573  0.125169  1
  Ba  Ba17  1  0.274229  0.436949  0.525342  1
  Ba  Ba18  1  0.145818  0.022687  0.625371  1
  Ba  Ba19  1  0.604006  0.625323  0.978266  1
  Ba  Ba20  1  0.088604  0.064237  0.337103  1
  Ba  Ba21  1  0.118147  0.245828  0.214568  1
  Ba  Ba22  1  0.589796  0.837612  0.565443  1
  Ba  Ba23  1  0.617923  0.714918  0.746104  1
  Ba  Ba24  1  0.357003  0.251892  0.607524  1
  Ba  Ba25  1  0.397316  0.522687  0.376869  1
  Ba  Ba26  1  0.531260  0.903579  0.285432  1
  Ba  Ba27  1  0.618146  0.403579  0.872318  1
  Ba  Ba28  1  0.384380  0.602184  0.127759  1
  Ba  Ba29  1  0.474425  0.102184  0.717804  1
  Ba  Ba30  1  0.604112  0.478943  0.625539  1
  Ba  Ba31  1  0.644368  0.751892  0.394889  1
  Ba  Ba32  1  0.384122  0.282514  0.256926  1
  Ba  Ba33  1  0.412805  0.163181  0.438158  1
  Ba  Ba34  1  0.884380  0.756622  0.782196  1
  Ba  Ba35  1  0.911608  0.936949  0.662720  1
  Ba  Ba36  1  0.397271  0.374822  0.020188  1
  Ba  Ba37  1  0.853404  0.978943  0.374831  1
  Ba  Ba38  1  0.727136  0.564237  0.475633  1
  Ba  Ba39  1  0.897318  0.520449  0.874630  1
  Ba  Ba40  1  0.774229  0.248888  0.837281  1
  Ba  Ba41  1  0.725023  0.663181  0.250376  1
  Ba  Ba42  1  0.772169  0.024352  0.934557  1
  Ba  Ba43  1  0.643698  0.393699  0.250000  1
  Ba  Ba44  1  0.647057  0.125323  0.521318  1
  Ba  Ba45  1  0.525587  0.127196  0.243073  1
  Ba  Ba46  1  0.588605  0.251503  0.024367  1
  Ba  Ba47  1  0.854634  0.377084  0.479812  1
  Ba  Ba48  1  0.856355  0.106355  0.750000  1
  Ba  Ba49  1  0.897272  0.877084  0.022450  1
  Ba  Ba50  1  0.884123  0.627196  0.101609  1
  Ba  Ba51  1  0.645819  0.020449  0.123131  1
  Ba  Ba52  1  0.912806  0.474646  0.249625  1
  Ba  Ba53  1  0.968814  0.214918  0.596995  1
  Ba  Ba54  1  0.974426  0.256622  0.372242  1
  Ba  Ba55  1  0.857002  0.249478  0.105111  1
  Cd  Cd56  1  0.250208  0.125354  0.874913  1
  Cd  Cd57  1  0.250441  0.625354  0.375147  1
  Cd  Cd58  1  0.750208  0.875295  0.124854  1
  Cd  Cd59  1  0.750441  0.375295  0.625087  1
  Sb  Sb60  1  0.115859  0.926161  0.816376  1
  Sb  Sb61  1  0.157954  0.586231  0.979217  1
  Sb  Sb62  1  0.250077  0.743860  0.756116  1
  Sb  Sb63  1  0.250114  0.881540  0.618582  1
  Sb  Sb64  1  0.107158  0.428300  0.585786  1
  Sb  Sb65  1  0.108861  0.183557  0.798163  1
  Sb  Sb66  1  0.007024  0.753514  0.003425  1
  Sb  Sb67  1  0.115429  0.689286  0.298668  1
  Sb  Sb68  1  0.342513  0.521371  0.914213  1
  Sb  Sb69  1  0.109786  0.426161  0.310302  1
  Sb  Sb70  1  0.107014  0.178737  0.520783  1
  Sb  Sb71  1  0.392319  0.979160  0.320689  1
  Sb  Sb72  1  0.385393  0.683557  0.574696  1
  Sb  Sb73  1  0.608862  0.810698  0.925304  1
  Sb  Sb74  1  0.385781  0.202687  0.811149  1
  Sb  Sb75  1  0.487747  0.493961  0.743883  1
  Sb  Sb76  1  0.391540  0.702687  0.316906  1
  Sb  Sb77  1  0.392098  0.913522  0.071642  1
  Sb  Sb78  1  0.341879  0.320456  0.428358  1
  Sb  Sb79  1  0.250088  0.003599  0.496575  1
  Sb  Sb80  1  0.262957  0.381540  0.131425  1
  Sb  Sb81  1  0.842514  0.928300  0.821142  1
  Sb  Sb82  1  0.158470  0.071629  0.179311  1
  Sb  Sb83  1  0.750077  0.993961  0.506214  1
  Sb  Sb84  1  0.762958  0.631533  0.881418  1
  Sb  Sb85  1  0.657954  0.678737  0.571723  1
  Sb  Sb86  1  0.607014  0.086231  0.928277  1
  Sb  Sb87  1  0.609786  0.299483  0.683624  1
  Sb  Sb88  1  0.507024  0.503599  0.253511  1
  Sb  Sb89  1  0.615859  0.799483  0.189698  1
  Sb  Sb90  1  0.390618  0.189286  0.073856  1
  Sb  Sb91  1  0.615430  0.316762  0.426144  1
  Sb  Sb92  1  0.607158  0.021371  0.678858  1
  Sb  Sb93  1  0.892098  0.820456  0.478576  1
  Sb  Sb94  1  0.891539  0.574633  0.688851  1
  Sb  Sb95  1  0.658470  0.479160  0.086840  1
  Sb  Sb96  1  0.885394  0.310698  0.701837  1
  Sb  Sb97  1  0.987744  0.243860  0.993783  1
  Sb  Sb98  1  0.890619  0.816762  0.201333  1
  Sb  Sb99  1  0.892319  0.571630  0.413159  1
  Sb  Sb100  1  0.750114  0.131533  0.368574  1
  Sb  Sb101  1  0.750088  0.253514  0.246489  1
  Sb  Sb102  1  0.841879  0.413522  0.021424  1
  Sb  Sb103  1  0.885781  0.074633  0.183094  1
