# generated using pymatgen
data_TmHf3ZrRe24
_symmetry_space_group_name_H-M   'P 1'
_cell_length_a   8.48829518
_cell_length_b   8.49088628
_cell_length_c   8.49089404
_cell_angle_alpha   109.47627772
_cell_angle_beta   109.46621607
_cell_angle_gamma   109.46538778
_symmetry_Int_Tables_number   1
_chemical_formula_structural   TmHf3ZrRe24
_chemical_formula_sum   'Tm1 Hf3 Zr1 Re24'
_cell_volume   471.12483914
_cell_formula_units_Z   1
loop_
 _symmetry_equiv_pos_site_id
 _symmetry_equiv_pos_as_xyz
  1  'x, y, z'
loop_
 _atom_site_type_symbol
 _atom_site_label
 _atom_site_symmetry_multiplicity
 _atom_site_fract_x
 _atom_site_fract_y
 _atom_site_fract_z
 _atom_site_occupancy
  Tm  Tm0  1  0.000118  0.000002  0.999994  1
  Hf  Hf1  1  0.999999  0.628411  0.000014  1
  Hf  Hf2  1  0.999971  0.999994  0.628397  1
  Hf  Hf3  1  0.371574  0.371601  0.371582  1
  Zr  Zr4  1  0.628580  0.000003  0.999996  1
  Re  Re5  1  0.396038  0.676404  0.999978  1
  Re  Re6  1  0.719647  0.323580  0.323581  1
  Re  Re7  1  0.396056  0.000007  0.676443  1
  Re  Re8  1  0.676643  0.396383  0.999998  1
  Re  Re9  1  0.000072  0.396314  0.676719  1
  Re  Re10  1  0.323362  0.719598  0.323299  1
  Re  Re11  1  0.323341  0.323263  0.719583  1
  Re  Re12  1  0.000075  0.676711  0.396320  1
  Re  Re13  1  0.676653  0.000032  0.396410  1
  Re  Re14  1  0.603779  0.603677  0.280397  1
  Re  Re15  1  0.280211  0.603600  0.603603  1
  Re  Re16  1  0.603784  0.280417  0.603700  1
  Re  Re17  1  0.377110  0.194535  0.999989  1
  Re  Re18  1  0.182557  0.805457  0.805444  1
  Re  Re19  1  0.377111  0.000010  0.194533  1
  Re  Re20  1  0.194325  0.377275  0.999980  1
  Re  Re21  1  0.000351  0.377685  0.194621  1
  Re  Re22  1  0.805746  0.183088  0.805379  1
  Re  Re23  1  0.805751  0.805375  0.183069  1
  Re  Re24  1  0.000377  0.194650  0.377711  1
  Re  Re25  1  0.194348  0.000005  0.377318  1
  Re  Re26  1  0.622672  0.622292  0.816922  1
  Re  Re27  1  0.817061  0.622685  0.622696  1
  Re  Re28  1  0.622686  0.816944  0.622324  1
