# generated using pymatgen
data_LaPr9(Ir2Ru)2
_symmetry_space_group_name_H-M   'P 1'
_cell_length_a   11.30932477
_cell_length_b   11.32025300
_cell_length_c   6.67833966
_cell_angle_alpha   90.00000000
_cell_angle_beta   89.78580240
_cell_angle_gamma   90.00000000
_symmetry_Int_Tables_number   1
_chemical_formula_structural   LaPr9(Ir2Ru)2
_chemical_formula_sum   'La2 Pr18 Ir8 Ru4'
_cell_volume   854.98457115
_cell_formula_units_Z   2
loop_
 _symmetry_equiv_pos_site_id
 _symmetry_equiv_pos_as_xyz
  1  'x, y, z'
loop_
 _atom_site_type_symbol
 _atom_site_label
 _atom_site_symmetry_multiplicity
 _atom_site_fract_x
 _atom_site_fract_y
 _atom_site_fract_z
 _atom_site_occupancy
  La  La0  1  0.294421  0.089435  0.384896  1
  La  La1  1  0.294421  0.910565  0.884896  1
  Pr  Pr2  1  0.706781  0.088504  0.883071  1
  Pr  Pr3  1  0.706781  0.911496  0.383071  1
  Pr  Pr4  1  0.589839  0.793255  0.882301  1
  Pr  Pr5  1  0.589839  0.206745  0.382301  1
  Pr  Pr6  1  0.412388  0.792053  0.382413  1
  Pr  Pr7  1  0.412388  0.207947  0.882413  1
  Pr  Pr8  1  0.206211  0.412019  0.617696  1
  Pr  Pr9  1  0.206211  0.587981  0.117696  1
  Pr  Pr10  1  0.793454  0.411634  0.116947  1
  Pr  Pr11  1  0.793454  0.588366  0.616947  1
  Pr  Pr12  1  0.911019  0.706345  0.117254  1
  Pr  Pr13  1  0.911019  0.293655  0.617254  1
  Pr  Pr14  1  0.087960  0.706020  0.616975  1
  Pr  Pr15  1  0.087960  0.293980  0.116975  1
  Pr  Pr16  1  0.999119  0.999607  0.500009  1
  Pr  Pr17  1  0.999119  0.000393  0.000009  1
  Pr  Pr18  1  0.500246  0.499828  0.000252  1
  Pr  Pr19  1  0.500246  0.500172  0.500252  1
  Ir  Ir20  1  0.847245  0.152617  0.249919  1
  Ir  Ir21  1  0.847245  0.847383  0.749919  1
  Ir  Ir22  1  0.153427  0.152526  0.748040  1
  Ir  Ir23  1  0.153427  0.847474  0.248040  1
  Ir  Ir24  1  0.652597  0.347271  0.749829  1
  Ir  Ir25  1  0.652597  0.652729  0.249829  1
  Ir  Ir26  1  0.347230  0.347013  0.250417  1
  Ir  Ir27  1  0.347230  0.652987  0.750417  1
  Ru  Ru28  1  0.497907  0.000074  0.116875  1
  Ru  Ru29  1  0.497907  0.999926  0.616875  1
  Ru  Ru30  1  0.000157  0.499711  0.883107  1
  Ru  Ru31  1  0.000157  0.500289  0.383107  1
