# generated using pymatgen
data_YbCe7(BiPt2)4
_symmetry_space_group_name_H-M   'P 1'
_cell_length_a   7.99973100
_cell_length_b   7.99973060
_cell_length_c   7.38563300
_cell_angle_alpha   90.00000000
_cell_angle_beta   90.00000000
_cell_angle_gamma   90.34330128
_symmetry_Int_Tables_number   1
_chemical_formula_structural   YbCe7(BiPt2)4
_chemical_formula_sum   'Yb1 Ce7 Bi4 Pt8'
_cell_volume   472.64021681
_cell_formula_units_Z   1
loop_
 _symmetry_equiv_pos_site_id
 _symmetry_equiv_pos_as_xyz
  1  'x, y, z'
loop_
 _atom_site_type_symbol
 _atom_site_label
 _atom_site_symmetry_multiplicity
 _atom_site_fract_x
 _atom_site_fract_y
 _atom_site_fract_z
 _atom_site_occupancy
  Yb  Yb0  1  0.170414  0.829586  0.500000  1
  Ce  Ce1  1  0.673981  0.673594  0.000000  1
  Ce  Ce2  1  0.326287  0.329955  0.500000  1
  Ce  Ce3  1  0.828021  0.171979  0.500000  1
  Ce  Ce4  1  0.670045  0.673713  0.500000  1
  Ce  Ce5  1  0.326406  0.326019  0.000000  1
  Ce  Ce6  1  0.830926  0.169074  0.000000  1
  Ce  Ce7  1  0.173480  0.826520  0.000000  1
  Bi  Bi8  1  0.494883  0.998102  0.748442  1
  Bi  Bi9  1  0.494883  0.998102  0.251558  1
  Bi  Bi10  1  0.001898  0.505117  0.748442  1
  Bi  Bi11  1  0.001898  0.505117  0.251558  1
  Pt  Pt12  1  0.873653  0.874022  0.750110  1
  Pt  Pt13  1  0.125978  0.126347  0.750110  1
  Pt  Pt14  1  0.627458  0.372542  0.752269  1
  Pt  Pt15  1  0.627458  0.372542  0.247731  1
  Pt  Pt16  1  0.376350  0.623650  0.246774  1
  Pt  Pt17  1  0.125978  0.126347  0.249890  1
  Pt  Pt18  1  0.873653  0.874022  0.249890  1
  Pt  Pt19  1  0.376350  0.623650  0.753226  1
