# generated using pymatgen
data_TbYb3(B4Ru)4
_symmetry_space_group_name_H-M   'P 1'
_cell_length_a   3.54200800
_cell_length_b   5.94456418
_cell_length_c   11.51299661
_cell_angle_alpha   89.96263902
_cell_angle_beta   90.00000000
_cell_angle_gamma   90.00000000
_symmetry_Int_Tables_number   1
_chemical_formula_structural   TbYb3(B4Ru)4
_chemical_formula_sum   'Tb1 Yb3 B16 Ru4'
_cell_volume   242.41408053
_cell_formula_units_Z   1
loop_
 _symmetry_equiv_pos_site_id
 _symmetry_equiv_pos_as_xyz
  1  'x, y, z'
loop_
 _atom_site_type_symbol
 _atom_site_label
 _atom_site_symmetry_multiplicity
 _atom_site_fract_x
 _atom_site_fract_y
 _atom_site_fract_z
 _atom_site_occupancy
  Tb  Tb0  1  0.500000  0.371509  0.650324  1
  Yb  Yb1  1  0.500000  0.128992  0.150635  1
  Yb  Yb2  1  0.500000  0.871432  0.850588  1
  Yb  Yb3  1  0.500000  0.630287  0.349260  1
  B  B4  1  0.000000  0.476027  0.191885  1
  B  B5  1  0.000000  0.523984  0.808649  1
  B  B6  1  0.000000  0.975137  0.307769  1
  B  B7  1  0.000000  0.024327  0.692334  1
  B  B8  1  0.000000  0.286095  0.313938  1
  B  B9  1  0.000000  0.713432  0.685492  1
  B  B10  1  0.000000  0.786333  0.184896  1
  B  B11  1  0.000000  0.212555  0.815524  1
  B  B12  1  0.000000  0.364196  0.468454  1
  B  B13  1  0.000000  0.636238  0.530621  1
  B  B14  1  0.000000  0.864792  0.031324  1
  B  B15  1  0.000000  0.134946  0.968691  1
  B  B16  1  0.000000  0.387011  0.046808  1
  B  B17  1  0.000000  0.613363  0.953036  1
  B  B18  1  0.000000  0.886714  0.452341  1
  B  B19  1  0.000000  0.110587  0.546548  1
  Ru  Ru20  1  0.500000  0.137874  0.410772  1
  Ru  Ru21  1  0.500000  0.863436  0.590102  1
  Ru  Ru22  1  0.500000  0.635440  0.088071  1
  Ru  Ru23  1  0.500000  0.365295  0.911938  1
