# generated using pymatgen
data_Hf10C9
_symmetry_space_group_name_H-M   'P 1'
_cell_length_a   8.69411362
_cell_length_b   8.69411355
_cell_length_c   10.91645438
_cell_angle_alpha   62.91462834
_cell_angle_beta   62.91462929
_cell_angle_gamma   44.58333000
_symmetry_Int_Tables_number   1
_chemical_formula_structural   Hf10C9
_chemical_formula_sum   'Hf20 C18'
_cell_volume   504.22632554
_cell_formula_units_Z   2
loop_
 _symmetry_equiv_pos_site_id
 _symmetry_equiv_pos_as_xyz
  1  'x, y, z'
loop_
 _atom_site_type_symbol
 _atom_site_label
 _atom_site_symmetry_multiplicity
 _atom_site_fract_x
 _atom_site_fract_y
 _atom_site_fract_z
 _atom_site_occupancy
  Hf  Hf0  1  0.223404  0.478236  0.947680  1
  Hf  Hf1  1  0.721013  0.968065  0.955572  1
  Hf  Hf2  1  0.564046  0.331086  0.648525  1
  Hf  Hf3  1  0.435954  0.668914  0.351475  1
  Hf  Hf4  1  0.278987  0.031935  0.044428  1
  Hf  Hf5  1  0.082303  0.813754  0.645146  1
  Hf  Hf6  1  0.123120  0.372837  0.749981  1
  Hf  Hf7  1  0.917697  0.186246  0.354854  1
  Hf  Hf8  1  0.968065  0.721013  0.455572  1
  Hf  Hf9  1  0.776596  0.521764  0.052320  1
  Hf  Hf10  1  0.627163  0.876880  0.750019  1
  Hf  Hf11  1  0.813754  0.082303  0.145146  1
  Hf  Hf12  1  0.478236  0.223404  0.447680  1
  Hf  Hf13  1  0.668914  0.435954  0.851475  1
  Hf  Hf14  1  0.521764  0.776596  0.552320  1
  Hf  Hf15  1  0.331086  0.564046  0.148525  1
  Hf  Hf16  1  0.372837  0.123120  0.249981  1
  Hf  Hf17  1  0.186246  0.917697  0.854854  1
  Hf  Hf18  1  0.031935  0.278987  0.544428  1
  Hf  Hf19  1  0.876880  0.627163  0.250019  1
  C  C20  1  0.076273  0.321125  0.149972  1
  C  C21  1  0.923727  0.678875  0.850028  1
  C  C22  1  0.574075  0.827364  0.148072  1
  C  C23  1  0.776118  0.025456  0.550393  1
  C  C24  1  0.425925  0.172636  0.851928  1
  C  C25  1  0.624336  0.375664  0.250000  1
  C  C26  1  0.275654  0.527244  0.550912  1
  C  C27  1  0.472756  0.724346  0.949088  1
  C  C28  1  0.321125  0.076273  0.649972  1
  C  C29  1  0.172636  0.425925  0.351928  1
  C  C30  1  0.974544  0.223882  0.949607  1
  C  C31  1  0.827364  0.574075  0.648072  1
  C  C32  1  0.025456  0.776118  0.050393  1
  C  C33  1  0.678875  0.923727  0.350028  1
  C  C34  1  0.724346  0.472756  0.449088  1
  C  C35  1  0.527244  0.275654  0.050912  1
  C  C36  1  0.375664  0.624336  0.750000  1
  C  C37  1  0.223882  0.974544  0.449607  1
