# generated using pymatgen
data_Ho5Al3Si4Ni3
_symmetry_space_group_name_H-M   'P 1'
_cell_length_a   4.15121900
_cell_length_b   18.86552100
_cell_length_c   6.80517000
_cell_angle_alpha   90.00000000
_cell_angle_beta   90.00000000
_cell_angle_gamma   90.00000000
_symmetry_Int_Tables_number   1
_chemical_formula_structural   Ho5Al3Si4Ni3
_chemical_formula_sum   'Ho10 Al6 Si8 Ni6'
_cell_volume   532.94627078
_cell_formula_units_Z   2
loop_
 _symmetry_equiv_pos_site_id
 _symmetry_equiv_pos_as_xyz
  1  'x, y, z'
loop_
 _atom_site_type_symbol
 _atom_site_label
 _atom_site_symmetry_multiplicity
 _atom_site_fract_x
 _atom_site_fract_y
 _atom_site_fract_z
 _atom_site_occupancy
  Ho  Ho0  1  0.249998  0.570551  0.498040  1
  Ho  Ho1  1  0.249998  0.929449  0.498040  1
  Ho  Ho2  1  0.750000  0.429449  0.501960  1
  Ho  Ho3  1  0.750000  0.070551  0.501960  1
  Ho  Ho4  1  0.249998  0.619630  0.995239  1
  Ho  Ho5  1  0.249998  0.880369  0.995239  1
  Ho  Ho6  1  0.750000  0.380370  0.004761  1
  Ho  Ho7  1  0.750000  0.119631  0.004761  1
  Ho  Ho8  1  0.249998  0.750000  0.615617  1
  Ho  Ho9  1  0.750000  0.250000  0.384383  1
  Al  Al10  1  0.249998  0.250000  0.031800  1
  Al  Al11  1  0.750000  0.750000  0.968201  1
  Al  Al12  1  0.249998  0.176318  0.681457  1
  Al  Al13  1  0.249998  0.323682  0.681457  1
  Al  Al14  1  0.750000  0.823681  0.318543  1
  Al  Al15  1  0.750000  0.676318  0.318543  1
  Si  Si16  1  0.249998  0.144133  0.289725  1
  Si  Si17  1  0.249998  0.355867  0.289725  1
  Si  Si18  1  0.750000  0.855867  0.710276  1
  Si  Si19  1  0.750000  0.644133  0.710276  1
  Si  Si20  1  0.249998  0.036844  0.803940  1
  Si  Si21  1  0.249998  0.463156  0.803940  1
  Si  Si22  1  0.750000  0.963157  0.196060  1
  Si  Si23  1  0.750000  0.536844  0.196060  1
  Ni  Ni24  1  0.249998  0.750000  0.208327  1
  Ni  Ni25  1  0.750000  0.250000  0.791673  1
  Ni  Ni26  1  0.249998  0.025767  0.164686  1
  Ni  Ni27  1  0.249998  0.474233  0.164686  1
  Ni  Ni28  1  0.750000  0.974233  0.835314  1
  Ni  Ni29  1  0.750000  0.525767  0.835314  1
