# generated using pymatgen
data_Pr4Dy5LuSi8
_symmetry_space_group_name_H-M   'P 1'
_cell_length_a   7.53001600
_cell_length_b   7.80797500
_cell_length_c   14.85051900
_cell_angle_alpha   90.00000000
_cell_angle_beta   90.00000000
_cell_angle_gamma   90.00000000
_symmetry_Int_Tables_number   1
_chemical_formula_structural   Pr4Dy5LuSi8
_chemical_formula_sum   'Pr8 Dy10 Lu2 Si16'
_cell_volume   873.12403784
_cell_formula_units_Z   2
loop_
 _symmetry_equiv_pos_site_id
 _symmetry_equiv_pos_as_xyz
  1  'x, y, z'
loop_
 _atom_site_type_symbol
 _atom_site_label
 _atom_site_symmetry_multiplicity
 _atom_site_fract_x
 _atom_site_fract_y
 _atom_site_fract_z
 _atom_site_occupancy
  Pr  Pr0  1  0.974613  0.820514  0.098651  1
  Pr  Pr1  1  0.474613  0.679486  0.401349  1
  Pr  Pr2  1  0.525420  0.320006  0.901941  1
  Pr  Pr3  1  0.025420  0.179994  0.598059  1
  Pr  Pr4  1  0.025420  0.179994  0.901941  1
  Pr  Pr5  1  0.525420  0.320006  0.598059  1
  Pr  Pr6  1  0.474613  0.679486  0.098651  1
  Pr  Pr7  1  0.974613  0.820514  0.401349  1
  Dy  Dy8  1  0.851302  0.489284  0.750000  1
  Dy  Dy9  1  0.351302  0.010716  0.750000  1
  Dy  Dy10  1  0.681446  0.821422  0.877036  1
  Dy  Dy11  1  0.181446  0.678578  0.622964  1
  Dy  Dy12  1  0.818270  0.321561  0.123235  1
  Dy  Dy13  1  0.318270  0.178439  0.376765  1
  Dy  Dy14  1  0.318270  0.178439  0.123235  1
  Dy  Dy15  1  0.818270  0.321561  0.376765  1
  Dy  Dy16  1  0.181446  0.678578  0.877036  1
  Dy  Dy17  1  0.681446  0.821422  0.622964  1
  Lu  Lu18  1  0.649114  0.989656  0.250000  1
  Lu  Lu19  1  0.149114  0.510344  0.250000  1
  Si  Si20  1  0.768798  0.621823  0.250000  1
  Si  Si21  1  0.268798  0.878177  0.250000  1
  Si  Si22  1  0.733040  0.119977  0.750000  1
  Si  Si23  1  0.233040  0.380023  0.750000  1
  Si  Si24  1  0.022057  0.111151  0.250000  1
  Si  Si25  1  0.522057  0.388849  0.250000  1
  Si  Si26  1  0.476056  0.611364  0.750000  1
  Si  Si27  1  0.976056  0.888636  0.750000  1
  Si  Si28  1  0.856993  0.530854  0.960229  1
  Si  Si29  1  0.356993  0.969146  0.539771  1
  Si  Si30  1  0.643075  0.030332  0.040642  1
  Si  Si31  1  0.143075  0.469668  0.459358  1
  Si  Si32  1  0.143075  0.469668  0.040642  1
  Si  Si33  1  0.643075  0.030332  0.459358  1
  Si  Si34  1  0.356993  0.969146  0.960229  1
  Si  Si35  1  0.856993  0.530854  0.539771  1
