# generated using pymatgen
data_Pr8Dy12Si15Hg
_symmetry_space_group_name_H-M   'P 1'
_cell_length_a   7.54430236
_cell_length_b   7.84253193
_cell_length_c   14.94698181
_cell_angle_alpha   89.95395603
_cell_angle_beta   89.37799743
_cell_angle_gamma   90.22149029
_symmetry_Int_Tables_number   1
_chemical_formula_structural   Pr8Dy12Si15Hg
_chemical_formula_sum   'Pr8 Dy12 Si15 Hg1'
_cell_volume   884.30055044
_cell_formula_units_Z   1
loop_
 _symmetry_equiv_pos_site_id
 _symmetry_equiv_pos_as_xyz
  1  'x, y, z'
loop_
 _atom_site_type_symbol
 _atom_site_label
 _atom_site_symmetry_multiplicity
 _atom_site_fract_x
 _atom_site_fract_y
 _atom_site_fract_z
 _atom_site_occupancy
  Pr  Pr0  1  0.013873  0.174690  0.397697  1
  Pr  Pr1  1  0.517678  0.318986  0.397983  1
  Pr  Pr2  1  0.479945  0.680591  0.902141  1
  Pr  Pr3  1  0.490438  0.686033  0.601319  1
  Pr  Pr4  1  0.981920  0.827395  0.599763  1
  Pr  Pr5  1  0.979639  0.820954  0.902526  1
  Pr  Pr6  1  0.518905  0.318802  0.098340  1
  Pr  Pr7  1  0.020106  0.181036  0.099802  1
  Dy  Dy8  1  0.336642  0.170368  0.626796  1
  Dy  Dy9  1  0.667813  0.822655  0.375231  1
  Dy  Dy10  1  0.663229  0.989892  0.751216  1
  Dy  Dy11  1  0.169631  0.678863  0.373269  1
  Dy  Dy12  1  0.825208  0.319898  0.878097  1
  Dy  Dy13  1  0.823807  0.325481  0.622761  1
  Dy  Dy14  1  0.838467  0.490410  0.250792  1
  Dy  Dy15  1  0.339978  0.007247  0.249303  1
  Dy  Dy16  1  0.324708  0.177564  0.877683  1
  Dy  Dy17  1  0.173507  0.678423  0.122979  1
  Dy  Dy18  1  0.674111  0.821259  0.122812  1
  Dy  Dy19  1  0.161643  0.509390  0.753193  1
  Si  Si20  1  0.276380  0.879476  0.751681  1
  Si  Si21  1  0.465197  0.611673  0.247978  1
  Si  Si22  1  0.034776  0.116698  0.751541  1
  Si  Si23  1  0.535321  0.389094  0.752185  1
  Si  Si24  1  0.965087  0.887417  0.248372  1
  Si  Si25  1  0.720736  0.120698  0.247769  1
  Si  Si26  1  0.851630  0.532962  0.038319  1
  Si  Si27  1  0.351713  0.967031  0.039058  1
  Si  Si28  1  0.146952  0.466353  0.962323  1
  Si  Si29  1  0.653077  0.035583  0.536912  1
  Si  Si30  1  0.345508  0.966029  0.460633  1
  Si  Si31  1  0.837258  0.536110  0.458143  1
  Si  Si32  1  0.779978  0.620007  0.752617  1
  Si  Si33  1  0.222256  0.377439  0.248572  1
  Si  Si34  1  0.646900  0.032088  0.961557  1
  Hg  Hg35  1  0.165981  0.461406  0.538636  1
