# generated using pymatgen
data_Er3Be2Ir5
_symmetry_space_group_name_H-M   'P 1'
_cell_length_a   9.78428000
_cell_length_b   9.78428000
_cell_length_c   3.36750500
_cell_angle_alpha   90.00000000
_cell_angle_beta   90.00000000
_cell_angle_gamma   90.00000000
_symmetry_Int_Tables_number   1
_chemical_formula_structural   Er3Be2Ir5
_chemical_formula_sum   'Er6 Be4 Ir10'
_cell_volume   322.37844367
_cell_formula_units_Z   2
loop_
 _symmetry_equiv_pos_site_id
 _symmetry_equiv_pos_as_xyz
  1  'x, y, z'
loop_
 _atom_site_type_symbol
 _atom_site_label
 _atom_site_symmetry_multiplicity
 _atom_site_fract_x
 _atom_site_fract_y
 _atom_site_fract_z
 _atom_site_occupancy
  Er  Er0  1  0.175526  0.675526  0.000000  1
  Er  Er1  1  0.324474  0.175526  0.000000  1
  Er  Er2  1  0.824474  0.324474  0.000000  1
  Er  Er3  1  0.500000  0.500000  0.000000  1
  Er  Er4  1  0.675526  0.824474  0.000000  1
  Er  Er5  1  0.000000  0.000000  0.000000  1
  Be  Be6  1  0.379307  0.879307  0.000000  1
  Be  Be7  1  0.120693  0.379307  0.000000  1
  Be  Be8  1  0.879307  0.620693  0.000000  1
  Be  Be9  1  0.620693  0.120693  0.000000  1
  Ir  Ir10  1  0.221929  0.929445  0.500000  1
  Ir  Ir11  1  0.929445  0.778071  0.500000  1
  Ir  Ir12  1  0.429445  0.721929  0.500000  1
  Ir  Ir13  1  0.570555  0.278071  0.500000  1
  Ir  Ir14  1  0.721929  0.570555  0.500000  1
  Ir  Ir15  1  0.278071  0.429445  0.500000  1
  Ir  Ir16  1  0.070555  0.221929  0.500000  1
  Ir  Ir17  1  0.000000  0.500000  0.500000  1
  Ir  Ir18  1  0.500000  0.000000  0.500000  1
  Ir  Ir19  1  0.778071  0.070555  0.500000  1
