# generated using pymatgen
data_Zr10In(SnSb)3
_symmetry_space_group_name_H-M   'P 1'
_cell_length_a   5.94096663
_cell_length_b   8.66182391
_cell_length_c   8.68962864
_cell_angle_alpha   119.89484696
_cell_angle_beta   90.15433513
_cell_angle_gamma   89.69063197
_symmetry_Int_Tables_number   1
_chemical_formula_structural   Zr10In(SnSb)3
_chemical_formula_sum   'Zr10 In1 Sn3 Sb3'
_cell_volume   387.66016933
_cell_formula_units_Z   1
loop_
 _symmetry_equiv_pos_site_id
 _symmetry_equiv_pos_as_xyz
  1  'x, y, z'
loop_
 _atom_site_type_symbol
 _atom_site_label
 _atom_site_symmetry_multiplicity
 _atom_site_fract_x
 _atom_site_fract_y
 _atom_site_fract_z
 _atom_site_occupancy
  Zr  Zr0  1  0.500163  0.329958  0.662776  1
  Zr  Zr1  1  0.500164  0.667183  0.337222  1
  Zr  Zr2  1  0.001148  0.667277  0.334705  1
  Zr  Zr3  1  0.001151  0.332571  0.665295  1
  Zr  Zr4  1  0.772079  0.264282  0.000001  1
  Zr  Zr5  1  0.773729  0.733340  0.731911  1
  Zr  Zr6  1  0.773727  0.001429  0.268088  1
  Zr  Zr7  1  0.217226  0.735912  0.999997  1
  Zr  Zr8  1  0.229791  0.267580  0.267477  1
  Zr  Zr9  1  0.229790  0.000107  0.732525  1
  In  In10  1  0.736776  0.611533  0.999999  1
  Sn  Sn11  1  0.257122  0.391215  0.000001  1
  Sn  Sn12  1  0.257920  0.612743  0.613991  1
  Sn  Sn13  1  0.257918  0.998751  0.386009  1
  Sb  Sb14  1  0.746319  0.388826  0.388656  1
  Sb  Sb15  1  0.746313  0.000173  0.611346  1
  Sb  Sb16  1  0.498666  0.997123  0.000000  1
