# generated using pymatgen
data_TbY2(CdNi)2
_symmetry_space_group_name_H-M   'P 1'
_cell_length_a   10.75462974
_cell_length_b   10.75462971
_cell_length_c   3.69896700
_cell_angle_alpha   90.00000000
_cell_angle_beta   90.00000000
_cell_angle_gamma   158.64733394
_symmetry_Int_Tables_number   1
_chemical_formula_structural   TbY2(CdNi)2
_chemical_formula_sum   'Tb1 Y2 Cd2 Ni2'
_cell_volume   155.77615758
_cell_formula_units_Z   1
loop_
 _symmetry_equiv_pos_site_id
 _symmetry_equiv_pos_as_xyz
  1  'x, y, z'
loop_
 _atom_site_type_symbol
 _atom_site_label
 _atom_site_symmetry_multiplicity
 _atom_site_fract_x
 _atom_site_fract_y
 _atom_site_fract_z
 _atom_site_occupancy
  Tb  Tb0  1  0.000000  0.000000  0.000000  1
  Y  Y1  1  0.825897  0.174103  0.000000  1
  Y  Y2  1  0.174103  0.825897  0.000000  1
  Cd  Cd3  1  0.415140  0.584860  0.500000  1
  Cd  Cd4  1  0.584860  0.415140  0.500000  1
  Ni  Ni5  1  0.281219  0.718781  0.500000  1
  Ni  Ni6  1  0.718781  0.281219  0.500000  1
