# generated using pymatgen
data_Li8Nd8Bi5Pb3
_symmetry_space_group_name_H-M   'P 1'
_cell_length_a   9.78471450
_cell_length_b   9.77165412
_cell_length_c   7.52206771
_cell_angle_alpha   89.99999423
_cell_angle_beta   89.87316013
_cell_angle_gamma   119.95585171
_symmetry_Int_Tables_number   1
_chemical_formula_structural   Li8Nd8Bi5Pb3
_chemical_formula_sum   'Li8 Nd8 Bi5 Pb3'
_cell_volume   623.12579374
_cell_formula_units_Z   1
loop_
 _symmetry_equiv_pos_site_id
 _symmetry_equiv_pos_as_xyz
  1  'x, y, z'
loop_
 _atom_site_type_symbol
 _atom_site_label
 _atom_site_symmetry_multiplicity
 _atom_site_fract_x
 _atom_site_fract_y
 _atom_site_fract_z
 _atom_site_occupancy
  Li  Li0  1  0.167752  0.334058  0.269116  1
  Li  Li1  1  0.167752  0.833695  0.269116  1
  Li  Li2  1  0.663723  0.831861  0.276095  1
  Li  Li3  1  0.833050  0.664967  0.772191  1
  Li  Li4  1  0.833050  0.168083  0.772191  1
  Li  Li5  1  0.336391  0.168195  0.775621  1
  Li  Li6  1  0.333571  0.666786  0.690817  1
  Li  Li7  1  0.664098  0.332048  0.192501  1
  Nd  Nd8  1  0.505720  0.018137  0.493698  1
  Nd  Nd9  1  0.505720  0.487584  0.493698  1
  Nd  Nd10  1  0.984044  0.492023  0.494023  1
  Nd  Nd11  1  0.490811  0.984933  0.996070  1
  Nd  Nd12  1  0.490811  0.505877  0.996070  1
  Nd  Nd13  1  0.015638  0.507819  0.995076  1
  Nd  Nd14  1  0.004785  0.002393  0.500736  1
  Nd  Nd15  1  0.003643  0.001822  0.003000  1
  Bi  Bi16  1  0.166521  0.333005  0.739709  1
  Bi  Bi17  1  0.166521  0.833517  0.739709  1
  Bi  Bi18  1  0.667344  0.833673  0.737916  1
  Bi  Bi19  1  0.833529  0.666761  0.239248  1
  Bi  Bi20  1  0.833529  0.166767  0.239248  1
  Pb  Pb21  1  0.332604  0.166302  0.237408  1
  Pb  Pb22  1  0.332384  0.666192  0.259660  1
  Pb  Pb23  1  0.667007  0.333503  0.759059  1
