# generated using pymatgen
data_TbHo18LuSn16
_symmetry_space_group_name_H-M   'P 1'
_cell_length_a   8.00805717
_cell_length_b   8.14155130
_cell_length_c   15.41076500
_cell_angle_alpha   90.00263201
_cell_angle_beta   89.98832342
_cell_angle_gamma   89.94850749
_symmetry_Int_Tables_number   1
_chemical_formula_structural   TbHo18LuSn16
_chemical_formula_sum   'Tb1 Ho18 Lu1 Sn16'
_cell_volume   1004.75075522
_cell_formula_units_Z   1
loop_
 _symmetry_equiv_pos_site_id
 _symmetry_equiv_pos_as_xyz
  1  'x, y, z'
loop_
 _atom_site_type_symbol
 _atom_site_label
 _atom_site_symmetry_multiplicity
 _atom_site_fract_x
 _atom_site_fract_y
 _atom_site_fract_z
 _atom_site_occupancy
  Tb  Tb0  1  0.021265  0.179563  0.902598  1
  Ho  Ho1  1  0.367694  0.836991  0.877598  1
  Ho  Ho2  1  0.868130  0.662525  0.622284  1
  Ho  Ho3  1  0.631990  0.162867  0.377634  1
  Ho  Ho4  1  0.132160  0.337317  0.121914  1
  Ho  Ho5  1  0.632063  0.162820  0.122381  1
  Ho  Ho6  1  0.132088  0.337242  0.378157  1
  Ho  Ho7  1  0.367704  0.837082  0.622440  1
  Ho  Ho8  1  0.868090  0.662560  0.877722  1
  Ho  Ho9  1  0.520991  0.321193  0.902629  1
  Ho  Ho10  1  0.021390  0.179493  0.597489  1
  Ho  Ho11  1  0.479091  0.679232  0.402912  1
  Ho  Ho12  1  0.979144  0.820717  0.097442  1
  Ho  Ho13  1  0.479147  0.679238  0.097085  1
  Ho  Ho14  1  0.979071  0.820763  0.402593  1
  Ho  Ho15  1  0.520984  0.321184  0.597347  1
  Ho  Ho16  1  0.698667  0.997095  0.749927  1
  Ho  Ho17  1  0.801019  0.496677  0.250010  1
  Ho  Ho18  1  0.300967  0.003136  0.249977  1
  Lu  Lu19  1  0.198986  0.503621  0.749984  1
  Sn  Sn20  1  0.292923  0.036157  0.041844  1
  Sn  Sn21  1  0.792220  0.463170  0.458294  1
  Sn  Sn22  1  0.707725  0.963643  0.541531  1
  Sn  Sn23  1  0.208010  0.536408  0.957674  1
  Sn  Sn24  1  0.707158  0.963291  0.958452  1
  Sn  Sn25  1  0.207790  0.536099  0.542397  1
  Sn  Sn26  1  0.292520  0.036391  0.458332  1
  Sn  Sn27  1  0.792270  0.463243  0.041754  1
  Sn  Sn28  1  0.564006  0.617737  0.749991  1
  Sn  Sn29  1  0.065557  0.880527  0.749969  1
  Sn  Sn30  1  0.434105  0.381139  0.250025  1
  Sn  Sn31  1  0.934686  0.119112  0.250035  1
  Sn  Sn32  1  0.330357  0.149882  0.749816  1
  Sn  Sn33  1  0.830756  0.352473  0.749708  1
  Sn  Sn34  1  0.669481  0.851608  0.250020  1
  Sn  Sn35  1  0.169793  0.647808  0.250032  1
