# generated using pymatgen
data_Er8Ti10Nb2Si15Sn
_symmetry_space_group_name_H-M   'P 1'
_cell_length_a   7.08440606
_cell_length_b   7.04914429
_cell_length_c   12.99143165
_cell_angle_alpha   89.99906207
_cell_angle_beta   89.84861846
_cell_angle_gamma   89.92452450
_symmetry_Int_Tables_number   1
_chemical_formula_structural   Er8Ti10Nb2Si15Sn
_chemical_formula_sum   'Er8 Ti10 Nb2 Si15 Sn1'
_cell_volume   648.77628464
_cell_formula_units_Z   1
loop_
 _symmetry_equiv_pos_site_id
 _symmetry_equiv_pos_as_xyz
  1  'x, y, z'
loop_
 _atom_site_type_symbol
 _atom_site_label
 _atom_site_symmetry_multiplicity
 _atom_site_fract_x
 _atom_site_fract_y
 _atom_site_fract_z
 _atom_site_occupancy
  Er  Er0  1  0.342924  0.998805  0.461361  1
  Er  Er1  1  0.505938  0.834674  0.718440  1
  Er  Er2  1  0.501192  0.159096  0.216751  1
  Er  Er3  1  0.841145  0.497802  0.281997  1
  Er  Er4  1  0.159176  0.509352  0.786193  1
  Er  Er5  1  0.661588  0.997524  0.968907  1
  Er  Er6  1  0.992294  0.347841  0.527152  1
  Er  Er7  1  0.000740  0.658651  0.034357  1
  Ti  Ti8  1  0.817357  0.174969  0.751904  1
  Ti  Ti9  1  0.671931  0.673177  0.499603  1
  Ti  Ti10  1  0.153558  0.007937  0.882855  1
  Ti  Ti11  1  0.492055  0.650263  0.126040  1
  Ti  Ti12  1  0.513845  0.354345  0.625821  1
  Ti  Ti13  1  0.653702  0.493376  0.876629  1
  Ti  Ti14  1  0.346064  0.509215  0.373021  1
  Ti  Ti15  1  0.846970  0.992598  0.374544  1
  Ti  Ti16  1  0.010266  0.151406  0.124277  1
  Ti  Ti17  1  0.979471  0.835790  0.619340  1
  Nb  Nb18  1  0.327332  0.326877  0.001251  1
  Nb  Nb19  1  0.173600  0.826598  0.249733  1
  Si  Si20  1  0.371680  0.703872  0.935070  1
  Si  Si21  1  0.627687  0.297772  0.432411  1
  Si  Si22  1  0.705009  0.369487  0.067238  1
  Si  Si23  1  0.296191  0.630985  0.565993  1
  Si  Si24  1  0.797007  0.869743  0.183728  1
  Si  Si25  1  0.129702  0.203710  0.315852  1
  Si  Si26  1  0.870923  0.800378  0.816472  1
  Si  Si27  1  0.295280  0.952224  0.065749  1
  Si  Si28  1  0.549672  0.789990  0.313803  1
  Si  Si29  1  0.461103  0.208331  0.818673  1
  Si  Si30  1  0.794509  0.543974  0.686752  1
  Si  Si31  1  0.207613  0.452546  0.186392  1
  Si  Si32  1  0.704940  0.047988  0.564439  1
  Si  Si33  1  0.952850  0.292613  0.935191  1
  Si  Si34  1  0.045877  0.708889  0.433971  1
  Sn  Sn35  1  0.198810  0.127203  0.678091  1
