# generated using pymatgen
data_HfZr8In14Co6Re
_symmetry_space_group_name_H-M   'P 1'
_cell_length_a   9.45502539
_cell_length_b   9.46102516
_cell_length_c   9.45502600
_cell_angle_alpha   60.02097339
_cell_angle_beta   59.99999785
_cell_angle_gamma   60.02097814
_symmetry_Int_Tables_number   1
_chemical_formula_structural   HfZr8In14Co6Re
_chemical_formula_sum   'Hf1 Zr8 In14 Co6 Re1'
_cell_volume   598.25486503
_cell_formula_units_Z   1
loop_
 _symmetry_equiv_pos_site_id
 _symmetry_equiv_pos_as_xyz
  1  'x, y, z'
loop_
 _atom_site_type_symbol
 _atom_site_label
 _atom_site_symmetry_multiplicity
 _atom_site_fract_x
 _atom_site_fract_y
 _atom_site_fract_z
 _atom_site_occupancy
  Hf  Hf0  1  0.120091  0.639727  0.120091  1
  Zr  Zr1  1  0.365601  0.877320  0.878539  1
  Zr  Zr2  1  0.878539  0.877320  0.878539  1
  Zr  Zr3  1  0.634254  0.121659  0.122044  1
  Zr  Zr4  1  0.500022  0.499934  0.500022  1
  Zr  Zr5  1  0.878539  0.877320  0.365601  1
  Zr  Zr6  1  0.122044  0.121659  0.122044  1
  Zr  Zr7  1  0.878110  0.365670  0.878110  1
  Zr  Zr8  1  0.122044  0.121659  0.634254  1
  In  In9  1  0.500159  0.842229  0.157453  1
  In  In10  1  0.500159  0.842229  0.500159  1
  In  In11  1  0.499941  0.157509  0.499941  1
  In  In12  1  0.499869  0.499785  0.842753  1
  In  In13  1  0.157594  0.499785  0.499869  1
  In  In14  1  0.842609  0.157509  0.499941  1
  In  In15  1  0.157453  0.842229  0.500159  1
  In  In16  1  0.499941  0.157509  0.842609  1
  In  In17  1  0.157594  0.499785  0.842753  1
  In  In18  1  0.499869  0.499785  0.157594  1
  In  In19  1  0.842753  0.499785  0.499869  1
  In  In20  1  0.842753  0.499785  0.157594  1
  In  In21  1  0.248939  0.253182  0.248939  1
  In  In22  1  0.749999  0.750004  0.749999  1
  Co  Co23  1  0.778086  0.775970  0.222972  1
  Co  Co24  1  0.222972  0.775970  0.222972  1
  Co  Co25  1  0.222972  0.775970  0.778086  1
  Co  Co26  1  0.222829  0.222913  0.777129  1
  Co  Co27  1  0.777129  0.222913  0.777129  1
  Co  Co28  1  0.777129  0.222913  0.222829  1
  Re  Re29  1  0.000010  0.999971  0.000010  1
