# generated using pymatgen
data_Y7HoHf12Si15Au
_symmetry_space_group_name_H-M   'P 1'
_cell_length_a   7.29193494
_cell_length_b   7.32957327
_cell_length_c   13.42784000
_cell_angle_alpha   89.93135048
_cell_angle_beta   89.95821425
_cell_angle_gamma   89.99717488
_symmetry_Int_Tables_number   1
_chemical_formula_structural   Y7HoHf12Si15Au
_chemical_formula_sum   'Y7 Ho1 Hf12 Si15 Au1'
_cell_volume   717.67398823
_cell_formula_units_Z   1
loop_
 _symmetry_equiv_pos_site_id
 _symmetry_equiv_pos_as_xyz
  1  'x, y, z'
loop_
 _atom_site_type_symbol
 _atom_site_label
 _atom_site_symmetry_multiplicity
 _atom_site_fract_x
 _atom_site_fract_y
 _atom_site_fract_z
 _atom_site_occupancy
  Y  Y0  1  0.991595  0.346581  0.214029  1
  Y  Y1  1  0.004362  0.655524  0.715402  1
  Y  Y2  1  0.154621  0.498762  0.467189  1
  Y  Y3  1  0.504141  0.843237  0.033354  1
  Y  Y4  1  0.844117  0.502339  0.964646  1
  Y  Y5  1  0.497042  0.153925  0.537861  1
  Y  Y6  1  0.343216  0.997425  0.784646  1
  Ho  Ho7  1  0.662216  0.996809  0.283657  1
  Hf  Hf8  1  0.175023  0.176363  0.998857  1
  Hf  Hf9  1  0.826114  0.825278  0.500462  1
  Hf  Hf10  1  0.325493  0.680651  0.249265  1
  Hf  Hf11  1  0.675484  0.324569  0.750253  1
  Hf  Hf12  1  0.146234  0.997145  0.374687  1
  Hf  Hf13  1  0.851304  0.003777  0.874613  1
  Hf  Hf14  1  0.504714  0.650099  0.624963  1
  Hf  Hf15  1  0.351424  0.495368  0.874923  1
  Hf  Hf16  1  0.495029  0.350535  0.121748  1
  Hf  Hf17  1  0.651993  0.510125  0.380135  1
  Hf  Hf18  1  0.995688  0.148391  0.626525  1
  Hf  Hf19  1  0.001345  0.849800  0.123682  1
  Si  Si20  1  0.637672  0.705931  0.818064  1
  Si  Si21  1  0.204638  0.862816  0.567921  1
  Si  Si22  1  0.137801  0.795614  0.932064  1
  Si  Si23  1  0.795209  0.137593  0.066468  1
  Si  Si24  1  0.859647  0.200631  0.434915  1
  Si  Si25  1  0.295722  0.362865  0.682944  1
  Si  Si26  1  0.704267  0.638830  0.181833  1
  Si  Si27  1  0.292731  0.045067  0.181977  1
  Si  Si28  1  0.705322  0.950626  0.685959  1
  Si  Si29  1  0.448920  0.795251  0.435604  1
  Si  Si30  1  0.204633  0.549812  0.063701  1
  Si  Si31  1  0.548801  0.204513  0.934588  1
  Si  Si32  1  0.794716  0.449967  0.566651  1
  Si  Si33  1  0.048242  0.295604  0.814930  1
  Si  Si34  1  0.951461  0.704771  0.313429  1
  Au  Au35  1  0.369065  0.293408  0.318054  1
