# generated using pymatgen
data_Fe12Mo7W5C2
_symmetry_space_group_name_H-M   'P 1'
_cell_length_a   7.72073883
_cell_length_b   7.71485074
_cell_length_c   7.70141521
_cell_angle_alpha   119.96127600
_cell_angle_beta   90.00449388
_cell_angle_gamma   120.08695198
_symmetry_Int_Tables_number   1
_chemical_formula_structural   Fe12Mo7W5C2
_chemical_formula_sum   'Fe12 Mo7 W5 C2'
_cell_volume   324.12119365
_cell_formula_units_Z   1
loop_
 _symmetry_equiv_pos_site_id
 _symmetry_equiv_pos_as_xyz
  1  'x, y, z'
loop_
 _atom_site_type_symbol
 _atom_site_label
 _atom_site_symmetry_multiplicity
 _atom_site_fract_x
 _atom_site_fract_y
 _atom_site_fract_z
 _atom_site_occupancy
  Fe  Fe0  1  0.375081  0.750248  0.125002  1
  Fe  Fe1  1  0.578844  0.157671  0.421324  1
  Fe  Fe2  1  0.264005  0.842551  0.421383  1
  Fe  Fe3  1  0.578624  0.842228  0.421168  1
  Fe  Fe4  1  0.171121  0.342173  0.513169  1
  Fe  Fe5  1  0.375139  0.249932  0.624969  1
  Fe  Fe6  1  0.874842  0.249971  0.624964  1
  Fe  Fe7  1  0.375110  0.750234  0.625243  1
  Fe  Fe8  1  0.578900  0.157852  0.736832  1
  Fe  Fe9  1  0.171168  0.342402  0.828739  1
  Fe  Fe10  1  0.170910  0.657426  0.828651  1
  Fe  Fe11  1  0.486103  0.657140  0.828431  1
  Mo  Mo12  1  0.553473  0.499807  0.053308  1
  Mo  Mo13  1  0.947397  0.499959  0.052808  1
  Mo  Mo14  1  0.553238  0.106164  0.053332  1
  Mo  Mo15  1  0.196651  0.999530  0.196675  1
  Mo  Mo16  1  0.801786  0.999398  0.197176  1
  Mo  Mo17  1  0.552853  0.499762  0.447440  1
  Mo  Mo18  1  0.197276  0.999479  0.801846  1
  W  W19  1  0.197048  0.394303  0.196935  1
  W  W20  1  0.947950  0.500056  0.448011  1
  W  W21  1  0.948541  0.896193  0.448222  1
  W  W22  1  0.802081  0.604991  0.802320  1
  W  W23  1  0.801273  0.999386  0.801485  1
  C  C24  1  0.999362  0.999895  0.999350  1
  C  C25  1  0.751223  0.501244  0.251210  1
