# generated using pymatgen
data_Tb5YMn2(CrC6)2
_symmetry_space_group_name_H-M   'P 1'
_cell_length_a   8.11943401
_cell_length_b   8.11902183
_cell_length_c   5.01103000
_cell_angle_alpha   90.00000000
_cell_angle_beta   90.00000000
_cell_angle_gamma   119.99666442
_symmetry_Int_Tables_number   1
_chemical_formula_structural   Tb5YMn2(CrC6)2
_chemical_formula_sum   'Tb5 Y1 Mn2 Cr2 C12'
_cell_volume   286.08935351
_cell_formula_units_Z   1
loop_
 _symmetry_equiv_pos_site_id
 _symmetry_equiv_pos_as_xyz
  1  'x, y, z'
loop_
 _atom_site_type_symbol
 _atom_site_label
 _atom_site_symmetry_multiplicity
 _atom_site_fract_x
 _atom_site_fract_y
 _atom_site_fract_z
 _atom_site_occupancy
  Tb  Tb0  1  0.936560  0.620944  0.250000  1
  Tb  Tb1  1  0.684373  0.063410  0.250000  1
  Tb  Tb2  1  0.315660  0.936571  0.750000  1
  Tb  Tb3  1  0.063460  0.379057  0.750000  1
  Tb  Tb4  1  0.379075  0.315673  0.250000  1
  Y  Y5  1  0.621056  0.684419  0.750000  1
  Mn  Mn6  1  0.666653  0.333326  0.750000  1
  Mn  Mn7  1  0.333322  0.666642  0.250000  1
  Cr  Cr8  1  0.000037  0.000032  0.499966  1
  Cr  Cr9  1  0.000037  0.000032  0.000034  1
  C  C10  1  0.961787  0.771023  0.750000  1
  C  C11  1  0.190741  0.961834  0.250000  1
  C  C12  1  0.771050  0.809239  0.250000  1
  C  C13  1  0.228875  0.190701  0.750000  1
  C  C14  1  0.809107  0.038037  0.750000  1
  C  C15  1  0.038170  0.228919  0.250000  1
  C  C16  1  0.864019  0.576395  0.750000  1
  C  C17  1  0.287695  0.864056  0.250000  1
  C  C18  1  0.576424  0.712238  0.250000  1
  C  C19  1  0.423652  0.287802  0.750000  1
  C  C20  1  0.135926  0.423635  0.250000  1
  C  C21  1  0.712320  0.136013  0.750000  1
