# generated using pymatgen
data_Y2Si2IrRh
_symmetry_space_group_name_H-M   'P 1'
_cell_length_a   4.24346100
_cell_length_b   6.89303600
_cell_length_c   7.45545600
_cell_angle_alpha   90.00000000
_cell_angle_beta   90.00000000
_cell_angle_gamma   90.00000000
_symmetry_Int_Tables_number   1
_chemical_formula_structural   Y2Si2IrRh
_chemical_formula_sum   'Y4 Si4 Ir2 Rh2'
_cell_volume   218.07454411
_cell_formula_units_Z   2
loop_
 _symmetry_equiv_pos_site_id
 _symmetry_equiv_pos_as_xyz
  1  'x, y, z'
loop_
 _atom_site_type_symbol
 _atom_site_label
 _atom_site_symmetry_multiplicity
 _atom_site_fract_x
 _atom_site_fract_y
 _atom_site_fract_z
 _atom_site_occupancy
  Y  Y0  1  0.750000  0.498064  0.311436  1
  Y  Y1  1  0.250000  0.000487  0.811174  1
  Y  Y2  1  0.750000  0.998064  0.188564  1
  Y  Y3  1  0.250000  0.500487  0.688826  1
  Si  Si4  1  0.250000  0.297397  0.107619  1
  Si  Si5  1  0.250000  0.797397  0.392381  1
  Si  Si6  1  0.750000  0.701992  0.896397  1
  Si  Si7  1  0.750000  0.201992  0.603603  1
  Ir  Ir8  1  0.250000  0.656138  0.068521  1
  Ir  Ir9  1  0.250000  0.156138  0.431479  1
  Rh  Rh10  1  0.750000  0.845921  0.569493  1
  Rh  Rh11  1  0.750000  0.345921  0.930507  1
