# generated using pymatgen
data_Dy10Sn7Te
_symmetry_space_group_name_H-M   'P 1'
_cell_length_a   8.14002500
_cell_length_b   8.20373409
_cell_length_c   15.43811500
_cell_angle_alpha   90.85251190
_cell_angle_beta   90.00000000
_cell_angle_gamma   90.00000000
_symmetry_Int_Tables_number   1
_chemical_formula_structural   Dy10Sn7Te
_chemical_formula_sum   'Dy20 Sn14 Te2'
_cell_volume   1030.82159876
_cell_formula_units_Z   2
loop_
 _symmetry_equiv_pos_site_id
 _symmetry_equiv_pos_as_xyz
  1  'x, y, z'
loop_
 _atom_site_type_symbol
 _atom_site_label
 _atom_site_symmetry_multiplicity
 _atom_site_fract_x
 _atom_site_fract_y
 _atom_site_fract_z
 _atom_site_occupancy
  Dy  Dy0  1  0.377166  0.837484  0.879275  1
  Dy  Dy1  1  0.877166  0.662516  0.620725  1
  Dy  Dy2  1  0.624770  0.157920  0.377027  1
  Dy  Dy3  1  0.124770  0.342080  0.122973  1
  Dy  Dy4  1  0.626986  0.162116  0.120934  1
  Dy  Dy5  1  0.126986  0.337884  0.379066  1
  Dy  Dy6  1  0.375208  0.837509  0.622425  1
  Dy  Dy7  1  0.875208  0.662491  0.877575  1
  Dy  Dy8  1  0.542870  0.337944  0.893732  1
  Dy  Dy9  1  0.042870  0.162056  0.606268  1
  Dy  Dy10  1  0.458625  0.680026  0.396462  1
  Dy  Dy11  1  0.958625  0.819974  0.103538  1
  Dy  Dy12  1  0.471273  0.664780  0.101546  1
  Dy  Dy13  1  0.971273  0.835220  0.398454  1
  Dy  Dy14  1  0.525291  0.316374  0.602637  1
  Dy  Dy15  1  0.025291  0.183626  0.897363  1
  Dy  Dy16  1  0.204580  0.501037  0.749048  1
  Dy  Dy17  1  0.704580  0.998963  0.750952  1
  Dy  Dy18  1  0.794906  0.499859  0.245750  1
  Dy  Dy19  1  0.294906  0.000141  0.254250  1
  Sn  Sn20  1  0.718707  0.969174  0.542156  1
  Sn  Sn21  1  0.218707  0.530826  0.957844  1
  Sn  Sn22  1  0.718113  0.969542  0.956907  1
  Sn  Sn23  1  0.218113  0.530458  0.543093  1
  Sn  Sn24  1  0.289779  0.034905  0.458125  1
  Sn  Sn25  1  0.789779  0.465095  0.041875  1
  Sn  Sn26  1  0.571774  0.623520  0.747897  1
  Sn  Sn27  1  0.071774  0.876480  0.752103  1
  Sn  Sn28  1  0.429751  0.376264  0.250653  1
  Sn  Sn29  1  0.929751  0.123736  0.249347  1
  Sn  Sn30  1  0.339852  0.146034  0.753229  1
  Sn  Sn31  1  0.839852  0.353966  0.746771  1
  Sn  Sn32  1  0.657747  0.852619  0.249353  1
  Sn  Sn33  1  0.157747  0.647381  0.250647  1
  Te  Te34  1  0.272604  0.023990  0.047532  1
  Te  Te35  1  0.772604  0.476010  0.452468  1
