# generated using pymatgen
data_Fe3Co3(SiMo2)2
_symmetry_space_group_name_H-M   'P 1'
_cell_length_a   4.74431100
_cell_length_b   4.74430951
_cell_length_c   7.57844500
_cell_angle_alpha   90.00000000
_cell_angle_beta   90.00000000
_cell_angle_gamma   119.99998944
_symmetry_Int_Tables_number   1
_chemical_formula_structural   Fe3Co3(SiMo2)2
_chemical_formula_sum   'Fe3 Co3 Si2 Mo4'
_cell_volume   147.72600237
_cell_formula_units_Z   1
loop_
 _symmetry_equiv_pos_site_id
 _symmetry_equiv_pos_as_xyz
  1  'x, y, z'
loop_
 _atom_site_type_symbol
 _atom_site_label
 _atom_site_symmetry_multiplicity
 _atom_site_fract_x
 _atom_site_fract_y
 _atom_site_fract_z
 _atom_site_occupancy
  Fe  Fe0  1  0.829380  0.170620  0.250000  1
  Fe  Fe1  1  0.829380  0.658760  0.250000  1
  Fe  Fe2  1  0.341240  0.170620  0.250000  1
  Co  Co3  1  0.171401  0.828599  0.750000  1
  Co  Co4  1  0.171401  0.342802  0.750000  1
  Co  Co5  1  0.657198  0.828599  0.750000  1
  Si  Si6  1  0.000000  0.000000  0.507901  1
  Si  Si7  1  0.000000  0.000000  0.992099  1
  Mo  Mo8  1  0.333333  0.666667  0.439645  1
  Mo  Mo9  1  0.666667  0.333333  0.570351  1
  Mo  Mo10  1  0.666667  0.333333  0.929649  1
  Mo  Mo11  1  0.333333  0.666667  0.060355  1
