# generated using pymatgen
data_Be3Ni3W6C
_symmetry_space_group_name_H-M   'P 1'
_cell_length_a   7.61572361
_cell_length_b   7.59832460
_cell_length_c   7.59832489
_cell_angle_alpha   59.88768594
_cell_angle_beta   59.92422085
_cell_angle_gamma   59.92421857
_symmetry_Int_Tables_number   1
_chemical_formula_structural   Be3Ni3W6C
_chemical_formula_sum   'Be6 Ni6 W12 C2'
_cell_volume   310.28753685
_cell_formula_units_Z   2
loop_
 _symmetry_equiv_pos_site_id
 _symmetry_equiv_pos_as_xyz
  1  'x, y, z'
loop_
 _atom_site_type_symbol
 _atom_site_label
 _atom_site_symmetry_multiplicity
 _atom_site_fract_x
 _atom_site_fract_y
 _atom_site_fract_z
 _atom_site_occupancy
  Be  Be0  1  0.420791  0.422600  0.735819  1
  Be  Be1  1  0.420791  0.735819  0.422600  1
  Be  Be2  1  0.742370  0.419879  0.419879  1
  Be  Be3  1  0.417872  0.419879  0.419879  1
  Be  Be4  1  0.825333  0.828749  0.520585  1
  Be  Be5  1  0.825333  0.520585  0.828749  1
  Ni  Ni6  1  0.505279  0.831560  0.831560  1
  Ni  Ni7  1  0.831601  0.831560  0.831560  1
  Ni  Ni8  1  0.622249  0.612535  0.142967  1
  Ni  Ni9  1  0.622249  0.142967  0.612535  1
  Ni  Ni10  1  0.132774  0.618737  0.618737  1
  Ni  Ni11  1  0.629752  0.618737  0.618737  1
  W  W12  1  0.051504  0.049143  0.448264  1
  W  W13  1  0.451089  0.049143  0.448264  1
  W  W14  1  0.051549  0.448451  0.448451  1
  W  W15  1  0.451089  0.448264  0.049143  1
  W  W16  1  0.051504  0.448264  0.049143  1
  W  W17  1  0.451251  0.048749  0.048749  1
  W  W18  1  0.196654  0.202121  0.801562  1
  W  W19  1  0.799664  0.202121  0.801562  1
  W  W20  1  0.200136  0.799864  0.799864  1
  W  W21  1  0.799664  0.801562  0.202121  1
  W  W22  1  0.196654  0.801562  0.202121  1
  W  W23  1  0.800912  0.199088  0.199088  1
  C  C24  1  0.251774  0.248226  0.248226  1
  C  C25  1  0.000161  0.999839  0.999839  1
