# generated using pymatgen
data_LiHf5(TaB5)4
_symmetry_space_group_name_H-M   'P 1'
_cell_length_a   6.21657321
_cell_length_b   7.08442572
_cell_length_c   7.50011073
_cell_angle_alpha   94.21500516
_cell_angle_beta   101.99415700
_cell_angle_gamma   115.96780619
_symmetry_Int_Tables_number   1
_chemical_formula_structural   LiHf5(TaB5)4
_chemical_formula_sum   'Li1 Hf5 Ta4 B20'
_cell_volume   285.35325397
_cell_formula_units_Z   1
loop_
 _symmetry_equiv_pos_site_id
 _symmetry_equiv_pos_as_xyz
  1  'x, y, z'
loop_
 _atom_site_type_symbol
 _atom_site_label
 _atom_site_symmetry_multiplicity
 _atom_site_fract_x
 _atom_site_fract_y
 _atom_site_fract_z
 _atom_site_occupancy
  Li  Li0  1  0.999622  0.999850  0.000872  1
  Hf  Hf1  1  0.501114  0.801354  0.399348  1
  Hf  Hf2  1  0.000103  0.397504  0.198681  1
  Hf  Hf3  1  0.499897  0.199120  0.600961  1
  Hf  Hf4  1  0.998820  0.799444  0.399501  1
  Hf  Hf5  1  0.502039  0.601092  0.801851  1
  Ta  Ta6  1  0.499144  0.000320  0.999595  1
  Ta  Ta7  1  0.497875  0.398425  0.198304  1
  Ta  Ta8  1  0.000471  0.201423  0.600923  1
  Ta  Ta9  1  0.999740  0.601926  0.800238  1
  B  B10  1  0.330791  0.231016  0.870390  1
  B  B11  1  0.332871  0.633748  0.066226  1
  B  B12  1  0.164201  0.361190  0.935520  1
  B  B13  1  0.331137  0.034205  0.262047  1
  B  B14  1  0.165368  0.768782  0.127880  1
  B  B15  1  0.835987  0.230925  0.870142  1
  B  B16  1  0.164471  0.165500  0.327822  1
  B  B17  1  0.834732  0.637621  0.063301  1
  B  B18  1  0.332899  0.432008  0.466284  1
  B  B19  1  0.666648  0.366408  0.933081  1
  B  B20  1  0.834816  0.034644  0.262221  1
  B  B21  1  0.668506  0.768985  0.129177  1
  B  B22  1  0.334042  0.835511  0.668665  1
  B  B23  1  0.166160  0.566312  0.533266  1
  B  B24  1  0.665216  0.165071  0.332355  1
  B  B25  1  0.833300  0.432815  0.466903  1
  B  B26  1  0.165162  0.966065  0.738989  1
  B  B27  1  0.836464  0.835292  0.673099  1
  B  B28  1  0.667753  0.566343  0.534407  1
  B  B29  1  0.670650  0.967101  0.737951  1
