# generated using pymatgen
data_Tl2SbCl5
_symmetry_space_group_name_H-M   'P 1'
_cell_length_a   9.10087500
_cell_length_b   9.07341732
_cell_length_c   12.77125300
_cell_angle_alpha   90.00000000
_cell_angle_beta   90.00000000
_cell_angle_gamma   109.13258372
_symmetry_Int_Tables_number   1
_chemical_formula_structural   Tl2SbCl5
_chemical_formula_sum   'Tl8 Sb4 Cl20'
_cell_volume   996.34620318
_cell_formula_units_Z   4
loop_
 _symmetry_equiv_pos_site_id
 _symmetry_equiv_pos_as_xyz
  1  'x, y, z'
loop_
 _atom_site_type_symbol
 _atom_site_label
 _atom_site_symmetry_multiplicity
 _atom_site_fract_x
 _atom_site_fract_y
 _atom_site_fract_z
 _atom_site_occupancy
  Tl  Tl0  1  0.821204  0.904995  0.671959  1
  Tl  Tl1  1  0.631833  0.155714  0.131109  1
  Tl  Tl2  1  0.368167  0.344286  0.631109  1
  Tl  Tl3  1  0.368167  0.844286  0.868891  1
  Tl  Tl4  1  0.821204  0.404995  0.828041  1
  Tl  Tl5  1  0.178796  0.095005  0.328041  1
  Tl  Tl6  1  0.631833  0.655714  0.368891  1
  Tl  Tl7  1  0.178796  0.595005  0.171959  1
  Sb  Sb8  1  0.807423  0.293724  0.496172  1
  Sb  Sb9  1  0.192577  0.206276  0.996172  1
  Sb  Sb10  1  0.192577  0.706276  0.503828  1
  Sb  Sb11  1  0.807423  0.793724  0.003828  1
  Cl  Cl12  1  0.607856  0.638974  0.885974  1
  Cl  Cl13  1  0.828851  0.036339  0.424091  1
  Cl  Cl14  1  0.171149  0.463661  0.924091  1
  Cl  Cl15  1  0.171149  0.963661  0.575909  1
  Cl  Cl16  1  0.754094  0.041348  0.906662  1
  Cl  Cl17  1  0.245906  0.458652  0.406662  1
  Cl  Cl18  1  0.245906  0.958652  0.093338  1
  Cl  Cl19  1  0.754094  0.541348  0.593338  1
  Cl  Cl20  1  0.003446  0.787939  0.848572  1
  Cl  Cl21  1  0.996554  0.712061  0.348572  1
  Cl  Cl22  1  0.996554  0.212061  0.151428  1
  Cl  Cl23  1  0.003446  0.287939  0.651428  1
  Cl  Cl24  1  0.588012  0.790580  0.138622  1
  Cl  Cl25  1  0.607856  0.138974  0.614026  1
  Cl  Cl26  1  0.411988  0.209420  0.861378  1
  Cl  Cl27  1  0.588012  0.290580  0.361378  1
  Cl  Cl28  1  0.411988  0.709420  0.638622  1
  Cl  Cl29  1  0.392144  0.861026  0.385974  1
  Cl  Cl30  1  0.392144  0.361026  0.114026  1
  Cl  Cl31  1  0.828851  0.536339  0.075909  1
