# generated using pymatgen
data_Ti6V4GaSi4Ge
_symmetry_space_group_name_H-M   'P 1'
_cell_length_a   7.40124177
_cell_length_b   7.40124008
_cell_length_c   4.98440800
_cell_angle_alpha   90.00000000
_cell_angle_beta   90.00000000
_cell_angle_gamma   120.17091856
_symmetry_Int_Tables_number   1
_chemical_formula_structural   Ti6V4GaSi4Ge
_chemical_formula_sum   'Ti6 V4 Ga1 Si4 Ge1'
_cell_volume   236.04931212
_cell_formula_units_Z   1
loop_
 _symmetry_equiv_pos_site_id
 _symmetry_equiv_pos_as_xyz
  1  'x, y, z'
loop_
 _atom_site_type_symbol
 _atom_site_label
 _atom_site_symmetry_multiplicity
 _atom_site_fract_x
 _atom_site_fract_y
 _atom_site_fract_z
 _atom_site_occupancy
  Ti  Ti0  1  0.758182  0.758182  0.750000  1
  Ti  Ti1  1  0.246253  0.995416  0.750000  1
  Ti  Ti2  1  0.995416  0.246253  0.750000  1
  Ti  Ti3  1  0.240255  0.240255  0.250000  1
  Ti  Ti4  1  0.752683  0.003813  0.250000  1
  Ti  Ti5  1  0.003813  0.752683  0.250000  1
  V  V6  1  0.671275  0.330103  0.000154  1
  V  V7  1  0.330103  0.671275  0.000154  1
  V  V8  1  0.330103  0.671275  0.499846  1
  V  V9  1  0.671275  0.330103  0.499846  1
  Ga  Ga10  1  0.397792  0.397792  0.750000  1
  Si  Si11  1  0.600934  0.998109  0.750000  1
  Si  Si12  1  0.998109  0.600934  0.750000  1
  Si  Si13  1  0.399260  0.003225  0.250000  1
  Si  Si14  1  0.003225  0.399260  0.250000  1
  Ge  Ge15  1  0.601323  0.601323  0.250000  1
