# generated using pymatgen
data_Sc10GaSiP4
_symmetry_space_group_name_H-M   'P 1'
_cell_length_a   7.78589400
_cell_length_b   7.79747080
_cell_length_c   5.71435600
_cell_angle_alpha   90.00000000
_cell_angle_beta   90.00000000
_cell_angle_gamma   119.95089063
_symmetry_Int_Tables_number   1
_chemical_formula_structural   Sc10GaSiP4
_chemical_formula_sum   'Sc10 Ga1 Si1 P4'
_cell_volume   300.59023659
_cell_formula_units_Z   1
loop_
 _symmetry_equiv_pos_site_id
 _symmetry_equiv_pos_as_xyz
  1  'x, y, z'
loop_
 _atom_site_type_symbol
 _atom_site_label
 _atom_site_symmetry_multiplicity
 _atom_site_fract_x
 _atom_site_fract_y
 _atom_site_fract_z
 _atom_site_occupancy
  Sc  Sc0  1  0.999730  0.750196  0.750000  1
  Sc  Sc1  1  0.997991  0.248348  0.250000  1
  Sc  Sc2  1  0.749644  0.751652  0.250000  1
  Sc  Sc3  1  0.760683  0.000000  0.750000  1
  Sc  Sc4  1  0.249535  0.249804  0.750000  1
  Sc  Sc5  1  0.240797  0.000000  0.250000  1
  Sc  Sc6  1  0.330660  0.660314  0.497616  1
  Sc  Sc7  1  0.670348  0.339686  0.002384  1
  Sc  Sc8  1  0.670348  0.339686  0.497616  1
  Sc  Sc9  1  0.330660  0.660314  0.002384  1
  Ga  Ga10  1  0.396144  0.000000  0.750000  1
  Si  Si11  1  0.604259  0.000000  0.250000  1
  P  P12  1  0.386289  0.386338  0.250000  1
  P  P13  1  0.999951  0.613662  0.250000  1
  P  P14  1  0.000166  0.387373  0.750000  1
  P  P15  1  0.612793  0.612627  0.750000  1
