# generated using pymatgen
data_VNi2ClO4
_symmetry_space_group_name_H-M   'P 1'
_cell_length_a   6.77657900
_cell_length_b   5.01410439
_cell_length_c   6.84920417
_cell_angle_alpha   88.28784171
_cell_angle_beta   90.00000000
_cell_angle_gamma   90.00000000
_symmetry_Int_Tables_number   1
_chemical_formula_structural   VNi2ClO4
_chemical_formula_sum   'V2 Ni4 Cl2 O8'
_cell_volume   232.62160740
_cell_formula_units_Z   2
loop_
 _symmetry_equiv_pos_site_id
 _symmetry_equiv_pos_as_xyz
  1  'x, y, z'
loop_
 _atom_site_type_symbol
 _atom_site_label
 _atom_site_symmetry_multiplicity
 _atom_site_fract_x
 _atom_site_fract_y
 _atom_site_fract_z
 _atom_site_occupancy
  V  V0  1  0.750000  0.504045  0.760729  1
  V  V1  1  0.250000  0.495955  0.239271  1
  Ni  Ni2  1  0.000000  0.000000  0.000000  1
  Ni  Ni3  1  0.250000  0.340554  0.750759  1
  Ni  Ni4  1  0.500000  0.000000  0.000000  1
  Ni  Ni5  1  0.750000  0.659446  0.249241  1
  Cl  Cl6  1  0.250000  0.824046  0.766422  1
  Cl  Cl7  1  0.750000  0.175954  0.233578  1
  O  O8  1  0.042181  0.698551  0.203368  1
  O  O9  1  0.250000  0.352118  0.463276  1
  O  O10  1  0.457819  0.698551  0.203368  1
  O  O11  1  0.957819  0.301449  0.796632  1
  O  O12  1  0.750000  0.647882  0.536724  1
  O  O13  1  0.250000  0.233108  0.059649  1
  O  O14  1  0.542181  0.301449  0.796632  1
  O  O15  1  0.750000  0.766892  0.940351  1
