# generated using pymatgen
data_RbTm2CuS4
_symmetry_space_group_name_H-M   'P 1'
_cell_length_a   3.93833300
_cell_length_b   7.08001666
_cell_length_c   13.68729500
_cell_angle_alpha   90.00000000
_cell_angle_beta   90.00000000
_cell_angle_gamma   73.85135451
_symmetry_Int_Tables_number   1
_chemical_formula_structural   RbTm2CuS4
_chemical_formula_sum   'Rb2 Tm4 Cu2 S8'
_cell_volume   366.59059304
_cell_formula_units_Z   2
loop_
 _symmetry_equiv_pos_site_id
 _symmetry_equiv_pos_as_xyz
  1  'x, y, z'
loop_
 _atom_site_type_symbol
 _atom_site_label
 _atom_site_symmetry_multiplicity
 _atom_site_fract_x
 _atom_site_fract_y
 _atom_site_fract_z
 _atom_site_occupancy
  Rb  Rb0  1  0.892308  0.215385  0.250000  1
  Rb  Rb1  1  0.107692  0.784614  0.750000  1
  Tm  Tm2  1  0.634052  0.731897  0.062430  1
  Tm  Tm3  1  0.634052  0.731897  0.437570  1
  Tm  Tm4  1  0.365947  0.268103  0.562430  1
  Tm  Tm5  1  0.365947  0.268103  0.937570  1
  Cu  Cu6  1  0.165366  0.669267  0.250000  1
  Cu  Cu7  1  0.834633  0.330734  0.750000  1
  S  S8  1  0.000000  0.000000  0.000000  1
  S  S9  1  0.259352  0.481294  0.106598  1
  S  S10  1  0.575349  0.849304  0.250000  1
  S  S11  1  0.259352  0.481294  0.393402  1
  S  S12  1  0.000000  0.000000  0.500000  1
  S  S13  1  0.740647  0.518706  0.606598  1
  S  S14  1  0.424650  0.150696  0.750000  1
  S  S15  1  0.740647  0.518706  0.893402  1
