# generated using pymatgen
data_CaY2Lu3(Si3Ru)8
_symmetry_space_group_name_H-M   'P 1'
_cell_length_a   10.10813319
_cell_length_b   10.10813530
_cell_length_c   8.11345210
_cell_angle_alpha   89.94913113
_cell_angle_beta   90.05087202
_cell_angle_gamma   132.65592427
_symmetry_Int_Tables_number   1
_chemical_formula_structural   CaY2Lu3(Si3Ru)8
_chemical_formula_sum   'Ca1 Y2 Lu3 Si24 Ru8'
_cell_volume   609.66659073
_cell_formula_units_Z   1
loop_
 _symmetry_equiv_pos_site_id
 _symmetry_equiv_pos_as_xyz
  1  'x, y, z'
loop_
 _atom_site_type_symbol
 _atom_site_label
 _atom_site_symmetry_multiplicity
 _atom_site_fract_x
 _atom_site_fract_y
 _atom_site_fract_z
 _atom_site_occupancy
  Ca  Ca0  1  0.001958  0.501958  0.250000  1
  Y  Y1  1  0.997130  0.497130  0.750000  1
  Y  Y2  1  0.502657  0.002657  0.250000  1
  Lu  Lu3  1  0.000247  0.000379  0.000497  1
  Lu  Lu4  1  0.500379  0.500247  0.499503  1
  Lu  Lu5  1  0.498687  0.998687  0.750000  1
  Si  Si6  1  0.294693  0.705470  0.999348  1
  Si  Si7  1  0.794439  0.205544  0.499564  1
  Si  Si8  1  0.705544  0.294439  0.000436  1
  Si  Si9  1  0.205470  0.794693  0.500652  1
  Si  Si10  1  0.832258  0.833794  0.332866  1
  Si  Si11  1  0.167069  0.168657  0.667072  1
  Si  Si12  1  0.668657  0.667069  0.832928  1
  Si  Si13  1  0.333794  0.332258  0.167134  1
  Si  Si14  1  0.620231  0.386414  0.228643  1
  Si  Si15  1  0.610590  0.377477  0.772222  1
  Si  Si16  1  0.111930  0.878982  0.728369  1
  Si  Si17  1  0.123276  0.889890  0.271423  1
  Si  Si18  1  0.378982  0.611930  0.771631  1
  Si  Si19  1  0.389890  0.623276  0.228577  1
  Si  Si20  1  0.886414  0.120231  0.271357  1
  Si  Si21  1  0.877477  0.110590  0.727778  1
  Si  Si22  1  0.844999  0.612194  0.002640  1
  Si  Si23  1  0.388165  0.155457  0.994369  1
  Si  Si24  1  0.887465  0.654364  0.505985  1
  Si  Si25  1  0.344173  0.111970  0.495646  1
  Si  Si26  1  0.154364  0.387465  0.994015  1
  Si  Si27  1  0.611970  0.844173  0.004354  1
  Si  Si28  1  0.112194  0.344999  0.497360  1
  Si  Si29  1  0.655457  0.888165  0.505631  1
  Ru  Ru30  1  0.170843  0.832607  0.998240  1
  Ru  Ru31  1  0.666284  0.328793  0.502642  1
  Ru  Ru32  1  0.828793  0.166284  0.997358  1
  Ru  Ru33  1  0.332607  0.670843  0.501760  1
  Ru  Ru34  1  0.627028  0.626774  0.127433  1
  Ru  Ru35  1  0.373206  0.373909  0.872939  1
  Ru  Ru36  1  0.873909  0.873206  0.627061  1
  Ru  Ru37  1  0.126774  0.127028  0.372567  1
