# generated using pymatgen
data_Y10Bi6S
_symmetry_space_group_name_H-M   'P 1'
_cell_length_a   9.22636500
_cell_length_b   9.22636571
_cell_length_c   6.44356100
_cell_angle_alpha   90.00000000
_cell_angle_beta   90.00000000
_cell_angle_gamma   120.00000106
_symmetry_Int_Tables_number   1
_chemical_formula_structural   Y10Bi6S
_chemical_formula_sum   'Y10 Bi6 S1'
_cell_volume   475.02653235
_cell_formula_units_Z   1
loop_
 _symmetry_equiv_pos_site_id
 _symmetry_equiv_pos_as_xyz
  1  'x, y, z'
loop_
 _atom_site_type_symbol
 _atom_site_label
 _atom_site_symmetry_multiplicity
 _atom_site_fract_x
 _atom_site_fract_y
 _atom_site_fract_z
 _atom_site_occupancy
  Y  Y0  1  0.333333  0.666667  0.500000  1
  Y  Y1  1  0.666667  0.333333  0.500000  1
  Y  Y2  1  0.666667  0.333333  0.000000  1
  Y  Y3  1  0.333333  0.666667  0.000000  1
  Y  Y4  1  0.000000  0.754108  0.247201  1
  Y  Y5  1  0.245892  0.245892  0.247201  1
  Y  Y6  1  0.754108  0.000000  0.247201  1
  Y  Y7  1  0.000000  0.245892  0.752799  1
  Y  Y8  1  0.754108  0.754108  0.752799  1
  Y  Y9  1  0.245892  0.000000  0.752799  1
  Bi  Bi10  1  0.000000  0.391504  0.249366  1
  Bi  Bi11  1  0.608496  0.608496  0.249366  1
  Bi  Bi12  1  0.391504  0.000000  0.249366  1
  Bi  Bi13  1  0.000000  0.608496  0.750634  1
  Bi  Bi14  1  0.391504  0.391504  0.750634  1
  Bi  Bi15  1  0.608496  0.000000  0.750634  1
  S  S16  1  0.000000  0.000000  0.500000  1
