# generated using pymatgen
data_CeNd11(GaIr)8
_symmetry_space_group_name_H-M   'P 1'
_cell_length_a   5.79060916
_cell_length_b   8.14939111
_cell_length_c   13.65842100
_cell_angle_alpha   90.12156059
_cell_angle_beta   89.73666411
_cell_angle_gamma   89.61058194
_symmetry_Int_Tables_number   1
_chemical_formula_structural   CeNd11(GaIr)8
_chemical_formula_sum   'Ce1 Nd11 Ga8 Ir8'
_cell_volume   644.51686337
_cell_formula_units_Z   1
loop_
 _symmetry_equiv_pos_site_id
 _symmetry_equiv_pos_as_xyz
  1  'x, y, z'
loop_
 _atom_site_type_symbol
 _atom_site_label
 _atom_site_symmetry_multiplicity
 _atom_site_fract_x
 _atom_site_fract_y
 _atom_site_fract_z
 _atom_site_occupancy
  Ce  Ce0  1  0.843145  0.898044  0.093642  1
  Nd  Nd1  1  0.628401  0.255530  0.250492  1
  Nd  Nd2  1  0.372012  0.744313  0.749402  1
  Nd  Nd3  1  0.374598  0.753413  0.250140  1
  Nd  Nd4  1  0.625896  0.246760  0.749669  1
  Nd  Nd5  1  0.147271  0.397701  0.099011  1
  Nd  Nd6  1  0.850521  0.601466  0.899991  1
  Nd  Nd7  1  0.852222  0.604825  0.598761  1
  Nd  Nd8  1  0.853286  0.895776  0.401557  1
  Nd  Nd9  1  0.148005  0.396037  0.401424  1
  Nd  Nd10  1  0.146940  0.102834  0.598906  1
  Nd  Nd11  1  0.146975  0.107389  0.901244  1
  Ga  Ga12  1  0.132695  0.101754  0.249374  1
  Ga  Ga13  1  0.868378  0.895866  0.751094  1
  Ga  Ga14  1  0.870062  0.606976  0.249760  1
  Ga  Ga15  1  0.130452  0.396391  0.749532  1
  Ga  Ga16  1  0.620160  0.251703  0.000317  1
  Ga  Ga17  1  0.374035  0.748525  0.999072  1
  Ga  Ga18  1  0.379145  0.750130  0.500154  1
  Ga  Ga19  1  0.622705  0.248961  0.500510  1
  Ir  Ir20  1  0.355385  0.026562  0.092074  1
  Ir  Ir21  1  0.653512  0.967363  0.912536  1
  Ir  Ir22  1  0.643939  0.968144  0.593576  1
  Ir  Ir23  1  0.647421  0.529206  0.407371  1
  Ir  Ir24  1  0.356284  0.030975  0.407621  1
  Ir  Ir25  1  0.354760  0.469720  0.592827  1
  Ir  Ir26  1  0.353451  0.469084  0.907342  1
  Ir  Ir27  1  0.648343  0.534550  0.092602  1
