# generated using pymatgen
data_Er4MnB4Ir9
_symmetry_space_group_name_H-M   'P 1'
_cell_length_a   10.79383641
_cell_length_b   10.79383563
_cell_length_c   10.79383659
_cell_angle_alpha   29.50132691
_cell_angle_beta   29.50133524
_cell_angle_gamma   29.50132970
_symmetry_Int_Tables_number   1
_chemical_formula_structural   Er4MnB4Ir9
_chemical_formula_sum   'Er4 Mn1 B4 Ir9'
_cell_volume   269.92869790
_cell_formula_units_Z   1
loop_
 _symmetry_equiv_pos_site_id
 _symmetry_equiv_pos_as_xyz
  1  'x, y, z'
loop_
 _atom_site_type_symbol
 _atom_site_label
 _atom_site_symmetry_multiplicity
 _atom_site_fract_x
 _atom_site_fract_y
 _atom_site_fract_z
 _atom_site_occupancy
  Er  Er0  1  0.151196  0.151196  0.151196  1
  Er  Er1  1  0.949958  0.949958  0.949958  1
  Er  Er2  1  0.848804  0.848804  0.848804  1
  Er  Er3  1  0.050042  0.050042  0.050042  1
  Mn  Mn4  1  0.500000  0.500000  0.500000  1
  B  B5  1  0.615926  0.615926  0.615926  1
  B  B6  1  0.717340  0.717340  0.717340  1
  B  B7  1  0.384074  0.384074  0.384074  1
  B  B8  1  0.282660  0.282660  0.282660  1
  Ir  Ir9  1  0.402581  0.900565  0.402581  1
  Ir  Ir10  1  0.900565  0.402581  0.402581  1
  Ir  Ir11  1  0.500000  0.500000  0.000000  1
  Ir  Ir12  1  0.500000  0.000000  0.500000  1
  Ir  Ir13  1  0.000000  0.500000  0.500000  1
  Ir  Ir14  1  0.597419  0.099435  0.597419  1
  Ir  Ir15  1  0.597419  0.597419  0.099435  1
  Ir  Ir16  1  0.099435  0.597419  0.597419  1
  Ir  Ir17  1  0.402581  0.402581  0.900565  1
