# generated using pymatgen
data_Dy8FeOsI8
_symmetry_space_group_name_H-M   'P 1'
_cell_length_a   11.62686959
_cell_length_b   11.62687162
_cell_length_c   6.13354933
_cell_angle_alpha   89.97982139
_cell_angle_beta   89.97982443
_cell_angle_gamma   90.12064867
_symmetry_Int_Tables_number   1
_chemical_formula_structural   Dy8FeOsI8
_chemical_formula_sum   'Dy8 Fe1 Os1 I8'
_cell_volume   829.15652744
_cell_formula_units_Z   1
loop_
 _symmetry_equiv_pos_site_id
 _symmetry_equiv_pos_as_xyz
  1  'x, y, z'
loop_
 _atom_site_type_symbol
 _atom_site_label
 _atom_site_symmetry_multiplicity
 _atom_site_fract_x
 _atom_site_fract_y
 _atom_site_fract_z
 _atom_site_occupancy
  Dy  Dy0  1  0.809634  0.078711  0.004062  1
  Dy  Dy1  1  0.078657  0.809622  0.497630  1
  Dy  Dy2  1  0.078341  0.190268  0.003669  1
  Dy  Dy3  1  0.190274  0.078414  0.497262  1
  Dy  Dy4  1  0.921586  0.809726  0.002738  1
  Dy  Dy5  1  0.921289  0.190366  0.495938  1
  Dy  Dy6  1  0.190378  0.921343  0.002370  1
  Dy  Dy7  1  0.809732  0.921659  0.496331  1
  Fe  Fe8  1  0.000547  0.999453  0.250000  1
  Os  Os9  1  0.999757  0.000243  0.750000  1
  I  I10  1  0.654205  0.144072  0.489946  1
  I  I11  1  0.856069  0.654020  0.503226  1
  I  I12  1  0.345980  0.143931  0.996774  1
  I  I13  1  0.143979  0.346033  0.492504  1
  I  I14  1  0.653967  0.856021  0.007496  1
  I  I15  1  0.345618  0.855941  0.505665  1
  I  I16  1  0.144059  0.654382  0.994335  1
  I  I17  1  0.855928  0.345795  0.010054  1
