# generated using pymatgen
data_Nd12Sn5Ge7Pd12
_symmetry_space_group_name_H-M   'P 1'
_cell_length_a   4.60614300
_cell_length_b   7.85863150
_cell_length_c   22.21917148
_cell_angle_alpha   89.82596432
_cell_angle_beta   90.00000000
_cell_angle_gamma   90.00000000
_symmetry_Int_Tables_number   1
_chemical_formula_structural   Nd12Sn5Ge7Pd12
_chemical_formula_sum   'Nd12 Sn5 Ge7 Pd12'
_cell_volume   804.28542442
_cell_formula_units_Z   1
loop_
 _symmetry_equiv_pos_site_id
 _symmetry_equiv_pos_as_xyz
  1  'x, y, z'
loop_
 _atom_site_type_symbol
 _atom_site_label
 _atom_site_symmetry_multiplicity
 _atom_site_fract_x
 _atom_site_fract_y
 _atom_site_fract_z
 _atom_site_occupancy
  Nd  Nd0  1  0.250000  0.708239  0.331983  1
  Nd  Nd1  1  0.750000  0.284171  0.669496  1
  Nd  Nd2  1  0.750000  0.220190  0.166411  1
  Nd  Nd3  1  0.250000  0.783558  0.830682  1
  Nd  Nd4  1  0.250000  0.779448  0.165927  1
  Nd  Nd5  1  0.750000  0.215242  0.831337  1
  Nd  Nd6  1  0.750000  0.292880  0.334850  1
  Nd  Nd7  1  0.250000  0.715349  0.668816  1
  Nd  Nd8  1  0.250000  0.699316  0.002843  1
  Nd  Nd9  1  0.750000  0.300201  0.995513  1
  Nd  Nd10  1  0.750000  0.199325  0.497670  1
  Nd  Nd11  1  0.250000  0.801689  0.504539  1
  Sn  Sn12  1  0.250000  0.087242  0.068251  1
  Sn  Sn13  1  0.750000  0.911457  0.930831  1
  Sn  Sn14  1  0.750000  0.591528  0.433280  1
  Sn  Sn15  1  0.250000  0.411923  0.569437  1
  Sn  Sn16  1  0.250000  0.085225  0.266249  1
  Ge  Ge17  1  0.750000  0.916013  0.732586  1
  Ge  Ge18  1  0.750000  0.582223  0.231472  1
  Ge  Ge19  1  0.250000  0.415945  0.767396  1
  Ge  Ge20  1  0.250000  0.086315  0.398189  1
  Ge  Ge21  1  0.750000  0.914986  0.605277  1
  Ge  Ge22  1  0.750000  0.584490  0.103009  1
  Ge  Ge23  1  0.250000  0.414937  0.895143  1
  Pd  Pd24  1  0.250000  0.427380  0.236987  1
  Pd  Pd25  1  0.750000  0.582109  0.761895  1
  Pd  Pd26  1  0.750000  0.902689  0.261725  1
  Pd  Pd27  1  0.250000  0.082254  0.738324  1
  Pd  Pd28  1  0.250000  0.404572  0.436782  1
  Pd  Pd29  1  0.750000  0.598463  0.565708  1
  Pd  Pd30  1  0.750000  0.901825  0.063330  1
  Pd  Pd31  1  0.250000  0.097806  0.934951  1
  Pd  Pd32  1  0.250000  0.427110  0.095605  1
  Pd  Pd33  1  0.750000  0.571566  0.902876  1
  Pd  Pd34  1  0.750000  0.930784  0.403254  1
  Pd  Pd35  1  0.250000  0.071555  0.597377  1
