# generated using pymatgen
data_PrNdEr4(RuO7)2
_symmetry_space_group_name_H-M   'P 1'
_cell_length_a   6.42486549
_cell_length_b   6.42486481
_cell_length_c   7.49862914
_cell_angle_alpha   90.01275359
_cell_angle_beta   90.01275292
_cell_angle_gamma   109.97085578
_symmetry_Int_Tables_number   1
_chemical_formula_structural   PrNdEr4(RuO7)2
_chemical_formula_sum   'Pr1 Nd1 Er4 Ru2 O14'
_cell_volume   290.92164424
_cell_formula_units_Z   1
loop_
 _symmetry_equiv_pos_site_id
 _symmetry_equiv_pos_as_xyz
  1  'x, y, z'
loop_
 _atom_site_type_symbol
 _atom_site_label
 _atom_site_symmetry_multiplicity
 _atom_site_fract_x
 _atom_site_fract_y
 _atom_site_fract_z
 _atom_site_occupancy
  Pr  Pr0  1  0.000000  0.000000  0.500000  1
  Nd  Nd1  1  0.000000  0.000000  0.000000  1
  Er  Er2  1  0.483176  0.932980  0.750155  1
  Er  Er3  1  0.516824  0.067020  0.249845  1
  Er  Er4  1  0.932980  0.483176  0.750155  1
  Er  Er5  1  0.067020  0.516824  0.249845  1
  Ru  Ru6  1  0.500000  0.500000  0.500000  1
  Ru  Ru7  1  0.500000  0.500000  0.000000  1
  O  O8  1  0.590988  0.590988  0.749968  1
  O  O9  1  0.409012  0.409012  0.250032  1
  O  O10  1  0.836300  0.119813  0.751167  1
  O  O11  1  0.163700  0.880187  0.248833  1
  O  O12  1  0.119813  0.836300  0.751167  1
  O  O13  1  0.880187  0.163700  0.248833  1
  O  O14  1  0.440083  0.180037  0.963305  1
  O  O15  1  0.559278  0.819815  0.463257  1
  O  O16  1  0.180037  0.440083  0.963305  1
  O  O17  1  0.819815  0.559278  0.463257  1
  O  O18  1  0.440722  0.180185  0.536743  1
  O  O19  1  0.559917  0.819963  0.036695  1
  O  O20  1  0.819963  0.559917  0.036695  1
  O  O21  1  0.180185  0.440722  0.536743  1
