# generated using pymatgen
data_Tb7Lu(SiI6)2
_symmetry_space_group_name_H-M   'P 1'
_cell_length_a   4.21254700
_cell_length_b   14.02984860
_cell_length_c   14.82344332
_cell_angle_alpha   90.15941238
_cell_angle_beta   90.00000000
_cell_angle_gamma   90.00000000
_symmetry_Int_Tables_number   1
_chemical_formula_structural   Tb7Lu(SiI6)2
_chemical_formula_sum   'Tb7 Lu1 Si2 I12'
_cell_volume   876.08281206
_cell_formula_units_Z   1
loop_
 _symmetry_equiv_pos_site_id
 _symmetry_equiv_pos_as_xyz
  1  'x, y, z'
loop_
 _atom_site_type_symbol
 _atom_site_label
 _atom_site_symmetry_multiplicity
 _atom_site_fract_x
 _atom_site_fract_y
 _atom_site_fract_z
 _atom_site_occupancy
  Tb  Tb0  1  0.500000  0.114565  0.348102  1
  Tb  Tb1  1  0.500000  0.886026  0.652226  1
  Tb  Tb2  1  0.500000  0.614734  0.152700  1
  Tb  Tb3  1  0.500000  0.385178  0.847236  1
  Tb  Tb4  1  0.000000  0.890227  0.426164  1
  Tb  Tb5  1  0.000000  0.611612  0.924982  1
  Tb  Tb6  1  0.000000  0.388428  0.075002  1
  Lu  Lu7  1  0.000000  0.109626  0.573592  1
  Si  Si8  1  0.500000  0.002508  0.501653  1
  Si  Si9  1  0.500000  0.499919  0.999852  1
  I  I10  1  0.500000  0.244964  0.162504  1
  I  I11  1  0.500000  0.755429  0.837700  1
  I  I12  1  0.500000  0.745811  0.338336  1
  I  I13  1  0.500000  0.249273  0.659352  1
  I  I14  1  0.000000  0.257956  0.418638  1
  I  I15  1  0.000000  0.741038  0.584659  1
  I  I16  1  0.000000  0.759513  0.085078  1
  I  I17  1  0.000000  0.240441  0.914742  1
  I  I18  1  0.000000  0.998981  0.240493  1
  I  I19  1  0.000000  0.004250  0.757180  1
  I  I20  1  0.000000  0.499105  0.260182  1
  I  I21  1  0.000000  0.500419  0.739629  1
