# generated using pymatgen
data_TbDy2Y(Al3Ir)6
_symmetry_space_group_name_H-M   'P 1'
_cell_length_a   7.55209479
_cell_length_b   7.55207310
_cell_length_c   9.48044300
_cell_angle_alpha   90.00000000
_cell_angle_beta   90.00000000
_cell_angle_gamma   119.48537113
_symmetry_Int_Tables_number   1
_chemical_formula_structural   TbDy2Y(Al3Ir)6
_chemical_formula_sum   'Tb1 Dy2 Y1 Al18 Ir6'
_cell_volume   470.67566142
_cell_formula_units_Z   1
loop_
 _symmetry_equiv_pos_site_id
 _symmetry_equiv_pos_as_xyz
  1  'x, y, z'
loop_
 _atom_site_type_symbol
 _atom_site_label
 _atom_site_symmetry_multiplicity
 _atom_site_fract_x
 _atom_site_fract_y
 _atom_site_fract_z
 _atom_site_occupancy
  Tb  Tb0  1  0.671059  0.994563  0.750000  1
  Dy  Dy1  1  0.005435  0.328931  0.250000  1
  Dy  Dy2  1  0.328890  0.005405  0.250000  1
  Y  Y3  1  0.994527  0.670961  0.750000  1
  Al  Al4  1  0.129095  0.129241  0.750000  1
  Al  Al5  1  0.870918  0.870955  0.250000  1
  Al  Al6  1  0.001144  0.335173  0.573514  1
  Al  Al7  1  0.998998  0.664861  0.426034  1
  Al  Al8  1  0.998998  0.664861  0.073966  1
  Al  Al9  1  0.335081  0.001104  0.926484  1
  Al  Al10  1  0.001144  0.335173  0.926486  1
  Al  Al11  1  0.664864  0.999005  0.073896  1
  Al  Al12  1  0.664864  0.999005  0.426104  1
  Al  Al13  1  0.335081  0.001104  0.573516  1
  Al  Al14  1  0.333396  0.333395  0.051370  1
  Al  Al15  1  0.666557  0.666528  0.949020  1
  Al  Al16  1  0.666557  0.666528  0.550980  1
  Al  Al17  1  0.333396  0.333395  0.448630  1
  Al  Al18  1  0.339441  0.547939  0.750000  1
  Al  Al19  1  0.660661  0.451941  0.250000  1
  Al  Al20  1  0.547798  0.339092  0.750000  1
  Al  Al21  1  0.451978  0.660700  0.250000  1
  Ir  Ir22  1  0.671821  0.328134  0.499888  1
  Ir  Ir23  1  0.328133  0.671827  0.499866  1
  Ir  Ir24  1  0.328133  0.671827  0.000134  1
  Ir  Ir25  1  0.671821  0.328134  0.000112  1
  Ir  Ir26  1  0.000103  0.000111  0.499837  1
  Ir  Ir27  1  0.000103  0.000111  0.000163  1
