# generated using pymatgen
data_TbY3AlRu7
_symmetry_space_group_name_H-M   'P 1'
_cell_length_a   5.38753500
_cell_length_b   5.38753597
_cell_length_c   8.63807800
_cell_angle_alpha   90.00000000
_cell_angle_beta   90.00000000
_cell_angle_gamma   120.00000021
_symmetry_Int_Tables_number   1
_chemical_formula_structural   TbY3AlRu7
_chemical_formula_sum   'Tb1 Y3 Al1 Ru7'
_cell_volume   217.13410305
_cell_formula_units_Z   1
loop_
 _symmetry_equiv_pos_site_id
 _symmetry_equiv_pos_as_xyz
  1  'x, y, z'
loop_
 _atom_site_type_symbol
 _atom_site_label
 _atom_site_symmetry_multiplicity
 _atom_site_fract_x
 _atom_site_fract_y
 _atom_site_fract_z
 _atom_site_occupancy
  Tb  Tb0  1  0.333333  0.666667  0.435402  1
  Y  Y1  1  0.666667  0.333333  0.564545  1
  Y  Y2  1  0.666667  0.333333  0.929595  1
  Y  Y3  1  0.333333  0.666667  0.070541  1
  Al  Al4  1  0.000000  0.000000  0.999820  1
  Ru  Ru5  1  0.170991  0.341982  0.751318  1
  Ru  Ru6  1  0.170991  0.829009  0.751318  1
  Ru  Ru7  1  0.341759  0.170879  0.248699  1
  Ru  Ru8  1  0.829121  0.658241  0.248699  1
  Ru  Ru9  1  0.658018  0.829009  0.751318  1
  Ru  Ru10  1  0.829121  0.170879  0.248699  1
  Ru  Ru11  1  0.000000  0.000000  0.500045  1
