# generated using pymatgen
data_Zr10TiSb5
_symmetry_space_group_name_H-M   'P 1'
_cell_length_a   5.60589722
_cell_length_b   8.44622467
_cell_length_c   8.44622531
_cell_angle_alpha   96.32280498
_cell_angle_beta   109.38161194
_cell_angle_gamma   70.61839928
_symmetry_Int_Tables_number   1
_chemical_formula_structural   Zr10TiSb5
_chemical_formula_sum   'Zr10 Ti1 Sb5'
_cell_volume   355.87462171
_cell_formula_units_Z   1
loop_
 _symmetry_equiv_pos_site_id
 _symmetry_equiv_pos_as_xyz
  1  'x, y, z'
loop_
 _atom_site_type_symbol
 _atom_site_label
 _atom_site_symmetry_multiplicity
 _atom_site_fract_x
 _atom_site_fract_y
 _atom_site_fract_z
 _atom_site_occupancy
  Zr  Zr0  1  0.411026  0.860319  0.703932  1
  Zr  Zr1  1  0.567413  0.139681  0.296068  1
  Zr  Zr2  1  0.932587  0.296068  0.139681  1
  Zr  Zr3  1  0.088974  0.703932  0.860319  1
  Zr  Zr4  1  0.707094  0.703932  0.139681  1
  Zr  Zr5  1  0.271345  0.296068  0.860319  1
  Zr  Zr6  1  0.792906  0.139681  0.703932  1
  Zr  Zr7  1  0.228655  0.860319  0.296068  1
  Zr  Zr8  1  0.250000  0.500000  0.500000  1
  Zr  Zr9  1  0.750000  0.500000  0.500000  1
  Ti  Ti10  1  0.250000  0.000000  0.000000  1
  Sb  Sb11  1  0.337216  0.500000  0.174433  1
  Sb  Sb12  1  0.662784  0.500000  0.825567  1
  Sb  Sb13  1  0.837216  0.825567  0.500000  1
  Sb  Sb14  1  0.162784  0.174433  0.500000  1
  Sb  Sb15  1  0.750000  0.000000  0.000000  1
