# generated using pymatgen
data_Sr8In15HgAu12
_symmetry_space_group_name_H-M   'P 1'
_cell_length_a   15.31582000
_cell_length_b   15.32141692
_cell_length_c   4.62162500
_cell_angle_alpha   90.00000000
_cell_angle_beta   90.00000000
_cell_angle_gamma   119.98792100
_symmetry_Int_Tables_number   1
_chemical_formula_structural   Sr8In15HgAu12
_chemical_formula_sum   'Sr8 In15 Hg1 Au12'
_cell_volume   939.32821476
_cell_formula_units_Z   1
loop_
 _symmetry_equiv_pos_site_id
 _symmetry_equiv_pos_as_xyz
  1  'x, y, z'
loop_
 _atom_site_type_symbol
 _atom_site_label
 _atom_site_symmetry_multiplicity
 _atom_site_fract_x
 _atom_site_fract_y
 _atom_site_fract_z
 _atom_site_occupancy
  Sr  Sr0  1  0.449320  0.000000  0.000000  1
  Sr  Sr1  1  0.999960  0.452273  0.000000  1
  Sr  Sr2  1  0.547688  0.547727  0.000000  1
  Sr  Sr3  1  0.333636  0.665963  0.000000  1
  Sr  Sr4  1  0.667674  0.334037  0.000000  1
  Sr  Sr5  1  0.820356  0.000000  0.500000  1
  Sr  Sr6  1  0.002023  0.821429  0.500000  1
  Sr  Sr7  1  0.180594  0.178571  0.500000  1
  In  In8  1  0.183103  0.380811  0.000000  1
  In  In9  1  0.619565  0.802317  0.000000  1
  In  In10  1  0.380336  0.181797  0.000000  1
  In  In11  1  0.198538  0.818203  0.000000  1
  In  In12  1  0.802293  0.619189  0.000000  1
  In  In13  1  0.817249  0.197683  0.000000  1
  In  In14  1  0.000380  0.280446  0.500000  1
  In  In15  1  0.719933  0.719554  0.500000  1
  In  In16  1  0.348564  0.471736  0.500000  1
  In  In17  1  0.527398  0.877281  0.500000  1
  In  In18  1  0.472451  0.350456  0.500000  1
  In  In19  1  0.121994  0.649544  0.500000  1
  In  In20  1  0.876828  0.528264  0.500000  1
  In  In21  1  0.650116  0.122719  0.500000  1
  In  In22  1  0.997836  0.000000  0.000000  1
  Hg  Hg23  1  0.279863  0.000000  0.500000  1
  Au  Au24  1  0.172432  0.491926  0.500000  1
  Au  Au25  1  0.507670  0.680975  0.500000  1
  Au  Au26  1  0.499161  0.179188  0.500000  1
  Au  Au27  1  0.319973  0.820812  0.500000  1
  Au  Au28  1  0.680507  0.508074  0.500000  1
  Au  Au29  1  0.826695  0.319025  0.500000  1
  Au  Au30  1  0.172814  0.000000  0.000000  1
  Au  Au31  1  0.000160  0.178430  0.000000  1
  Au  Au32  1  0.821730  0.821570  0.000000  1
  Au  Au33  1  0.659417  0.000000  0.000000  1
  Au  Au34  1  0.000785  0.659828  0.000000  1
  Au  Au35  1  0.340956  0.340172  0.000000  1
