# generated using pymatgen
data_Tb2Nb3P7PtRh8
_symmetry_space_group_name_H-M   'P 1'
_cell_length_a   3.95092000
_cell_length_b   9.65431736
_cell_length_c   9.67172964
_cell_angle_alpha   120.36723656
_cell_angle_beta   89.99939117
_cell_angle_gamma   90.00022337
_symmetry_Int_Tables_number   1
_chemical_formula_structural   Tb2Nb3P7PtRh8
_chemical_formula_sum   'Tb2 Nb3 P7 Pt1 Rh8'
_cell_volume   318.29920046
_cell_formula_units_Z   1
loop_
 _symmetry_equiv_pos_site_id
 _symmetry_equiv_pos_as_xyz
  1  'x, y, z'
loop_
 _atom_site_type_symbol
 _atom_site_label
 _atom_site_symmetry_multiplicity
 _atom_site_fract_x
 _atom_site_fract_y
 _atom_site_fract_z
 _atom_site_occupancy
  Tb  Tb0  1  0.261917  0.669223  0.332310  1
  Tb  Tb1  1  0.761948  0.331713  0.667093  1
  Nb  Nb2  1  0.761906  0.092969  0.872975  1
  Nb  Nb3  1  0.761911  0.129465  0.223728  1
  Nb  Nb4  1  0.761930  0.778293  0.906342  1
  P  P5  1  0.262003  0.999481  0.000977  1
  P  P6  1  0.761872  0.883570  0.589704  1
  P  P7  1  0.761919  0.406479  0.279306  1
  P  P8  1  0.761806  0.713049  0.121723  1
  P  P9  1  0.261856  0.117445  0.417213  1
  P  P10  1  0.261968  0.582290  0.706342  1
  P  P11  1  0.261868  0.298155  0.882913  1
  Pt  Pt12  1  0.761926  0.610307  0.551266  1
  Rh  Rh13  1  0.261874  0.885610  0.163424  1
  Rh  Rh14  1  0.261886  0.834569  0.722232  1
  Rh  Rh15  1  0.261893  0.279289  0.116867  1
  Rh  Rh16  1  0.761870  0.443673  0.053334  1
  Rh  Rh17  1  0.761897  0.946588  0.387329  1
  Rh  Rh18  1  0.261915  0.368762  0.442149  1
  Rh  Rh19  1  0.261920  0.560946  0.931983  1
  Rh  Rh20  1  0.261916  0.068125  0.630786  1
