# generated using pymatgen
data_Y8Sc12Si11Ge5
_symmetry_space_group_name_H-M   'P 1'
_cell_length_a   7.14836319
_cell_length_b   7.40914962
_cell_length_c   14.05598704
_cell_angle_alpha   89.98025097
_cell_angle_beta   89.33961688
_cell_angle_gamma   90.03179917
_symmetry_Int_Tables_number   1
_chemical_formula_structural   Y8Sc12Si11Ge5
_chemical_formula_sum   'Y8 Sc12 Si11 Ge5'
_cell_volume   744.40174275
_cell_formula_units_Z   1
loop_
 _symmetry_equiv_pos_site_id
 _symmetry_equiv_pos_as_xyz
  1  'x, y, z'
loop_
 _atom_site_type_symbol
 _atom_site_label
 _atom_site_symmetry_multiplicity
 _atom_site_fract_x
 _atom_site_fract_y
 _atom_site_fract_z
 _atom_site_occupancy
  Y  Y0  1  0.009575  0.174700  0.096683  1
  Y  Y1  1  0.991778  0.825237  0.903090  1
  Y  Y2  1  0.490418  0.676008  0.902819  1
  Y  Y3  1  0.995774  0.822047  0.598739  1
  Y  Y4  1  0.506263  0.323498  0.096960  1
  Y  Y5  1  0.004056  0.177589  0.401106  1
  Y  Y6  1  0.503602  0.322334  0.401129  1
  Y  Y7  1  0.496175  0.677466  0.598877  1
  Sc  Sc8  1  0.168142  0.500992  0.751076  1
  Sc  Sc9  1  0.832101  0.499143  0.250317  1
  Sc  Sc10  1  0.332212  0.001059  0.249091  1
  Sc  Sc11  1  0.667907  0.998855  0.751023  1
  Sc  Sc12  1  0.340912  0.172027  0.626715  1
  Sc  Sc13  1  0.659279  0.828450  0.372998  1
  Sc  Sc14  1  0.159315  0.671973  0.373104  1
  Sc  Sc15  1  0.663305  0.825719  0.125896  1
  Sc  Sc16  1  0.840930  0.328036  0.626689  1
  Sc  Sc17  1  0.335271  0.176415  0.874781  1
  Sc  Sc18  1  0.836039  0.322203  0.875017  1
  Sc  Sc19  1  0.166337  0.676649  0.124717  1
  Si  Si20  1  0.040246  0.116504  0.750917  1
  Si  Si21  1  0.960139  0.882726  0.248665  1
  Si  Si22  1  0.459952  0.616889  0.249002  1
  Si  Si23  1  0.540965  0.382815  0.751073  1
  Si  Si24  1  0.291364  0.872606  0.750930  1
  Si  Si25  1  0.708495  0.128265  0.248895  1
  Si  Si26  1  0.207776  0.372487  0.248755  1
  Si  Si27  1  0.791802  0.627119  0.751351  1
  Si  Si28  1  0.164206  0.463270  0.959988  1
  Si  Si29  1  0.659046  0.035366  0.960792  1
  Si  Si30  1  0.340885  0.964301  0.039215  1
  Ge  Ge31  1  0.176490  0.459599  0.540736  1
  Ge  Ge32  1  0.823826  0.540444  0.459126  1
  Ge  Ge33  1  0.324019  0.959417  0.459141  1
  Ge  Ge34  1  0.835116  0.537356  0.039944  1
  Ge  Ge35  1  0.676280  0.040437  0.540643  1
