# generated using pymatgen
data_La5Pr3InHgIr2
_symmetry_space_group_name_H-M   'P 1'
_cell_length_a   10.00146373
_cell_length_b   10.00151519
_cell_length_c   10.00233300
_cell_angle_alpha   60.00704199
_cell_angle_beta   60.00726870
_cell_angle_gamma   60.03538346
_symmetry_Int_Tables_number   1
_chemical_formula_structural   La5Pr3InHgIr2
_chemical_formula_sum   'La10 Pr6 In2 Hg2 Ir4'
_cell_volume   707.74801762
_cell_formula_units_Z   2
loop_
 _symmetry_equiv_pos_site_id
 _symmetry_equiv_pos_as_xyz
  1  'x, y, z'
loop_
 _atom_site_type_symbol
 _atom_site_label
 _atom_site_symmetry_multiplicity
 _atom_site_fract_x
 _atom_site_fract_y
 _atom_site_fract_z
 _atom_site_occupancy
  La  La0  1  0.347711  0.347792  0.347633  1
  La  La1  1  0.349128  0.349269  0.954343  1
  La  La2  1  0.349439  0.954956  0.348339  1
  La  La3  1  0.953860  0.350061  0.348948  1
  La  La4  1  0.809207  0.191811  0.191554  1
  La  La5  1  0.191573  0.806790  0.806851  1
  La  La6  1  0.193097  0.807851  0.190345  1
  La  La7  1  0.807308  0.192211  0.807195  1
  La  La8  1  0.189702  0.190003  0.809860  1
  La  La9  1  0.806102  0.806213  0.192478  1
  Pr  Pr10  1  0.941870  0.563262  0.562040  1
  Pr  Pr11  1  0.562255  0.939264  0.935686  1
  Pr  Pr12  1  0.563048  0.942119  0.562098  1
  Pr  Pr13  1  0.939044  0.561857  0.935889  1
  Pr  Pr14  1  0.563376  0.562761  0.939115  1
  Pr  Pr15  1  0.938252  0.938313  0.560966  1
  In  In16  1  0.580103  0.580228  0.580693  1
  In  In17  1  0.579894  0.580041  0.259185  1
  Hg  Hg18  1  0.582334  0.252153  0.582634  1
  Hg  Hg19  1  0.252270  0.582232  0.582497  1
  Ir  Ir20  1  0.140607  0.141014  0.140838  1
  Ir  Ir21  1  0.140915  0.141070  0.578113  1
  Ir  Ir22  1  0.141207  0.577460  0.141372  1
  Ir  Ir23  1  0.577696  0.141265  0.141329  1
