# generated using pymatgen
data_La8Si12OsPt3
_symmetry_space_group_name_H-M   'P 1'
_cell_length_a   8.31158500
_cell_length_b   8.31158496
_cell_length_c   8.78232400
_cell_angle_alpha   90.00000000
_cell_angle_beta   90.00000000
_cell_angle_gamma   119.99999617
_symmetry_Int_Tables_number   1
_chemical_formula_structural   La8Si12OsPt3
_chemical_formula_sum   'La8 Si12 Os1 Pt3'
_cell_volume   525.42145517
_cell_formula_units_Z   1
loop_
 _symmetry_equiv_pos_site_id
 _symmetry_equiv_pos_as_xyz
  1  'x, y, z'
loop_
 _atom_site_type_symbol
 _atom_site_label
 _atom_site_symmetry_multiplicity
 _atom_site_fract_x
 _atom_site_fract_y
 _atom_site_fract_z
 _atom_site_occupancy
  La  La0  1  0.000000  0.000000  0.249500  1
  La  La1  1  0.000000  0.000000  0.749935  1
  La  La2  1  0.498166  0.501834  0.255223  1
  La  La3  1  0.498166  0.996335  0.255223  1
  La  La4  1  0.003665  0.501834  0.255223  1
  La  La5  1  0.497208  0.502792  0.745067  1
  La  La6  1  0.497208  0.994414  0.745067  1
  La  La7  1  0.005586  0.502792  0.745067  1
  Si  Si8  1  0.167154  0.832846  0.500931  1
  Si  Si9  1  0.167154  0.334309  0.500931  1
  Si  Si10  1  0.665691  0.832846  0.500931  1
  Si  Si11  1  0.835500  0.164500  0.499218  1
  Si  Si12  1  0.835500  0.671000  0.499218  1
  Si  Si13  1  0.329000  0.164500  0.499218  1
  Si  Si14  1  0.834596  0.165404  0.001665  1
  Si  Si15  1  0.834596  0.669192  0.001665  1
  Si  Si16  1  0.330808  0.165404  0.001665  1
  Si  Si17  1  0.165041  0.834959  0.998231  1
  Si  Si18  1  0.165041  0.330084  0.998231  1
  Si  Si19  1  0.669916  0.834959  0.998231  1
  Os  Os20  1  0.333333  0.666667  0.497243  1
  Pt  Pt21  1  0.666667  0.333333  0.502583  1
  Pt  Pt22  1  0.666667  0.333333  0.996695  1
  Pt  Pt23  1  0.333333  0.666667  0.003037  1
