# generated using pymatgen
data_Sm2Al16MoPt8
_symmetry_space_group_name_H-M   'P 1'
_cell_length_a   11.23832428
_cell_length_b   11.23832438
_cell_length_c   11.23832500
_cell_angle_alpha   158.83131571
_cell_angle_beta   117.08306429
_cell_angle_gamma   67.18213092
_symmetry_Int_Tables_number   1
_chemical_formula_structural   Sm2Al16MoPt8
_chemical_formula_sum   'Sm2 Al16 Mo1 Pt8'
_cell_volume   453.37013194
_cell_formula_units_Z   1
loop_
 _symmetry_equiv_pos_site_id
 _symmetry_equiv_pos_as_xyz
  1  'x, y, z'
loop_
 _atom_site_type_symbol
 _atom_site_label
 _atom_site_symmetry_multiplicity
 _atom_site_fract_x
 _atom_site_fract_y
 _atom_site_fract_z
 _atom_site_occupancy
  Sm  Sm0  1  0.231992  0.232656  0.999336  1
  Sm  Sm1  1  0.766680  0.767344  0.999336  1
  Al  Al2  1  0.274286  0.392343  0.881943  1
  Al  Al3  1  0.088954  0.925099  0.163854  1
  Al  Al4  1  0.503195  0.200530  0.302665  1
  Al  Al5  1  0.238755  0.074901  0.163854  1
  Al  Al6  1  0.908555  0.416025  0.492530  1
  Al  Al7  1  0.725332  0.599434  0.125898  1
  Al  Al8  1  0.903887  0.210586  0.693301  1
  Al  Al9  1  0.482717  0.789414  0.693301  1
  Al  Al10  1  0.390378  0.000000  0.390378  1
  Al  Al11  1  0.627462  0.000000  0.627462  1
  Al  Al12  1  0.489599  0.607657  0.881943  1
  Al  Al13  1  0.102135  0.799470  0.302665  1
  Al  Al14  1  0.912175  0.089394  0.822783  1
  Al  Al15  1  0.733388  0.910606  0.822783  1
  Al  Al16  1  0.526463  0.400566  0.125898  1
  Al  Al17  1  0.076506  0.583975  0.492530  1
  Mo  Mo18  1  0.787490  0.500000  0.287490  1
  Pt  Pt19  1  0.023657  0.344003  0.679653  1
  Pt  Pt20  1  0.629783  0.127250  0.502532  1
  Pt  Pt21  1  0.256578  0.500000  0.756578  1
  Pt  Pt22  1  0.375283  0.872750  0.502532  1
  Pt  Pt23  1  0.982852  0.000000  0.982852  1
  Pt  Pt24  1  0.646707  0.333581  0.313127  1
  Pt  Pt25  1  0.335650  0.655997  0.679653  1
  Pt  Pt26  1  0.979545  0.666419  0.313127  1
