# generated using pymatgen
data_YbEr3PtRh3O14
_symmetry_space_group_name_H-M   'P 1'
_cell_length_a   7.20778145
_cell_length_b   7.20778082
_cell_length_c   7.20778200
_cell_angle_alpha   59.98786224
_cell_angle_beta   59.98786663
_cell_angle_gamma   59.98785917
_symmetry_Int_Tables_number   1
_chemical_formula_structural   YbEr3PtRh3O14
_chemical_formula_sum   'Yb1 Er3 Pt1 Rh3 O14'
_cell_volume   264.70996479
_cell_formula_units_Z   1
loop_
 _symmetry_equiv_pos_site_id
 _symmetry_equiv_pos_as_xyz
  1  'x, y, z'
loop_
 _atom_site_type_symbol
 _atom_site_label
 _atom_site_symmetry_multiplicity
 _atom_site_fract_x
 _atom_site_fract_y
 _atom_site_fract_z
 _atom_site_occupancy
  Yb  Yb0  1  0.625000  0.625000  0.625000  1
  Er  Er1  1  0.625000  0.625000  0.125000  1
  Er  Er2  1  0.625000  0.125000  0.625000  1
  Er  Er3  1  0.125000  0.625000  0.625000  1
  Pt  Pt4  1  0.125000  0.125000  0.125000  1
  Rh  Rh5  1  0.625000  0.125000  0.125000  1
  Rh  Rh6  1  0.125000  0.625000  0.125000  1
  Rh  Rh7  1  0.125000  0.125000  0.625000  1
  O  O8  1  0.048173  0.457858  0.457858  1
  O  O9  1  0.792142  0.792142  0.201827  1
  O  O10  1  0.786346  0.214418  0.214418  1
  O  O11  1  0.752523  0.752523  0.752523  1
  O  O12  1  0.035582  0.463654  0.035582  1
  O  O13  1  0.457858  0.048173  0.457858  1
  O  O14  1  0.035582  0.035582  0.463654  1
  O  O15  1  0.497477  0.497477  0.497477  1
  O  O16  1  0.214418  0.214418  0.786346  1
  O  O17  1  0.214418  0.786346  0.214418  1
  O  O18  1  0.792142  0.201827  0.792142  1
  O  O19  1  0.463654  0.035582  0.035582  1
  O  O20  1  0.457858  0.457858  0.048173  1
  O  O21  1  0.201827  0.792142  0.792142  1
