# generated using pymatgen
data_SmUN3
_symmetry_space_group_name_H-M   'P 1'
_cell_length_a   6.01294400
_cell_length_b   5.81418900
_cell_length_c   8.39383900
_cell_angle_alpha   90.00000000
_cell_angle_beta   90.00000000
_cell_angle_gamma   90.00000000
_symmetry_Int_Tables_number   1
_chemical_formula_structural   SmUN3
_chemical_formula_sum   'Sm4 U4 N12'
_cell_volume   293.45190906
_cell_formula_units_Z   4
loop_
 _symmetry_equiv_pos_site_id
 _symmetry_equiv_pos_as_xyz
  1  'x, y, z'
loop_
 _atom_site_type_symbol
 _atom_site_label
 _atom_site_symmetry_multiplicity
 _atom_site_fract_x
 _atom_site_fract_y
 _atom_site_fract_z
 _atom_site_occupancy
  Sm  Sm0  1  0.551028  0.486048  0.750000  1
  Sm  Sm1  1  0.051028  0.013952  0.750000  1
  Sm  Sm2  1  0.948972  0.986048  0.250000  1
  Sm  Sm3  1  0.448972  0.513952  0.250000  1
  U  U4  1  0.000000  0.500000  0.500000  1
  U  U5  1  0.500000  0.000000  0.000000  1
  U  U6  1  0.500000  0.000000  0.500000  1
  U  U7  1  0.000000  0.500000  0.000000  1
  N  N8  1  0.194908  0.788612  0.059399  1
  N  N9  1  0.805092  0.211388  0.559399  1
  N  N10  1  0.805092  0.211388  0.940601  1
  N  N11  1  0.456755  0.889340  0.750000  1
  N  N12  1  0.956755  0.610660  0.750000  1
  N  N13  1  0.543245  0.110660  0.250000  1
  N  N14  1  0.194908  0.788612  0.440601  1
  N  N15  1  0.694908  0.711388  0.440601  1
  N  N16  1  0.694908  0.711388  0.059399  1
  N  N17  1  0.305092  0.288612  0.559399  1
  N  N18  1  0.043245  0.389340  0.250000  1
  N  N19  1  0.305092  0.288612  0.940601  1
