# generated using pymatgen
data_CeDy2Ho(Si3Rh)2
_symmetry_space_group_name_H-M   'P 1'
_cell_length_a   8.17794000
_cell_length_b   8.17768789
_cell_length_c   7.99362100
_cell_angle_alpha   90.00000000
_cell_angle_beta   90.00000000
_cell_angle_gamma   119.99896947
_symmetry_Int_Tables_number   1
_chemical_formula_structural   CeDy2Ho(Si3Rh)2
_chemical_formula_sum   'Ce2 Dy4 Ho2 Si12 Rh4'
_cell_volume   462.97031528
_cell_formula_units_Z   2
loop_
 _symmetry_equiv_pos_site_id
 _symmetry_equiv_pos_as_xyz
  1  'x, y, z'
loop_
 _atom_site_type_symbol
 _atom_site_label
 _atom_site_symmetry_multiplicity
 _atom_site_fract_x
 _atom_site_fract_y
 _atom_site_fract_z
 _atom_site_occupancy
  Ce  Ce0  1  0.000022  0.000011  0.250000  1
  Ce  Ce1  1  0.999994  0.999997  0.750000  1
  Dy  Dy2  1  0.983205  0.491603  0.250000  1
  Dy  Dy3  1  0.491844  0.508216  0.750000  1
  Dy  Dy4  1  0.491844  0.983627  0.750000  1
  Dy  Dy5  1  0.016398  0.508199  0.750000  1
  Ho  Ho6  1  0.508123  0.491683  0.250000  1
  Ho  Ho7  1  0.508123  0.016441  0.250000  1
  Si  Si8  1  0.167443  0.832805  0.500649  1
  Si  Si9  1  0.167443  0.334639  0.500649  1
  Si  Si10  1  0.665369  0.832685  0.500517  1
  Si  Si11  1  0.832566  0.167098  0.498946  1
  Si  Si12  1  0.832566  0.665467  0.498946  1
  Si  Si13  1  0.334665  0.167332  0.498584  1
  Si  Si14  1  0.832566  0.167098  0.001054  1
  Si  Si15  1  0.832566  0.665467  0.001054  1
  Si  Si16  1  0.334665  0.167332  0.001416  1
  Si  Si17  1  0.167443  0.832805  0.999351  1
  Si  Si18  1  0.167443  0.334639  0.999351  1
  Si  Si19  1  0.665369  0.832685  0.999483  1
  Rh  Rh20  1  0.333677  0.666839  0.466794  1
  Rh  Rh21  1  0.666494  0.333247  0.531310  1
  Rh  Rh22  1  0.666494  0.333247  0.968690  1
  Rh  Rh23  1  0.333677  0.666839  0.033206  1
