# generated using pymatgen
data_Li6Sm2UN6
_symmetry_space_group_name_H-M   'P 1'
_cell_length_a   6.14847700
_cell_length_b   6.14847701
_cell_length_c   5.49387100
_cell_angle_alpha   90.00000000
_cell_angle_beta   90.00000000
_cell_angle_gamma   120.00000532
_symmetry_Int_Tables_number   1
_chemical_formula_structural   Li6Sm2UN6
_chemical_formula_sum   'Li6 Sm2 U1 N6'
_cell_volume   179.86396889
_cell_formula_units_Z   1
loop_
 _symmetry_equiv_pos_site_id
 _symmetry_equiv_pos_as_xyz
  1  'x, y, z'
loop_
 _atom_site_type_symbol
 _atom_site_label
 _atom_site_symmetry_multiplicity
 _atom_site_fract_x
 _atom_site_fract_y
 _atom_site_fract_z
 _atom_site_occupancy
  Li  Li0  1  0.973863  0.644489  0.602600  1
  Li  Li1  1  0.355511  0.329374  0.602600  1
  Li  Li2  1  0.670626  0.026137  0.602600  1
  Li  Li3  1  0.002271  0.337957  0.394933  1
  Li  Li4  1  0.662043  0.664315  0.394933  1
  Li  Li5  1  0.335685  0.997729  0.394933  1
  Sm  Sm6  1  0.000000  0.000000  0.998589  1
  Sm  Sm7  1  0.333333  0.666667  0.991907  1
  U  U8  1  0.666667  0.333333  0.006133  1
  N  N9  1  0.971292  0.638005  0.228252  1
  N  N10  1  0.361995  0.333287  0.228252  1
  N  N11  1  0.666713  0.028708  0.228252  1
  N  N12  1  0.967507  0.333702  0.775339  1
  N  N13  1  0.666298  0.633805  0.775339  1
  N  N14  1  0.366195  0.032493  0.775339  1
