# generated using pymatgen
data_La2Sm2DySn4
_symmetry_space_group_name_H-M   'P 1'
_cell_length_a   8.21315000
_cell_length_b   8.36442500
_cell_length_c   15.88376200
_cell_angle_alpha   90.00000000
_cell_angle_beta   90.00000000
_cell_angle_gamma   90.00000000
_symmetry_Int_Tables_number   1
_chemical_formula_structural   La2Sm2DySn4
_chemical_formula_sum   'La8 Sm8 Dy4 Sn16'
_cell_volume   1091.18708468
_cell_formula_units_Z   4
loop_
 _symmetry_equiv_pos_site_id
 _symmetry_equiv_pos_as_xyz
  1  'x, y, z'
loop_
 _atom_site_type_symbol
 _atom_site_label
 _atom_site_symmetry_multiplicity
 _atom_site_fract_x
 _atom_site_fract_y
 _atom_site_fract_z
 _atom_site_occupancy
  La  La0  1  0.515305  0.320649  0.902597  1
  La  La1  1  0.015305  0.179351  0.597403  1
  La  La2  1  0.484695  0.679351  0.402597  1
  La  La3  1  0.984695  0.820649  0.097403  1
  La  La4  1  0.484695  0.679351  0.097403  1
  La  La5  1  0.984695  0.820649  0.402597  1
  La  La6  1  0.515305  0.320649  0.597403  1
  La  La7  1  0.015305  0.179351  0.902597  1
  Sm  Sm8  1  0.362705  0.836303  0.878089  1
  Sm  Sm9  1  0.862705  0.663697  0.621911  1
  Sm  Sm10  1  0.637295  0.163697  0.378089  1
  Sm  Sm11  1  0.137295  0.336303  0.121911  1
  Sm  Sm12  1  0.637295  0.163697  0.121911  1
  Sm  Sm13  1  0.137295  0.336303  0.378089  1
  Sm  Sm14  1  0.362705  0.836303  0.621911  1
  Sm  Sm15  1  0.862705  0.663697  0.878089  1
  Dy  Dy16  1  0.196529  0.501872  0.750000  1
  Dy  Dy17  1  0.696529  0.998128  0.750000  1
  Dy  Dy18  1  0.803471  0.498128  0.250000  1
  Dy  Dy19  1  0.303471  0.001872  0.250000  1
  Sn  Sn20  1  0.301178  0.038875  0.043043  1
  Sn  Sn21  1  0.801178  0.461125  0.456957  1
  Sn  Sn22  1  0.698822  0.961125  0.543043  1
  Sn  Sn23  1  0.198822  0.538875  0.956957  1
  Sn  Sn24  1  0.698822  0.961125  0.956957  1
  Sn  Sn25  1  0.198822  0.538875  0.543043  1
  Sn  Sn26  1  0.301178  0.038875  0.456957  1
  Sn  Sn27  1  0.801178  0.461125  0.043043  1
  Sn  Sn28  1  0.561298  0.621419  0.750000  1
  Sn  Sn29  1  0.061298  0.878581  0.750000  1
  Sn  Sn30  1  0.438702  0.378581  0.250000  1
  Sn  Sn31  1  0.938702  0.121419  0.250000  1
  Sn  Sn32  1  0.323208  0.142524  0.750000  1
  Sn  Sn33  1  0.823208  0.357476  0.750000  1
  Sn  Sn34  1  0.676792  0.857476  0.250000  1
  Sn  Sn35  1  0.176792  0.642524  0.250000  1
