# generated using pymatgen
data_Pr3Y3Ho2CdAgIr2
_symmetry_space_group_name_H-M   'P 1'
_cell_length_a   9.78896170
_cell_length_b   9.78896070
_cell_length_c   9.78896200
_cell_angle_alpha   60.00000237
_cell_angle_beta   60.00000575
_cell_angle_gamma   60.00000046
_symmetry_Int_Tables_number   1
_chemical_formula_structural   Pr3Y3Ho2CdAgIr2
_chemical_formula_sum   'Pr6 Y6 Ho4 Cd2 Ag2 Ir4'
_cell_volume   663.27692285
_cell_formula_units_Z   2
loop_
 _symmetry_equiv_pos_site_id
 _symmetry_equiv_pos_as_xyz
  1  'x, y, z'
loop_
 _atom_site_type_symbol
 _atom_site_label
 _atom_site_symmetry_multiplicity
 _atom_site_fract_x
 _atom_site_fract_y
 _atom_site_fract_z
 _atom_site_occupancy
  Pr  Pr0  1  0.939728  0.558943  0.559626  1
  Pr  Pr1  1  0.558943  0.939728  0.941702  1
  Pr  Pr2  1  0.558943  0.939728  0.559626  1
  Pr  Pr3  1  0.939728  0.558943  0.941702  1
  Pr  Pr4  1  0.558930  0.558930  0.941070  1
  Pr  Pr5  1  0.940402  0.940402  0.559598  1
  Y  Y6  1  0.812481  0.187414  0.187927  1
  Y  Y7  1  0.187414  0.812481  0.812178  1
  Y  Y8  1  0.187414  0.812481  0.187927  1
  Y  Y9  1  0.812481  0.187414  0.812178  1
  Y  Y10  1  0.187357  0.187357  0.812643  1
  Y  Y11  1  0.812051  0.812051  0.187949  1
  Ho  Ho12  1  0.346659  0.346659  0.346328  1
  Ho  Ho13  1  0.346659  0.346659  0.960353  1
  Ho  Ho14  1  0.347510  0.958749  0.346871  1
  Ho  Ho15  1  0.958749  0.347510  0.346871  1
  Cd  Cd16  1  0.579506  0.264562  0.577965  1
  Cd  Cd17  1  0.264562  0.579506  0.577965  1
  Ag  Ag18  1  0.580089  0.580089  0.579759  1
  Ag  Ag19  1  0.580089  0.580089  0.260061  1
  Ir  Ir20  1  0.142019  0.142019  0.141843  1
  Ir  Ir21  1  0.142019  0.142019  0.574121  1
  Ir  Ir22  1  0.141824  0.574441  0.141868  1
  Ir  Ir23  1  0.574441  0.141824  0.141868  1
