# generated using pymatgen
data_Sc4Mn8Fe7Co5P12
_symmetry_space_group_name_H-M   'P 1'
_cell_length_a   3.55974100
_cell_length_b   10.19690082
_cell_length_c   11.99109303
_cell_angle_alpha   90.06755288
_cell_angle_beta   90.00000000
_cell_angle_gamma   90.00000000
_symmetry_Int_Tables_number   1
_chemical_formula_structural   Sc4Mn8Fe7Co5P12
_chemical_formula_sum   'Sc4 Mn8 Fe7 Co5 P12'
_cell_volume   435.25630036
_cell_formula_units_Z   1
loop_
 _symmetry_equiv_pos_site_id
 _symmetry_equiv_pos_as_xyz
  1  'x, y, z'
loop_
 _atom_site_type_symbol
 _atom_site_label
 _atom_site_symmetry_multiplicity
 _atom_site_fract_x
 _atom_site_fract_y
 _atom_site_fract_z
 _atom_site_occupancy
  Sc  Sc0  1  0.250000  0.581642  0.710302  1
  Sc  Sc1  1  0.250000  0.919108  0.211156  1
  Sc  Sc2  1  0.750000  0.418802  0.288723  1
  Sc  Sc3  1  0.750000  0.080202  0.789358  1
  Mn  Mn4  1  0.250000  0.711081  0.991334  1
  Mn  Mn5  1  0.250000  0.788996  0.491742  1
  Mn  Mn6  1  0.750000  0.288313  0.008838  1
  Mn  Mn7  1  0.750000  0.211300  0.508752  1
  Mn  Mn8  1  0.250000  0.408739  0.489585  1
  Mn  Mn9  1  0.250000  0.090676  0.990511  1
  Mn  Mn10  1  0.750000  0.592123  0.510238  1
  Mn  Mn11  1  0.750000  0.908247  0.010508  1
  Fe  Fe12  1  0.250000  0.221036  0.173283  1
  Fe  Fe13  1  0.250000  0.278700  0.675952  1
  Fe  Fe14  1  0.750000  0.779802  0.826681  1
  Fe  Fe15  1  0.750000  0.720440  0.326610  1
  Fe  Fe16  1  0.250000  0.879292  0.695632  1
  Fe  Fe17  1  0.250000  0.620412  0.194950  1
  Fe  Fe18  1  0.750000  0.120995  0.304683  1
  Co  Co19  1  0.750000  0.381486  0.803727  1
  Co  Co20  1  0.250000  0.462114  0.932872  1
  Co  Co21  1  0.250000  0.037225  0.434757  1
  Co  Co22  1  0.750000  0.536266  0.064166  1
  Co  Co23  1  0.750000  0.963456  0.565228  1
  P  P24  1  0.250000  0.421405  0.114695  1
  P  P25  1  0.250000  0.078546  0.615404  1
  P  P26  1  0.750000  0.580277  0.885132  1
  P  P27  1  0.750000  0.921696  0.384710  1
  P  P28  1  0.250000  0.262599  0.863127  1
  P  P29  1  0.250000  0.235490  0.361371  1
  P  P30  1  0.750000  0.734923  0.138672  1
  P  P31  1  0.750000  0.765397  0.638558  1
  P  P32  1  0.250000  0.597116  0.378210  1
  P  P33  1  0.250000  0.902730  0.878985  1
  P  P34  1  0.750000  0.402319  0.619948  1
  P  P35  1  0.750000  0.097052  0.121602  1
