# generated using pymatgen
data_Hf2MnSi2Mo
_symmetry_space_group_name_H-M   'P 1'
_cell_length_a   3.54653400
_cell_length_b   6.78467339
_cell_length_c   7.96200658
_cell_angle_alpha   89.53207534
_cell_angle_beta   90.00000000
_cell_angle_gamma   90.00000000
_symmetry_Int_Tables_number   1
_chemical_formula_structural   Hf2MnSi2Mo
_chemical_formula_sum   'Hf4 Mn2 Si4 Mo2'
_cell_volume   191.57600951
_cell_formula_units_Z   2
loop_
 _symmetry_equiv_pos_site_id
 _symmetry_equiv_pos_as_xyz
  1  'x, y, z'
loop_
 _atom_site_type_symbol
 _atom_site_label
 _atom_site_symmetry_multiplicity
 _atom_site_fract_x
 _atom_site_fract_y
 _atom_site_fract_z
 _atom_site_occupancy
  Hf  Hf0  1  0.250000  0.035758  0.335347  1
  Hf  Hf1  1  0.750000  0.964242  0.664653  1
  Hf  Hf2  1  0.250000  0.541440  0.177127  1
  Hf  Hf3  1  0.750000  0.458560  0.822873  1
  Mn  Mn4  1  0.750000  0.367355  0.436852  1
  Mn  Mn5  1  0.250000  0.632645  0.563148  1
  Si  Si6  1  0.250000  0.269227  0.620260  1
  Si  Si7  1  0.750000  0.730773  0.379740  1
  Si  Si8  1  0.250000  0.757804  0.856364  1
  Si  Si9  1  0.750000  0.242196  0.143636  1
  Mo  Mo10  1  0.750000  0.861694  0.063759  1
  Mo  Mo11  1  0.250000  0.138306  0.936241  1
