# generated using pymatgen
data_Mn3Al2GaPt6
_symmetry_space_group_name_H-M   'P 1'
_cell_length_a   4.04214700
_cell_length_b   7.23305800
_cell_length_c   12.11122800
_cell_angle_alpha   89.99999527
_cell_angle_beta   89.99999998
_cell_angle_gamma   90.00003002
_symmetry_Int_Tables_number   1
_chemical_formula_structural   Mn3Al2GaPt6
_chemical_formula_sum   'Mn6 Al4 Ga2 Pt12'
_cell_volume   354.09698669
_cell_formula_units_Z   2
loop_
 _symmetry_equiv_pos_site_id
 _symmetry_equiv_pos_as_xyz
  1  'x, y, z'
loop_
 _atom_site_type_symbol
 _atom_site_label
 _atom_site_symmetry_multiplicity
 _atom_site_fract_x
 _atom_site_fract_y
 _atom_site_fract_z
 _atom_site_occupancy
  Mn  Mn0  1  0.000001  0.000000  0.999652  1
  Mn  Mn1  1  0.500022  0.500000  0.166492  1
  Mn  Mn2  1  0.000023  0.000000  0.333492  1
  Mn  Mn3  1  0.500000  0.499999  0.500352  1
  Mn  Mn4  1  0.999977  0.000000  0.666822  1
  Mn  Mn5  1  0.499976  0.500000  0.833176  1
  Al  Al6  1  0.000000  0.499999  0.000306  1
  Al  Al7  1  0.500026  0.000000  0.166897  1
  Al  Al8  1  0.000017  0.499999  0.333103  1
  Al  Al9  1  0.500001  0.000000  0.499692  1
  Ga  Ga10  1  0.999977  0.500000  0.666568  1
  Ga  Ga11  1  0.499966  0.000000  0.833437  1
  Pt  Pt12  1  0.500002  0.251394  0.001137  1
  Pt  Pt13  1  0.500002  0.748606  0.001137  1
  Pt  Pt14  1  0.000027  0.249947  0.166837  1
  Pt  Pt15  1  0.000027  0.750053  0.166837  1
  Pt  Pt16  1  0.500015  0.250048  0.333162  1
  Pt  Pt17  1  0.500014  0.749952  0.333161  1
  Pt  Pt18  1  0.000001  0.248597  0.498863  1
  Pt  Pt19  1  0.000001  0.751402  0.498863  1
  Pt  Pt20  1  0.499986  0.247289  0.665590  1
  Pt  Pt21  1  0.499986  0.752712  0.665590  1
  Pt  Pt22  1  0.999976  0.252698  0.834414  1
  Pt  Pt23  1  0.999976  0.747302  0.834414  1
