# generated using pymatgen
data_Tb10Tl2In6CoPd3
_symmetry_space_group_name_H-M   'P 1'
_cell_length_a   8.15339633
_cell_length_b   18.34172093
_cell_length_c   3.63036800
_cell_angle_alpha   90.00000000
_cell_angle_beta   90.00000000
_cell_angle_gamma   89.99868047
_symmetry_Int_Tables_number   1
_chemical_formula_structural   Tb10Tl2In6CoPd3
_chemical_formula_sum   'Tb10 Tl2 In6 Co1 Pd3'
_cell_volume   542.91180521
_cell_formula_units_Z   1
loop_
 _symmetry_equiv_pos_site_id
 _symmetry_equiv_pos_as_xyz
  1  'x, y, z'
loop_
 _atom_site_type_symbol
 _atom_site_label
 _atom_site_symmetry_multiplicity
 _atom_site_fract_x
 _atom_site_fract_y
 _atom_site_fract_z
 _atom_site_occupancy
  Tb  Tb0  1  0.499830  0.498264  0.000000  1
  Tb  Tb1  1  0.001687  0.001756  0.000000  1
  Tb  Tb2  1  0.729224  0.276995  0.000000  1
  Tb  Tb3  1  0.257429  0.718503  0.000000  1
  Tb  Tb4  1  0.756908  0.779354  0.000000  1
  Tb  Tb5  1  0.259663  0.220306  0.000000  1
  Tb  Tb6  1  0.613950  0.092192  0.000000  1
  Tb  Tb7  1  0.382849  0.916265  0.000000  1
  Tb  Tb8  1  0.880571  0.582177  0.000000  1
  Tb  Tb9  1  0.118550  0.415058  0.000000  1
  Tl  Tl10  1  0.710453  0.933898  0.500000  1
  Tl  Tl11  1  0.294491  0.070925  0.500000  1
  In  In12  1  0.792310  0.430351  0.500000  1
  In  In13  1  0.207153  0.567226  0.500000  1
  In  In14  1  0.576165  0.649018  0.500000  1
  In  In15  1  0.426155  0.347467  0.500000  1
  In  In16  1  0.921800  0.151817  0.500000  1
  In  In17  1  0.079566  0.849708  0.500000  1
  Co  Co18  1  0.523529  0.196800  0.500000  1
  Pd  Pd19  1  0.470918  0.802988  0.500000  1
  Pd  Pd20  1  0.973941  0.695382  0.500000  1
  Pd  Pd21  1  0.022861  0.303547  0.500000  1
