# generated using pymatgen
data_Ho10In8Ir2PdPt
_symmetry_space_group_name_H-M   'P 1'
_cell_length_a   3.61428000
_cell_length_b   8.12421715
_cell_length_c   18.22495945
_cell_angle_alpha   89.89980625
_cell_angle_beta   90.00000000
_cell_angle_gamma   90.00000000
_symmetry_Int_Tables_number   1
_chemical_formula_structural   Ho10In8Ir2PdPt
_chemical_formula_sum   'Ho10 In8 Ir2 Pd1 Pt1'
_cell_volume   535.14222996
_cell_formula_units_Z   1
loop_
 _symmetry_equiv_pos_site_id
 _symmetry_equiv_pos_as_xyz
  1  'x, y, z'
loop_
 _atom_site_type_symbol
 _atom_site_label
 _atom_site_symmetry_multiplicity
 _atom_site_fract_x
 _atom_site_fract_y
 _atom_site_fract_z
 _atom_site_occupancy
  Ho  Ho0  1  0.000000  0.115128  0.412102  1
  Ho  Ho1  1  0.000000  0.884623  0.587384  1
  Ho  Ho2  1  0.000000  0.382860  0.914806  1
  Ho  Ho3  1  0.000000  0.616498  0.086459  1
  Ho  Ho4  1  0.000000  0.235068  0.222202  1
  Ho  Ho5  1  0.000000  0.768981  0.777902  1
  Ho  Ho6  1  0.000000  0.244915  0.719652  1
  Ho  Ho7  1  0.000000  0.751202  0.279337  1
  Ho  Ho8  1  0.000000  0.999890  0.000432  1
  Ho  Ho9  1  0.000000  0.500217  0.499767  1
  In  In10  1  0.500000  0.424374  0.351155  1
  In  In11  1  0.500000  0.575194  0.649384  1
  In  In12  1  0.500000  0.075672  0.851335  1
  In  In13  1  0.500000  0.926531  0.148818  1
  In  In14  1  0.500000  0.292585  0.066385  1
  In  In15  1  0.500000  0.706856  0.932850  1
  In  In16  1  0.500000  0.207440  0.567311  1
  In  In17  1  0.500000  0.792774  0.432688  1
  Ir  Ir18  1  0.500000  0.020571  0.303914  1
  Ir  Ir19  1  0.500000  0.978880  0.695906  1
  Pd  Pd20  1  0.500000  0.478374  0.803353  1
  Pt  Pt21  1  0.500000  0.521366  0.196860  1
