# generated using pymatgen
data_TiNb6B8OsRu5
_symmetry_space_group_name_H-M   'P 1'
_cell_length_a   9.59943725
_cell_length_b   9.59503315
_cell_length_c   3.12547500
_cell_angle_alpha   90.00000000
_cell_angle_beta   90.00000000
_cell_angle_gamma   120.04432929
_symmetry_Int_Tables_number   1
_chemical_formula_structural   TiNb6B8OsRu5
_chemical_formula_sum   'Ti1 Nb6 B8 Os1 Ru5'
_cell_volume   249.19811098
_cell_formula_units_Z   1
loop_
 _symmetry_equiv_pos_site_id
 _symmetry_equiv_pos_as_xyz
  1  'x, y, z'
loop_
 _atom_site_type_symbol
 _atom_site_label
 _atom_site_symmetry_multiplicity
 _atom_site_fract_x
 _atom_site_fract_y
 _atom_site_fract_z
 _atom_site_occupancy
  Ti  Ti0  1  0.999224  0.999340  0.000000  1
  Nb  Nb1  1  0.274260  0.914575  0.000000  1
  Nb  Nb2  1  0.639714  0.726203  0.000000  1
  Nb  Nb3  1  0.085566  0.359745  0.000000  1
  Nb  Nb4  1  0.726019  0.086113  0.000000  1
  Nb  Nb5  1  0.359568  0.274075  0.000000  1
  Nb  Nb6  1  0.915875  0.640953  0.000000  1
  B  B7  1  0.333513  0.666844  0.000000  1
  B  B8  1  0.666149  0.333627  0.000000  1
  B  B9  1  0.849252  0.785568  0.500000  1
  B  B10  1  0.936978  0.149246  0.500000  1
  B  B11  1  0.211995  0.062746  0.500000  1
  B  B12  1  0.149128  0.212317  0.500000  1
  B  B13  1  0.063471  0.850791  0.500000  1
  B  B14  1  0.786659  0.937071  0.500000  1
  Os  Os15  1  0.641983  0.487554  0.500000  1
  Ru  Ru16  1  0.845619  0.358618  0.500000  1
  Ru  Ru17  1  0.513953  0.154682  0.500000  1
  Ru  Ru18  1  0.359195  0.513570  0.500000  1
  Ru  Ru19  1  0.155310  0.640628  0.500000  1
  Ru  Ru20  1  0.486572  0.845733  0.500000  1
