# generated using pymatgen
data_Ba(MnS2)8
_symmetry_space_group_name_H-M   'P 1'
_cell_length_a   6.70032463
_cell_length_b   6.70537194
_cell_length_c   14.48507600
_cell_angle_alpha   89.99999980
_cell_angle_beta   90.00179555
_cell_angle_gamma   120.02490862
_symmetry_Int_Tables_number   1
_chemical_formula_structural   Ba(MnS2)8
_chemical_formula_sum   'Ba1 Mn8 S16'
_cell_volume   563.45737351
_cell_formula_units_Z   1
loop_
 _symmetry_equiv_pos_site_id
 _symmetry_equiv_pos_as_xyz
  1  'x, y, z'
loop_
 _atom_site_type_symbol
 _atom_site_label
 _atom_site_symmetry_multiplicity
 _atom_site_fract_x
 _atom_site_fract_y
 _atom_site_fract_z
 _atom_site_occupancy
  Ba  Ba0  1  0.000000  0.000000  0.000000  1
  Mn  Mn1  1  0.501332  0.498535  0.735552  1
  Mn  Mn2  1  0.498668  0.501465  0.264448  1
  Mn  Mn3  1  0.501332  0.002796  0.735552  1
  Mn  Mn4  1  0.498668  0.997204  0.264448  1
  Mn  Mn5  1  0.997141  0.498570  0.735531  1
  Mn  Mn6  1  0.002859  0.501430  0.264469  1
  Mn  Mn7  1  0.999990  0.999995  0.735142  1
  Mn  Mn8  1  0.000010  0.000005  0.264858  1
  S  S9  1  0.832258  0.664548  0.172870  1
  S  S10  1  0.833053  0.665998  0.645527  1
  S  S11  1  0.832258  0.167711  0.172870  1
  S  S12  1  0.833053  0.167057  0.645527  1
  S  S13  1  0.333270  0.666635  0.172420  1
  S  S14  1  0.333397  0.666699  0.645870  1
  S  S15  1  0.335425  0.167713  0.172846  1
  S  S16  1  0.334060  0.167031  0.645539  1
  S  S17  1  0.664575  0.832287  0.827154  1
  S  S18  1  0.665940  0.832969  0.354461  1
  S  S19  1  0.666730  0.333365  0.827580  1
  S  S20  1  0.666603  0.333301  0.354130  1
  S  S21  1  0.167742  0.832289  0.827130  1
  S  S22  1  0.166947  0.832943  0.354473  1
  S  S23  1  0.167742  0.335452  0.827130  1
  S  S24  1  0.166947  0.334002  0.354473  1
