# generated using pymatgen
data_Ti8Co11Si16Pd
_symmetry_space_group_name_H-M   'P 1'
_cell_length_a   5.13584942
_cell_length_b   6.61463746
_cell_length_c   13.42867780
_cell_angle_alpha   90.02106260
_cell_angle_beta   90.03082803
_cell_angle_gamma   89.87501167
_symmetry_Int_Tables_number   1
_chemical_formula_structural   Ti8Co11Si16Pd
_chemical_formula_sum   'Ti8 Co11 Si16 Pd1'
_cell_volume   456.19493235
_cell_formula_units_Z   1
loop_
 _symmetry_equiv_pos_site_id
 _symmetry_equiv_pos_as_xyz
  1  'x, y, z'
loop_
 _atom_site_type_symbol
 _atom_site_label
 _atom_site_symmetry_multiplicity
 _atom_site_fract_x
 _atom_site_fract_y
 _atom_site_fract_z
 _atom_site_occupancy
  Ti  Ti0  1  0.233940  0.398435  0.156905  1
  Ti  Ti1  1  0.727658  0.101769  0.155006  1
  Ti  Ti2  1  0.271685  0.100156  0.648428  1
  Ti  Ti3  1  0.766593  0.399506  0.648209  1
  Ti  Ti4  1  0.229751  0.601867  0.349878  1
  Ti  Ti5  1  0.732036  0.897563  0.349849  1
  Ti  Ti6  1  0.266669  0.898208  0.846389  1
  Ti  Ti7  1  0.772619  0.603446  0.844541  1
  Co  Co8  1  0.505297  0.221619  0.483620  1
  Co  Co9  1  0.774751  0.999299  0.748447  1
  Co  Co10  1  0.493711  0.217458  0.984747  1
  Co  Co11  1  0.722655  0.500367  0.251549  1
  Co  Co12  1  0.496094  0.777850  0.515948  1
  Co  Co13  1  0.004890  0.278417  0.483703  1
  Co  Co14  1  0.004698  0.725489  0.016501  1
  Co  Co15  1  0.222193  0.998551  0.252710  1
  Co  Co16  1  0.280096  0.501876  0.749797  1
  Co  Co17  1  0.505312  0.779372  0.018089  1
  Co  Co18  1  0.996122  0.721341  0.516190  1
  Si  Si19  1  0.223219  0.015985  0.076761  1
  Si  Si20  1  0.712396  0.522296  0.430840  1
  Si  Si21  1  0.789113  0.021543  0.568432  1
  Si  Si22  1  0.480886  0.755249  0.190284  1
  Si  Si23  1  0.020790  0.254050  0.802444  1
  Si  Si24  1  0.518398  0.244995  0.812470  1
  Si  Si25  1  0.211513  0.977864  0.431579  1
  Si  Si26  1  0.301600  0.531994  0.928901  1
  Si  Si27  1  0.979598  0.745048  0.188332  1
  Si  Si28  1  0.700081  0.485120  0.073797  1
  Si  Si29  1  0.288031  0.477949  0.568957  1
  Si  Si30  1  0.480431  0.245214  0.314035  1
  Si  Si31  1  0.020429  0.745634  0.686195  1
  Si  Si32  1  0.774265  0.966730  0.925174  1
  Si  Si33  1  0.519627  0.754623  0.685988  1
  Si  Si34  1  0.979930  0.254464  0.313595  1
  Pd  Pd35  1  0.992927  0.278649  0.981708  1
