# generated using pymatgen
data_Yb2Dy2SiNi13
_symmetry_space_group_name_H-M   'P 1'
_cell_length_a   4.95485651
_cell_length_b   4.84195106
_cell_length_c   12.30137144
_cell_angle_alpha   78.65401945
_cell_angle_beta   78.38147839
_cell_angle_gamma   59.22559414
_symmetry_Int_Tables_number   1
_chemical_formula_structural   Yb2Dy2SiNi13
_chemical_formula_sum   'Yb2 Dy2 Si1 Ni13'
_cell_volume   246.82808223
_cell_formula_units_Z   1
loop_
 _symmetry_equiv_pos_site_id
 _symmetry_equiv_pos_as_xyz
  1  'x, y, z'
loop_
 _atom_site_type_symbol
 _atom_site_label
 _atom_site_symmetry_multiplicity
 _atom_site_fract_x
 _atom_site_fract_y
 _atom_site_fract_z
 _atom_site_occupancy
  Yb  Yb0  1  0.850822  0.850744  0.447609  1
  Yb  Yb1  1  0.149178  0.149256  0.552391  1
  Dy  Dy2  1  0.946302  0.945814  0.161584  1
  Dy  Dy3  1  0.053698  0.054186  0.838416  1
  Si  Si4  1  0.500000  0.000000  0.000000  1
  Ni  Ni5  1  0.500000  0.500000  0.500000  1
  Ni  Ni6  1  0.717268  0.730776  0.834687  1
  Ni  Ni7  1  0.282732  0.269224  0.165313  1
  Ni  Ni8  1  0.606456  0.622400  0.164689  1
  Ni  Ni9  1  0.393544  0.377600  0.835311  1
  Ni  Ni10  1  0.000000  0.500000  0.000000  1
  Ni  Ni11  1  0.500000  0.500000  0.000000  1
  Ni  Ni12  1  0.390743  0.389651  0.329534  1
  Ni  Ni13  1  0.890073  0.389651  0.329534  1
  Ni  Ni14  1  0.388415  0.890544  0.332626  1
  Ni  Ni15  1  0.609257  0.610349  0.670466  1
  Ni  Ni16  1  0.109927  0.610349  0.670466  1
  Ni  Ni17  1  0.611585  0.109456  0.667374  1
