# generated using pymatgen
data_LaTbMo3P7Rh9
_symmetry_space_group_name_H-M   'P 1'
_cell_length_a   3.95613267
_cell_length_b   9.58314180
_cell_length_c   9.58297618
_cell_angle_alpha   120.00072703
_cell_angle_beta   89.99119241
_cell_angle_gamma   90.01143887
_symmetry_Int_Tables_number   1
_chemical_formula_structural   LaTbMo3P7Rh9
_chemical_formula_sum   'La1 Tb1 Mo3 P7 Rh9'
_cell_volume   314.63469477
_cell_formula_units_Z   1
loop_
 _symmetry_equiv_pos_site_id
 _symmetry_equiv_pos_as_xyz
  1  'x, y, z'
loop_
 _atom_site_type_symbol
 _atom_site_label
 _atom_site_symmetry_multiplicity
 _atom_site_fract_x
 _atom_site_fract_y
 _atom_site_fract_z
 _atom_site_occupancy
  La  La0  1  0.261821  0.666665  0.333319  1
  Tb  Tb1  1  0.761878  0.333335  0.666676  1
  Mo  Mo2  1  0.761967  0.091822  0.873615  1
  Mo  Mo3  1  0.761971  0.126406  0.218259  1
  Mo  Mo4  1  0.761971  0.781755  0.908147  1
  P  P5  1  0.262195  0.000003  0.999993  1
  P  P6  1  0.761894  0.887350  0.599362  1
  P  P7  1  0.761879  0.400637  0.287989  1
  P  P8  1  0.761869  0.712007  0.112634  1
  P  P9  1  0.261807  0.115531  0.412769  1
  P  P10  1  0.261822  0.587237  0.702776  1
  P  P11  1  0.261809  0.297241  0.884473  1
  Rh  Rh12  1  0.261899  0.884876  0.159085  1
  Rh  Rh13  1  0.261922  0.840905  0.725755  1
  Rh  Rh14  1  0.261913  0.274245  0.115166  1
  Rh  Rh15  1  0.761889  0.610150  0.563612  1
  Rh  Rh16  1  0.761883  0.436355  0.046501  1
  Rh  Rh17  1  0.761897  0.953473  0.389850  1
  Rh  Rh18  1  0.261913  0.366888  0.437428  1
  Rh  Rh19  1  0.261897  0.562580  0.929468  1
  Rh  Rh20  1  0.261905  0.070537  0.633121  1
