# generated using pymatgen
data_AcY(BOs)8
_symmetry_space_group_name_H-M   'P 1'
_cell_length_a   7.65878300
_cell_length_b   7.65878300
_cell_length_c   4.01272300
_cell_angle_alpha   90.00000000
_cell_angle_beta   90.00000000
_cell_angle_gamma   90.00000000
_symmetry_Int_Tables_number   1
_chemical_formula_structural   AcY(BOs)8
_chemical_formula_sum   'Ac1 Y1 B8 Os8'
_cell_volume   235.37412063
_cell_formula_units_Z   1
loop_
 _symmetry_equiv_pos_site_id
 _symmetry_equiv_pos_as_xyz
  1  'x, y, z'
loop_
 _atom_site_type_symbol
 _atom_site_label
 _atom_site_symmetry_multiplicity
 _atom_site_fract_x
 _atom_site_fract_y
 _atom_site_fract_z
 _atom_site_occupancy
  Ac  Ac0  1  0.500000  0.500000  0.000000  1
  Y  Y1  1  0.000000  0.000000  0.500000  1
  B  B2  1  0.666833  0.787394  0.607471  1
  B  B3  1  0.161989  0.274267  0.887000  1
  B  B4  1  0.274267  0.838011  0.113000  1
  B  B5  1  0.725733  0.161989  0.113000  1
  B  B6  1  0.333167  0.212606  0.607471  1
  B  B7  1  0.838011  0.725733  0.887000  1
  B  B8  1  0.212606  0.666833  0.392529  1
  B  B9  1  0.787394  0.333167  0.392529  1
  Os  Os10  1  0.350845  0.104311  0.111777  1
  Os  Os11  1  0.649155  0.895689  0.111777  1
  Os  Os12  1  0.608648  0.142149  0.610170  1
  Os  Os13  1  0.104311  0.649155  0.888223  1
  Os  Os14  1  0.142149  0.391352  0.389830  1
  Os  Os15  1  0.857851  0.608648  0.389830  1
  Os  Os16  1  0.895689  0.350845  0.888223  1
  Os  Os17  1  0.391352  0.857851  0.610170  1
