# generated using pymatgen
data_La4Ga5Rh9
_symmetry_space_group_name_H-M   'P 1'
_cell_length_a   12.22144853
_cell_length_b   12.22144899
_cell_length_c   12.22144909
_cell_angle_alpha   27.02009254
_cell_angle_beta   27.02009008
_cell_angle_gamma   27.02009520
_symmetry_Int_Tables_number   1
_chemical_formula_structural   La4Ga5Rh9
_chemical_formula_sum   'La4 Ga5 Rh9'
_cell_volume   332.32073028
_cell_formula_units_Z   1
loop_
 _symmetry_equiv_pos_site_id
 _symmetry_equiv_pos_as_xyz
  1  'x, y, z'
loop_
 _atom_site_type_symbol
 _atom_site_label
 _atom_site_symmetry_multiplicity
 _atom_site_fract_x
 _atom_site_fract_y
 _atom_site_fract_z
 _atom_site_occupancy
  La  La0  1  0.950279  0.950279  0.950279  1
  La  La1  1  0.853480  0.853480  0.853480  1
  La  La2  1  0.146520  0.146520  0.146520  1
  La  La3  1  0.049721  0.049721  0.049721  1
  Ga  Ga4  1  0.278307  0.278307  0.278307  1
  Ga  Ga5  1  0.500000  0.500000  0.500000  1
  Ga  Ga6  1  0.388510  0.388510  0.388510  1
  Ga  Ga7  1  0.721693  0.721693  0.721693  1
  Ga  Ga8  1  0.611490  0.611490  0.611490  1
  Rh  Rh9  1  0.611361  0.611361  0.106464  1
  Rh  Rh10  1  0.893536  0.388639  0.388639  1
  Rh  Rh11  1  0.500000  0.000000  0.500000  1
  Rh  Rh12  1  0.388639  0.893536  0.388639  1
  Rh  Rh13  1  0.500000  0.500000  0.000000  1
  Rh  Rh14  1  0.106464  0.611361  0.611361  1
  Rh  Rh15  1  0.000000  0.500000  0.500000  1
  Rh  Rh16  1  0.388639  0.388639  0.893536  1
  Rh  Rh17  1  0.611361  0.106464  0.611361  1
