# generated using pymatgen
data_Pr10Mg(AlRu2)3
_symmetry_space_group_name_H-M   'P 1'
_cell_length_a   8.65315550
_cell_length_b   8.65315529
_cell_length_c   8.65315484
_cell_angle_alpha   109.62620064
_cell_angle_beta   109.62620061
_cell_angle_gamma   109.62620491
_symmetry_Int_Tables_number   1
_chemical_formula_structural   Pr10Mg(AlRu2)3
_chemical_formula_sum   'Pr10 Mg1 Al3 Ru6'
_cell_volume   495.88884236
_cell_formula_units_Z   1
loop_
 _symmetry_equiv_pos_site_id
 _symmetry_equiv_pos_as_xyz
  1  'x, y, z'
loop_
 _atom_site_type_symbol
 _atom_site_label
 _atom_site_symmetry_multiplicity
 _atom_site_fract_x
 _atom_site_fract_y
 _atom_site_fract_z
 _atom_site_occupancy
  Pr  Pr0  1  0.246008  0.684551  0.434626  1
  Pr  Pr1  1  0.746354  0.816348  0.070347  1
  Pr  Pr2  1  0.434626  0.246008  0.684551  1
  Pr  Pr3  1  0.684551  0.434626  0.246008  1
  Pr  Pr4  1  0.070347  0.746354  0.816348  1
  Pr  Pr5  1  0.816348  0.070347  0.746354  1
  Pr  Pr6  1  0.207838  0.207838  0.207838  1
  Pr  Pr7  1  0.499431  0.002110  0.285055  1
  Pr  Pr8  1  0.285055  0.499431  0.002110  1
  Pr  Pr9  1  0.002110  0.285055  0.499431  1
  Mg  Mg10  1  0.593101  0.593101  0.593101  1
  Al  Al11  1  0.500647  0.000314  0.909224  1
  Al  Al12  1  0.909224  0.500647  0.000314  1
  Al  Al13  1  0.000314  0.909224  0.500647  1
  Ru  Ru14  1  0.251194  0.115786  0.867817  1
  Ru  Ru15  1  0.760769  0.372248  0.636232  1
  Ru  Ru16  1  0.867816  0.251194  0.115786  1
  Ru  Ru17  1  0.115786  0.867816  0.251194  1
  Ru  Ru18  1  0.636232  0.760769  0.372248  1
  Ru  Ru19  1  0.372248  0.636232  0.760769  1
