# generated using pymatgen
data_La7Th(Pt2Pb)4
_symmetry_space_group_name_H-M   'P 1'
_cell_length_a   8.27999300
_cell_length_b   8.27999307
_cell_length_c   7.55189500
_cell_angle_alpha   90.00000000
_cell_angle_beta   90.00000000
_cell_angle_gamma   89.35351220
_symmetry_Int_Tables_number   1
_chemical_formula_structural   La7Th(Pt2Pb)4
_chemical_formula_sum   'La7 Th1 Pt8 Pb4'
_cell_volume   517.71200963
_cell_formula_units_Z   1
loop_
 _symmetry_equiv_pos_site_id
 _symmetry_equiv_pos_as_xyz
  1  'x, y, z'
loop_
 _atom_site_type_symbol
 _atom_site_label
 _atom_site_symmetry_multiplicity
 _atom_site_fract_x
 _atom_site_fract_y
 _atom_site_fract_z
 _atom_site_occupancy
  La  La0  1  0.674533  0.672471  0.000000  1
  La  La1  1  0.332687  0.331577  0.500000  1
  La  La2  1  0.827802  0.172198  0.500000  1
  La  La3  1  0.668423  0.667313  0.500000  1
  La  La4  1  0.327529  0.325467  0.000000  1
  La  La5  1  0.173501  0.826499  0.500000  1
  La  La6  1  0.829484  0.170516  0.000000  1
  Th  Th7  1  0.165332  0.834668  0.000000  1
  Pt  Pt8  1  0.877857  0.870124  0.749723  1
  Pt  Pt9  1  0.129876  0.122143  0.749723  1
  Pt  Pt10  1  0.624489  0.375511  0.753903  1
  Pt  Pt11  1  0.624489  0.375511  0.246097  1
  Pt  Pt12  1  0.366135  0.633865  0.235493  1
  Pt  Pt13  1  0.129876  0.122143  0.250277  1
  Pt  Pt14  1  0.877857  0.870124  0.250277  1
  Pt  Pt15  1  0.366135  0.633865  0.764507  1
  Pb  Pb16  1  0.501260  0.999262  0.749738  1
  Pb  Pb17  1  0.501260  0.999262  0.250262  1
  Pb  Pb18  1  0.000738  0.498740  0.749738  1
  Pb  Pb19  1  0.000738  0.498740  0.250262  1
