# generated using pymatgen
data_BaPuAgS3
_symmetry_space_group_name_H-M   'P 1'
_cell_length_a   4.20869815
_cell_length_b   10.46319000
_cell_length_c   7.18868786
_cell_angle_alpha   90.00000000
_cell_angle_beta   106.97636031
_cell_angle_gamma   90.00000000
_symmetry_Int_Tables_number   1
_chemical_formula_structural   BaPuAgS3
_chemical_formula_sum   'Ba2 Pu2 Ag2 S6'
_cell_volume   302.76981519
_cell_formula_units_Z   2
loop_
 _symmetry_equiv_pos_site_id
 _symmetry_equiv_pos_as_xyz
  1  'x, y, z'
loop_
 _atom_site_type_symbol
 _atom_site_label
 _atom_site_symmetry_multiplicity
 _atom_site_fract_x
 _atom_site_fract_y
 _atom_site_fract_z
 _atom_site_occupancy
  Ba  Ba0  1  0.244231  0.250000  0.489500  1
  Ba  Ba1  1  0.755769  0.750000  0.510501  1
  Pu  Pu2  1  0.500000  0.000000  0.000000  1
  Pu  Pu3  1  0.500000  0.500000  0.000000  1
  Ag  Ag4  1  0.033549  0.750000  0.066730  1
  Ag  Ag5  1  0.966451  0.250000  0.933270  1
  S  S6  1  0.574498  0.250000  0.149691  1
  S  S7  1  0.133067  0.549285  0.267375  1
  S  S8  1  0.133067  0.950715  0.267375  1
  S  S9  1  0.866933  0.049286  0.732625  1
  S  S10  1  0.866933  0.450715  0.732625  1
  S  S11  1  0.425501  0.750000  0.850308  1
