# generated using pymatgen
data_DyTh(SnIr)2
_symmetry_space_group_name_H-M   'P 1'
_cell_length_a   7.47849700
_cell_length_b   7.47849692
_cell_length_c   8.09062200
_cell_angle_alpha   90.00000000
_cell_angle_beta   90.00000000
_cell_angle_gamma   120.00000479
_symmetry_Int_Tables_number   1
_chemical_formula_structural   DyTh(SnIr)2
_chemical_formula_sum   'Dy3 Th3 Sn6 Ir6'
_cell_volume   391.86923093
_cell_formula_units_Z   3
loop_
 _symmetry_equiv_pos_site_id
 _symmetry_equiv_pos_as_xyz
  1  'x, y, z'
loop_
 _atom_site_type_symbol
 _atom_site_label
 _atom_site_symmetry_multiplicity
 _atom_site_fract_x
 _atom_site_fract_y
 _atom_site_fract_z
 _atom_site_occupancy
  Dy  Dy0  1  0.408352  0.000326  0.250000  1
  Dy  Dy1  1  0.591974  0.591648  0.250000  1
  Dy  Dy2  1  0.999674  0.408026  0.250000  1
  Th  Th3  1  0.588279  0.588855  0.750000  1
  Th  Th4  1  0.000577  0.411721  0.750000  1
  Th  Th5  1  0.411145  0.999423  0.750000  1
  Sn  Sn6  1  0.254179  0.254188  0.492838  1
  Sn  Sn7  1  0.254179  0.254188  0.007162  1
  Sn  Sn8  1  0.745812  0.999991  0.007162  1
  Sn  Sn9  1  0.000009  0.745821  0.492838  1
  Sn  Sn10  1  0.745812  0.999991  0.492838  1
  Sn  Sn11  1  0.000009  0.745821  0.007162  1
  Ir  Ir12  1  0.666667  0.333333  0.502551  1
  Ir  Ir13  1  0.666667  0.333333  0.997449  1
  Ir  Ir14  1  0.333333  0.666667  0.998457  1
  Ir  Ir15  1  0.333333  0.666667  0.501543  1
  Ir  Ir16  1  0.000000  0.000000  0.750000  1
  Ir  Ir17  1  0.000000  0.000000  0.250000  1
