# generated using pymatgen
data_Pu2Si5Ir3
_symmetry_space_group_name_H-M   'P 1'
_cell_length_a   8.14044783
_cell_length_b   8.14044840
_cell_length_c   8.14044843
_cell_angle_alpha   138.09196806
_cell_angle_beta   103.99675870
_cell_angle_gamma   90.79730196
_symmetry_Int_Tables_number   1
_chemical_formula_structural   Pu2Si5Ir3
_chemical_formula_sum   'Pu4 Si10 Ir6'
_cell_volume   333.59909550
_cell_formula_units_Z   2
loop_
 _symmetry_equiv_pos_site_id
 _symmetry_equiv_pos_as_xyz
  1  'x, y, z'
loop_
 _atom_site_type_symbol
 _atom_site_label
 _atom_site_symmetry_multiplicity
 _atom_site_fract_x
 _atom_site_fract_y
 _atom_site_fract_z
 _atom_site_occupancy
  Pu  Pu0  1  0.862482  0.631961  0.230522  1
  Pu  Pu1  1  0.137518  0.368039  0.769478  1
  Pu  Pu2  1  0.401439  0.131961  0.269478  1
  Pu  Pu3  1  0.598561  0.868039  0.730522  1
  Si  Si4  1  0.500000  0.750000  0.250000  1
  Si  Si5  1  0.500000  0.250000  0.750000  1
  Si  Si6  1  0.225522  0.975522  0.750000  1
  Si  Si7  1  0.774478  0.524478  0.750000  1
  Si  Si8  1  0.774478  0.024478  0.250000  1
  Si  Si9  1  0.225522  0.475522  0.250000  1
  Si  Si10  1  0.048578  0.893618  0.154960  1
  Si  Si11  1  0.951422  0.106382  0.845040  1
  Si  Si12  1  0.738657  0.393618  0.345040  1
  Si  Si13  1  0.261343  0.606382  0.654960  1
  Ir  Ir14  1  0.000000  0.750000  0.750000  1
  Ir  Ir15  1  0.000000  0.250000  0.250000  1
  Ir  Ir16  1  0.245216  0.860022  0.385195  1
  Ir  Ir17  1  0.754784  0.139978  0.614805  1
  Ir  Ir18  1  0.474827  0.360022  0.114805  1
  Ir  Ir19  1  0.525173  0.639978  0.885195  1
