# generated using pymatgen
data_HfTi(SiRu)2
_symmetry_space_group_name_H-M   'P 1'
_cell_length_a   7.49290049
_cell_length_b   7.49466987
_cell_length_c   7.49289937
_cell_angle_alpha   127.88733266
_cell_angle_beta   122.65457952
_cell_angle_gamma   81.15323060
_symmetry_Int_Tables_number   1
_chemical_formula_structural   HfTi(SiRu)2
_chemical_formula_sum   'Hf3 Ti3 Si6 Ru6'
_cell_volume   269.42812564
_cell_formula_units_Z   3
loop_
 _symmetry_equiv_pos_site_id
 _symmetry_equiv_pos_as_xyz
  1  'x, y, z'
loop_
 _atom_site_type_symbol
 _atom_site_label
 _atom_site_symmetry_multiplicity
 _atom_site_fract_x
 _atom_site_fract_y
 _atom_site_fract_z
 _atom_site_occupancy
  Hf  Hf0  1  0.242652  0.911243  0.168591  1
  Hf  Hf1  1  0.970978  0.494819  0.023840  1
  Hf  Hf2  1  0.030029  0.047127  0.517098  1
  Ti  Ti3  1  0.443599  0.482183  0.538584  1
  Ti  Ti4  1  0.757021  0.925591  0.668570  1
  Ti  Ti5  1  0.549937  0.103187  0.053250  1
  Si  Si6  1  0.781809  0.559375  0.277567  1
  Si  Si7  1  0.176424  0.161032  0.004374  1
  Si  Si8  1  0.656658  0.161032  0.484607  1
  Si  Si9  1  0.356084  0.826421  0.518505  1
  Si  Si10  1  0.228453  0.465217  0.736764  1
  Si  Si11  1  0.807918  0.826421  0.970338  1
  Ru  Ru12  1  0.525900  0.246661  0.774434  1
  Ru  Ru13  1  0.972227  0.246661  0.220761  1
  Ru  Ru14  1  0.842118  0.494642  0.588107  1
  Ru  Ru15  1  0.589305  0.747978  0.085622  1
  Ru  Ru16  1  0.406534  0.494642  0.152525  1
  Ru  Ru17  1  0.162356  0.747978  0.658674  1
