# generated using pymatgen
data_SrMn2(Sb6Ru)2
_symmetry_space_group_name_H-M   'P 1'
_cell_length_a   8.14733380
_cell_length_b   8.16307738
_cell_length_c   8.16307803
_cell_angle_alpha   109.58187731
_cell_angle_beta   109.47832036
_cell_angle_gamma   109.43158858
_symmetry_Int_Tables_number   1
_chemical_formula_structural   SrMn2(Sb6Ru)2
_chemical_formula_sum   'Sr1 Mn2 Sb12 Ru2'
_cell_volume   417.52401189
_cell_formula_units_Z   1
loop_
 _symmetry_equiv_pos_site_id
 _symmetry_equiv_pos_as_xyz
  1  'x, y, z'
loop_
 _atom_site_type_symbol
 _atom_site_label
 _atom_site_symmetry_multiplicity
 _atom_site_fract_x
 _atom_site_fract_y
 _atom_site_fract_z
 _atom_site_occupancy
  Sr  Sr0  1  0.000000  0.000000  0.000000  1
  Mn  Mn1  1  0.500000  0.500000  0.500000  1
  Mn  Mn2  1  0.500000  0.000000  0.000000  1
  Sb  Sb3  1  0.158351  0.497750  0.339409  1
  Sb  Sb4  1  0.501530  0.659200  0.842331  1
  Sb  Sb5  1  0.339370  0.841479  0.181959  1
  Sb  Sb6  1  0.819452  0.660826  0.158627  1
  Sb  Sb7  1  0.660630  0.842588  0.502109  1
  Sb  Sb8  1  0.180548  0.339174  0.841373  1
  Sb  Sb9  1  0.660630  0.158521  0.818041  1
  Sb  Sb10  1  0.339370  0.157412  0.497891  1
  Sb  Sb11  1  0.498470  0.340800  0.157669  1
  Sb  Sb12  1  0.841649  0.502250  0.660591  1
  Sb  Sb13  1  0.841649  0.181060  0.339399  1
  Sb  Sb14  1  0.158351  0.818940  0.660601  1
  Ru  Ru15  1  0.000000  0.500000  0.000000  1
  Ru  Ru16  1  0.000000  0.000000  0.500000  1
