# generated using pymatgen
data_Th3Sc(ZnRu)4
_symmetry_space_group_name_H-M   'P 1'
_cell_length_a   3.95029900
_cell_length_b   6.97625095
_cell_length_c   8.40665058
_cell_angle_alpha   90.06279374
_cell_angle_beta   90.00000000
_cell_angle_gamma   90.00000000
_symmetry_Int_Tables_number   1
_chemical_formula_structural   Th3Sc(ZnRu)4
_chemical_formula_sum   'Th3 Sc1 Zn4 Ru4'
_cell_volume   231.67266740
_cell_formula_units_Z   1
loop_
 _symmetry_equiv_pos_site_id
 _symmetry_equiv_pos_as_xyz
  1  'x, y, z'
loop_
 _atom_site_type_symbol
 _atom_site_label
 _atom_site_symmetry_multiplicity
 _atom_site_fract_x
 _atom_site_fract_y
 _atom_site_fract_z
 _atom_site_occupancy
  Th  Th0  1  0.250000  0.966642  0.313988  1
  Th  Th1  1  0.250000  0.464597  0.175019  1
  Th  Th2  1  0.750000  0.036459  0.692502  1
  Sc  Sc3  1  0.750000  0.539532  0.813175  1
  Zn  Zn4  1  0.250000  0.380107  0.565159  1
  Zn  Zn5  1  0.250000  0.850060  0.939712  1
  Zn  Zn6  1  0.750000  0.626909  0.450223  1
  Zn  Zn7  1  0.750000  0.133497  0.053377  1
  Ru  Ru8  1  0.250000  0.253752  0.865094  1
  Ru  Ru9  1  0.250000  0.755704  0.633124  1
  Ru  Ru10  1  0.750000  0.744754  0.131643  1
  Ru  Ru11  1  0.750000  0.247987  0.366985  1
