# generated using pymatgen
data_Rb3LuIrBr9
_symmetry_space_group_name_H-M   'P 1'
_cell_length_a   7.71908900
_cell_length_b   7.71908810
_cell_length_c   19.43880300
_cell_angle_alpha   90.00000000
_cell_angle_beta   90.00000000
_cell_angle_gamma   119.99999098
_symmetry_Int_Tables_number   1
_chemical_formula_structural   Rb3LuIrBr9
_chemical_formula_sum   'Rb6 Lu2 Ir2 Br18'
_cell_volume   1003.07229635
_cell_formula_units_Z   2
loop_
 _symmetry_equiv_pos_site_id
 _symmetry_equiv_pos_as_xyz
  1  'x, y, z'
loop_
 _atom_site_type_symbol
 _atom_site_label
 _atom_site_symmetry_multiplicity
 _atom_site_fract_x
 _atom_site_fract_y
 _atom_site_fract_z
 _atom_site_occupancy
  Rb  Rb0  1  0.333333  0.666667  0.063186  1
  Rb  Rb1  1  0.666667  0.333333  0.936814  1
  Rb  Rb2  1  0.666667  0.333333  0.565190  1
  Rb  Rb3  1  0.333333  0.666667  0.434810  1
  Rb  Rb4  1  0.000000  0.000000  0.255043  1
  Rb  Rb5  1  0.000000  0.000000  0.744957  1
  Lu  Lu6  1  0.666667  0.333333  0.163214  1
  Lu  Lu7  1  0.333333  0.666667  0.836786  1
  Ir  Ir8  1  0.333333  0.666667  0.666626  1
  Ir  Ir9  1  0.666667  0.333333  0.333374  1
  Br  Br10  1  0.180182  0.360363  0.593195  1
  Br  Br11  1  0.819818  0.639637  0.406805  1
  Br  Br12  1  0.639637  0.819818  0.593195  1
  Br  Br13  1  0.834632  0.669264  0.090003  1
  Br  Br14  1  0.360363  0.180182  0.406805  1
  Br  Br15  1  0.165368  0.330736  0.909997  1
  Br  Br16  1  0.180182  0.819818  0.593195  1
  Br  Br17  1  0.330736  0.165368  0.090003  1
  Br  Br18  1  0.819818  0.180182  0.406805  1
  Br  Br19  1  0.669264  0.834632  0.909997  1
  Br  Br20  1  0.834632  0.165368  0.090003  1
  Br  Br21  1  0.165368  0.834632  0.909997  1
  Br  Br22  1  0.507970  0.015942  0.259389  1
  Br  Br23  1  0.492030  0.984058  0.740611  1
  Br  Br24  1  0.984058  0.492030  0.259389  1
  Br  Br25  1  0.015942  0.507970  0.740611  1
  Br  Br26  1  0.507970  0.492030  0.259389  1
  Br  Br27  1  0.492030  0.507970  0.740611  1
