# generated using pymatgen
data_Sm4Dy2Al24GaOs7
_symmetry_space_group_name_H-M   'P 1'
_cell_length_a   8.90135706
_cell_length_b   8.90135736
_cell_length_c   9.59323610
_cell_angle_alpha   90.25035854
_cell_angle_beta   89.74963948
_cell_angle_gamma   119.93927592
_symmetry_Int_Tables_number   1
_chemical_formula_structural   Sm4Dy2Al24GaOs7
_chemical_formula_sum   'Sm4 Dy2 Al24 Ga1 Os7'
_cell_volume   658.67034429
_cell_formula_units_Z   1
loop_
 _symmetry_equiv_pos_site_id
 _symmetry_equiv_pos_as_xyz
  1  'x, y, z'
loop_
 _atom_site_type_symbol
 _atom_site_label
 _atom_site_symmetry_multiplicity
 _atom_site_fract_x
 _atom_site_fract_y
 _atom_site_fract_z
 _atom_site_occupancy
  Sm  Sm0  1  0.191793  0.382848  0.244759  1
  Sm  Sm1  1  0.808207  0.617152  0.755241  1
  Sm  Sm2  1  0.617152  0.808207  0.244759  1
  Sm  Sm3  1  0.382848  0.191793  0.755241  1
  Dy  Dy4  1  0.194090  0.805910  0.256087  1
  Dy  Dy5  1  0.805910  0.194090  0.743913  1
  Al  Al6  1  0.326419  0.673581  0.020586  1
  Al  Al7  1  0.673581  0.326419  0.979414  1
  Al  Al8  1  0.666136  0.333864  0.517315  1
  Al  Al9  1  0.333864  0.666136  0.482685  1
  Al  Al10  1  0.162045  0.325896  0.571449  1
  Al  Al11  1  0.837955  0.674104  0.428551  1
  Al  Al12  1  0.674104  0.837955  0.571449  1
  Al  Al13  1  0.853731  0.678862  0.082126  1
  Al  Al14  1  0.325896  0.162045  0.428551  1
  Al  Al15  1  0.146269  0.321138  0.917874  1
  Al  Al16  1  0.162973  0.837027  0.575493  1
  Al  Al17  1  0.321138  0.146269  0.082126  1
  Al  Al18  1  0.837027  0.162973  0.424507  1
  Al  Al19  1  0.678862  0.853731  0.917874  1
  Al  Al20  1  0.836666  0.163334  0.075618  1
  Al  Al21  1  0.163334  0.836666  0.924382  1
  Al  Al22  1  0.561474  0.121348  0.249416  1
  Al  Al23  1  0.438526  0.878652  0.750584  1
  Al  Al24  1  0.878652  0.438526  0.249416  1
  Al  Al25  1  0.121348  0.561474  0.750584  1
  Al  Al26  1  0.566625  0.433375  0.258860  1
  Al  Al27  1  0.433375  0.566625  0.741140  1
  Al  Al28  1  0.999727  0.000273  0.250839  1
  Al  Al29  1  0.000273  0.999727  0.749161  1
  Ga  Ga30  1  0.500000  0.500000  0.000000  1
  Os  Os31  1  0.500000  0.000000  0.000000  1
  Os  Os32  1  0.000000  0.500000  0.000000  1
  Os  Os33  1  0.500000  0.000000  0.500000  1
  Os  Os34  1  0.000000  0.500000  0.500000  1
  Os  Os35  1  0.500000  0.500000  0.500000  1
  Os  Os36  1  0.000000  0.000000  0.000000  1
  Os  Os37  1  0.000000  0.000000  0.500000  1
