# generated using pymatgen
data_Cr2TcO8
_symmetry_space_group_name_H-M   'P 1'
_cell_length_a   5.62008600
_cell_length_b   7.50104940
_cell_length_c   8.27096653
_cell_angle_alpha   93.14000640
_cell_angle_beta   90.00000000
_cell_angle_gamma   90.00000000
_symmetry_Int_Tables_number   1
_chemical_formula_structural   Cr2TcO8
_chemical_formula_sum   'Cr4 Tc2 O16'
_cell_volume   348.15187570
_cell_formula_units_Z   2
loop_
 _symmetry_equiv_pos_site_id
 _symmetry_equiv_pos_as_xyz
  1  'x, y, z'
loop_
 _atom_site_type_symbol
 _atom_site_label
 _atom_site_symmetry_multiplicity
 _atom_site_fract_x
 _atom_site_fract_y
 _atom_site_fract_z
 _atom_site_occupancy
  Cr  Cr0  1  0.000000  0.500000  0.000000  1
  Cr  Cr1  1  0.500000  0.302284  0.827503  1
  Cr  Cr2  1  0.500000  0.697716  0.172497  1
  Cr  Cr3  1  0.500000  0.000000  0.500000  1
  Tc  Tc4  1  0.000000  0.202103  0.316077  1
  Tc  Tc5  1  0.000000  0.797897  0.683923  1
  O  O6  1  0.000000  0.964948  0.828937  1
  O  O7  1  0.000000  0.411345  0.230438  1
  O  O8  1  0.000000  0.588655  0.769562  1
  O  O9  1  0.000000  0.035052  0.171063  1
  O  O10  1  0.747398  0.322182  0.943763  1
  O  O11  1  0.747398  0.677818  0.056237  1
  O  O12  1  0.747886  0.820025  0.559737  1
  O  O13  1  0.747886  0.179975  0.440263  1
  O  O14  1  0.500000  0.098876  0.723544  1
  O  O15  1  0.500000  0.457169  0.703093  1
  O  O16  1  0.500000  0.901124  0.276456  1
  O  O17  1  0.500000  0.542831  0.296907  1
  O  O18  1  0.252114  0.820025  0.559737  1
  O  O19  1  0.252114  0.179975  0.440263  1
  O  O20  1  0.252602  0.322182  0.943763  1
  O  O21  1  0.252602  0.677818  0.056237  1
