# generated using pymatgen
data_Sc6Zn2RuPt3
_symmetry_space_group_name_H-M   'P 1'
_cell_length_a   4.66101400
_cell_length_b   6.60946400
_cell_length_c   13.99010300
_cell_angle_alpha   89.99983140
_cell_angle_beta   90.00009832
_cell_angle_gamma   89.99992845
_symmetry_Int_Tables_number   1
_chemical_formula_structural   Sc6Zn2RuPt3
_chemical_formula_sum   'Sc12 Zn4 Ru2 Pt6'
_cell_volume   430.99036437
_cell_formula_units_Z   2
loop_
 _symmetry_equiv_pos_site_id
 _symmetry_equiv_pos_as_xyz
  1  'x, y, z'
loop_
 _atom_site_type_symbol
 _atom_site_label
 _atom_site_symmetry_multiplicity
 _atom_site_fract_x
 _atom_site_fract_y
 _atom_site_fract_z
 _atom_site_occupancy
  Sc  Sc0  1  0.500014  0.244856  0.993999  1
  Sc  Sc1  1  0.500012  0.755146  0.993999  1
  Sc  Sc2  1  0.999909  0.250994  0.165736  1
  Sc  Sc3  1  0.999910  0.749009  0.165736  1
  Sc  Sc4  1  0.499910  0.248978  0.334281  1
  Sc  Sc5  1  0.499909  0.751024  0.334284  1
  Sc  Sc6  1  0.000009  0.255104  0.505981  1
  Sc  Sc7  1  0.000009  0.744894  0.505981  1
  Sc  Sc8  1  0.500081  0.252853  0.670704  1
  Sc  Sc9  1  0.500083  0.747143  0.670703  1
  Sc  Sc10  1  0.000084  0.247012  0.829284  1
  Sc  Sc11  1  0.000082  0.752986  0.829283  1
  Zn  Zn12  1  0.000002  0.500000  0.999577  1
  Zn  Zn13  1  0.499873  0.000001  0.167505  1
  Zn  Zn14  1  0.999871  0.500001  0.332506  1
  Zn  Zn15  1  0.500003  0.000000  0.500411  1
  Ru  Ru16  1  0.000103  0.499996  0.666194  1
  Ru  Ru17  1  0.500107  0.000001  0.833776  1
  Pt  Pt18  1  0.000022  0.000000  0.999776  1
  Pt  Pt19  1  0.499889  0.500000  0.168841  1
  Pt  Pt20  1  0.999886  0.000001  0.331155  1
  Pt  Pt21  1  0.500012  0.499999  0.500237  1
  Pt  Pt22  1  0.000106  0.000000  0.665873  1
  Pt  Pt23  1  0.500112  0.500002  0.834177  1
