# generated using pymatgen
data_BaAl4Cu9
_symmetry_space_group_name_H-M   'P 1'
_cell_length_a   8.45092014
_cell_length_b   8.45091986
_cell_length_c   8.43661404
_cell_angle_alpha   120.05610417
_cell_angle_beta   120.05610226
_cell_angle_gamma   89.99999776
_symmetry_Int_Tables_number   1
_chemical_formula_structural   BaAl4Cu9
_chemical_formula_sum   'Ba2 Al8 Cu18'
_cell_volume   425.32698765
_cell_formula_units_Z   2
loop_
 _symmetry_equiv_pos_site_id
 _symmetry_equiv_pos_as_xyz
  1  'x, y, z'
loop_
 _atom_site_type_symbol
 _atom_site_label
 _atom_site_symmetry_multiplicity
 _atom_site_fract_x
 _atom_site_fract_y
 _atom_site_fract_z
 _atom_site_occupancy
  Ba  Ba0  1  0.250000  0.250000  0.500000  1
  Ba  Ba1  1  0.750000  0.750000  0.500000  1
  Al  Al2  1  0.435762  0.297971  0.233732  1
  Al  Al3  1  0.935762  0.435762  0.233732  1
  Al  Al4  1  0.297971  0.797970  0.233732  1
  Al  Al5  1  0.797970  0.935762  0.233732  1
  Al  Al6  1  0.202030  0.064239  0.766269  1
  Al  Al7  1  0.702030  0.202030  0.766269  1
  Al  Al8  1  0.064239  0.564238  0.766269  1
  Al  Al9  1  0.564238  0.702030  0.766269  1
  Cu  Cu10  1  0.500000  0.000000  0.000000  1
  Cu  Cu11  1  0.793713  0.060499  0.000000  1
  Cu  Cu12  1  0.060499  0.206287  0.000000  1
  Cu  Cu13  1  0.560499  0.293713  0.000000  1
  Cu  Cu14  1  0.293713  0.439502  0.000000  1
  Cu  Cu15  1  0.000000  0.500000  0.000000  1
  Cu  Cu16  1  0.706288  0.560499  0.000000  1
  Cu  Cu17  1  0.439502  0.706288  0.000000  1
  Cu  Cu18  1  0.939501  0.793713  0.000000  1
  Cu  Cu19  1  0.206287  0.939501  0.000000  1
  Cu  Cu20  1  0.565640  0.065640  0.358893  1
  Cu  Cu21  1  0.793253  0.293253  0.358893  1
  Cu  Cu22  1  0.293253  0.565640  0.358893  1
  Cu  Cu23  1  0.065640  0.793253  0.358893  1
  Cu  Cu24  1  0.934360  0.206747  0.641108  1
  Cu  Cu25  1  0.706747  0.434361  0.641108  1
  Cu  Cu26  1  0.206747  0.706747  0.641108  1
  Cu  Cu27  1  0.434361  0.934360  0.641108  1
