# generated using pymatgen
data_DyTm2Lu3FeSb2
_symmetry_space_group_name_H-M   'P 1'
_cell_length_a   8.05036559
_cell_length_b   8.05913233
_cell_length_c   4.11080700
_cell_angle_alpha   90.00000000
_cell_angle_beta   90.00000000
_cell_angle_gamma   120.03601754
_symmetry_Int_Tables_number   1
_chemical_formula_structural   DyTm2Lu3FeSb2
_chemical_formula_sum   'Dy1 Tm2 Lu3 Fe1 Sb2'
_cell_volume   230.88933531
_cell_formula_units_Z   1
loop_
 _symmetry_equiv_pos_site_id
 _symmetry_equiv_pos_as_xyz
  1  'x, y, z'
loop_
 _atom_site_type_symbol
 _atom_site_label
 _atom_site_symmetry_multiplicity
 _atom_site_fract_x
 _atom_site_fract_y
 _atom_site_fract_z
 _atom_site_occupancy
  Dy  Dy0  1  0.000000  0.605777  0.500000  1
  Tm  Tm1  1  0.393121  0.392839  0.500000  1
  Tm  Tm2  1  0.606879  0.999718  0.500000  1
  Lu  Lu3  1  0.233445  0.001047  0.000000  1
  Lu  Lu4  1  0.766555  0.767602  0.000000  1
  Lu  Lu5  1  0.000000  0.232842  0.000000  1
  Fe  Fe6  1  0.000000  0.001701  0.500000  1
  Sb  Sb7  1  0.334930  0.666702  0.000000  1
  Sb  Sb8  1  0.665070  0.331771  0.000000  1
