# generated using pymatgen
data_Y4Er2Tm6Co5Bi
_symmetry_space_group_name_H-M   'P 1'
_cell_length_a   8.24593041
_cell_length_b   8.24551313
_cell_length_c   8.24593027
_cell_angle_alpha   110.95175494
_cell_angle_beta   110.59673365
_cell_angle_gamma   106.89763835
_symmetry_Int_Tables_number   1
_chemical_formula_structural   Y4Er2Tm6Co5Bi
_chemical_formula_sum   'Y4 Er2 Tm6 Co5 Bi1'
_cell_volume   430.92905317
_cell_formula_units_Z   1
loop_
 _symmetry_equiv_pos_site_id
 _symmetry_equiv_pos_as_xyz
  1  'x, y, z'
loop_
 _atom_site_type_symbol
 _atom_site_label
 _atom_site_symmetry_multiplicity
 _atom_site_fract_x
 _atom_site_fract_y
 _atom_site_fract_z
 _atom_site_occupancy
  Y  Y0  1  0.287568  0.185661  0.472839  1
  Y  Y1  1  0.712432  0.814339  0.527161  1
  Y  Y2  1  0.287179  0.814339  0.101907  1
  Y  Y3  1  0.712821  0.185661  0.898093  1
  Er  Er4  1  0.208083  0.013736  0.805654  1
  Er  Er5  1  0.791917  0.986264  0.194346  1
  Tm  Tm6  1  0.622329  0.311874  0.310976  1
  Tm  Tm7  1  0.377671  0.688126  0.689024  1
  Tm  Tm8  1  0.000898  0.311874  0.689545  1
  Tm  Tm9  1  0.999102  0.688126  0.310455  1
  Tm  Tm10  1  0.208053  0.402573  0.194519  1
  Tm  Tm11  1  0.791947  0.597427  0.805481  1
  Co  Co12  1  0.000214  0.375736  0.375522  1
  Co  Co13  1  0.999786  0.624264  0.624478  1
  Co  Co14  1  0.387586  0.887461  0.499875  1
  Co  Co15  1  0.612414  0.112539  0.500125  1
  Co  Co16  1  0.000000  0.000000  0.000000  1
  Bi  Bi17  1  0.500000  0.500000  0.000000  1
