# generated using pymatgen
data_Tb3Mg2Pa3(Co4P3)4
_symmetry_space_group_name_H-M   'P 1'
_cell_length_a   3.76424100
_cell_length_b   10.61793197
_cell_length_c   12.28260871
_cell_angle_alpha   90.19571053
_cell_angle_beta   90.00000000
_cell_angle_gamma   90.00000000
_symmetry_Int_Tables_number   1
_chemical_formula_structural   Tb3Mg2Pa3(Co4P3)4
_chemical_formula_sum   'Tb3 Mg2 Pa3 Co16 P12'
_cell_volume   490.91402767
_cell_formula_units_Z   1
loop_
 _symmetry_equiv_pos_site_id
 _symmetry_equiv_pos_as_xyz
  1  'x, y, z'
loop_
 _atom_site_type_symbol
 _atom_site_label
 _atom_site_symmetry_multiplicity
 _atom_site_fract_x
 _atom_site_fract_y
 _atom_site_fract_z
 _atom_site_occupancy
  Tb  Tb0  1  0.500000  0.181506  0.205324  1
  Tb  Tb1  1  0.000000  0.682129  0.795830  1
  Tb  Tb2  1  0.000000  0.317789  0.793595  1
  Mg  Mg3  1  0.500000  0.500254  0.155094  1
  Mg  Mg4  1  0.000000  0.998870  0.846739  1
  Pa  Pa5  1  0.000000  0.499157  0.532555  1
  Pa  Pa6  1  0.500000  0.000887  0.470717  1
  Pa  Pa7  1  0.500000  0.821873  0.207893  1
  Co  Co8  1  0.500000  0.499014  0.694779  1
  Co  Co9  1  0.000000  0.994100  0.300750  1
  Co  Co10  1  0.000000  0.499949  0.986995  1
  Co  Co11  1  0.500000  0.000241  0.013351  1
  Co  Co12  1  0.500000  0.334313  0.994480  1
  Co  Co13  1  0.500000  0.666668  0.995744  1
  Co  Co14  1  0.000000  0.167934  0.004065  1
  Co  Co15  1  0.000000  0.832697  0.006272  1
  Co  Co16  1  0.500000  0.297736  0.433413  1
  Co  Co17  1  0.500000  0.699605  0.433910  1
  Co  Co18  1  0.000000  0.198796  0.564710  1
  Co  Co19  1  0.000000  0.799974  0.567095  1
  Co  Co20  1  0.500000  0.878508  0.705873  1
  Co  Co21  1  0.500000  0.121428  0.704156  1
  Co  Co22  1  0.000000  0.627932  0.290909  1
  Co  Co23  1  0.000000  0.380816  0.296581  1
  P  P24  1  0.500000  0.499945  0.879052  1
  P  P25  1  0.000000  0.002008  0.116722  1
  P  P26  1  0.500000  0.498215  0.355479  1
  P  P27  1  0.000000  0.000012  0.647560  1
  P  P28  1  0.500000  0.305946  0.615623  1
  P  P29  1  0.500000  0.692671  0.617513  1
  P  P30  1  0.000000  0.190915  0.382407  1
  P  P31  1  0.000000  0.806848  0.387801  1
  P  P32  1  0.500000  0.840685  0.894967  1
  P  P33  1  0.500000  0.159812  0.894198  1
  P  P34  1  0.000000  0.659981  0.103020  1
  P  P35  1  0.000000  0.340785  0.104827  1
