# generated using pymatgen
data_K5CeZrF13
_symmetry_space_group_name_H-M   'P 1'
_cell_length_a   7.17072429
_cell_length_b   7.17072339
_cell_length_c   9.34313939
_cell_angle_alpha   83.21706035
_cell_angle_beta   83.21706151
_cell_angle_gamma   51.31296487
_symmetry_Int_Tables_number   1
_chemical_formula_structural   K5CeZrF13
_chemical_formula_sum   'K5 Ce1 Zr1 F13'
_cell_volume   371.76744886
_cell_formula_units_Z   1
loop_
 _symmetry_equiv_pos_site_id
 _symmetry_equiv_pos_as_xyz
  1  'x, y, z'
loop_
 _atom_site_type_symbol
 _atom_site_label
 _atom_site_symmetry_multiplicity
 _atom_site_fract_x
 _atom_site_fract_y
 _atom_site_fract_z
 _atom_site_occupancy
  K  K0  1  0.221266  0.221266  0.847428  1
  K  K1  1  0.778356  0.778356  0.156441  1
  K  K2  1  0.500947  0.500947  0.002643  1
  K  K3  1  0.657224  0.657224  0.566058  1
  K  K4  1  0.343154  0.343154  0.423787  1
  Ce  Ce5  1  0.928454  0.928454  0.734129  1
  Zr  Zr6  1  0.073478  0.073478  0.261353  1
  F  F7  1  0.047974  0.595382  0.640625  1
  F  F8  1  0.595382  0.047974  0.640625  1
  F  F9  1  0.955838  0.385768  0.354909  1
  F  F10  1  0.385768  0.955838  0.354909  1
  F  F11  1  0.651627  0.080802  0.917813  1
  F  F12  1  0.080802  0.651627  0.917813  1
  F  F13  1  0.334061  0.926806  0.090574  1
  F  F14  1  0.926806  0.334061  0.090574  1
  F  F15  1  0.285987  0.829321  0.750867  1
  F  F16  1  0.829321  0.285987  0.750867  1
  F  F17  1  0.734588  0.166247  0.253996  1
  F  F18  1  0.166247  0.734588  0.253996  1
  F  F19  1  0.002719  0.002719  0.490594  1
