# generated using pymatgen
data_Sm5Dy3(Sc3Sn4)4
_symmetry_space_group_name_H-M   'P 1'
_cell_length_a   7.74378526
_cell_length_b   7.98506487
_cell_length_c   14.91355639
_cell_angle_alpha   90.00342750
_cell_angle_beta   89.65819512
_cell_angle_gamma   90.05320826
_symmetry_Int_Tables_number   1
_chemical_formula_structural   Sm5Dy3(Sc3Sn4)4
_chemical_formula_sum   'Sm5 Dy3 Sc12 Sn16'
_cell_volume   922.15739739
_cell_formula_units_Z   1
loop_
 _symmetry_equiv_pos_site_id
 _symmetry_equiv_pos_as_xyz
  1  'x, y, z'
loop_
 _atom_site_type_symbol
 _atom_site_label
 _atom_site_symmetry_multiplicity
 _atom_site_fract_x
 _atom_site_fract_y
 _atom_site_fract_z
 _atom_site_occupancy
  Sm  Sm0  1  0.994096  0.175162  0.095331  1
  Sm  Sm1  1  0.006198  0.824688  0.904350  1
  Sm  Sm2  1  0.505456  0.674887  0.905564  1
  Sm  Sm3  1  0.005994  0.824173  0.593197  1
  Sm  Sm4  1  0.494430  0.324599  0.095370  1
  Dy  Dy5  1  0.992866  0.177047  0.405881  1
  Dy  Dy6  1  0.491668  0.323808  0.405587  1
  Dy  Dy7  1  0.507634  0.675881  0.593575  1
  Sc  Sc8  1  0.168549  0.495920  0.748871  1
  Sc  Sc9  1  0.831801  0.504129  0.251217  1
  Sc  Sc10  1  0.332156  0.995665  0.251084  1
  Sc  Sc11  1  0.668329  0.004777  0.749016  1
  Sc  Sc12  1  0.339573  0.162302  0.626792  1
  Sc  Sc13  1  0.660559  0.838015  0.373097  1
  Sc  Sc14  1  0.160785  0.660729  0.373533  1
  Sc  Sc15  1  0.662333  0.838962  0.128527  1
  Sc  Sc16  1  0.839848  0.338607  0.626149  1
  Sc  Sc17  1  0.338178  0.161252  0.871940  1
  Sc  Sc18  1  0.837468  0.338434  0.872342  1
  Sc  Sc19  1  0.162266  0.661388  0.128362  1
  Sn  Sn20  1  0.030512  0.127490  0.749161  1
  Sn  Sn21  1  0.970154  0.873546  0.251352  1
  Sn  Sn22  1  0.469494  0.626322  0.250722  1
  Sn  Sn23  1  0.530877  0.373716  0.749242  1
  Sn  Sn24  1  0.311626  0.852087  0.748229  1
  Sn  Sn25  1  0.690003  0.148325  0.252307  1
  Sn  Sn26  1  0.189687  0.351444  0.252203  1
  Sn  Sn27  1  0.808768  0.646838  0.748784  1
  Sn  Sn28  1  0.183639  0.456219  0.542067  1
  Sn  Sn29  1  0.816208  0.541465  0.456782  1
  Sn  Sn30  1  0.319511  0.958238  0.456656  1
  Sn  Sn31  1  0.822963  0.544248  0.043327  1
  Sn  Sn32  1  0.679398  0.044307  0.541956  1
  Sn  Sn33  1  0.176756  0.455931  0.957100  1
  Sn  Sn34  1  0.677563  0.043079  0.957146  1
  Sn  Sn35  1  0.322653  0.956318  0.043183  1
