# generated using pymatgen
data_LaTbYb2Cu2Sn5
_symmetry_space_group_name_H-M   'P 1'
_cell_length_a   4.47206400
_cell_length_b   8.83886200
_cell_length_c   14.27122700
_cell_angle_alpha   90.00000000
_cell_angle_beta   90.00000000
_cell_angle_gamma   90.00000000
_symmetry_Int_Tables_number   1
_chemical_formula_structural   LaTbYb2Cu2Sn5
_chemical_formula_sum   'La2 Tb2 Yb4 Cu4 Sn10'
_cell_volume   564.11244079
_cell_formula_units_Z   2
loop_
 _symmetry_equiv_pos_site_id
 _symmetry_equiv_pos_as_xyz
  1  'x, y, z'
loop_
 _atom_site_type_symbol
 _atom_site_label
 _atom_site_symmetry_multiplicity
 _atom_site_fract_x
 _atom_site_fract_y
 _atom_site_fract_z
 _atom_site_occupancy
  La  La0  1  0.500000  0.142940  0.000000  1
  La  La1  1  0.000000  0.857060  0.500000  1
  Tb  Tb2  1  0.500000  0.693204  0.000000  1
  Tb  Tb3  1  0.000000  0.306796  0.500000  1
  Yb  Yb4  1  0.500000  0.790369  0.744073  1
  Yb  Yb5  1  0.000000  0.209631  0.755927  1
  Yb  Yb6  1  0.000000  0.209631  0.244073  1
  Yb  Yb7  1  0.500000  0.790369  0.255927  1
  Cu  Cu8  1  0.500000  0.377888  0.646211  1
  Cu  Cu9  1  0.000000  0.622112  0.853789  1
  Cu  Cu10  1  0.000000  0.622112  0.146211  1
  Cu  Cu11  1  0.500000  0.377888  0.353789  1
  Sn  Sn12  1  0.500000  0.086635  0.396373  1
  Sn  Sn13  1  0.000000  0.554858  0.664784  1
  Sn  Sn14  1  0.000000  0.417565  0.000000  1
  Sn  Sn15  1  0.500000  0.445142  0.164784  1
  Sn  Sn16  1  0.500000  0.582435  0.500000  1
  Sn  Sn17  1  0.500000  0.445142  0.835216  1
  Sn  Sn18  1  0.000000  0.913365  0.896373  1
  Sn  Sn19  1  0.000000  0.554858  0.335216  1
  Sn  Sn20  1  0.500000  0.086635  0.603627  1
  Sn  Sn21  1  0.000000  0.913365  0.103627  1
