# generated using pymatgen
data_Tb4CeEr3(CdIr)2
_symmetry_space_group_name_H-M   'P 1'
_cell_length_a   9.64503045
_cell_length_b   9.64503128
_cell_length_c   9.67806600
_cell_angle_alpha   59.88663543
_cell_angle_beta   59.88663254
_cell_angle_gamma   59.92481371
_symmetry_Int_Tables_number   1
_chemical_formula_structural   Tb4CeEr3(CdIr)2
_chemical_formula_sum   'Tb8 Ce2 Er6 Cd4 Ir4'
_cell_volume   635.16708781
_cell_formula_units_Z   2
loop_
 _symmetry_equiv_pos_site_id
 _symmetry_equiv_pos_as_xyz
  1  'x, y, z'
loop_
 _atom_site_type_symbol
 _atom_site_label
 _atom_site_symmetry_multiplicity
 _atom_site_fract_x
 _atom_site_fract_y
 _atom_site_fract_z
 _atom_site_occupancy
  Tb  Tb0  1  0.436799  0.436799  0.063201  1
  Tb  Tb1  1  0.062478  0.062478  0.437522  1
  Tb  Tb2  1  0.190169  0.811685  0.811714  1
  Tb  Tb3  1  0.811685  0.190169  0.186432  1
  Tb  Tb4  1  0.811685  0.190169  0.811714  1
  Tb  Tb5  1  0.190169  0.811685  0.186432  1
  Tb  Tb6  1  0.812489  0.812489  0.187511  1
  Tb  Tb7  1  0.190418  0.190418  0.809582  1
  Ce  Ce8  1  0.596335  0.596335  0.597526  1
  Ce  Ce9  1  0.596335  0.596335  0.209804  1
  Er  Er10  1  0.600002  0.199846  0.600076  1
  Er  Er11  1  0.199846  0.600002  0.600076  1
  Er  Er12  1  0.061842  0.438544  0.439393  1
  Er  Er13  1  0.438544  0.061842  0.060221  1
  Er  Er14  1  0.438544  0.061842  0.439393  1
  Er  Er15  1  0.061842  0.438544  0.060221  1
  Cd  Cd16  1  0.830071  0.830071  0.830979  1
  Cd  Cd17  1  0.830071  0.830071  0.508881  1
  Cd  Cd18  1  0.830652  0.506555  0.831397  1
  Cd  Cd19  1  0.506555  0.830652  0.831397  1
  Ir  Ir20  1  0.392123  0.392123  0.393280  1
  Ir  Ir21  1  0.392123  0.392123  0.822473  1
  Ir  Ir22  1  0.396351  0.822874  0.390387  1
  Ir  Ir23  1  0.822874  0.396351  0.390387  1
