# generated using pymatgen
data_Ba2CdSn2HgSe8
_symmetry_space_group_name_H-M   'P 1'
_cell_length_a   6.76384100
_cell_length_b   6.73122059
_cell_length_c   11.60610900
_cell_angle_alpha   90.00000000
_cell_angle_beta   90.00000000
_cell_angle_gamma   117.70821295
_symmetry_Int_Tables_number   1
_chemical_formula_structural   Ba2CdSn2HgSe8
_chemical_formula_sum   'Ba2 Cd1 Sn2 Hg1 Se8'
_cell_volume   467.81868077
_cell_formula_units_Z   1
loop_
 _symmetry_equiv_pos_site_id
 _symmetry_equiv_pos_as_xyz
  1  'x, y, z'
loop_
 _atom_site_type_symbol
 _atom_site_label
 _atom_site_symmetry_multiplicity
 _atom_site_fract_x
 _atom_site_fract_y
 _atom_site_fract_z
 _atom_site_occupancy
  Ba  Ba0  1  0.950632  0.949884  0.500379  1
  Ba  Ba1  1  0.950632  0.949884  0.999621  1
  Cd  Cd2  1  0.678597  0.353030  0.750000  1
  Sn  Sn3  1  0.245734  0.673318  0.750000  1
  Sn  Sn4  1  0.674316  0.247111  0.250000  1
  Hg  Hg5  1  0.343601  0.672718  0.250000  1
  Se  Se6  1  0.989771  0.463399  0.578603  1
  Se  Se7  1  0.466016  0.994668  0.422375  1
  Se  Se8  1  0.651693  0.754376  0.750000  1
  Se  Se9  1  0.762052  0.656172  0.250000  1
  Se  Se10  1  0.989771  0.463399  0.921397  1
  Se  Se11  1  0.466016  0.994668  0.077625  1
  Se  Se12  1  0.252648  0.061551  0.750000  1
  Se  Se13  1  0.059320  0.246619  0.250000  1
