# generated using pymatgen
data_NbVSb2F20
_symmetry_space_group_name_H-M   'P 1'
_cell_length_a   5.69957053
_cell_length_b   7.47223078
_cell_length_c   9.84255353
_cell_angle_alpha   87.79879549
_cell_angle_beta   106.17488670
_cell_angle_gamma   99.29258136
_symmetry_Int_Tables_number   1
_chemical_formula_structural   NbVSb2F20
_chemical_formula_sum   'Nb1 V1 Sb2 F20'
_cell_volume   397.29394546
_cell_formula_units_Z   1
loop_
 _symmetry_equiv_pos_site_id
 _symmetry_equiv_pos_as_xyz
  1  'x, y, z'
loop_
 _atom_site_type_symbol
 _atom_site_label
 _atom_site_symmetry_multiplicity
 _atom_site_fract_x
 _atom_site_fract_y
 _atom_site_fract_z
 _atom_site_occupancy
  Nb  Nb0  1  0.663371  0.623750  0.780786  1
  V  V1  1  0.339623  0.386361  0.222184  1
  Sb  Sb2  1  0.963596  0.762583  0.313596  1
  Sb  Sb3  1  0.034002  0.230961  0.684543  1
  F  F4  1  0.047324  0.260198  0.171804  1
  F  F5  1  0.980934  0.753311  0.834430  1
  F  F6  1  0.488508  0.235744  0.162637  1
  F  F7  1  0.502198  0.783521  0.845514  1
  F  F8  1  0.113713  0.222510  0.884476  1
  F  F9  1  0.883725  0.771503  0.113308  1
  F  F10  1  0.959059  0.284272  0.489626  1
  F  F11  1  0.038342  0.708676  0.508613  1
  F  F12  1  0.756646  0.047127  0.663076  1
  F  F13  1  0.241049  0.946335  0.335571  1
  F  F14  1  0.262980  0.079917  0.674433  1
  F  F15  1  0.738330  0.917859  0.322777  1
  F  F16  1  0.304974  0.446922  0.711444  1
  F  F17  1  0.687388  0.551378  0.288177  1
  F  F18  1  0.823956  0.417253  0.697501  1
  F  F19  1  0.177123  0.578388  0.300626  1
  F  F20  1  0.691735  0.450409  0.926369  1
  F  F21  1  0.308609  0.539275  0.080732  1
  F  F22  1  0.571491  0.668649  0.586112  1
  F  F23  1  0.421324  0.333099  0.401665  1
