# generated using pymatgen
data_TaTi2GaOs4
_symmetry_space_group_name_H-M   'P 1'
_cell_length_a   6.24608900
_cell_length_b   4.39547300
_cell_length_c   8.79244900
_cell_angle_alpha   90.00000000
_cell_angle_beta   89.99980135
_cell_angle_gamma   90.00000000
_symmetry_Int_Tables_number   1
_chemical_formula_structural   TaTi2GaOs4
_chemical_formula_sum   'Ta2 Ti4 Ga2 Os8'
_cell_volume   241.39242784
_cell_formula_units_Z   2
loop_
 _symmetry_equiv_pos_site_id
 _symmetry_equiv_pos_as_xyz
  1  'x, y, z'
loop_
 _atom_site_type_symbol
 _atom_site_label
 _atom_site_symmetry_multiplicity
 _atom_site_fract_x
 _atom_site_fract_y
 _atom_site_fract_z
 _atom_site_occupancy
  Ta  Ta0  1  0.750004  0.250000  0.622921  1
  Ta  Ta1  1  0.250002  0.749999  0.877077  1
  Ti  Ti2  1  0.250000  0.250000  0.134403  1
  Ti  Ti3  1  0.749997  0.749999  0.365597  1
  Ti  Ti4  1  0.250001  0.250000  0.616643  1
  Ti  Ti5  1  0.749999  0.749999  0.883362  1
  Ga  Ga6  1  0.750000  0.250000  0.126496  1
  Ga  Ga7  1  0.250000  0.749999  0.373501  1
  Os  Os8  1  0.498816  0.749999  0.122686  1
  Os  Os9  1  0.001182  0.749999  0.122685  1
  Os  Os10  1  0.501180  0.250000  0.377321  1
  Os  Os11  1  0.998818  0.250000  0.377322  1
  Os  Os12  1  0.998914  0.749999  0.626433  1
  Os  Os13  1  0.501089  0.749999  0.626433  1
  Os  Os14  1  0.001097  0.250000  0.873559  1
  Os  Os15  1  0.498900  0.250000  0.873560  1
