# generated using pymatgen
data_DyHoMgIr2
_symmetry_space_group_name_H-M   'P 1'
_cell_length_a   5.49863247
_cell_length_b   5.49863099
_cell_length_c   5.49863200
_cell_angle_alpha   135.44659505
_cell_angle_beta   115.45680439
_cell_angle_gamma   81.81166745
_symmetry_Int_Tables_number   1
_chemical_formula_structural   DyHoMgIr2
_chemical_formula_sum   'Dy1 Ho1 Mg1 Ir2'
_cell_volume   101.72811275
_cell_formula_units_Z   1
loop_
 _symmetry_equiv_pos_site_id
 _symmetry_equiv_pos_as_xyz
  1  'x, y, z'
loop_
 _atom_site_type_symbol
 _atom_site_label
 _atom_site_symmetry_multiplicity
 _atom_site_fract_x
 _atom_site_fract_y
 _atom_site_fract_z
 _atom_site_occupancy
  Dy  Dy0  1  0.702805  0.202804  0.500001  1
  Ho  Ho1  1  0.297023  0.797021  0.499999  1
  Mg  Mg2  1  0.000141  0.000141  0.000000  1
  Ir  Ir3  1  0.726145  0.500016  0.226129  1
  Ir  Ir4  1  0.273888  0.500016  0.773871  1
