# generated using pymatgen
data_FeCo3Si8(W6C)2
_symmetry_space_group_name_H-M   'P 1'
_cell_length_a   7.78619777
_cell_length_b   7.80764332
_cell_length_c   7.78619800
_cell_angle_alpha   60.09081889
_cell_angle_beta   59.99999902
_cell_angle_gamma   60.09081677
_symmetry_Int_Tables_number   1
_chemical_formula_structural   FeCo3Si8(W6C)2
_chemical_formula_sum   'Fe1 Co3 Si8 W12 C2'
_cell_volume   335.15880798
_cell_formula_units_Z   1
loop_
 _symmetry_equiv_pos_site_id
 _symmetry_equiv_pos_as_xyz
  1  'x, y, z'
loop_
 _atom_site_type_symbol
 _atom_site_label
 _atom_site_symmetry_multiplicity
 _atom_site_fract_x
 _atom_site_fract_y
 _atom_site_fract_z
 _atom_site_occupancy
  Fe  Fe0  1  0.125000  0.625000  0.125000  1
  Co  Co1  1  0.125000  0.125000  0.625000  1
  Co  Co2  1  0.125000  0.125000  0.125000  1
  Co  Co3  1  0.625000  0.125000  0.125000  1
  Si  Si4  1  0.915049  0.254855  0.915049  1
  Si  Si5  1  0.334951  0.995145  0.334951  1
  Si  Si6  1  0.335004  0.335822  0.335004  1
  Si  Si7  1  0.994170  0.335822  0.335004  1
  Si  Si8  1  0.914996  0.914178  0.255830  1
  Si  Si9  1  0.255830  0.914178  0.914996  1
  Si  Si10  1  0.335004  0.335822  0.994170  1
  Si  Si11  1  0.914996  0.914178  0.914996  1
  W  W12  1  0.307288  0.693776  0.691647  1
  W  W13  1  0.307598  0.309973  0.691214  1
  W  W14  1  0.558786  0.940027  0.558786  1
  W  W15  1  0.942712  0.556224  0.558353  1
  W  W16  1  0.558786  0.940027  0.942402  1
  W  W17  1  0.691214  0.309973  0.307598  1
  W  W18  1  0.942712  0.556224  0.942712  1
  W  W19  1  0.307288  0.693776  0.307288  1
  W  W20  1  0.558353  0.556224  0.942712  1
  W  W21  1  0.691214  0.309973  0.691214  1
  W  W22  1  0.691647  0.693776  0.307288  1
  W  W23  1  0.942402  0.940027  0.558786  1
  C  C24  1  0.751016  0.746952  0.751016  1
  C  C25  1  0.498984  0.503048  0.498984  1
