# generated using pymatgen
data_DyTm2Np7O20
_symmetry_space_group_name_H-M   'P 1'
_cell_length_a   6.56364309
_cell_length_b   7.55727594
_cell_length_c   8.45676300
_cell_angle_alpha   102.55618306
_cell_angle_beta   97.36872943
_cell_angle_gamma   106.86143664
_symmetry_Int_Tables_number   1
_chemical_formula_structural   DyTm2Np7O20
_chemical_formula_sum   'Dy1 Tm2 Np7 O20'
_cell_volume   383.54167705
_cell_formula_units_Z   1
loop_
 _symmetry_equiv_pos_site_id
 _symmetry_equiv_pos_as_xyz
  1  'x, y, z'
loop_
 _atom_site_type_symbol
 _atom_site_label
 _atom_site_symmetry_multiplicity
 _atom_site_fract_x
 _atom_site_fract_y
 _atom_site_fract_z
 _atom_site_occupancy
  Dy  Dy0  1  0.999532  0.999801  0.999622  1
  Tm  Tm1  1  0.799607  0.599394  0.599285  1
  Tm  Tm2  1  0.600723  0.200880  0.200901  1
  Np  Np3  1  0.998076  0.499336  0.999551  1
  Np  Np4  1  0.799351  0.100246  0.599289  1
  Np  Np5  1  0.601681  0.700028  0.200836  1
  Np  Np6  1  0.199403  0.398485  0.397754  1
  Np  Np7  1  0.400895  0.299060  0.801341  1
  Np  Np8  1  0.200008  0.901279  0.398878  1
  Np  Np9  1  0.400494  0.801436  0.802272  1
  O  O10  1  0.855456  0.321667  0.453488  1
  O  O11  1  0.643115  0.917163  0.051701  1
  O  O12  1  0.950029  0.768804  0.153224  1
  O  O13  1  0.854519  0.830365  0.448459  1
  O  O14  1  0.444020  0.521444  0.653405  1
  O  O15  1  0.649623  0.429494  0.047755  1
  O  O16  1  0.744671  0.369819  0.751747  1
  O  O17  1  0.249654  0.125427  0.257066  1
  O  O18  1  0.447465  0.026788  0.647383  1
  O  O19  1  0.953909  0.284354  0.150718  1
  O  O20  1  0.549497  0.970865  0.353961  1
  O  O21  1  0.054301  0.718124  0.849485  1
  O  O22  1  0.251752  0.627865  0.247652  1
  O  O23  1  0.741712  0.877147  0.745040  1
  O  O24  1  0.350181  0.572035  0.952533  1
  O  O25  1  0.051136  0.230894  0.845349  1
  O  O26  1  0.547023  0.480175  0.349200  1
  O  O27  1  0.151346  0.173304  0.552065  1
  O  O28  1  0.355431  0.076688  0.944380  1
  O  O29  1  0.155392  0.677631  0.545659  1
