# generated using pymatgen
data_Zr3MnS6
_symmetry_space_group_name_H-M   'P 1'
_cell_length_a   7.01721767
_cell_length_b   7.01721800
_cell_length_c   7.01721711
_cell_angle_alpha   52.98901272
_cell_angle_beta   52.98900701
_cell_angle_gamma   52.98901939
_symmetry_Int_Tables_number   1
_chemical_formula_structural   Zr3MnS6
_chemical_formula_sum   'Zr3 Mn1 S6'
_cell_volume   204.17951495
_cell_formula_units_Z   1
loop_
 _symmetry_equiv_pos_site_id
 _symmetry_equiv_pos_as_xyz
  1  'x, y, z'
loop_
 _atom_site_type_symbol
 _atom_site_label
 _atom_site_symmetry_multiplicity
 _atom_site_fract_x
 _atom_site_fract_y
 _atom_site_fract_z
 _atom_site_occupancy
  Zr  Zr0  1  0.500000  0.500000  0.500000  1
  Zr  Zr1  1  0.170311  0.170311  0.170311  1
  Zr  Zr2  1  0.829689  0.829689  0.829689  1
  Mn  Mn3  1  0.000000  0.000000  0.000000  1
  S  S4  1  0.592331  0.249625  0.914968  1
  S  S5  1  0.914968  0.592331  0.249625  1
  S  S6  1  0.249625  0.914968  0.592331  1
  S  S7  1  0.750375  0.085032  0.407669  1
  S  S8  1  0.085032  0.407669  0.750375  1
  S  S9  1  0.407669  0.750375  0.085032  1
