# generated using pymatgen
data_Dy2Si5GeAsRh12
_symmetry_space_group_name_H-M   'P 1'
_cell_length_a   9.82542559
_cell_length_b   9.80899141
_cell_length_c   3.86864789
_cell_angle_alpha   90.01010070
_cell_angle_beta   89.92815294
_cell_angle_gamma   119.86390752
_symmetry_Int_Tables_number   1
_chemical_formula_structural   Dy2Si5GeAsRh12
_chemical_formula_sum   'Dy2 Si5 Ge1 As1 Rh12'
_cell_volume   323.33975340
_cell_formula_units_Z   1
loop_
 _symmetry_equiv_pos_site_id
 _symmetry_equiv_pos_as_xyz
  1  'x, y, z'
loop_
 _atom_site_type_symbol
 _atom_site_label
 _atom_site_symmetry_multiplicity
 _atom_site_fract_x
 _atom_site_fract_y
 _atom_site_fract_z
 _atom_site_occupancy
  Dy  Dy0  1  0.334085  0.662315  0.750850  1
  Dy  Dy1  1  0.667589  0.334954  0.251944  1
  Si  Si2  1  0.886476  0.598073  0.751396  1
  Si  Si3  1  0.400885  0.292034  0.750976  1
  Si  Si4  1  0.712203  0.111853  0.750698  1
  Si  Si5  1  0.109007  0.400098  0.250510  1
  Si  Si6  1  0.599166  0.709191  0.251432  1
  Ge  Ge7  1  0.999965  0.000896  0.581392  1
  As  As8  1  0.290696  0.884906  0.250529  1
  Rh  Rh9  1  0.619739  0.554933  0.752298  1
  Rh  Rh10  1  0.452192  0.074358  0.752459  1
  Rh  Rh11  1  0.932550  0.378406  0.752023  1
  Rh  Rh12  1  0.382200  0.445254  0.249848  1
  Rh  Rh13  1  0.559244  0.940650  0.249497  1
  Rh  Rh14  1  0.056905  0.612595  0.249837  1
  Rh  Rh15  1  0.120406  0.848583  0.750773  1
  Rh  Rh16  1  0.149515  0.274984  0.749687  1
  Rh  Rh17  1  0.725672  0.874829  0.749278  1
  Rh  Rh18  1  0.880793  0.140942  0.252311  1
  Rh  Rh19  1  0.856971  0.738590  0.253138  1
  Rh  Rh20  1  0.263742  0.121557  0.253400  1
