# generated using pymatgen
data_Tb15TmCd4Co3Ru
_symmetry_space_group_name_H-M   'P 1'
_cell_length_a   9.59324989
_cell_length_b   9.59324962
_cell_length_c   9.58965201
_cell_angle_alpha   59.70518500
_cell_angle_beta   59.70518488
_cell_angle_gamma   59.73901233
_symmetry_Int_Tables_number   1
_chemical_formula_structural   Tb15TmCd4Co3Ru
_chemical_formula_sum   'Tb15 Tm1 Cd4 Co3 Ru1'
_cell_volume   620.03097825
_cell_formula_units_Z   1
loop_
 _symmetry_equiv_pos_site_id
 _symmetry_equiv_pos_as_xyz
  1  'x, y, z'
loop_
 _atom_site_type_symbol
 _atom_site_label
 _atom_site_symmetry_multiplicity
 _atom_site_fract_x
 _atom_site_fract_y
 _atom_site_fract_z
 _atom_site_occupancy
  Tb  Tb0  1  0.595147  0.595147  0.596720  1
  Tb  Tb1  1  0.188831  0.811674  0.813057  1
  Tb  Tb2  1  0.061084  0.061084  0.435954  1
  Tb  Tb3  1  0.436366  0.062448  0.061034  1
  Tb  Tb4  1  0.811674  0.188831  0.813057  1
  Tb  Tb5  1  0.437966  0.058526  0.436699  1
  Tb  Tb6  1  0.599791  0.211663  0.599307  1
  Tb  Tb7  1  0.812169  0.812169  0.188716  1
  Tb  Tb8  1  0.211663  0.599791  0.599307  1
  Tb  Tb9  1  0.807009  0.190234  0.189429  1
  Tb  Tb10  1  0.058526  0.437966  0.436699  1
  Tb  Tb11  1  0.190234  0.807009  0.189429  1
  Tb  Tb12  1  0.599237  0.599237  0.210987  1
  Tb  Tb13  1  0.189678  0.189678  0.807812  1
  Tb  Tb14  1  0.062448  0.436366  0.061034  1
  Tm  Tm15  1  0.437778  0.437778  0.058057  1
  Cd  Cd16  1  0.829960  0.829960  0.507421  1
  Cd  Cd17  1  0.829857  0.829857  0.829715  1
  Cd  Cd18  1  0.507356  0.829449  0.830340  1
  Cd  Cd19  1  0.829449  0.507356  0.830340  1
  Co  Co20  1  0.828753  0.392392  0.392712  1
  Co  Co21  1  0.392392  0.828753  0.392712  1
  Co  Co22  1  0.392368  0.392368  0.829595  1
  Ru  Ru23  1  0.390267  0.390267  0.389866  1
