# generated using pymatgen
data_Y10In2GaBi3
_symmetry_space_group_name_H-M   'P 1'
_cell_length_a   9.02598800
_cell_length_b   9.01390955
_cell_length_c   6.52079200
_cell_angle_alpha   90.00000000
_cell_angle_beta   90.00000000
_cell_angle_gamma   119.93524983
_symmetry_Int_Tables_number   1
_chemical_formula_structural   Y10In2GaBi3
_chemical_formula_sum   'Y10 In2 Ga1 Bi3'
_cell_volume   459.75019211
_cell_formula_units_Z   1
loop_
 _symmetry_equiv_pos_site_id
 _symmetry_equiv_pos_as_xyz
  1  'x, y, z'
loop_
 _atom_site_type_symbol
 _atom_site_label
 _atom_site_symmetry_multiplicity
 _atom_site_fract_x
 _atom_site_fract_y
 _atom_site_fract_z
 _atom_site_occupancy
  Y  Y0  1  0.763325  0.755110  0.250000  1
  Y  Y1  1  0.007387  0.244218  0.250000  1
  Y  Y2  1  0.772672  0.016513  0.750000  1
  Y  Y3  1  0.317047  0.651287  0.500321  1
  Y  Y4  1  0.235264  0.999763  0.250000  1
  Y  Y5  1  0.680277  0.340283  0.500442  1
  Y  Y6  1  0.998395  0.752769  0.750000  1
  Y  Y7  1  0.317047  0.651287  0.999679  1
  Y  Y8  1  0.227627  0.245007  0.750000  1
  Y  Y9  1  0.680277  0.340283  0.999558  1
  In  In10  1  0.398085  0.392403  0.250000  1
  In  In11  1  0.000660  0.606017  0.250000  1
  Ga  Ga12  1  0.998014  0.396701  0.750000  1
  Bi  Bi13  1  0.606484  0.610675  0.750000  1
  Bi  Bi14  1  0.392826  0.002818  0.750000  1
  Bi  Bi15  1  0.604614  0.994869  0.250000  1
