# generated using pymatgen
data_Y5HoC2I11
_symmetry_space_group_name_H-M   'P 1'
_cell_length_a   9.50507516
_cell_length_b   10.79204572
_cell_length_c   15.05569049
_cell_angle_alpha   89.59685865
_cell_angle_beta   104.25252446
_cell_angle_gamma   109.71026274
_symmetry_Int_Tables_number   1
_chemical_formula_structural   Y5HoC2I11
_chemical_formula_sum   'Y10 Ho2 C4 I22'
_cell_volume   1404.26677304
_cell_formula_units_Z   2
loop_
 _symmetry_equiv_pos_site_id
 _symmetry_equiv_pos_as_xyz
  1  'x, y, z'
loop_
 _atom_site_type_symbol
 _atom_site_label
 _atom_site_symmetry_multiplicity
 _atom_site_fract_x
 _atom_site_fract_y
 _atom_site_fract_z
 _atom_site_occupancy
  Y  Y0  1  0.386294  0.479933  0.121208  1
  Y  Y1  1  0.613706  0.520067  0.878792  1
  Y  Y2  1  0.424310  0.782044  0.266811  1
  Y  Y3  1  0.575690  0.217956  0.733189  1
  Y  Y4  1  0.626906  0.580943  0.362586  1
  Y  Y5  1  0.373094  0.419057  0.637414  1
  Y  Y6  1  0.834583  0.648638  0.201067  1
  Y  Y7  1  0.165417  0.351362  0.798933  1
  Y  Y8  1  0.629171  0.844606  0.102671  1
  Y  Y9  1  0.370829  0.155394  0.897329  1
  Ho  Ho10  1  0.859757  0.945028  0.347001  1
  Ho  Ho11  1  0.140243  0.054972  0.652999  1
  C  C12  1  0.430191  0.343168  0.796294  1
  C  C13  1  0.569809  0.656832  0.203706  1
  C  C14  1  0.315025  0.231744  0.740054  1
  C  C15  1  0.684975  0.768256  0.259946  1
  I  I16  1  0.385839  0.310355  0.276659  1
  I  I17  1  0.614161  0.689645  0.723341  1
  I  I18  1  0.121088  0.559497  0.151299  1
  I  I19  1  0.878912  0.440503  0.848701  1
  I  I20  1  0.629535  0.375635  0.063709  1
  I  I21  1  0.370465  0.624365  0.936291  1
  I  I22  1  0.118174  0.207221  0.479970  1
  I  I23  1  0.881826  0.792779  0.520030  1
  I  I24  1  0.615849  0.034252  0.389766  1
  I  I25  1  0.384151  0.965748  0.610234  1
  I  I26  1  0.130170  0.870225  0.306233  1
  I  I27  1  0.869830  0.129775  0.693767  1
  I  I28  1  0.128254  0.530458  0.650263  1
  I  I29  1  0.871746  0.469542  0.349737  1
  I  I30  1  0.619038  0.369108  0.562836  1
  I  I31  1  0.380962  0.630892  0.437164  1
  I  I32  1  0.140890  0.222914  0.981929  1
  I  I33  1  0.859110  0.777086  0.018071  1
  I  I34  1  0.628176  0.051820  0.899230  1
  I  I35  1  0.371824  0.948180  0.100770  1
  I  I36  1  0.125974  0.891809  0.816805  1
  I  I37  1  0.874026  0.108191  0.183195  1
