# generated using pymatgen
data_ScCr2(BiO4)3
_symmetry_space_group_name_H-M   'P 1'
_cell_length_a   10.20689056
_cell_length_b   10.20688963
_cell_length_c   5.32301105
_cell_angle_alpha   79.57912217
_cell_angle_beta   79.57912524
_cell_angle_gamma   71.30547824
_symmetry_Int_Tables_number   1
_chemical_formula_structural   ScCr2(BiO4)3
_chemical_formula_sum   'Sc2 Cr4 Bi6 O24'
_cell_volume   512.11687227
_cell_formula_units_Z   2
loop_
 _symmetry_equiv_pos_site_id
 _symmetry_equiv_pos_as_xyz
  1  'x, y, z'
loop_
 _atom_site_type_symbol
 _atom_site_label
 _atom_site_symmetry_multiplicity
 _atom_site_fract_x
 _atom_site_fract_y
 _atom_site_fract_z
 _atom_site_occupancy
  Sc  Sc0  1  0.084543  0.915457  0.750000  1
  Sc  Sc1  1  0.915457  0.084543  0.250000  1
  Cr  Cr2  1  0.538690  0.799915  0.557497  1
  Cr  Cr3  1  0.461310  0.200085  0.442503  1
  Cr  Cr4  1  0.200085  0.461310  0.942503  1
  Cr  Cr5  1  0.799915  0.538690  0.057497  1
  Bi  Bi6  1  0.723493  0.956277  0.933794  1
  Bi  Bi7  1  0.276507  0.043723  0.066206  1
  Bi  Bi8  1  0.043723  0.276507  0.566206  1
  Bi  Bi9  1  0.956277  0.723493  0.433794  1
  Bi  Bi10  1  0.671069  0.328931  0.750000  1
  Bi  Bi11  1  0.328931  0.671069  0.250000  1
  O  O12  1  0.548572  0.643667  0.705509  1
  O  O13  1  0.451428  0.356333  0.294491  1
  O  O14  1  0.356333  0.451428  0.794491  1
  O  O15  1  0.643667  0.548572  0.205509  1
  O  O16  1  0.890537  0.938558  0.587652  1
  O  O17  1  0.109463  0.061442  0.412348  1
  O  O18  1  0.061442  0.109463  0.912348  1
  O  O19  1  0.938558  0.890537  0.087652  1
  O  O20  1  0.593031  0.157686  0.634123  1
  O  O21  1  0.406969  0.842314  0.365877  1
  O  O22  1  0.842314  0.406969  0.865877  1
  O  O23  1  0.157686  0.593031  0.134123  1
  O  O24  1  0.309598  0.194014  0.623951  1
  O  O25  1  0.690402  0.805986  0.376049  1
  O  O26  1  0.805986  0.690402  0.876049  1
  O  O27  1  0.194014  0.309598  0.123951  1
  O  O28  1  0.753922  0.151291  0.024622  1
  O  O29  1  0.246078  0.848709  0.975378  1
  O  O30  1  0.848709  0.246078  0.475378  1
  O  O31  1  0.151291  0.753922  0.524622  1
  O  O32  1  0.504489  0.908940  0.774143  1
  O  O33  1  0.495511  0.091060  0.225857  1
  O  O34  1  0.091060  0.495511  0.725857  1
  O  O35  1  0.908940  0.504489  0.274143  1
