# generated using pymatgen
data_Dy6Al7Ag16
_symmetry_space_group_name_H-M   'P 1'
_cell_length_a   9.31178134
_cell_length_b   9.31178107
_cell_length_c   9.31178100
_cell_angle_alpha   59.99999670
_cell_angle_beta   59.99999764
_cell_angle_gamma   59.99999543
_symmetry_Int_Tables_number   1
_chemical_formula_structural   Dy6Al7Ag16
_chemical_formula_sum   'Dy6 Al7 Ag16'
_cell_volume   570.93050470
_cell_formula_units_Z   1
loop_
 _symmetry_equiv_pos_site_id
 _symmetry_equiv_pos_as_xyz
  1  'x, y, z'
loop_
 _atom_site_type_symbol
 _atom_site_label
 _atom_site_symmetry_multiplicity
 _atom_site_fract_x
 _atom_site_fract_y
 _atom_site_fract_z
 _atom_site_occupancy
  Dy  Dy0  1  0.708507  0.291493  0.291493  1
  Dy  Dy1  1  0.291493  0.708507  0.708507  1
  Dy  Dy2  1  0.291493  0.708507  0.291493  1
  Dy  Dy3  1  0.291493  0.291493  0.708507  1
  Dy  Dy4  1  0.708507  0.291493  0.708507  1
  Dy  Dy5  1  0.708507  0.708507  0.291493  1
  Al  Al6  1  0.500000  0.000000  0.000000  1
  Al  Al7  1  0.000000  0.500000  0.500000  1
  Al  Al8  1  0.000000  0.500000  0.000000  1
  Al  Al9  1  0.000000  0.000000  0.500000  1
  Al  Al10  1  0.500000  0.000000  0.500000  1
  Al  Al11  1  0.500000  0.500000  0.000000  1
  Al  Al12  1  0.000000  0.000000  0.000000  1
  Ag  Ag13  1  0.332780  0.332780  0.332780  1
  Ag  Ag14  1  0.332780  0.332780  0.001660  1
  Ag  Ag15  1  0.001660  0.332780  0.332780  1
  Ag  Ag16  1  0.332780  0.001660  0.332780  1
  Ag  Ag17  1  0.667220  0.667220  0.667220  1
  Ag  Ag18  1  0.667220  0.667220  0.998340  1
  Ag  Ag19  1  0.667220  0.998340  0.667220  1
  Ag  Ag20  1  0.998340  0.667220  0.667220  1
  Ag  Ag21  1  0.117424  0.117424  0.117424  1
  Ag  Ag22  1  0.117424  0.117424  0.647727  1
  Ag  Ag23  1  0.647727  0.117424  0.117424  1
  Ag  Ag24  1  0.117424  0.647727  0.117424  1
  Ag  Ag25  1  0.882576  0.882576  0.882576  1
  Ag  Ag26  1  0.882576  0.882576  0.352273  1
  Ag  Ag27  1  0.882576  0.352273  0.882576  1
  Ag  Ag28  1  0.352273  0.882576  0.882576  1
