# generated using pymatgen
data_Y3In3SnPd2
_symmetry_space_group_name_H-M   'P 1'
_cell_length_a   7.64083800
_cell_length_b   7.64083903
_cell_length_c   4.17619700
_cell_angle_alpha   90.00000000
_cell_angle_beta   90.00000000
_cell_angle_gamma   119.99999555
_symmetry_Int_Tables_number   1
_chemical_formula_structural   Y3In3SnPd2
_chemical_formula_sum   'Y3 In3 Sn1 Pd2'
_cell_volume   211.15125665
_cell_formula_units_Z   1
loop_
 _symmetry_equiv_pos_site_id
 _symmetry_equiv_pos_as_xyz
  1  'x, y, z'
loop_
 _atom_site_type_symbol
 _atom_site_label
 _atom_site_symmetry_multiplicity
 _atom_site_fract_x
 _atom_site_fract_y
 _atom_site_fract_z
 _atom_site_occupancy
  Y  Y0  1  0.399725  0.416142  0.500000  1
  Y  Y1  1  0.583858  0.983583  0.500000  1
  Y  Y2  1  0.016417  0.600275  0.500000  1
  In  In3  1  0.743186  0.759188  0.000000  1
  In  In4  1  0.240812  0.983997  0.000000  1
  In  In5  1  0.016003  0.256814  0.000000  1
  Sn  Sn6  1  0.666667  0.333333  0.000000  1
  Pd  Pd7  1  0.333333  0.666667  0.000000  1
  Pd  Pd8  1  0.000000  0.000000  0.500000  1
