# generated using pymatgen
data_Tb18CdInIr12
_symmetry_space_group_name_H-M   'P 1'
_cell_length_a   10.91940800
_cell_length_b   10.91940800
_cell_length_c   6.29749300
_cell_angle_alpha   90.00000000
_cell_angle_beta   90.00000000
_cell_angle_gamma   90.00000000
_symmetry_Int_Tables_number   1
_chemical_formula_structural   Tb18CdInIr12
_chemical_formula_sum   'Tb18 Cd1 In1 Ir12'
_cell_volume   750.87194943
_cell_formula_units_Z   1
loop_
 _symmetry_equiv_pos_site_id
 _symmetry_equiv_pos_as_xyz
  1  'x, y, z'
loop_
 _atom_site_type_symbol
 _atom_site_label
 _atom_site_symmetry_multiplicity
 _atom_site_fract_x
 _atom_site_fract_y
 _atom_site_fract_z
 _atom_site_occupancy
  Tb  Tb0  1  0.283221  0.085125  0.379094  1
  Tb  Tb1  1  0.292703  0.910605  0.881558  1
  Tb  Tb2  1  0.707297  0.089395  0.881558  1
  Tb  Tb3  1  0.716779  0.914875  0.379094  1
  Tb  Tb4  1  0.589801  0.791626  0.882495  1
  Tb  Tb5  1  0.585186  0.214976  0.378673  1
  Tb  Tb6  1  0.414814  0.785024  0.378673  1
  Tb  Tb7  1  0.410199  0.208374  0.882495  1
  Tb  Tb8  1  0.214976  0.414814  0.621327  1
  Tb  Tb9  1  0.208374  0.589801  0.117505  1
  Tb  Tb10  1  0.791626  0.410199  0.117505  1
  Tb  Tb11  1  0.785024  0.585186  0.621327  1
  Tb  Tb12  1  0.910605  0.707297  0.118442  1
  Tb  Tb13  1  0.914875  0.283221  0.620906  1
  Tb  Tb14  1  0.085125  0.716779  0.620906  1
  Tb  Tb15  1  0.089395  0.292703  0.118442  1
  Tb  Tb16  1  0.000000  0.000000  0.000000  1
  Tb  Tb17  1  0.500000  0.500000  0.000000  1
  Cd  Cd18  1  0.000000  0.000000  0.500000  1
  In  In19  1  0.500000  0.500000  0.500000  1
  Ir  Ir20  1  0.843709  0.157555  0.244047  1
  Ir  Ir21  1  0.842445  0.843709  0.755953  1
  Ir  Ir22  1  0.157555  0.156291  0.755953  1
  Ir  Ir23  1  0.156291  0.842445  0.244047  1
  Ir  Ir24  1  0.655522  0.344955  0.749752  1
  Ir  Ir25  1  0.655045  0.655522  0.250248  1
  Ir  Ir26  1  0.344955  0.344478  0.250248  1
  Ir  Ir27  1  0.344478  0.655045  0.749752  1
  Ir  Ir28  1  0.500000  0.000000  0.127079  1
  Ir  Ir29  1  0.500000  0.000000  0.615181  1
  Ir  Ir30  1  0.000000  0.500000  0.872921  1
  Ir  Ir31  1  0.000000  0.500000  0.384819  1
