# generated using pymatgen
data_HoTm3(MoN3)4
_symmetry_space_group_name_H-M   'P 1'
_cell_length_a   7.29321846
_cell_length_b   7.29321748
_cell_length_c   6.23608658
_cell_angle_alpha   73.25011869
_cell_angle_beta   73.25012365
_cell_angle_gamma   80.87497663
_symmetry_Int_Tables_number   1
_chemical_formula_structural   HoTm3(MoN3)4
_chemical_formula_sum   'Ho1 Tm3 Mo4 N12'
_cell_volume   303.12018993
_cell_formula_units_Z   1
loop_
 _symmetry_equiv_pos_site_id
 _symmetry_equiv_pos_as_xyz
  1  'x, y, z'
loop_
 _atom_site_type_symbol
 _atom_site_label
 _atom_site_symmetry_multiplicity
 _atom_site_fract_x
 _atom_site_fract_y
 _atom_site_fract_z
 _atom_site_occupancy
  Ho  Ho0  1  0.291560  0.708440  0.750000  1
  Tm  Tm1  1  0.912786  0.087214  0.750000  1
  Tm  Tm2  1  0.709287  0.290713  0.250000  1
  Tm  Tm3  1  0.085836  0.914164  0.250000  1
  Mo  Mo4  1  0.801258  0.618353  0.772929  1
  Mo  Mo5  1  0.198701  0.380995  0.228298  1
  Mo  Mo6  1  0.619005  0.801299  0.271702  1
  Mo  Mo7  1  0.381647  0.198742  0.727071  1
  N  N8  1  0.216951  0.999885  0.847792  1
  N  N9  1  0.370716  0.346086  0.427744  1
  N  N10  1  0.631675  0.653954  0.570422  1
  N  N11  1  0.627607  0.108857  0.661980  1
  N  N12  1  0.000115  0.783049  0.652208  1
  N  N13  1  0.781584  0.002215  0.152191  1
  N  N14  1  0.109510  0.627124  0.164591  1
  N  N15  1  0.891143  0.372393  0.838020  1
  N  N16  1  0.997785  0.218416  0.347809  1
  N  N17  1  0.346046  0.368325  0.929578  1
  N  N18  1  0.653914  0.629284  0.072256  1
  N  N19  1  0.372876  0.890490  0.335409  1
