# generated using pymatgen
data_LuCo2SiC
_symmetry_space_group_name_H-M   'P 1'
_cell_length_a   5.55179118
_cell_length_b   5.55179152
_cell_length_c   6.66549000
_cell_angle_alpha   90.00000000
_cell_angle_beta   90.00000000
_cell_angle_gamma   141.73419878
_symmetry_Int_Tables_number   1
_chemical_formula_structural   LuCo2SiC
_chemical_formula_sum   'Lu2 Co4 Si2 C2'
_cell_volume   127.23505972
_cell_formula_units_Z   2
loop_
 _symmetry_equiv_pos_site_id
 _symmetry_equiv_pos_as_xyz
  1  'x, y, z'
loop_
 _atom_site_type_symbol
 _atom_site_label
 _atom_site_symmetry_multiplicity
 _atom_site_fract_x
 _atom_site_fract_y
 _atom_site_fract_z
 _atom_site_occupancy
  Lu  Lu0  1  0.549648  0.450352  0.250000  1
  Lu  Lu1  1  0.450352  0.549648  0.750000  1
  Co  Co2  1  0.836505  0.163495  0.055156  1
  Co  Co3  1  0.163495  0.836505  0.944844  1
  Co  Co4  1  0.163495  0.836505  0.555156  1
  Co  Co5  1  0.836505  0.163495  0.444844  1
  Si  Si6  1  0.271269  0.728731  0.250000  1
  Si  Si7  1  0.728731  0.271269  0.750000  1
  C  C8  1  0.000000  0.000000  0.000000  1
  C  C9  1  0.000000  0.000000  0.500000  1
