# generated using pymatgen
data_Tb4ZnSi6Rh
_symmetry_space_group_name_H-M   'P 1'
_cell_length_a   8.13350100
_cell_length_b   8.13350119
_cell_length_c   8.08111700
_cell_angle_alpha   90.00000000
_cell_angle_beta   90.00000000
_cell_angle_gamma   119.99999515
_symmetry_Int_Tables_number   1
_chemical_formula_structural   Tb4ZnSi6Rh
_chemical_formula_sum   'Tb8 Zn2 Si12 Rh2'
_cell_volume   462.97453770
_cell_formula_units_Z   2
loop_
 _symmetry_equiv_pos_site_id
 _symmetry_equiv_pos_as_xyz
  1  'x, y, z'
loop_
 _atom_site_type_symbol
 _atom_site_label
 _atom_site_symmetry_multiplicity
 _atom_site_fract_x
 _atom_site_fract_y
 _atom_site_fract_z
 _atom_site_occupancy
  Tb  Tb0  1  0.000000  0.000000  0.250000  1
  Tb  Tb1  1  0.000000  0.000000  0.750000  1
  Tb  Tb2  1  0.992599  0.496299  0.250000  1
  Tb  Tb3  1  0.503701  0.496299  0.250000  1
  Tb  Tb4  1  0.504313  0.008625  0.750000  1
  Tb  Tb5  1  0.503701  0.007401  0.250000  1
  Tb  Tb6  1  0.504313  0.495687  0.750000  1
  Tb  Tb7  1  0.991375  0.495687  0.750000  1
  Zn  Zn8  1  0.333333  0.666667  0.995903  1
  Zn  Zn9  1  0.333333  0.666667  0.504097  1
  Si  Si10  1  0.164114  0.328227  0.000534  1
  Si  Si11  1  0.671773  0.835886  0.000534  1
  Si  Si12  1  0.164114  0.328227  0.499466  1
  Si  Si13  1  0.337069  0.168536  0.000314  1
  Si  Si14  1  0.164114  0.835886  0.000534  1
  Si  Si15  1  0.671773  0.835886  0.499466  1
  Si  Si16  1  0.831464  0.662931  0.000314  1
  Si  Si17  1  0.337069  0.168536  0.499686  1
  Si  Si18  1  0.164114  0.835886  0.499466  1
  Si  Si19  1  0.831464  0.662931  0.499686  1
  Si  Si20  1  0.831464  0.168536  0.000314  1
  Si  Si21  1  0.831464  0.168536  0.499686  1
  Rh  Rh22  1  0.666667  0.333333  0.999847  1
  Rh  Rh23  1  0.666667  0.333333  0.500153  1
