# generated using pymatgen
data_Os7W
_symmetry_space_group_name_H-M   'P 1'
_cell_length_a   5.53734500
_cell_length_b   5.53734437
_cell_length_c   4.38732000
_cell_angle_alpha   90.00000000
_cell_angle_beta   90.00000000
_cell_angle_gamma   119.99999779
_symmetry_Int_Tables_number   1
_chemical_formula_structural   Os7W
_chemical_formula_sum   'Os7 W1'
_cell_volume   116.50191638
_cell_formula_units_Z   1
loop_
 _symmetry_equiv_pos_site_id
 _symmetry_equiv_pos_as_xyz
  1  'x, y, z'
loop_
 _atom_site_type_symbol
 _atom_site_label
 _atom_site_symmetry_multiplicity
 _atom_site_fract_x
 _atom_site_fract_y
 _atom_site_fract_z
 _atom_site_occupancy
  Os  Os0  1  0.333333  0.666667  0.750000  1
  Os  Os1  1  0.835490  0.164510  0.750000  1
  Os  Os2  1  0.329017  0.164510  0.750000  1
  Os  Os3  1  0.835490  0.670983  0.750000  1
  Os  Os4  1  0.169601  0.830399  0.250000  1
  Os  Os5  1  0.660799  0.830399  0.250000  1
  Os  Os6  1  0.169601  0.339201  0.250000  1
  W  W7  1  0.666667  0.333333  0.250000  1
