# generated using pymatgen
data_Dy3Lu4Cd(Co3Sn11)2
_symmetry_space_group_name_H-M   'P 1'
_cell_length_a   9.63983140
_cell_length_b   9.64463792
_cell_length_c   9.99805500
_cell_angle_alpha   89.99999905
_cell_angle_beta   90.00211968
_cell_angle_gamma   120.01648705
_symmetry_Int_Tables_number   1
_chemical_formula_structural   Dy3Lu4Cd(Co3Sn11)2
_chemical_formula_sum   'Dy3 Lu4 Cd1 Co6 Sn22'
_cell_volume   804.87667841
_cell_formula_units_Z   1
loop_
 _symmetry_equiv_pos_site_id
 _symmetry_equiv_pos_as_xyz
  1  'x, y, z'
loop_
 _atom_site_type_symbol
 _atom_site_label
 _atom_site_symmetry_multiplicity
 _atom_site_fract_x
 _atom_site_fract_y
 _atom_site_fract_z
 _atom_site_occupancy
  Dy  Dy0  1  0.000000  0.000000  0.000000  1
  Dy  Dy1  1  0.041539  0.520769  0.306468  1
  Dy  Dy2  1  0.958461  0.479231  0.693532  1
  Lu  Lu3  1  0.479955  0.519700  0.306068  1
  Lu  Lu4  1  0.520045  0.480300  0.693932  1
  Lu  Lu5  1  0.479955  0.960255  0.306068  1
  Lu  Lu6  1  0.520045  0.039745  0.693932  1
  Cd  Cd7  1  0.000000  0.000000  0.500000  1
  Co  Co8  1  0.830418  0.167566  0.197156  1
  Co  Co9  1  0.169582  0.832434  0.802844  1
  Co  Co10  1  0.830418  0.662851  0.197156  1
  Co  Co11  1  0.169582  0.337149  0.802844  1
  Co  Co12  1  0.338076  0.169038  0.197482  1
  Co  Co13  1  0.661924  0.830962  0.802518  1
  Sn  Sn14  1  0.346847  0.000301  0.000018  1
  Sn  Sn15  1  0.653153  0.999699  0.999982  1
  Sn  Sn16  1  0.000000  0.346271  0.000000  1
  Sn  Sn17  1  0.000000  0.653729  0.000000  1
  Sn  Sn18  1  0.653153  0.653453  0.999982  1
  Sn  Sn19  1  0.346847  0.346547  0.000018  1
  Sn  Sn20  1  0.333834  0.666918  0.818684  1
  Sn  Sn21  1  0.666166  0.333082  0.181316  1
  Sn  Sn22  1  0.780474  0.215608  0.453520  1
  Sn  Sn23  1  0.219526  0.784392  0.546480  1
  Sn  Sn24  1  0.780474  0.564865  0.453520  1
  Sn  Sn25  1  0.219526  0.435135  0.546480  1
  Sn  Sn26  1  0.435349  0.217674  0.453786  1
  Sn  Sn27  1  0.564651  0.782326  0.546214  1
  Sn  Sn28  1  0.336134  0.668068  0.121794  1
  Sn  Sn29  1  0.663866  0.331932  0.878206  1
  Sn  Sn30  1  0.117385  0.883852  0.270839  1
  Sn  Sn31  1  0.882615  0.116148  0.729161  1
  Sn  Sn32  1  0.117385  0.233534  0.270839  1
  Sn  Sn33  1  0.882615  0.766466  0.729161  1
  Sn  Sn34  1  0.765177  0.882589  0.270859  1
  Sn  Sn35  1  0.234823  0.117411  0.729141  1
