# generated using pymatgen
data_Ho8Sc2Si5Ir
_symmetry_space_group_name_H-M   'P 1'
_cell_length_a   11.04024800
_cell_length_b   11.04024800
_cell_length_c   6.06342100
_cell_angle_alpha   90.00000000
_cell_angle_beta   90.00000000
_cell_angle_gamma   90.00000000
_symmetry_Int_Tables_number   1
_chemical_formula_structural   Ho8Sc2Si5Ir
_chemical_formula_sum   'Ho16 Sc4 Si10 Ir2'
_cell_volume   739.05265565
_cell_formula_units_Z   2
loop_
 _symmetry_equiv_pos_site_id
 _symmetry_equiv_pos_as_xyz
  1  'x, y, z'
loop_
 _atom_site_type_symbol
 _atom_site_label
 _atom_site_symmetry_multiplicity
 _atom_site_fract_x
 _atom_site_fract_y
 _atom_site_fract_z
 _atom_site_occupancy
  Ho  Ho0  1  0.285095  0.087011  0.342374  1
  Ho  Ho1  1  0.285095  0.912989  0.842374  1
  Ho  Ho2  1  0.714905  0.087011  0.842374  1
  Ho  Ho3  1  0.714905  0.912989  0.342374  1
  Ho  Ho4  1  0.587011  0.785095  0.842374  1
  Ho  Ho5  1  0.587011  0.214905  0.342374  1
  Ho  Ho6  1  0.412989  0.785095  0.342374  1
  Ho  Ho7  1  0.412989  0.214905  0.842374  1
  Ho  Ho8  1  0.208945  0.418001  0.647689  1
  Ho  Ho9  1  0.208945  0.581999  0.147689  1
  Ho  Ho10  1  0.791055  0.418001  0.147689  1
  Ho  Ho11  1  0.791055  0.581999  0.647689  1
  Ho  Ho12  1  0.918001  0.708945  0.147689  1
  Ho  Ho13  1  0.918001  0.291055  0.647689  1
  Ho  Ho14  1  0.081999  0.708945  0.647689  1
  Ho  Ho15  1  0.081999  0.291055  0.147689  1
  Sc  Sc16  1  0.000000  0.000000  0.510169  1
  Sc  Sc17  1  0.000000  0.000000  0.010169  1
  Sc  Sc18  1  0.500000  0.500000  0.010169  1
  Sc  Sc19  1  0.500000  0.500000  0.510169  1
  Si  Si20  1  0.843075  0.147902  0.258029  1
  Si  Si21  1  0.843075  0.852098  0.758029  1
  Si  Si22  1  0.156925  0.147902  0.758029  1
  Si  Si23  1  0.156925  0.852098  0.258029  1
  Si  Si24  1  0.647902  0.343075  0.758029  1
  Si  Si25  1  0.647902  0.656925  0.258029  1
  Si  Si26  1  0.352098  0.343075  0.258029  1
  Si  Si27  1  0.352098  0.656925  0.758029  1
  Si  Si28  1  0.500000  0.000000  0.085377  1
  Si  Si29  1  0.500000  0.000000  0.585377  1
  Ir  Ir30  1  0.000000  0.500000  0.901915  1
  Ir  Ir31  1  0.000000  0.500000  0.401915  1
