# generated using pymatgen
data_Cs2NaScBi2
_symmetry_space_group_name_H-M   'P 1'
_cell_length_a   10.38889270
_cell_length_b   10.38889265
_cell_length_c   10.38889279
_cell_angle_alpha   136.78245784
_cell_angle_beta   62.07733043
_cell_angle_gamma   137.69058203
_symmetry_Int_Tables_number   1
_chemical_formula_structural   Cs2NaScBi2
_chemical_formula_sum   'Cs4 Na2 Sc2 Bi4'
_cell_volume   510.73028836
_cell_formula_units_Z   2
loop_
 _symmetry_equiv_pos_site_id
 _symmetry_equiv_pos_as_xyz
  1  'x, y, z'
loop_
 _atom_site_type_symbol
 _atom_site_label
 _atom_site_symmetry_multiplicity
 _atom_site_fract_x
 _atom_site_fract_y
 _atom_site_fract_z
 _atom_site_occupancy
  Cs  Cs0  1  0.826312  0.274021  0.100333  1
  Cs  Cs1  1  0.673688  0.774021  0.447708  1
  Cs  Cs2  1  0.326312  0.225980  0.552292  1
  Cs  Cs3  1  0.173688  0.725979  0.899667  1
  Na  Na4  1  0.750000  0.250000  0.500000  1
  Na  Na5  1  0.250000  0.750000  0.500000  1
  Sc  Sc6  1  0.250000  0.250000  0.000000  1
  Sc  Sc7  1  0.750000  0.750000  0.000000  1
  Bi  Bi8  1  0.408768  0.715817  0.124583  1
  Bi  Bi9  1  0.091233  0.215816  0.307049  1
  Bi  Bi10  1  0.908768  0.784184  0.692951  1
  Bi  Bi11  1  0.591233  0.284184  0.875417  1
