# generated using pymatgen
data_ScSi(AsRh2)3
_symmetry_space_group_name_H-M   'P 1'
_cell_length_a   7.22462300
_cell_length_b   7.22462184
_cell_length_c   3.75075700
_cell_angle_alpha   90.00000000
_cell_angle_beta   90.00000000
_cell_angle_gamma   120.00000073
_symmetry_Int_Tables_number   1
_chemical_formula_structural   ScSi(AsRh2)3
_chemical_formula_sum   'Sc1 Si1 As3 Rh6'
_cell_volume   169.54300094
_cell_formula_units_Z   1
loop_
 _symmetry_equiv_pos_site_id
 _symmetry_equiv_pos_as_xyz
  1  'x, y, z'
loop_
 _atom_site_type_symbol
 _atom_site_label
 _atom_site_symmetry_multiplicity
 _atom_site_fract_x
 _atom_site_fract_y
 _atom_site_fract_z
 _atom_site_occupancy
  Sc  Sc0  1  0.000000  0.000000  0.000000  1
  Si  Si1  1  0.333333  0.666667  0.000000  1
  As  As2  1  0.811561  0.188439  0.500000  1
  As  As3  1  0.376879  0.188439  0.500000  1
  As  As4  1  0.811561  0.623121  0.500000  1
  Rh  Rh5  1  0.198446  0.801554  0.500000  1
  Rh  Rh6  1  0.198446  0.396893  0.500000  1
  Rh  Rh7  1  0.532048  0.064097  0.000000  1
  Rh  Rh8  1  0.935903  0.467952  0.000000  1
  Rh  Rh9  1  0.532048  0.467952  0.000000  1
  Rh  Rh10  1  0.603107  0.801554  0.500000  1
