# generated using pymatgen
data_Pm3Au5
_symmetry_space_group_name_H-M   'P 1'
_cell_length_a   4.50109966
_cell_length_b   5.85321891
_cell_length_c   8.86262223
_cell_angle_alpha   64.79627288
_cell_angle_beta   75.41588957
_cell_angle_gamma   67.33452374
_symmetry_Int_Tables_number   1
_chemical_formula_structural   Pm3Au5
_chemical_formula_sum   'Pm3 Au5'
_cell_volume   193.87070307
_cell_formula_units_Z   1
loop_
 _symmetry_equiv_pos_site_id
 _symmetry_equiv_pos_as_xyz
  1  'x, y, z'
loop_
 _atom_site_type_symbol
 _atom_site_label
 _atom_site_symmetry_multiplicity
 _atom_site_fract_x
 _atom_site_fract_y
 _atom_site_fract_z
 _atom_site_occupancy
  Pm  Pm0  1  0.133616  0.585731  0.806406  1
  Pm  Pm1  1  0.831359  0.865592  0.131198  1
  Pm  Pm2  1  0.428582  0.329875  0.470256  1
  Au  Au3  1  0.837045  0.241277  0.739453  1
  Au  Au4  1  0.704406  0.752386  0.501344  1
  Au  Au5  1  0.426090  0.944096  0.860016  1
  Au  Au6  1  0.130466  0.096304  0.300747  1
  Au  Au7  1  0.558310  0.439334  0.103185  1
