# generated using pymatgen
data_Eu2Al7Ga2Ir3
_symmetry_space_group_name_H-M   'P 1'
_cell_length_a   7.57969044
_cell_length_b   7.58133870
_cell_length_c   9.80212400
_cell_angle_alpha   90.00000000
_cell_angle_beta   90.00000000
_cell_angle_gamma   119.47030402
_symmetry_Int_Tables_number   1
_chemical_formula_structural   Eu2Al7Ga2Ir3
_chemical_formula_sum   'Eu4 Al14 Ga4 Ir6'
_cell_volume   490.39000518
_cell_formula_units_Z   2
loop_
 _symmetry_equiv_pos_site_id
 _symmetry_equiv_pos_as_xyz
  1  'x, y, z'
loop_
 _atom_site_type_symbol
 _atom_site_label
 _atom_site_symmetry_multiplicity
 _atom_site_fract_x
 _atom_site_fract_y
 _atom_site_fract_z
 _atom_site_occupancy
  Eu  Eu0  1  0.004646  0.333230  0.750000  1
  Eu  Eu1  1  0.333860  0.005617  0.750000  1
  Eu  Eu2  1  0.672697  0.999270  0.250000  1
  Eu  Eu3  1  0.992066  0.669170  0.250000  1
  Al  Al4  1  0.997063  0.665559  0.568074  1
  Al  Al5  1  0.002774  0.334961  0.068699  1
  Al  Al6  1  0.333972  0.000837  0.431678  1
  Al  Al7  1  0.665400  0.996400  0.568361  1
  Al  Al8  1  0.664376  0.664814  0.049323  1
  Al  Al9  1  0.334292  0.333903  0.953159  1
  Al  Al10  1  0.664376  0.664814  0.450677  1
  Al  Al11  1  0.334292  0.333903  0.546841  1
  Al  Al12  1  0.665400  0.996400  0.931639  1
  Al  Al13  1  0.333972  0.000837  0.068322  1
  Al  Al14  1  0.002774  0.334961  0.431301  1
  Al  Al15  1  0.873018  0.872248  0.750000  1
  Al  Al16  1  0.335712  0.546249  0.250000  1
  Al  Al17  1  0.997063  0.665559  0.931926  1
  Ga  Ga18  1  0.665419  0.458587  0.750000  1
  Ga  Ga19  1  0.131047  0.130770  0.250000  1
  Ga  Ga20  1  0.459636  0.665601  0.750000  1
  Ga  Ga21  1  0.541529  0.335894  0.250000  1
  Ir  Ir22  1  0.669863  0.328242  0.999953  1
  Ir  Ir23  1  0.328613  0.668471  0.497503  1
  Ir  Ir24  1  0.998834  0.998495  0.997341  1
  Ir  Ir25  1  0.328613  0.668471  0.002497  1
  Ir  Ir26  1  0.998834  0.998495  0.502659  1
  Ir  Ir27  1  0.669863  0.328242  0.500047  1
