# generated using pymatgen
data_Y20(Ru3Pt)3
_symmetry_space_group_name_H-M   'P 1'
_cell_length_a   10.91518232
_cell_length_b   10.91518172
_cell_length_c   6.42649054
_cell_angle_alpha   90.01029177
_cell_angle_beta   90.01029252
_cell_angle_gamma   90.11367578
_symmetry_Int_Tables_number   1
_chemical_formula_structural   Y20(Ru3Pt)3
_chemical_formula_sum   'Y20 Ru9 Pt3'
_cell_volume   765.65825373
_cell_formula_units_Z   1
loop_
 _symmetry_equiv_pos_site_id
 _symmetry_equiv_pos_as_xyz
  1  'x, y, z'
loop_
 _atom_site_type_symbol
 _atom_site_label
 _atom_site_symmetry_multiplicity
 _atom_site_fract_x
 _atom_site_fract_y
 _atom_site_fract_z
 _atom_site_occupancy
  Y  Y0  1  0.295282  0.085777  0.371627  1
  Y  Y1  1  0.294435  0.909488  0.877987  1
  Y  Y2  1  0.703418  0.088874  0.874221  1
  Y  Y3  1  0.701738  0.910775  0.373636  1
  Y  Y4  1  0.583439  0.791321  0.876497  1
  Y  Y5  1  0.583753  0.208523  0.377160  1
  Y  Y6  1  0.412152  0.791234  0.377627  1
  Y  Y7  1  0.416051  0.208612  0.876712  1
  Y  Y8  1  0.208679  0.416561  0.623503  1
  Y  Y9  1  0.208766  0.587848  0.122373  1
  Y  Y10  1  0.791477  0.416247  0.122840  1
  Y  Y11  1  0.791388  0.583949  0.623288  1
  Y  Y12  1  0.914223  0.704718  0.128373  1
  Y  Y13  1  0.911126  0.296582  0.625779  1
  Y  Y14  1  0.090512  0.705565  0.622013  1
  Y  Y15  1  0.089225  0.298262  0.126364  1
  Y  Y16  1  0.001688  0.997150  0.498581  1
  Y  Y17  1  0.002850  0.998312  0.001419  1
  Y  Y18  1  0.499756  0.499847  0.000447  1
  Y  Y19  1  0.500153  0.500244  0.499553  1
  Ru  Ru20  1  0.150528  0.849472  0.250000  1
  Ru  Ru21  1  0.654280  0.345720  0.750000  1
  Ru  Ru22  1  0.654779  0.654756  0.250204  1
  Ru  Ru23  1  0.345244  0.345221  0.249796  1
  Ru  Ru24  1  0.347017  0.652983  0.750000  1
  Ru  Ru25  1  0.500023  0.999703  0.123236  1
  Ru  Ru26  1  0.500566  0.999888  0.624263  1
  Ru  Ru27  1  0.000112  0.499434  0.875737  1
  Ru  Ru28  1  0.000297  0.499977  0.376764  1
  Pt  Pt29  1  0.847490  0.152510  0.250000  1
  Pt  Pt30  1  0.846172  0.846618  0.750174  1
  Pt  Pt31  1  0.153382  0.153828  0.749826  1
