# generated using pymatgen
data_Ba2CdIn3
_symmetry_space_group_name_H-M   'P 1'
_cell_length_a   6.70409260
_cell_length_b   6.70409312
_cell_length_c   8.56572666
_cell_angle_alpha   50.15826043
_cell_angle_beta   50.15825635
_cell_angle_gamma   46.26050411
_symmetry_Int_Tables_number   1
_chemical_formula_structural   Ba2CdIn3
_chemical_formula_sum   'Ba2 Cd1 In3'
_cell_volume   199.54087586
_cell_formula_units_Z   1
loop_
 _symmetry_equiv_pos_site_id
 _symmetry_equiv_pos_as_xyz
  1  'x, y, z'
loop_
 _atom_site_type_symbol
 _atom_site_label
 _atom_site_symmetry_multiplicity
 _atom_site_fract_x
 _atom_site_fract_y
 _atom_site_fract_z
 _atom_site_occupancy
  Ba  Ba0  1  0.045002  0.045002  0.704178  1
  Ba  Ba1  1  0.955608  0.955608  0.294229  1
  Cd  Cd2  1  0.333996  0.333996  0.730347  1
  In  In3  1  0.660528  0.660528  0.276281  1
  In  In4  1  0.664181  0.664181  0.899687  1
  In  In5  1  0.340685  0.340685  0.095278  1
