# generated using pymatgen
data_La4ErTl(BiO7)2
_symmetry_space_group_name_H-M   'P 1'
_cell_length_a   7.85733846
_cell_length_b   7.75579604
_cell_length_c   7.85733778
_cell_angle_alpha   60.39597869
_cell_angle_beta   60.91231089
_cell_angle_gamma   60.39597567
_symmetry_Int_Tables_number   1
_chemical_formula_structural   La4ErTl(BiO7)2
_chemical_formula_sum   'La4 Er1 Tl1 Bi2 O14'
_cell_volume   342.90744956
_cell_formula_units_Z   1
loop_
 _symmetry_equiv_pos_site_id
 _symmetry_equiv_pos_as_xyz
  1  'x, y, z'
loop_
 _atom_site_type_symbol
 _atom_site_label
 _atom_site_symmetry_multiplicity
 _atom_site_fract_x
 _atom_site_fract_y
 _atom_site_fract_z
 _atom_site_occupancy
  La  La0  1  0.625000  0.125000  0.125000  1
  La  La1  1  0.125000  0.125000  0.125000  1
  La  La2  1  0.125000  0.625000  0.125000  1
  La  La3  1  0.125000  0.125000  0.625000  1
  Er  Er4  1  0.625000  0.625000  0.625000  1
  Tl  Tl5  1  0.625000  0.125000  0.625000  1
  Bi  Bi6  1  0.625000  0.625000  0.125000  1
  Bi  Bi7  1  0.125000  0.625000  0.625000  1
  O  O8  1  0.727387  0.293356  0.271781  1
  O  O9  1  0.721515  0.703772  0.281195  1
  O  O10  1  0.297362  0.701474  0.297362  1
  O  O11  1  0.002988  0.996104  0.002988  1
  O  O12  1  0.727868  0.271519  0.727868  1
  O  O13  1  0.968805  0.546228  0.528485  1
  O  O14  1  0.281195  0.703772  0.721515  1
  O  O15  1  0.522132  0.978481  0.522132  1
  O  O16  1  0.247012  0.253896  0.247012  1
  O  O17  1  0.952638  0.548526  0.952638  1
  O  O18  1  0.528485  0.546228  0.968805  1
  O  O19  1  0.978219  0.956644  0.522613  1
  O  O20  1  0.522613  0.956644  0.978219  1
  O  O21  1  0.271781  0.293356  0.727387  1
