# generated using pymatgen
data_La3NdHoP12Ru19
_symmetry_space_group_name_H-M   'P 1'
_cell_length_a   12.64917100
_cell_length_b   12.64917175
_cell_length_c   4.03149800
_cell_angle_alpha   90.00000000
_cell_angle_beta   90.00000000
_cell_angle_gamma   120.00000065
_symmetry_Int_Tables_number   1
_chemical_formula_structural   La3NdHoP12Ru19
_chemical_formula_sum   'La3 Nd1 Ho1 P12 Ru19'
_cell_volume   558.62611005
_cell_formula_units_Z   1
loop_
 _symmetry_equiv_pos_site_id
 _symmetry_equiv_pos_as_xyz
  1  'x, y, z'
loop_
 _atom_site_type_symbol
 _atom_site_label
 _atom_site_symmetry_multiplicity
 _atom_site_fract_x
 _atom_site_fract_y
 _atom_site_fract_z
 _atom_site_occupancy
  La  La0  1  0.999981  0.183133  0.500000  1
  La  La1  1  0.816867  0.816848  0.500000  1
  La  La2  1  0.183152  0.000019  0.500000  1
  Nd  Nd3  1  0.666667  0.333333  0.000000  1
  Ho  Ho4  1  0.333333  0.666667  0.000000  1
  P  P5  1  0.000832  0.809947  0.000000  1
  P  P6  1  0.190053  0.190885  0.000000  1
  P  P7  1  0.809115  0.999168  0.000000  1
  P  P8  1  0.696028  0.172695  0.500000  1
  P  P9  1  0.827305  0.523332  0.500000  1
  P  P10  1  0.476668  0.303972  0.500000  1
  P  P11  1  0.174930  0.695771  0.500000  1
  P  P12  1  0.520840  0.825070  0.500000  1
  P  P13  1  0.304229  0.479160  0.500000  1
  P  P14  1  0.999898  0.375371  0.000000  1
  P  P15  1  0.624629  0.624527  0.000000  1
  P  P16  1  0.375473  0.000102  0.000000  1
  Ru  Ru17  1  0.000272  0.554250  0.000000  1
  Ru  Ru18  1  0.445750  0.446021  0.000000  1
  Ru  Ru19  1  0.553979  0.999728  0.000000  1
  Ru  Ru20  1  0.001061  0.712361  0.500000  1
  Ru  Ru21  1  0.287639  0.288699  0.500000  1
  Ru  Ru22  1  0.711301  0.998939  0.500000  1
  Ru  Ru23  1  0.804950  0.184684  0.000000  1
  Ru  Ru24  1  0.815316  0.620266  0.000000  1
  Ru  Ru25  1  0.379734  0.195050  0.000000  1
  Ru  Ru26  1  0.186537  0.804245  0.000000  1
  Ru  Ru27  1  0.617708  0.813463  0.000000  1
  Ru  Ru28  1  0.195755  0.382292  0.000000  1
  Ru  Ru29  1  0.876311  0.368238  0.500000  1
  Ru  Ru30  1  0.631762  0.508073  0.500000  1
  Ru  Ru31  1  0.491927  0.123689  0.500000  1
  Ru  Ru32  1  0.368204  0.873326  0.500000  1
  Ru  Ru33  1  0.505122  0.631796  0.500000  1
  Ru  Ru34  1  0.126674  0.494878  0.500000  1
  Ru  Ru35  1  0.000000  0.000000  0.000000  1
