# generated using pymatgen
data_Ac6ZnGa3Si8
_symmetry_space_group_name_H-M   'P 1'
_cell_length_a   4.55313516
_cell_length_b   4.43776193
_cell_length_c   22.00649900
_cell_angle_alpha   84.21311725
_cell_angle_beta   95.93787390
_cell_angle_gamma   89.99999648
_symmetry_Int_Tables_number   1
_chemical_formula_structural   Ac6ZnGa3Si8
_chemical_formula_sum   'Ac6 Zn1 Ga3 Si8'
_cell_volume   439.99328989
_cell_formula_units_Z   1
loop_
 _symmetry_equiv_pos_site_id
 _symmetry_equiv_pos_as_xyz
  1  'x, y, z'
loop_
 _atom_site_type_symbol
 _atom_site_label
 _atom_site_symmetry_multiplicity
 _atom_site_fract_x
 _atom_site_fract_y
 _atom_site_fract_z
 _atom_site_occupancy
  Ac  Ac0  1  0.375838  0.874734  0.249302  1
  Ac  Ac1  1  0.041938  0.209350  0.581968  1
  Ac  Ac2  1  0.704998  0.545253  0.910185  1
  Ac  Ac3  1  0.292093  0.457533  0.085856  1
  Ac  Ac4  1  0.960945  0.789260  0.421064  1
  Ac  Ac5  1  0.625242  0.124556  0.751500  1
  Zn  Zn6  1  0.904775  0.345295  0.308433  1
  Ga  Ga7  1  0.570844  0.678020  0.640611  1
  Ga  Ga8  1  0.235220  0.015221  0.969422  1
  Ga  Ga9  1  0.762669  0.986886  0.025936  1
  Si  Si10  1  0.431334  0.319143  0.363998  1
  Si  Si11  1  0.096877  0.653463  0.694447  1
  Si  Si12  1  0.844924  0.402281  0.195609  1
  Si  Si13  1  0.513069  0.735926  0.528164  1
  Si  Si14  1  0.176769  0.072175  0.856509  1
  Si  Si15  1  0.822254  0.930318  0.139993  1
  Si  Si16  1  0.487838  0.262818  0.473939  1
  Si  Si17  1  0.152376  0.597766  0.803064  1
