# generated using pymatgen
data_Ba7NbTc3O19
_symmetry_space_group_name_H-M   'P 1'
_cell_length_a   7.80453366
_cell_length_b   7.80454069
_cell_length_c   11.00620758
_cell_angle_alpha   81.54103753
_cell_angle_beta   81.54103963
_cell_angle_gamma   44.17475460
_symmetry_Int_Tables_number   1
_chemical_formula_structural   Ba7NbTc3O19
_chemical_formula_sum   'Ba7 Nb1 Tc3 O19'
_cell_volume   461.24119473
_cell_formula_units_Z   1
loop_
 _symmetry_equiv_pos_site_id
 _symmetry_equiv_pos_as_xyz
  1  'x, y, z'
loop_
 _atom_site_type_symbol
 _atom_site_label
 _atom_site_symmetry_multiplicity
 _atom_site_fract_x
 _atom_site_fract_y
 _atom_site_fract_z
 _atom_site_occupancy
  Ba  Ba0  1  0.203106  0.203106  0.407501  1
  Ba  Ba1  1  0.800285  0.800285  0.590278  1
  Ba  Ba2  1  0.420285  0.420285  0.170144  1
  Ba  Ba3  1  0.580547  0.580547  0.829135  1
  Ba  Ba4  1  0.499334  0.499334  0.497890  1
  Ba  Ba5  1  0.858852  0.858852  0.950696  1
  Ba  Ba6  1  0.139704  0.139704  0.049938  1
  Nb  Nb7  1  0.963231  0.963232  0.316699  1
  Tc  Tc8  1  0.031396  0.031395  0.676075  1
  Tc  Tc9  1  0.671187  0.671187  0.219435  1
  Tc  Tc10  1  0.328076  0.328076  0.782858  1
  O  O11  1  0.999868  0.999868  0.509093  1
  O  O12  1  0.691332  0.691332  0.378213  1
  O  O13  1  0.312302  0.312302  0.623489  1
  O  O14  1  0.046158  0.046158  0.841801  1
  O  O15  1  0.953460  0.953460  0.144721  1
  O  O16  1  0.393581  0.393581  0.920399  1
  O  O17  1  0.607970  0.607970  0.077897  1
  O  O18  1  0.827564  0.316222  0.282819  1
  O  O19  1  0.693884  0.169377  0.717502  1
  O  O20  1  0.169377  0.693884  0.717501  1
  O  O21  1  0.316222  0.827564  0.282818  1
  O  O22  1  0.636013  0.120215  0.377056  1
  O  O23  1  0.888432  0.350854  0.628628  1
  O  O24  1  0.350855  0.888432  0.628628  1
  O  O25  1  0.120215  0.636014  0.377056  1
  O  O26  1  0.984980  0.521814  0.160073  1
  O  O27  1  0.476632  0.013339  0.840791  1
  O  O28  1  0.013338  0.476632  0.840791  1
  O  O29  1  0.521814  0.984979  0.160073  1
