# generated using pymatgen
data_TmLu3Al12(GaIr)6
_symmetry_space_group_name_H-M   'P 1'
_cell_length_a   7.50511714
_cell_length_b   7.50552106
_cell_length_c   9.52448100
_cell_angle_alpha   90.00000000
_cell_angle_beta   90.00000000
_cell_angle_gamma   119.70559907
_symmetry_Int_Tables_number   1
_chemical_formula_structural   TmLu3Al12(GaIr)6
_chemical_formula_sum   'Tm1 Lu3 Al12 Ga6 Ir6'
_cell_volume   466.00546995
_cell_formula_units_Z   1
loop_
 _symmetry_equiv_pos_site_id
 _symmetry_equiv_pos_as_xyz
  1  'x, y, z'
loop_
 _atom_site_type_symbol
 _atom_site_label
 _atom_site_symmetry_multiplicity
 _atom_site_fract_x
 _atom_site_fract_y
 _atom_site_fract_z
 _atom_site_occupancy
  Tm  Tm0  1  0.996834  0.670292  0.250000  1
  Lu  Lu1  1  0.003159  0.329623  0.750000  1
  Lu  Lu2  1  0.670308  0.996850  0.250000  1
  Lu  Lu3  1  0.329663  0.003194  0.750000  1
  Al  Al4  1  0.001488  0.334298  0.072680  1
  Al  Al5  1  0.998520  0.665508  0.927033  1
  Al  Al6  1  0.998520  0.665508  0.572967  1
  Al  Al7  1  0.334700  0.001681  0.427308  1
  Al  Al8  1  0.001488  0.334298  0.427320  1
  Al  Al9  1  0.665511  0.998512  0.572810  1
  Al  Al10  1  0.665511  0.998512  0.927190  1
  Al  Al11  1  0.334700  0.001681  0.072692  1
  Al  Al12  1  0.333889  0.333889  0.558377  1
  Al  Al13  1  0.665925  0.666123  0.441759  1
  Al  Al14  1  0.665925  0.666123  0.058241  1
  Al  Al15  1  0.333889  0.333889  0.941623  1
  Ga  Ga16  1  0.127775  0.127878  0.250000  1
  Ga  Ga17  1  0.872343  0.872360  0.750000  1
  Ga  Ga18  1  0.338526  0.548043  0.250000  1
  Ga  Ga19  1  0.661548  0.451857  0.750000  1
  Ga  Ga20  1  0.547878  0.338264  0.250000  1
  Ga  Ga21  1  0.451893  0.661582  0.750000  1
  Ir  Ir22  1  0.672264  0.327601  0.999926  1
  Ir  Ir23  1  0.327714  0.672308  0.999929  1
  Ir  Ir24  1  0.327714  0.672308  0.500071  1
  Ir  Ir25  1  0.672264  0.327601  0.500074  1
  Ir  Ir26  1  0.000027  0.000109  0.999928  1
  Ir  Ir27  1  0.000027  0.000109  0.500072  1
