# generated using pymatgen
data_K2Sr2IrO6
_symmetry_space_group_name_H-M   'P 1'
_cell_length_a   7.02164658
_cell_length_b   7.02165202
_cell_length_c   7.14209280
_cell_angle_alpha   92.41124241
_cell_angle_beta   92.41122355
_cell_angle_gamma   88.78707199
_symmetry_Int_Tables_number   1
_chemical_formula_structural   K2Sr2IrO6
_chemical_formula_sum   'K4 Sr4 Ir2 O12'
_cell_volume   351.44094321
_cell_formula_units_Z   2
loop_
 _symmetry_equiv_pos_site_id
 _symmetry_equiv_pos_as_xyz
  1  'x, y, z'
loop_
 _atom_site_type_symbol
 _atom_site_label
 _atom_site_symmetry_multiplicity
 _atom_site_fract_x
 _atom_site_fract_y
 _atom_site_fract_z
 _atom_site_occupancy
  K  K0  1  0.741183  0.258817  0.000000  1
  K  K1  1  0.251169  0.748831  0.500001  1
  K  K2  1  0.748856  0.606650  0.359053  1
  K  K3  1  0.393351  0.251144  0.640947  1
  Sr  Sr4  1  0.115148  0.884851  0.000000  1
  Sr  Sr5  1  0.617052  0.748281  0.866746  1
  Sr  Sr6  1  0.884689  0.115311  0.500000  1
  Sr  Sr7  1  0.251718  0.382948  0.133255  1
  Ir  Ir8  1  0.497719  0.995176  0.248868  1
  Ir  Ir9  1  0.004824  0.502281  0.751132  1
  O  O10  1  0.562109  0.261217  0.306304  1
  O  O11  1  0.431130  0.055118  0.983352  1
  O  O12  1  0.764675  0.941125  0.176538  1
  O  O13  1  0.271850  0.576994  0.820987  1
  O  O14  1  0.940478  0.775846  0.696864  1
  O  O15  1  0.065896  0.431550  0.490970  1
  O  O16  1  0.423006  0.728149  0.179012  1
  O  O17  1  0.568450  0.934105  0.509030  1
  O  O18  1  0.224154  0.059523  0.303136  1
  O  O19  1  0.738783  0.437890  0.693695  1
  O  O20  1  0.058876  0.235324  0.823462  1
  O  O21  1  0.944882  0.568870  0.016648  1
