# generated using pymatgen
data_Tb4Tm5Lu3InCo5
_symmetry_space_group_name_H-M   'P 1'
_cell_length_a   8.20729696
_cell_length_b   8.20922847
_cell_length_c   8.20729662
_cell_angle_alpha   111.07143693
_cell_angle_beta   110.41640003
_cell_angle_gamma   106.94628783
_symmetry_Int_Tables_number   1
_chemical_formula_structural   Tb4Tm5Lu3InCo5
_chemical_formula_sum   'Tb4 Tm5 Lu3 In1 Co5'
_cell_volume   425.09672103
_cell_formula_units_Z   1
loop_
 _symmetry_equiv_pos_site_id
 _symmetry_equiv_pos_as_xyz
  1  'x, y, z'
loop_
 _atom_site_type_symbol
 _atom_site_label
 _atom_site_symmetry_multiplicity
 _atom_site_fract_x
 _atom_site_fract_y
 _atom_site_fract_z
 _atom_site_occupancy
  Tb  Tb0  1  0.595637  0.789095  0.807220  1
  Tb  Tb1  1  0.403944  0.211072  0.192375  1
  Tb  Tb2  1  0.981875  0.789095  0.193456  1
  Tb  Tb3  1  0.018698  0.211072  0.807129  1
  Tm  Tm4  1  0.815652  0.708830  0.523828  1
  Tm  Tm5  1  0.183932  0.291345  0.475715  1
  Tm  Tm6  1  0.185002  0.708830  0.893180  1
  Tm  Tm7  1  0.815630  0.291345  0.107412  1
  Tm  Tm8  1  0.684259  0.378402  0.694145  1
  Lu  Lu9  1  0.315906  0.622653  0.306748  1
  Lu  Lu10  1  0.683933  0.990578  0.306645  1
  Lu  Lu11  1  0.315650  0.008755  0.693106  1
  In  In12  1  0.499436  0.499491  0.000055  1
  Co  Co13  1  0.621092  0.999432  0.620951  1
  Co  Co14  1  0.378482  0.999432  0.378342  1
  Co  Co15  1  0.113665  0.613724  0.500060  1
  Co  Co16  1  0.887124  0.386926  0.499803  1
  Co  Co17  1  0.000085  0.999919  0.999834  1
