# generated using pymatgen
data_ErTm2Sc3FeBi2
_symmetry_space_group_name_H-M   'P 1'
_cell_length_a   7.93408000
_cell_length_b   7.93319854
_cell_length_c   4.13178600
_cell_angle_alpha   90.00000000
_cell_angle_beta   90.00000000
_cell_angle_gamma   120.00367555
_symmetry_Int_Tables_number   1
_chemical_formula_structural   ErTm2Sc3FeBi2
_chemical_formula_sum   'Er1 Tm2 Sc3 Fe1 Bi2'
_cell_volume   225.21497483
_cell_formula_units_Z   1
loop_
 _symmetry_equiv_pos_site_id
 _symmetry_equiv_pos_as_xyz
  1  'x, y, z'
loop_
 _atom_site_type_symbol
 _atom_site_label
 _atom_site_symmetry_multiplicity
 _atom_site_fract_x
 _atom_site_fract_y
 _atom_site_fract_z
 _atom_site_occupancy
  Er  Er0  1  0.615718  0.000000  0.000000  1
  Tm  Tm1  1  0.999980  0.615782  0.000000  1
  Tm  Tm2  1  0.384198  0.384218  0.000000  1
  Sc  Sc3  1  0.222747  0.000000  0.500000  1
  Sc  Sc4  1  0.000076  0.222812  0.500000  1
  Sc  Sc5  1  0.777264  0.777188  0.500000  1
  Fe  Fe6  1  0.000101  0.000000  0.000000  1
  Bi  Bi7  1  0.333246  0.666577  0.500000  1
  Bi  Bi8  1  0.666670  0.333423  0.500000  1
