# generated using pymatgen
data_Ho3Lu17(Bi2Sb)4
_symmetry_space_group_name_H-M   'P 1'
_cell_length_a   8.06232993
_cell_length_b   9.33068200
_cell_length_c   11.73917800
_cell_angle_alpha   90.00000000
_cell_angle_beta   90.04885790
_cell_angle_gamma   90.00000000
_symmetry_Int_Tables_number   1
_chemical_formula_structural   Ho3Lu17(Bi2Sb)4
_chemical_formula_sum   'Ho3 Lu17 Bi8 Sb4'
_cell_volume   883.10325395
_cell_formula_units_Z   1
loop_
 _symmetry_equiv_pos_site_id
 _symmetry_equiv_pos_as_xyz
  1  'x, y, z'
loop_
 _atom_site_type_symbol
 _atom_site_label
 _atom_site_symmetry_multiplicity
 _atom_site_fract_x
 _atom_site_fract_y
 _atom_site_fract_z
 _atom_site_occupancy
  Ho  Ho0  1  0.815098  0.250000  0.283405  1
  Ho  Ho1  1  0.684476  0.750000  0.783146  1
  Ho  Ho2  1  0.184341  0.750000  0.716740  1
  Lu  Lu3  1  0.352753  0.750000  0.215591  1
  Lu  Lu4  1  0.852432  0.750000  0.284320  1
  Lu  Lu5  1  0.647356  0.250000  0.784726  1
  Lu  Lu6  1  0.147663  0.250000  0.715676  1
  Lu  Lu7  1  0.688722  0.566046  0.058410  1
  Lu  Lu8  1  0.188284  0.934047  0.441624  1
  Lu  Lu9  1  0.311406  0.065985  0.941843  1
  Lu  Lu10  1  0.811815  0.434050  0.558183  1
  Lu  Lu11  1  0.311406  0.434015  0.941843  1
  Lu  Lu12  1  0.811815  0.065950  0.558183  1
  Lu  Lu13  1  0.688722  0.933954  0.058410  1
  Lu  Lu14  1  0.188284  0.565953  0.441624  1
  Lu  Lu15  1  0.474389  0.250000  0.488649  1
  Lu  Lu16  1  0.974494  0.250000  0.011090  1
  Lu  Lu17  1  0.525461  0.750000  0.510671  1
  Lu  Lu18  1  0.025621  0.750000  0.989453  1
  Lu  Lu19  1  0.315308  0.250000  0.216125  1
  Bi  Bi20  1  0.564337  0.995801  0.324816  1
  Bi  Bi21  1  0.066396  0.504253  0.174670  1
  Bi  Bi22  1  0.434889  0.495251  0.674739  1
  Bi  Bi23  1  0.934559  0.004956  0.825562  1
  Bi  Bi24  1  0.434889  0.004749  0.674739  1
  Bi  Bi25  1  0.934559  0.495044  0.825562  1
  Bi  Bi26  1  0.564337  0.504199  0.324816  1
  Bi  Bi27  1  0.066396  0.995747  0.174670  1
  Sb  Sb28  1  0.403098  0.750000  0.958977  1
  Sb  Sb29  1  0.902690  0.750000  0.540941  1
  Sb  Sb30  1  0.596239  0.250000  0.042021  1
  Sb  Sb31  1  0.097766  0.250000  0.458783  1
