# generated using pymatgen
data_Ti5MoS8
_symmetry_space_group_name_H-M   'P 1'
_cell_length_a   9.52448549
_cell_length_b   9.34996374
_cell_length_c   3.39370500
_cell_angle_alpha   90.00000000
_cell_angle_beta   90.00000000
_cell_angle_gamma   119.37487558
_symmetry_Int_Tables_number   1
_chemical_formula_structural   Ti5MoS8
_chemical_formula_sum   'Ti5 Mo1 S8'
_cell_volume   263.36468733
_cell_formula_units_Z   1
loop_
 _symmetry_equiv_pos_site_id
 _symmetry_equiv_pos_as_xyz
  1  'x, y, z'
loop_
 _atom_site_type_symbol
 _atom_site_label
 _atom_site_symmetry_multiplicity
 _atom_site_fract_x
 _atom_site_fract_y
 _atom_site_fract_z
 _atom_site_occupancy
  Ti  Ti0  1  0.488319  0.118259  0.249999  1
  Ti  Ti1  1  0.869220  0.355290  0.249999  1
  Ti  Ti2  1  0.646960  0.515283  0.249999  1
  Ti  Ti3  1  0.356057  0.490896  0.750001  1
  Ti  Ti4  1  0.133845  0.647543  0.750001  1
  Mo  Mo5  1  0.508037  0.872422  0.750001  1
  S  S6  1  0.697470  0.045609  0.249999  1
  S  S7  1  0.363275  0.309005  0.249999  1
  S  S8  1  0.948411  0.644413  0.249999  1
  S  S9  1  0.327511  0.665497  0.249999  1
  S  S10  1  0.667641  0.330059  0.750001  1
  S  S11  1  0.051591  0.355028  0.750001  1
  S  S12  1  0.642381  0.695983  0.750001  1
  S  S13  1  0.299284  0.954710  0.750001  1
