# generated using pymatgen
data_CaLa2Ni6B2Ir
_symmetry_space_group_name_H-M   'P 1'
_cell_length_a   7.90424733
_cell_length_b   7.90424673
_cell_length_c   7.90424605
_cell_angle_alpha   38.55199220
_cell_angle_beta   38.55199853
_cell_angle_gamma   38.55199903
_symmetry_Int_Tables_number   1
_chemical_formula_structural   CaLa2Ni6B2Ir
_chemical_formula_sum   'Ca1 La2 Ni6 B2 Ir1'
_cell_volume   172.35296783
_cell_formula_units_Z   1
loop_
 _symmetry_equiv_pos_site_id
 _symmetry_equiv_pos_as_xyz
  1  'x, y, z'
loop_
 _atom_site_type_symbol
 _atom_site_label
 _atom_site_symmetry_multiplicity
 _atom_site_fract_x
 _atom_site_fract_y
 _atom_site_fract_z
 _atom_site_occupancy
  Ca  Ca0  1  0.500000  0.500000  0.500000  1
  La  La1  1  0.644074  0.644074  0.644074  1
  La  La2  1  0.355926  0.355926  0.355926  1
  Ni  Ni3  1  0.569120  0.058752  0.058752  1
  Ni  Ni4  1  0.058752  0.058752  0.569120  1
  Ni  Ni5  1  0.058752  0.569120  0.058752  1
  Ni  Ni6  1  0.941248  0.430880  0.941248  1
  Ni  Ni7  1  0.941248  0.941248  0.430880  1
  Ni  Ni8  1  0.430880  0.941248  0.941248  1
  B  B9  1  0.830622  0.830622  0.830622  1
  B  B10  1  0.169378  0.169378  0.169378  1
  Ir  Ir11  1  0.000000  0.000000  0.000000  1
