# generated using pymatgen
data_La2Tm5Co4Sn13
_symmetry_space_group_name_H-M   'P 1'
_cell_length_a   11.16493400
_cell_length_b   11.16493400
_cell_length_c   4.50589000
_cell_angle_alpha   90.00000000
_cell_angle_beta   90.00000000
_cell_angle_gamma   90.00000000
_symmetry_Int_Tables_number   1
_chemical_formula_structural   La2Tm5Co4Sn13
_chemical_formula_sum   'La2 Tm5 Co4 Sn13'
_cell_volume   561.68510288
_cell_formula_units_Z   1
loop_
 _symmetry_equiv_pos_site_id
 _symmetry_equiv_pos_as_xyz
  1  'x, y, z'
loop_
 _atom_site_type_symbol
 _atom_site_label
 _atom_site_symmetry_multiplicity
 _atom_site_fract_x
 _atom_site_fract_y
 _atom_site_fract_z
 _atom_site_occupancy
  La  La0  1  0.500000  0.000000  0.500000  1
  La  La1  1  0.000000  0.500000  0.500000  1
  Tm  Tm2  1  0.000000  0.000000  0.000000  1
  Tm  Tm3  1  0.335649  0.673074  0.500000  1
  Tm  Tm4  1  0.664351  0.326926  0.500000  1
  Tm  Tm5  1  0.326926  0.335649  0.500000  1
  Tm  Tm6  1  0.673074  0.664351  0.500000  1
  Co  Co7  1  0.121531  0.723414  0.000000  1
  Co  Co8  1  0.878469  0.276586  0.000000  1
  Co  Co9  1  0.276586  0.121531  0.000000  1
  Co  Co10  1  0.723414  0.878469  0.000000  1
  Sn  Sn11  1  0.283565  0.888333  0.000000  1
  Sn  Sn12  1  0.716435  0.111667  0.000000  1
  Sn  Sn13  1  0.111667  0.283565  0.000000  1
  Sn  Sn14  1  0.888333  0.716435  0.000000  1
  Sn  Sn15  1  0.077605  0.808216  0.500000  1
  Sn  Sn16  1  0.922395  0.191784  0.500000  1
  Sn  Sn17  1  0.191784  0.077605  0.500000  1
  Sn  Sn18  1  0.808216  0.922395  0.500000  1
  Sn  Sn19  1  0.520924  0.778901  0.000000  1
  Sn  Sn20  1  0.479076  0.221099  0.000000  1
  Sn  Sn21  1  0.221099  0.520924  0.000000  1
  Sn  Sn22  1  0.778901  0.479076  0.000000  1
  Sn  Sn23  1  0.500000  0.500000  0.000000  1
