# generated using pymatgen
data_Tb4Er8Co4CuBi
_symmetry_space_group_name_H-M   'P 1'
_cell_length_a   8.30156675
_cell_length_b   8.30156645
_cell_length_c   8.30156694
_cell_angle_alpha   110.03503742
_cell_angle_beta   111.05187822
_cell_angle_gamma   107.34905005
_symmetry_Int_Tables_number   1
_chemical_formula_structural   Tb4Er8Co4CuBi
_chemical_formula_sum   'Tb4 Er8 Co4 Cu1 Bi1'
_cell_volume   439.92405358
_cell_formula_units_Z   1
loop_
 _symmetry_equiv_pos_site_id
 _symmetry_equiv_pos_as_xyz
  1  'x, y, z'
loop_
 _atom_site_type_symbol
 _atom_site_label
 _atom_site_symmetry_multiplicity
 _atom_site_fract_x
 _atom_site_fract_y
 _atom_site_fract_z
 _atom_site_occupancy
  Tb  Tb0  1  0.287227  0.183772  0.470999  1
  Tb  Tb1  1  0.712773  0.816228  0.529001  1
  Tb  Tb2  1  0.287227  0.816228  0.103454  1
  Tb  Tb3  1  0.712773  0.183772  0.896546  1
  Er  Er4  1  0.622227  0.313271  0.308956  1
  Er  Er5  1  0.377773  0.686729  0.691044  1
  Er  Er6  1  0.004316  0.313271  0.691044  1
  Er  Er7  1  0.995684  0.686729  0.308956  1
  Er  Er8  1  0.212694  0.413839  0.201145  1
  Er  Er9  1  0.787306  0.586161  0.798855  1
  Er  Er10  1  0.212694  0.011549  0.798855  1
  Er  Er11  1  0.787306  0.988451  0.201145  1
  Co  Co12  1  0.000000  0.376423  0.376423  1
  Co  Co13  1  0.000000  0.623577  0.623577  1
  Co  Co14  1  0.386522  0.886522  0.500000  1
  Co  Co15  1  0.613478  0.113478  0.500000  1
  Cu  Cu16  1  0.000000  0.000000  0.000000  1
  Bi  Bi17  1  0.500000  0.500000  0.000000  1
