# generated using pymatgen
data_Cs6Sm3DyBr18
_symmetry_space_group_name_H-M   'P 1'
_cell_length_a   10.58606218
_cell_length_b   10.58606161
_cell_length_c   10.58606277
_cell_angle_alpha   83.19897974
_cell_angle_beta   83.19898204
_cell_angle_gamma   83.19899138
_symmetry_Int_Tables_number   1
_chemical_formula_structural   Cs6Sm3DyBr18
_chemical_formula_sum   'Cs6 Sm3 Dy1 Br18'
_cell_volume   1163.11214588
_cell_formula_units_Z   1
loop_
 _symmetry_equiv_pos_site_id
 _symmetry_equiv_pos_as_xyz
  1  'x, y, z'
loop_
 _atom_site_type_symbol
 _atom_site_label
 _atom_site_symmetry_multiplicity
 _atom_site_fract_x
 _atom_site_fract_y
 _atom_site_fract_z
 _atom_site_occupancy
  Cs  Cs0  1  0.588190  0.911586  0.250516  1
  Cs  Cs1  1  0.250516  0.588190  0.911586  1
  Cs  Cs2  1  0.911586  0.250516  0.588190  1
  Cs  Cs3  1  0.749897  0.411999  0.087781  1
  Cs  Cs4  1  0.087781  0.749897  0.411999  1
  Cs  Cs5  1  0.411999  0.087781  0.749897  1
  Sm  Sm6  1  0.847961  0.847961  0.847961  1
  Sm  Sm7  1  0.348596  0.348596  0.348596  1
  Sm  Sm8  1  0.151459  0.151459  0.151459  1
  Dy  Dy9  1  0.653430  0.653430  0.653430  1
  Br  Br10  1  0.093371  0.406520  0.250067  1
  Br  Br11  1  0.250067  0.093371  0.406520  1
  Br  Br12  1  0.406520  0.250067  0.093371  1
  Br  Br13  1  0.748308  0.903023  0.593682  1
  Br  Br14  1  0.593682  0.748308  0.903023  1
  Br  Br15  1  0.903023  0.593682  0.748308  1
  Br  Br16  1  0.232231  0.416653  0.583568  1
  Br  Br17  1  0.583568  0.232231  0.416653  1
  Br  Br18  1  0.416653  0.583568  0.232231  1
  Br  Br19  1  0.083309  0.916268  0.732209  1
  Br  Br20  1  0.732209  0.083309  0.916268  1
  Br  Br21  1  0.916268  0.732209  0.083309  1
  Br  Br22  1  0.764329  0.585235  0.422336  1
  Br  Br23  1  0.422336  0.764329  0.585235  1
  Br  Br24  1  0.585235  0.422336  0.764329  1
  Br  Br25  1  0.916434  0.083316  0.267724  1
  Br  Br26  1  0.267724  0.916434  0.083316  1
  Br  Br27  1  0.083316  0.267724  0.916434  1
