# generated using pymatgen
data_Sc12Nb(Si4Os)3
_symmetry_space_group_name_H-M   'P 1'
_cell_length_a   3.95111900
_cell_length_b   10.49202766
_cell_length_c   11.82824904
_cell_angle_alpha   89.75922837
_cell_angle_beta   90.00000000
_cell_angle_gamma   90.00000000
_symmetry_Int_Tables_number   1
_chemical_formula_structural   Sc12Nb(Si4Os)3
_chemical_formula_sum   'Sc12 Nb1 Si12 Os3'
_cell_volume   490.33868970
_cell_formula_units_Z   1
loop_
 _symmetry_equiv_pos_site_id
 _symmetry_equiv_pos_as_xyz
  1  'x, y, z'
loop_
 _atom_site_type_symbol
 _atom_site_label
 _atom_site_symmetry_multiplicity
 _atom_site_fract_x
 _atom_site_fract_y
 _atom_site_fract_z
 _atom_site_occupancy
  Sc  Sc0  1  0.250000  0.876642  0.022093  1
  Sc  Sc1  1  0.250000  0.620857  0.513923  1
  Sc  Sc2  1  0.750000  0.127391  0.983120  1
  Sc  Sc3  1  0.750000  0.375805  0.480860  1
  Sc  Sc4  1  0.250000  0.921902  0.605002  1
  Sc  Sc5  1  0.250000  0.575477  0.108841  1
  Sc  Sc6  1  0.750000  0.077442  0.393460  1
  Sc  Sc7  1  0.750000  0.423618  0.897762  1
  Sc  Sc8  1  0.250000  0.656934  0.798440  1
  Sc  Sc9  1  0.250000  0.842550  0.297405  1
  Sc  Sc10  1  0.750000  0.340058  0.202617  1
  Sc  Sc11  1  0.750000  0.169127  0.701800  1
  Nb  Nb12  1  0.750000  0.883728  0.822699  1
  Si  Si13  1  0.250000  0.032330  0.823361  1
  Si  Si14  1  0.250000  0.481467  0.321177  1
  Si  Si15  1  0.750000  0.984101  0.175770  1
  Si  Si16  1  0.750000  0.513170  0.676865  1
  Si  Si17  1  0.250000  0.259145  0.844807  1
  Si  Si18  1  0.250000  0.249096  0.343623  1
  Si  Si19  1  0.750000  0.747582  0.158455  1
  Si  Si20  1  0.750000  0.745099  0.647821  1
  Si  Si21  1  0.250000  0.193672  0.543600  1
  Si  Si22  1  0.250000  0.307052  0.046913  1
  Si  Si23  1  0.750000  0.803353  0.451894  1
  Si  Si24  1  0.750000  0.683609  0.961995  1
  Os  Os25  1  0.250000  0.386932  0.673510  1
  Os  Os26  1  0.250000  0.112589  0.179243  1
  Os  Os27  1  0.750000  0.609273  0.322945  1
