# generated using pymatgen
data_Ta6Co13Si7Ni3
_symmetry_space_group_name_H-M   'P 1'
_cell_length_a   7.90338361
_cell_length_b   7.90804743
_cell_length_c   7.90804749
_cell_angle_alpha   60.03139916
_cell_angle_beta   60.01466433
_cell_angle_gamma   60.01466449
_symmetry_Int_Tables_number   1
_chemical_formula_structural   Ta6Co13Si7Ni3
_chemical_formula_sum   'Ta6 Co13 Si7 Ni3'
_cell_volume   349.65184348
_cell_formula_units_Z   1
loop_
 _symmetry_equiv_pos_site_id
 _symmetry_equiv_pos_as_xyz
  1  'x, y, z'
loop_
 _atom_site_type_symbol
 _atom_site_label
 _atom_site_symmetry_multiplicity
 _atom_site_fract_x
 _atom_site_fract_y
 _atom_site_fract_z
 _atom_site_occupancy
  Ta  Ta0  1  0.798913  0.198311  0.800592  1
  Ta  Ta1  1  0.203402  0.202916  0.793878  1
  Ta  Ta2  1  0.798913  0.800592  0.198312  1
  Ta  Ta3  1  0.793235  0.201759  0.201759  1
  Ta  Ta4  1  0.200252  0.798441  0.798441  1
  Ta  Ta5  1  0.203401  0.793878  0.202916  1
  Co  Co6  1  0.494830  0.836470  0.836470  1
  Co  Co7  1  0.835625  0.495467  0.836155  1
  Co  Co8  1  0.835625  0.836155  0.495467  1
  Co  Co9  1  0.166019  0.503196  0.165770  1
  Co  Co10  1  0.166019  0.165770  0.503196  1
  Co  Co11  1  0.502255  0.166308  0.166308  1
  Co  Co12  1  0.833465  0.833898  0.833898  1
  Co  Co13  1  0.381387  0.381427  0.381427  1
  Co  Co14  1  0.144082  0.618235  0.618235  1
  Co  Co15  1  0.619218  0.144937  0.617416  1
  Co  Co16  1  0.619218  0.617416  0.144937  1
  Co  Co17  1  0.382315  0.854389  0.382044  1
  Co  Co18  1  0.382315  0.382044  0.854389  1
  Si  Si19  1  0.497168  0.500360  0.500360  1
  Si  Si20  1  0.499630  0.500825  0.999984  1
  Si  Si21  1  0.001476  0.997894  0.500736  1
  Si  Si22  1  0.499630  0.999984  0.500825  1
  Si  Si23  1  0.001131  0.500532  0.500532  1
  Si  Si24  1  0.500263  0.000096  0.000096  1
  Si  Si25  1  0.001476  0.500736  0.997894  1
  Ni  Ni26  1  0.852660  0.382503  0.382503  1
  Ni  Ni27  1  0.618779  0.618282  0.618282  1
  Ni  Ni28  1  0.167297  0.167182  0.167182  1
