# generated using pymatgen
data_Cs2K2HfZrSe6
_symmetry_space_group_name_H-M   'P 1'
_cell_length_a   7.80945529
_cell_length_b   8.12429126
_cell_length_c   7.24334900
_cell_angle_alpha   90.00000000
_cell_angle_beta   90.00000000
_cell_angle_gamma   110.39780856
_symmetry_Int_Tables_number   1
_chemical_formula_structural   Cs2K2HfZrSe6
_chemical_formula_sum   'Cs2 K2 Hf1 Zr1 Se6'
_cell_volume   430.74682760
_cell_formula_units_Z   1
loop_
 _symmetry_equiv_pos_site_id
 _symmetry_equiv_pos_as_xyz
  1  'x, y, z'
loop_
 _atom_site_type_symbol
 _atom_site_label
 _atom_site_symmetry_multiplicity
 _atom_site_fract_x
 _atom_site_fract_y
 _atom_site_fract_z
 _atom_site_occupancy
  Cs  Cs0  1  0.173425  0.491635  0.750000  1
  Cs  Cs1  1  0.826579  0.508180  0.250000  1
  K  K2  1  0.492606  0.825047  0.250000  1
  K  K3  1  0.507412  0.174439  0.750000  1
  Hf  Hf4  1  0.076479  0.092708  0.250000  1
  Zr  Zr5  1  0.922709  0.906666  0.750000  1
  Se  Se6  1  0.686900  0.607048  0.750000  1
  Se  Se7  1  0.310719  0.389736  0.250000  1
  Se  Se8  1  0.830696  0.104150  0.498175  1
  Se  Se9  1  0.830696  0.104150  0.001825  1
  Se  Se10  1  0.170889  0.898120  0.498190  1
  Se  Se11  1  0.170889  0.898120  0.001810  1
