# generated using pymatgen
data_Nd2Zn2Ga5Cu
_symmetry_space_group_name_H-M   'P 1'
_cell_length_a   4.19862200
_cell_length_b   4.19862200
_cell_length_c   10.73545000
_cell_angle_alpha   90.00000000
_cell_angle_beta   90.00000000
_cell_angle_gamma   90.00000000
_symmetry_Int_Tables_number   1
_chemical_formula_structural   Nd2Zn2Ga5Cu
_chemical_formula_sum   'Nd2 Zn2 Ga5 Cu1'
_cell_volume   189.24909340
_cell_formula_units_Z   1
loop_
 _symmetry_equiv_pos_site_id
 _symmetry_equiv_pos_as_xyz
  1  'x, y, z'
loop_
 _atom_site_type_symbol
 _atom_site_label
 _atom_site_symmetry_multiplicity
 _atom_site_fract_x
 _atom_site_fract_y
 _atom_site_fract_z
 _atom_site_occupancy
  Nd  Nd0  1  0.500000  0.000000  0.751591  1
  Nd  Nd1  1  0.000000  0.500000  0.248409  1
  Zn  Zn2  1  0.000000  0.000000  0.500000  1
  Zn  Zn3  1  0.500000  0.500000  0.500000  1
  Ga  Ga4  1  0.000000  0.500000  0.866984  1
  Ga  Ga5  1  0.500000  0.000000  0.364714  1
  Ga  Ga6  1  0.500000  0.000000  0.133016  1
  Ga  Ga7  1  0.000000  0.500000  0.635286  1
  Ga  Ga8  1  0.500000  0.500000  0.000000  1
  Cu  Cu9  1  0.000000  0.000000  0.000000  1
