# generated using pymatgen
data_Th14Re2Ni3Os
_symmetry_space_group_name_H-M   'P 1'
_cell_length_a   9.92981149
_cell_length_b   9.99883394
_cell_length_c   6.24548075
_cell_angle_alpha   90.08235098
_cell_angle_beta   89.83375288
_cell_angle_gamma   119.95293740
_symmetry_Int_Tables_number   1
_chemical_formula_structural   Th14Re2Ni3Os
_chemical_formula_sum   'Th14 Re2 Ni3 Os1'
_cell_volume   537.26778234
_cell_formula_units_Z   1
loop_
 _symmetry_equiv_pos_site_id
 _symmetry_equiv_pos_as_xyz
  1  'x, y, z'
loop_
 _atom_site_type_symbol
 _atom_site_label
 _atom_site_symmetry_multiplicity
 _atom_site_fract_x
 _atom_site_fract_y
 _atom_site_fract_z
 _atom_site_occupancy
  Th  Th0  1  0.463701  0.547795  0.290166  1
  Th  Th1  1  0.082006  0.538236  0.297379  1
  Th  Th2  1  0.914512  0.460842  0.798308  1
  Th  Th3  1  0.250316  0.126460  0.492646  1
  Th  Th4  1  0.535467  0.083448  0.793719  1
  Th  Th5  1  0.753724  0.876561  0.999466  1
  Th  Th6  1  0.663361  0.333222  0.293632  1
  Th  Th7  1  0.130006  0.871734  0.002087  1
  Th  Th8  1  0.465443  0.917040  0.293781  1
  Th  Th9  1  0.536924  0.452298  0.790792  1
  Th  Th10  1  0.871588  0.129379  0.506388  1
  Th  Th11  1  0.125132  0.251165  0.996016  1
  Th  Th12  1  0.874803  0.747865  0.506167  1
  Th  Th13  1  0.336943  0.665897  0.797456  1
  Re  Re14  1  0.806563  0.626377  0.054617  1
  Re  Re15  1  0.809721  0.182685  0.053357  1
  Ni  Ni16  1  0.625216  0.812049  0.553700  1
  Ni  Ni17  1  0.370506  0.186484  0.054799  1
  Ni  Ni18  1  0.190607  0.375427  0.554166  1
  Os  Os19  1  0.193463  0.815037  0.555355  1
