# generated using pymatgen
data_Cs5VHSe5
_symmetry_space_group_name_H-M   'P 1'
_cell_length_a   8.40515685
_cell_length_b   8.40515650
_cell_length_c   15.24906060
_cell_angle_alpha   81.55684005
_cell_angle_beta   81.55683991
_cell_angle_gamma   110.41351708
_symmetry_Int_Tables_number   1
_chemical_formula_structural   Cs5VHSe5
_chemical_formula_sum   'Cs10 V2 H2 Se10'
_cell_volume   975.64372510
_cell_formula_units_Z   2
loop_
 _symmetry_equiv_pos_site_id
 _symmetry_equiv_pos_as_xyz
  1  'x, y, z'
loop_
 _atom_site_type_symbol
 _atom_site_label
 _atom_site_symmetry_multiplicity
 _atom_site_fract_x
 _atom_site_fract_y
 _atom_site_fract_z
 _atom_site_occupancy
  Cs  Cs0  1  0.266164  0.266164  0.955300  1
  Cs  Cs1  1  0.601046  0.082254  0.801602  1
  Cs  Cs2  1  0.082254  0.601046  0.801602  1
  Cs  Cs3  1  0.807960  0.807960  0.600653  1
  Cs  Cs4  1  0.669361  0.330639  0.500000  1
  Cs  Cs5  1  0.330639  0.669361  0.500000  1
  Cs  Cs6  1  0.192040  0.192040  0.399347  1
  Cs  Cs7  1  0.917746  0.398954  0.198398  1
  Cs  Cs8  1  0.398954  0.917746  0.198398  1
  Cs  Cs9  1  0.733836  0.733836  0.044700  1
  V  V10  1  0.168592  0.168592  0.694867  1
  V  V11  1  0.831408  0.831408  0.305133  1
  H  H12  1  0.798778  0.201222  0.000000  1
  H  H13  1  0.201222  0.798778  0.000000  1
  Se  Se14  1  0.691272  0.308728  0.000000  1
  Se  Se15  1  0.308728  0.691272  0.000000  1
  Se  Se16  1  0.994302  0.994302  0.835090  1
  Se  Se17  1  0.410971  0.410971  0.706301  1
  Se  Se18  1  0.269049  0.986842  0.617129  1
  Se  Se19  1  0.986842  0.269049  0.617129  1
  Se  Se20  1  0.013158  0.730951  0.382871  1
  Se  Se21  1  0.730951  0.013158  0.382871  1
  Se  Se22  1  0.589029  0.589029  0.293699  1
  Se  Se23  1  0.005698  0.005698  0.164910  1
