# generated using pymatgen
data_Mg3BiRh4
_symmetry_space_group_name_H-M   'P 1'
_cell_length_a   7.83025066
_cell_length_b   7.83025160
_cell_length_c   7.83025103
_cell_angle_alpha   33.47506207
_cell_angle_beta   33.47506251
_cell_angle_gamma   33.47505384
_symmetry_Int_Tables_number   1
_chemical_formula_structural   Mg3BiRh4
_chemical_formula_sum   'Mg3 Bi1 Rh4'
_cell_volume   130.08248087
_cell_formula_units_Z   1
loop_
 _symmetry_equiv_pos_site_id
 _symmetry_equiv_pos_as_xyz
  1  'x, y, z'
loop_
 _atom_site_type_symbol
 _atom_site_label
 _atom_site_symmetry_multiplicity
 _atom_site_fract_x
 _atom_site_fract_y
 _atom_site_fract_z
 _atom_site_occupancy
  Mg  Mg0  1  0.243778  0.243778  0.243778  1
  Mg  Mg1  1  0.756222  0.756222  0.756222  1
  Mg  Mg2  1  0.500000  0.500000  0.500000  1
  Bi  Bi3  1  0.000000  0.000000  0.000000  1
  Rh  Rh4  1  0.875939  0.875939  0.875939  1
  Rh  Rh5  1  0.374394  0.374394  0.374394  1
  Rh  Rh6  1  0.124061  0.124061  0.124061  1
  Rh  Rh7  1  0.625606  0.625606  0.625606  1
