# generated using pymatgen
data_YHo15(AlRu)4
_symmetry_space_group_name_H-M   'P 1'
_cell_length_a   9.48334301
_cell_length_b   9.48334146
_cell_length_c   9.49854500
_cell_angle_alpha   59.94695640
_cell_angle_beta   59.94696182
_cell_angle_gamma   59.82806709
_symmetry_Int_Tables_number   1
_chemical_formula_structural   YHo15(AlRu)4
_chemical_formula_sum   'Y1 Ho15 Al4 Ru4'
_cell_volume   602.76732046
_cell_formula_units_Z   1
loop_
 _symmetry_equiv_pos_site_id
 _symmetry_equiv_pos_as_xyz
  1  'x, y, z'
loop_
 _atom_site_type_symbol
 _atom_site_label
 _atom_site_symmetry_multiplicity
 _atom_site_fract_x
 _atom_site_fract_y
 _atom_site_fract_z
 _atom_site_occupancy
  Y  Y0  1  0.438357  0.438357  0.061643  1
  Ho  Ho1  1  0.648677  0.648677  0.053171  1
  Ho  Ho2  1  0.194194  0.807263  0.194056  1
  Ho  Ho3  1  0.060191  0.439558  0.059636  1
  Ho  Ho4  1  0.194194  0.807263  0.804487  1
  Ho  Ho5  1  0.060191  0.439558  0.440616  1
  Ho  Ho6  1  0.807263  0.194194  0.194056  1
  Ho  Ho7  1  0.648677  0.648677  0.649477  1
  Ho  Ho8  1  0.807263  0.194194  0.804487  1
  Ho  Ho9  1  0.194409  0.194409  0.805591  1
  Ho  Ho10  1  0.052876  0.648996  0.649064  1
  Ho  Ho11  1  0.439558  0.060191  0.059636  1
  Ho  Ho12  1  0.060384  0.060384  0.439616  1
  Ho  Ho13  1  0.648996  0.052876  0.649064  1
  Ho  Ho14  1  0.806046  0.806046  0.193954  1
  Ho  Ho15  1  0.439558  0.060191  0.440616  1
  Al  Al16  1  0.423271  0.423271  0.422937  1
  Al  Al17  1  0.423271  0.423271  0.730523  1
  Al  Al18  1  0.423284  0.730803  0.422957  1
  Al  Al19  1  0.730803  0.423284  0.422957  1
  Ru  Ru20  1  0.419531  0.859917  0.860275  1
  Ru  Ru21  1  0.859546  0.859546  0.861627  1
  Ru  Ru22  1  0.859917  0.419531  0.860275  1
  Ru  Ru23  1  0.859546  0.859546  0.419281  1
