# generated using pymatgen
data_Zr6Al5SbRu12
_symmetry_space_group_name_H-M   'P 1'
_cell_length_a   4.50112300
_cell_length_b   6.34380700
_cell_length_c   13.40645800
_cell_angle_alpha   90.00000000
_cell_angle_beta   89.99989362
_cell_angle_gamma   90.00000000
_symmetry_Int_Tables_number   1
_chemical_formula_structural   Zr6Al5SbRu12
_chemical_formula_sum   'Zr6 Al5 Sb1 Ru12'
_cell_volume   382.81142836
_cell_formula_units_Z   1
loop_
 _symmetry_equiv_pos_site_id
 _symmetry_equiv_pos_as_xyz
  1  'x, y, z'
loop_
 _atom_site_type_symbol
 _atom_site_label
 _atom_site_symmetry_multiplicity
 _atom_site_fract_x
 _atom_site_fract_y
 _atom_site_fract_z
 _atom_site_occupancy
  Zr  Zr0  1  0.000000  0.500001  0.000000  1
  Zr  Zr1  1  0.499989  0.000000  0.171908  1
  Zr  Zr2  1  0.999994  0.500001  0.336143  1
  Zr  Zr3  1  0.500001  0.000000  0.500000  1
  Zr  Zr4  1  0.000006  0.500001  0.663858  1
  Zr  Zr5  1  0.500011  0.000000  0.828092  1
  Al  Al6  1  0.499992  0.500001  0.168005  1
  Al  Al7  1  0.999992  0.000000  0.333776  1
  Al  Al8  1  0.500001  0.500001  0.500000  1
  Al  Al9  1  0.000008  0.000000  0.666225  1
  Al  Al10  1  0.500008  0.500001  0.831995  1
  Sb  Sb11  1  0.000000  0.000000  0.000000  1
  Ru  Ru12  1  0.499999  0.255065  0.000000  1
  Ru  Ru13  1  0.499999  0.744934  0.000000  1
  Ru  Ru14  1  0.999990  0.251876  0.169382  1
  Ru  Ru15  1  0.999990  0.748124  0.169382  1
  Ru  Ru16  1  0.499987  0.252466  0.334512  1
  Ru  Ru17  1  0.499987  0.747534  0.334512  1
  Ru  Ru18  1  0.000000  0.245770  0.500000  1
  Ru  Ru19  1  0.000000  0.754230  0.500000  1
  Ru  Ru20  1  0.500012  0.252466  0.665488  1
  Ru  Ru21  1  0.500012  0.747534  0.665488  1
  Ru  Ru22  1  0.000010  0.251876  0.830618  1
  Ru  Ru23  1  0.000010  0.748124  0.830618  1
