# generated using pymatgen
data_Y5Zr3(Ta3Si4)4
_symmetry_space_group_name_H-M   'P 1'
_cell_length_a   6.95086323
_cell_length_b   6.95255943
_cell_length_c   12.83912300
_cell_angle_alpha   89.95022458
_cell_angle_beta   90.08815039
_cell_angle_gamma   90.08024459
_symmetry_Int_Tables_number   1
_chemical_formula_structural   Y5Zr3(Ta3Si4)4
_chemical_formula_sum   'Y5 Zr3 Ta12 Si16'
_cell_volume   620.46560134
_cell_formula_units_Z   1
loop_
 _symmetry_equiv_pos_site_id
 _symmetry_equiv_pos_as_xyz
  1  'x, y, z'
loop_
 _atom_site_type_symbol
 _atom_site_label
 _atom_site_symmetry_multiplicity
 _atom_site_fract_x
 _atom_site_fract_y
 _atom_site_fract_z
 _atom_site_occupancy
  Y  Y0  1  0.998169  0.660087  0.032313  1
  Y  Y1  1  0.002847  0.338523  0.531465  1
  Y  Y2  1  0.661121  0.997631  0.969228  1
  Y  Y3  1  0.162341  0.501933  0.779887  1
  Y  Y4  1  0.838259  0.497655  0.282120  1
  Zr  Zr5  1  0.495301  0.158347  0.219636  1
  Zr  Zr6  1  0.504776  0.843366  0.717504  1
  Zr  Zr7  1  0.342795  0.996287  0.469007  1
  Ta  Ta8  1  0.347380  0.509005  0.376080  1
  Ta  Ta9  1  0.844968  0.997275  0.374372  1
  Ta  Ta10  1  0.008823  0.154772  0.127550  1
  Ta  Ta11  1  0.992421  0.847770  0.624697  1
  Ta  Ta12  1  0.651345  0.491414  0.874567  1
  Ta  Ta13  1  0.502683  0.344965  0.622636  1
  Ta  Ta14  1  0.494279  0.654639  0.125298  1
  Ta  Ta15  1  0.155657  0.003928  0.872600  1
  Ta  Ta16  1  0.666667  0.673172  0.499951  1
  Ta  Ta17  1  0.828881  0.166222  0.748811  1
  Ta  Ta18  1  0.171814  0.834393  0.251382  1
  Ta  Ta19  1  0.331087  0.328932  0.999922  1
  Si  Si20  1  0.045427  0.708095  0.436723  1
  Si  Si21  1  0.956881  0.293936  0.936567  1
  Si  Si22  1  0.699659  0.043593  0.563497  1
  Si  Si23  1  0.206655  0.455590  0.187374  1
  Si  Si24  1  0.792640  0.543675  0.685815  1
  Si  Si25  1  0.456819  0.199579  0.812287  1
  Si  Si26  1  0.542721  0.801643  0.313961  1
  Si  Si27  1  0.297095  0.957757  0.064478  1
  Si  Si28  1  0.864703  0.792816  0.817349  1
  Si  Si29  1  0.139092  0.204767  0.321480  1
  Si  Si30  1  0.791138  0.871870  0.181836  1
  Si  Si31  1  0.296890  0.638922  0.570939  1
  Si  Si32  1  0.702028  0.364196  0.071522  1
  Si  Si33  1  0.627270  0.289841  0.428818  1
  Si  Si34  1  0.368323  0.705840  0.929922  1
  Si  Si35  1  0.211046  0.127564  0.678408  1
