# generated using pymatgen
data_La6FeCoBr6
_symmetry_space_group_name_H-M   'P 1'
_cell_length_a   4.28250800
_cell_length_b   9.27774406
_cell_length_c   12.01570100
_cell_angle_alpha   86.61297521
_cell_angle_beta   90.00000000
_cell_angle_gamma   90.00000000
_symmetry_Int_Tables_number   1
_chemical_formula_structural   La6FeCoBr6
_chemical_formula_sum   'La6 Fe1 Co1 Br6'
_cell_volume   476.57406958
_cell_formula_units_Z   1
loop_
 _symmetry_equiv_pos_site_id
 _symmetry_equiv_pos_as_xyz
  1  'x, y, z'
loop_
 _atom_site_type_symbol
 _atom_site_label
 _atom_site_symmetry_multiplicity
 _atom_site_fract_x
 _atom_site_fract_y
 _atom_site_fract_z
 _atom_site_occupancy
  La  La0  1  0.250000  0.325498  0.875627  1
  La  La1  1  0.750000  0.671125  0.128860  1
  La  La2  1  0.750000  0.119287  0.664495  1
  La  La3  1  0.250000  0.879688  0.327899  1
  La  La4  1  0.750000  0.095010  0.100107  1
  La  La5  1  0.250000  0.902310  0.898178  1
  Fe  Fe6  1  0.250000  0.880265  0.138919  1
  Co  Co7  1  0.750000  0.120817  0.867239  1
  Br  Br8  1  0.750000  0.115186  0.376416  1
  Br  Br9  1  0.250000  0.888560  0.621219  1
  Br  Br10  1  0.250000  0.355056  0.621232  1
  Br  Br11  1  0.750000  0.642245  0.380048  1
  Br  Br12  1  0.750000  0.613669  0.873258  1
  Br  Br13  1  0.250000  0.391282  0.126504  1
