# generated using pymatgen
data_HoB2Pt6Au
_symmetry_space_group_name_H-M   'P 1'
_cell_length_a   5.60411300
_cell_length_b   5.60411479
_cell_length_c   5.64464000
_cell_angle_alpha   90.00000000
_cell_angle_beta   90.00000000
_cell_angle_gamma   119.99999535
_symmetry_Int_Tables_number   1
_chemical_formula_structural   HoB2Pt6Au
_chemical_formula_sum   'Ho1 B2 Pt6 Au1'
_cell_volume   153.52560132
_cell_formula_units_Z   1
loop_
 _symmetry_equiv_pos_site_id
 _symmetry_equiv_pos_as_xyz
  1  'x, y, z'
loop_
 _atom_site_type_symbol
 _atom_site_label
 _atom_site_symmetry_multiplicity
 _atom_site_fract_x
 _atom_site_fract_y
 _atom_site_fract_z
 _atom_site_occupancy
  Ho  Ho0  1  0.000000  0.000000  0.500000  1
  B  B1  1  0.666667  0.333333  0.500000  1
  B  B2  1  0.333333  0.666667  0.500000  1
  Pt  Pt3  1  0.500000  0.500000  0.757166  1
  Pt  Pt4  1  0.000000  0.500000  0.757166  1
  Pt  Pt5  1  0.500000  0.000000  0.757166  1
  Pt  Pt6  1  0.000000  0.500000  0.242834  1
  Pt  Pt7  1  0.500000  0.500000  0.242834  1
  Pt  Pt8  1  0.500000  0.000000  0.242834  1
  Au  Au9  1  0.000000  0.000000  0.000000  1
