# generated using pymatgen
data_YbEr3Ru8
_symmetry_space_group_name_H-M   'P 1'
_cell_length_a   5.23872161
_cell_length_b   5.23872199
_cell_length_c   8.93235300
_cell_angle_alpha   89.99817129
_cell_angle_beta   90.00183010
_cell_angle_gamma   119.99933875
_symmetry_Int_Tables_number   1
_chemical_formula_structural   YbEr3Ru8
_chemical_formula_sum   'Yb1 Er3 Ru8'
_cell_volume   212.30003943
_cell_formula_units_Z   1
loop_
 _symmetry_equiv_pos_site_id
 _symmetry_equiv_pos_as_xyz
  1  'x, y, z'
loop_
 _atom_site_type_symbol
 _atom_site_label
 _atom_site_symmetry_multiplicity
 _atom_site_fract_x
 _atom_site_fract_y
 _atom_site_fract_z
 _atom_site_occupancy
  Yb  Yb0  1  0.666668  0.333332  0.935603  1
  Er  Er1  1  0.666658  0.333342  0.572078  1
  Er  Er2  1  0.333301  0.666699  0.432106  1
  Er  Er3  1  0.333315  0.666685  0.063043  1
  Ru  Ru4  1  0.999804  0.000196  0.498778  1
  Ru  Ru5  1  0.999840  0.000160  0.999555  1
  Ru  Ru6  1  0.170933  0.341678  0.749071  1
  Ru  Ru7  1  0.170847  0.829153  0.749054  1
  Ru  Ru8  1  0.658322  0.829067  0.749071  1
  Ru  Ru9  1  0.828649  0.657122  0.250533  1
  Ru  Ru10  1  0.828785  0.171215  0.250573  1
  Ru  Ru11  1  0.342878  0.171351  0.250533  1
