# generated using pymatgen
data_LaYb(Zn10Pt)2
_symmetry_space_group_name_H-M   'P 1'
_cell_length_a   8.32429663
_cell_length_b   8.30926544
_cell_length_c   8.34170700
_cell_angle_alpha   99.84818904
_cell_angle_beta   99.93493805
_cell_angle_gamma   130.95014563
_symmetry_Int_Tables_number   1
_chemical_formula_structural   LaYb(Zn10Pt)2
_chemical_formula_sum   'La1 Yb1 Zn20 Pt2'
_cell_volume   396.71569500
_cell_formula_units_Z   1
loop_
 _symmetry_equiv_pos_site_id
 _symmetry_equiv_pos_as_xyz
  1  'x, y, z'
loop_
 _atom_site_type_symbol
 _atom_site_label
 _atom_site_symmetry_multiplicity
 _atom_site_fract_x
 _atom_site_fract_y
 _atom_site_fract_z
 _atom_site_occupancy
  La  La0  1  0.003030  0.003034  0.006076  1
  Yb  Yb1  1  0.249484  0.749505  0.498937  1
  Zn  Zn2  1  0.897850  0.572080  0.083053  1
  Zn  Zn3  1  0.627395  0.877697  0.250336  1
  Zn  Zn4  1  0.428090  0.513379  0.328264  1
  Zn  Zn5  1  0.490083  0.575291  0.671558  1
  Zn  Zn6  1  0.426074  0.097072  0.914236  1
  Zn  Zn7  1  0.756723  0.171289  0.828207  1
  Zn  Zn8  1  0.488073  0.817089  0.914222  1
  Zn  Zn9  1  0.494333  0.494334  0.988614  1
  Zn  Zn10  1  0.759562  0.930372  0.585070  1
  Zn  Zn11  1  0.755985  0.255977  0.511958  1
  Zn  Zn12  1  0.071532  0.656944  0.828254  1
  Zn  Zn13  1  0.347950  0.172927  0.416400  1
  Zn  Zn14  1  0.825579  0.654727  0.585036  1
  Zn  Zn15  1  0.900182  0.814873  0.328264  1
  Zn  Zn16  1  0.181452  0.096240  0.671543  1
  Zn  Zn17  1  0.068389  0.243485  0.416395  1
  Zn  Zn18  1  0.347504  0.931317  0.172314  1
  Zn  Zn19  1  0.824777  0.240949  0.172342  1
  Zn  Zn20  1  0.185226  0.511005  0.083082  1
  Zn  Zn21  1  0.622965  0.372667  0.250332  1
  Pt  Pt22  1  0.122139  0.374227  0.747767  1
  Pt  Pt23  1  0.625623  0.373523  0.747737  1
