# generated using pymatgen
data_La5OsRu
_symmetry_space_group_name_H-M   'P 1'
_cell_length_a   9.06919146
_cell_length_b   9.06919097
_cell_length_c   7.42284687
_cell_angle_alpha   85.05266123
_cell_angle_beta   85.05266187
_cell_angle_gamma   43.76212654
_symmetry_Int_Tables_number   1
_chemical_formula_structural   La5OsRu
_chemical_formula_sum   'La10 Os2 Ru2'
_cell_volume   420.45581705
_cell_formula_units_Z   2
loop_
 _symmetry_equiv_pos_site_id
 _symmetry_equiv_pos_as_xyz
  1  'x, y, z'
loop_
 _atom_site_type_symbol
 _atom_site_label
 _atom_site_symmetry_multiplicity
 _atom_site_fract_x
 _atom_site_fract_y
 _atom_site_fract_z
 _atom_site_occupancy
  La  La0  1  0.018384  0.797565  0.907803  1
  La  La1  1  0.202435  0.981616  0.592197  1
  La  La2  1  0.981960  0.202790  0.093682  1
  La  La3  1  0.797210  0.018040  0.406318  1
  La  La4  1  0.360680  0.208468  0.817555  1
  La  La5  1  0.791532  0.639320  0.682445  1
  La  La6  1  0.638342  0.791743  0.182435  1
  La  La7  1  0.208257  0.361658  0.317565  1
  La  La8  1  0.576308  0.423692  0.750000  1
  La  La9  1  0.422051  0.577949  0.250000  1
  Os  Os10  1  0.176251  0.601832  0.577359  1
  Os  Os11  1  0.398168  0.823749  0.922641  1
  Ru  Ru12  1  0.825239  0.396816  0.419651  1
  Ru  Ru13  1  0.603184  0.174761  0.080349  1
