# generated using pymatgen
data_Y2ReOs3
_symmetry_space_group_name_H-M   'P 1'
_cell_length_a   5.40157267
_cell_length_b   5.24749390
_cell_length_c   8.91240600
_cell_angle_alpha   90.00000000
_cell_angle_beta   90.00000000
_cell_angle_gamma   119.06081470
_symmetry_Int_Tables_number   1
_chemical_formula_structural   Y2ReOs3
_chemical_formula_sum   'Y4 Re2 Os6'
_cell_volume   220.81600515
_cell_formula_units_Z   2
loop_
 _symmetry_equiv_pos_site_id
 _symmetry_equiv_pos_as_xyz
  1  'x, y, z'
loop_
 _atom_site_type_symbol
 _atom_site_label
 _atom_site_symmetry_multiplicity
 _atom_site_fract_x
 _atom_site_fract_y
 _atom_site_fract_z
 _atom_site_occupancy
  Y  Y0  1  0.329461  0.664731  0.437121  1
  Y  Y1  1  0.668006  0.334003  0.566098  1
  Y  Y2  1  0.668006  0.334003  0.933902  1
  Y  Y3  1  0.329461  0.664731  0.062879  1
  Re  Re4  1  0.833881  0.171326  0.250000  1
  Re  Re5  1  0.833881  0.662554  0.250000  1
  Os  Os6  1  0.988364  0.994182  0.501776  1
  Os  Os7  1  0.988364  0.994182  0.998224  1
  Os  Os8  1  0.352338  0.176169  0.250000  1
  Os  Os9  1  0.175002  0.830747  0.750000  1
  Os  Os10  1  0.175002  0.344255  0.750000  1
  Os  Os11  1  0.658236  0.829118  0.750000  1
