# generated using pymatgen
data_Sr4Nd3(US4)5
_symmetry_space_group_name_H-M   'P 1'
_cell_length_a   7.54535776
_cell_length_b   8.17615191
_cell_length_c   11.83501200
_cell_angle_alpha   89.85710644
_cell_angle_beta   89.86888268
_cell_angle_gamma   90.21451410
_symmetry_Int_Tables_number   1
_chemical_formula_structural   Sr4Nd3(US4)5
_chemical_formula_sum   'Sr4 Nd3 U5 S20'
_cell_volume   730.11614101
_cell_formula_units_Z   1
loop_
 _symmetry_equiv_pos_site_id
 _symmetry_equiv_pos_as_xyz
  1  'x, y, z'
loop_
 _atom_site_type_symbol
 _atom_site_label
 _atom_site_symmetry_multiplicity
 _atom_site_fract_x
 _atom_site_fract_y
 _atom_site_fract_z
 _atom_site_occupancy
  Sr  Sr0  1  0.046433  0.495089  0.327058  1
  Sr  Sr1  1  0.547462  0.506089  0.169905  1
  Sr  Sr2  1  0.952949  0.506274  0.671636  1
  Sr  Sr3  1  0.449277  0.494773  0.829990  1
  Nd  Nd4  1  0.037274  0.001117  0.323213  1
  Nd  Nd5  1  0.539085  0.000071  0.177872  1
  Nd  Nd6  1  0.962282  0.998919  0.674367  1
  U  U7  1  0.467010  0.000579  0.823953  1
  U  U8  1  0.062455  0.752533  0.005339  1
  U  U9  1  0.564799  0.249430  0.494258  1
  U  U10  1  0.937078  0.245913  0.991548  1
  U  U11  1  0.431772  0.751457  0.508627  1
  S  S12  1  0.666128  0.959146  0.414581  1
  S  S13  1  0.164722  0.040421  0.088022  1
  S  S14  1  0.338178  0.041161  0.596171  1
  S  S15  1  0.828455  0.954991  0.909018  1
  S  S16  1  0.446432  0.777611  0.996091  1
  S  S17  1  0.943122  0.234544  0.497587  1
  S  S18  1  0.551718  0.223964  0.991072  1
  S  S19  1  0.056759  0.767232  0.503128  1
  S  S20  1  0.847068  0.763120  0.187346  1
  S  S21  1  0.349566  0.236524  0.312687  1
  S  S22  1  0.159508  0.227383  0.812604  1
  S  S23  1  0.644769  0.768252  0.694270  1
  S  S24  1  0.324550  0.760413  0.289187  1
  S  S25  1  0.821564  0.241188  0.207699  1
  S  S26  1  0.675037  0.234215  0.713775  1
  S  S27  1  0.181501  0.766374  0.789667  1
  S  S28  1  0.175760  0.463181  0.073635  1
  S  S29  1  0.669561  0.540383  0.423999  1
  S  S30  1  0.828122  0.537691  0.920283  1
  S  S31  1  0.329606  0.459963  0.581413  1
