# generated using pymatgen
data_Np(CrB3)2
_symmetry_space_group_name_H-M   'P 1'
_cell_length_a   5.47887171
_cell_length_b   5.47887155
_cell_length_c   5.47887257
_cell_angle_alpha   147.88533108
_cell_angle_beta   108.33010470
_cell_angle_gamma   80.70736792
_symmetry_Int_Tables_number   1
_chemical_formula_structural   Np(CrB3)2
_chemical_formula_sum   'Np1 Cr2 B6'
_cell_volume   81.18317647
_cell_formula_units_Z   1
loop_
 _symmetry_equiv_pos_site_id
 _symmetry_equiv_pos_as_xyz
  1  'x, y, z'
loop_
 _atom_site_type_symbol
 _atom_site_label
 _atom_site_symmetry_multiplicity
 _atom_site_fract_x
 _atom_site_fract_y
 _atom_site_fract_z
 _atom_site_occupancy
  Np  Np0  1  0.000000  0.000000  0.000000  1
  Cr  Cr1  1  0.653100  0.153100  0.500000  1
  Cr  Cr2  1  0.346900  0.846901  0.500000  1
  B  B3  1  0.545205  0.304558  0.240647  1
  B  B4  1  0.454795  0.695442  0.759353  1
  B  B5  1  0.936088  0.695442  0.240647  1
  B  B6  1  0.353668  0.500000  0.853667  1
  B  B7  1  0.646333  0.500000  0.146333  1
  B  B8  1  0.063912  0.304558  0.759353  1
