# generated using pymatgen
data_K4Hf3Zr3GeI18
_symmetry_space_group_name_H-M   'P 1'
_cell_length_a   11.29556989
_cell_length_b   11.43117139
_cell_length_c   11.55323136
_cell_angle_alpha   118.52554110
_cell_angle_beta   100.07248655
_cell_angle_gamma   103.84055664
_symmetry_Int_Tables_number   1
_chemical_formula_structural   K4Hf3Zr3GeI18
_chemical_formula_sum   'K4 Hf3 Zr3 Ge1 I18'
_cell_volume   1197.30014566
_cell_formula_units_Z   1
loop_
 _symmetry_equiv_pos_site_id
 _symmetry_equiv_pos_as_xyz
  1  'x, y, z'
loop_
 _atom_site_type_symbol
 _atom_site_label
 _atom_site_symmetry_multiplicity
 _atom_site_fract_x
 _atom_site_fract_y
 _atom_site_fract_z
 _atom_site_occupancy
  K  K0  1  0.652149  0.538283  0.226988  1
  K  K1  1  0.347816  0.461946  0.773044  1
  K  K2  1  0.686255  0.224699  0.564007  1
  K  K3  1  0.313802  0.775405  0.436328  1
  Hf  Hf4  1  0.150757  0.055444  0.229588  1
  Hf  Hf5  1  0.850628  0.943300  0.769144  1
  Hf  Hf6  1  0.860861  0.127368  0.133725  1
  Zr  Zr7  1  0.137634  0.873809  0.867446  1
  Zr  Zr8  1  0.146644  0.239495  0.044817  1
  Zr  Zr9  1  0.854672  0.759356  0.953916  1
  Ge  Ge10  1  0.998558  0.001362  0.001429  1
  I  I11  1  0.005375  0.410110  0.198386  1
  I  I12  1  0.992497  0.586710  0.801075  1
  I  I13  1  0.329310  0.332665  0.313497  1
  I  I14  1  0.670594  0.667425  0.686595  1
  I  I15  1  0.323622  0.525963  0.101090  1
  I  I16  1  0.676056  0.474410  0.899335  1
  I  I17  1  0.006485  0.797365  0.211869  1
  I  I18  1  0.993415  0.202680  0.788190  1
  I  I19  1  0.701565  0.276425  0.289081  1
  I  I20  1  0.300207  0.721722  0.709023  1
  I  I21  1  0.319505  0.128126  0.902049  1
  I  I22  1  0.682375  0.875348  0.098717  1
  I  I23  1  0.014094  0.204144  0.407085  1
  I  I24  1  0.983627  0.795160  0.589856  1
  I  I25  1  0.321715  0.923802  0.112901  1
  I  I26  1  0.680094  0.077053  0.890419  1
  I  I27  1  0.332336  0.121297  0.502774  1
  I  I28  1  0.667351  0.879129  0.497625  1
