# generated using pymatgen
data_Yb12HoLu7Si16
_symmetry_space_group_name_H-M   'P 1'
_cell_length_a   7.31888244
_cell_length_b   7.75549524
_cell_length_c   14.95142948
_cell_angle_alpha   89.99355653
_cell_angle_beta   90.02826825
_cell_angle_gamma   90.02774015
_symmetry_Int_Tables_number   1
_chemical_formula_structural   Yb12HoLu7Si16
_chemical_formula_sum   'Yb12 Ho1 Lu7 Si16'
_cell_volume   848.66622192
_cell_formula_units_Z   1
loop_
 _symmetry_equiv_pos_site_id
 _symmetry_equiv_pos_as_xyz
  1  'x, y, z'
loop_
 _atom_site_type_symbol
 _atom_site_label
 _atom_site_symmetry_multiplicity
 _atom_site_fract_x
 _atom_site_fract_y
 _atom_site_fract_z
 _atom_site_occupancy
  Yb  Yb0  1  0.974083  0.816965  0.404142  1
  Yb  Yb1  1  0.474382  0.682859  0.095939  1
  Yb  Yb2  1  0.525800  0.317102  0.595937  1
  Yb  Yb3  1  0.025678  0.182991  0.903967  1
  Yb  Yb4  1  0.025841  0.182932  0.595944  1
  Yb  Yb5  1  0.525999  0.317142  0.903927  1
  Yb  Yb6  1  0.474181  0.682927  0.404120  1
  Yb  Yb7  1  0.973919  0.816897  0.095906  1
  Yb  Yb8  1  0.351580  0.019833  0.749975  1
  Yb  Yb9  1  0.851533  0.480130  0.750022  1
  Yb  Yb10  1  0.148332  0.520126  0.250158  1
  Yb  Yb11  1  0.648647  0.979967  0.250113  1
  Ho  Ho12  1  0.314881  0.176920  0.121039  1
  Lu  Lu13  1  0.815060  0.323616  0.378974  1
  Lu  Lu14  1  0.185024  0.676496  0.878766  1
  Lu  Lu15  1  0.684986  0.823510  0.621169  1
  Lu  Lu16  1  0.314961  0.176376  0.379022  1
  Lu  Lu17  1  0.814956  0.323789  0.121061  1
  Lu  Lu18  1  0.184990  0.676504  0.621160  1
  Lu  Lu19  1  0.685207  0.823405  0.878713  1
  Si  Si20  1  0.855988  0.534117  0.538331  1
  Si  Si21  1  0.356537  0.965197  0.961108  1
  Si  Si22  1  0.643950  0.034069  0.461659  1
  Si  Si23  1  0.142936  0.466600  0.037957  1
  Si  Si24  1  0.144055  0.465852  0.461678  1
  Si  Si25  1  0.645000  0.033563  0.037963  1
  Si  Si26  1  0.355956  0.965904  0.538346  1
  Si  Si27  1  0.855756  0.534400  0.961584  1
  Si  Si28  1  0.977127  0.877747  0.749984  1
  Si  Si29  1  0.477125  0.622240  0.749969  1
  Si  Si30  1  0.523592  0.378509  0.250272  1
  Si  Si31  1  0.022274  0.121846  0.250493  1
  Si  Si32  1  0.248431  0.397341  0.749982  1
  Si  Si33  1  0.748497  0.102594  0.749984  1
  Si  Si34  1  0.250978  0.896739  0.250523  1
  Si  Si35  1  0.751758  0.602798  0.250113  1
