# generated using pymatgen
data_Er2Tm3Fe18CoP12
_symmetry_space_group_name_H-M   'P 1'
_cell_length_a   11.91558500
_cell_length_b   11.91558448
_cell_length_c   3.68312300
_cell_angle_alpha   90.00000000
_cell_angle_beta   90.00000000
_cell_angle_gamma   119.99999867
_symmetry_Int_Tables_number   1
_chemical_formula_structural   Er2Tm3Fe18CoP12
_chemical_formula_sum   'Er2 Tm3 Fe18 Co1 P12'
_cell_volume   452.87419944
_cell_formula_units_Z   1
loop_
 _symmetry_equiv_pos_site_id
 _symmetry_equiv_pos_as_xyz
  1  'x, y, z'
loop_
 _atom_site_type_symbol
 _atom_site_label
 _atom_site_symmetry_multiplicity
 _atom_site_fract_x
 _atom_site_fract_y
 _atom_site_fract_z
 _atom_site_occupancy
  Er  Er0  1  0.666667  0.333333  0.000000  1
  Er  Er1  1  0.333333  0.666667  0.000000  1
  Tm  Tm2  1  0.184362  0.184362  0.500000  1
  Tm  Tm3  1  0.815638  0.000000  0.500000  1
  Tm  Tm4  1  0.000000  0.815638  0.500000  1
  Fe  Fe5  1  0.818329  0.197621  0.000000  1
  Fe  Fe6  1  0.802379  0.620708  0.000000  1
  Fe  Fe7  1  0.379292  0.181671  0.000000  1
  Fe  Fe8  1  0.197621  0.818329  0.000000  1
  Fe  Fe9  1  0.620708  0.802379  0.000000  1
  Fe  Fe10  1  0.181671  0.379292  0.000000  1
  Fe  Fe11  1  0.557134  0.557134  0.000000  1
  Fe  Fe12  1  0.442866  0.000000  0.000000  1
  Fe  Fe13  1  0.000000  0.442866  0.000000  1
  Fe  Fe14  1  0.639639  0.122172  0.500000  1
  Fe  Fe15  1  0.877828  0.517467  0.500000  1
  Fe  Fe16  1  0.482533  0.360361  0.500000  1
  Fe  Fe17  1  0.122172  0.639639  0.500000  1
  Fe  Fe18  1  0.517467  0.877828  0.500000  1
  Fe  Fe19  1  0.360361  0.482533  0.500000  1
  Fe  Fe20  1  0.715263  0.715263  0.500000  1
  Fe  Fe21  1  0.284737  0.000000  0.500000  1
  Fe  Fe22  1  0.000000  0.284737  0.500000  1
  Co  Co23  1  0.000000  0.000000  0.000000  1
  P  P24  1  0.370090  0.370090  0.000000  1
  P  P25  1  0.629910  0.000000  0.000000  1
  P  P26  1  0.000000  0.629910  0.000000  1
  P  P27  1  0.833627  0.312560  0.500000  1
  P  P28  1  0.687440  0.521067  0.500000  1
  P  P29  1  0.478933  0.166373  0.500000  1
  P  P30  1  0.312560  0.833627  0.500000  1
  P  P31  1  0.521067  0.687440  0.500000  1
  P  P32  1  0.166373  0.478933  0.500000  1
  P  P33  1  0.815865  0.815865  0.000000  1
  P  P34  1  0.184135  0.000000  0.000000  1
  P  P35  1  0.000000  0.184135  0.000000  1
