# generated using pymatgen
data_Y8CoCu2Si12Pd
_symmetry_space_group_name_H-M   'P 1'
_cell_length_a   8.05187900
_cell_length_b   8.05187846
_cell_length_c   8.16924200
_cell_angle_alpha   90.00000000
_cell_angle_beta   90.00000000
_cell_angle_gamma   119.99998991
_symmetry_Int_Tables_number   1
_chemical_formula_structural   Y8CoCu2Si12Pd
_chemical_formula_sum   'Y8 Co1 Cu2 Si12 Pd1'
_cell_volume   458.67692020
_cell_formula_units_Z   1
loop_
 _symmetry_equiv_pos_site_id
 _symmetry_equiv_pos_as_xyz
  1  'x, y, z'
loop_
 _atom_site_type_symbol
 _atom_site_label
 _atom_site_symmetry_multiplicity
 _atom_site_fract_x
 _atom_site_fract_y
 _atom_site_fract_z
 _atom_site_occupancy
  Y  Y0  1  0.498687  0.997374  0.246483  1
  Y  Y1  1  0.498254  0.996507  0.753451  1
  Y  Y2  1  0.002626  0.501313  0.246483  1
  Y  Y3  1  0.003493  0.501746  0.753451  1
  Y  Y4  1  0.498687  0.501313  0.246483  1
  Y  Y5  1  0.498254  0.501746  0.753451  1
  Y  Y6  1  0.000000  0.000000  0.249604  1
  Y  Y7  1  0.000000  0.000000  0.750487  1
  Co  Co8  1  0.333333  0.666667  0.001266  1
  Cu  Cu9  1  0.666667  0.333333  0.998414  1
  Cu  Cu10  1  0.666667  0.333333  0.500724  1
  Si  Si11  1  0.174149  0.348297  0.000055  1
  Si  Si12  1  0.832950  0.665899  0.000059  1
  Si  Si13  1  0.651703  0.825851  0.000055  1
  Si  Si14  1  0.831285  0.662568  0.500208  1
  Si  Si15  1  0.334101  0.167050  0.000059  1
  Si  Si16  1  0.165716  0.331431  0.499838  1
  Si  Si17  1  0.174149  0.825851  0.000055  1
  Si  Si18  1  0.337432  0.168715  0.500208  1
  Si  Si19  1  0.832950  0.167050  0.000059  1
  Si  Si20  1  0.668569  0.834284  0.499838  1
  Si  Si21  1  0.831285  0.168715  0.500208  1
  Si  Si22  1  0.165716  0.834284  0.499838  1
  Pd  Pd23  1  0.333333  0.666667  0.499226  1
