# generated using pymatgen
data_Cs7Hf9Zr3In(BBr17)2
_symmetry_space_group_name_H-M   'P 1'
_cell_length_a   12.83413300
_cell_length_b   12.83413361
_cell_length_c   11.85005400
_cell_angle_alpha   90.00069644
_cell_angle_beta   89.99930356
_cell_angle_gamma   89.98238377
_symmetry_Int_Tables_number   1
_chemical_formula_structural   Cs7Hf9Zr3In(BBr17)2
_chemical_formula_sum   'Cs7 Hf9 Zr3 In1 B2 Br34'
_cell_volume   1951.88128747
_cell_formula_units_Z   1
loop_
 _symmetry_equiv_pos_site_id
 _symmetry_equiv_pos_as_xyz
  1  'x, y, z'
loop_
 _atom_site_type_symbol
 _atom_site_label
 _atom_site_symmetry_multiplicity
 _atom_site_fract_x
 _atom_site_fract_y
 _atom_site_fract_z
 _atom_site_occupancy
  Cs  Cs0  1  0.481280  0.275507  0.341737  1
  Cs  Cs1  1  0.513467  0.721960  0.341330  1
  Cs  Cs2  1  0.779022  0.986025  0.340564  1
  Cs  Cs3  1  0.986787  0.222543  0.655525  1
  Cs  Cs4  1  0.721689  0.485980  0.655997  1
  Cs  Cs5  1  0.278075  0.513496  0.655442  1
  Cs  Cs6  1  0.013572  0.777189  0.656350  1
  Hf  Hf7  1  0.091097  0.409295  0.020940  1
  Hf  Hf8  1  0.909974  0.590225  0.020262  1
  Hf  Hf9  1  0.873339  0.373321  0.155126  1
  Hf  Hf10  1  0.127149  0.627014  0.155455  1
  Hf  Hf11  1  0.090652  0.409041  0.294995  1
  Hf  Hf12  1  0.909904  0.590087  0.294954  1
  Hf  Hf13  1  0.591858  0.091069  0.704780  1
  Hf  Hf14  1  0.409075  0.909402  0.704396  1
  Hf  Hf15  1  0.371972  0.128151  0.846960  1
  Zr  Zr16  1  0.627906  0.871575  0.846955  1
  Zr  Zr17  1  0.591802  0.090866  0.982362  1
  Zr  Zr18  1  0.408434  0.908877  0.982763  1
  In  In19  1  0.211080  0.002683  0.363400  1
  B  B20  1  0.000482  0.499879  0.157506  1
  B  B21  1  0.498704  0.001303  0.841064  1
  Br  Br22  1  0.246643  0.043422  0.000192  1
  Br  Br23  1  0.457410  0.253917  0.000258  1
  Br  Br24  1  0.539950  0.745094  0.003198  1
  Br  Br25  1  0.755224  0.959113  0.002705  1
  Br  Br26  1  0.708241  0.209732  0.158480  1
  Br  Br27  1  0.287494  0.795648  0.161151  1
  Br  Br28  1  0.206180  0.292869  0.158517  1
  Br  Br29  1  0.793695  0.706470  0.158264  1
  Br  Br30  1  0.500175  0.000575  0.168048  1
  Br  Br31  1  0.955158  0.250401  0.314785  1
  Br  Br32  1  0.750406  0.455882  0.314992  1
  Br  Br33  1  0.250112  0.544105  0.315228  1
  Br  Br34  1  0.044598  0.749383  0.315027  1
  Br  Br35  1  0.202121  0.294326  0.461964  1
  Br  Br36  1  0.797129  0.704332  0.462560  1
  Br  Br37  1  0.000491  0.500082  0.479455  1
  Br  Br38  1  0.017442  0.000412  0.485738  1
  Br  Br39  1  0.499744  0.499506  0.499810  1
  Br  Br40  1  0.500594  0.000681  0.522747  1
  Br  Br41  1  0.702624  0.202809  0.535910  1
  Br  Br42  1  0.293579  0.806208  0.530656  1
  Br  Br43  1  0.250789  0.045935  0.685381  1
  Br  Br44  1  0.455280  0.249210  0.685470  1
  Br  Br45  1  0.542069  0.749703  0.683001  1
  Br  Br46  1  0.751528  0.956798  0.683021  1
  Br  Br47  1  0.000898  0.499309  0.836014  1
  Br  Br48  1  0.707938  0.208338  0.839160  1
  Br  Br49  1  0.291503  0.792470  0.838266  1
  Br  Br50  1  0.206964  0.293216  0.842554  1
  Br  Br51  1  0.795516  0.704514  0.842699  1
  Br  Br52  1  0.959484  0.248748  0.998797  1
  Br  Br53  1  0.748992  0.459289  0.998904  1
  Br  Br54  1  0.251817  0.540933  0.999265  1
  Br  Br55  1  0.040892  0.751079  0.998916  1
