# generated using pymatgen
data_Y4HoGa2Ru3
_symmetry_space_group_name_H-M   'P 1'
_cell_length_a   8.33676456
_cell_length_b   8.34296464
_cell_length_c   8.34126211
_cell_angle_alpha   109.45674080
_cell_angle_beta   109.47417763
_cell_angle_gamma   109.50774784
_symmetry_Int_Tables_number   1
_chemical_formula_structural   Y4HoGa2Ru3
_chemical_formula_sum   'Y8 Ho2 Ga4 Ru6'
_cell_volume   446.47141617
_cell_formula_units_Z   2
loop_
 _symmetry_equiv_pos_site_id
 _symmetry_equiv_pos_as_xyz
  1  'x, y, z'
loop_
 _atom_site_type_symbol
 _atom_site_label
 _atom_site_symmetry_multiplicity
 _atom_site_fract_x
 _atom_site_fract_y
 _atom_site_fract_z
 _atom_site_occupancy
  Y  Y0  1  0.432549  0.682378  0.249836  1
  Y  Y1  1  0.249940  0.067383  0.317257  1
  Y  Y2  1  0.216854  0.499878  0.499599  1
  Y  Y3  1  0.817364  0.249952  0.567457  1
  Y  Y4  1  0.500346  0.000306  0.717450  1
  Y  Y5  1  0.067202  0.817329  0.749949  1
  Y  Y6  1  0.282840  0.282893  0.783167  1
  Y  Y7  1  0.682785  0.750058  0.932735  1
  Ho  Ho8  1  0.999953  0.216374  0.000102  1
  Ho  Ho9  1  0.750165  0.432373  0.182429  1
  Ga  Ga10  1  0.999960  0.586903  0.000147  1
  Ga  Ga11  1  0.500078  0.000270  0.087301  1
  Ga  Ga12  1  0.912687  0.912687  0.412716  1
  Ga  Ga13  1  0.587270  0.500029  0.499873  1
  Ru  Ru14  1  0.376304  0.250296  0.126146  1
  Ru  Ru15  1  0.873854  0.124108  0.249171  1
  Ru  Ru16  1  0.122575  0.749181  0.373089  1
  Ru  Ru17  1  0.750746  0.874654  0.624826  1
  Ru  Ru18  1  0.626491  0.376504  0.750408  1
  Ru  Ru19  1  0.250038  0.626444  0.876344  1
