# generated using pymatgen
data_TbY9Co2Br15
_symmetry_space_group_name_H-M   'P 1'
_cell_length_a   9.20076349
_cell_length_b   10.04014458
_cell_length_c   10.82855800
_cell_angle_alpha   92.31920142
_cell_angle_beta   114.17363661
_cell_angle_gamma   110.53142299
_symmetry_Int_Tables_number   1
_chemical_formula_structural   TbY9Co2Br15
_chemical_formula_sum   'Tb1 Y9 Co2 Br15'
_cell_volume   834.54876084
_cell_formula_units_Z   1
loop_
 _symmetry_equiv_pos_site_id
 _symmetry_equiv_pos_as_xyz
  1  'x, y, z'
loop_
 _atom_site_type_symbol
 _atom_site_label
 _atom_site_symmetry_multiplicity
 _atom_site_fract_x
 _atom_site_fract_y
 _atom_site_fract_z
 _atom_site_occupancy
  Tb  Tb0  1  0.267738  0.921249  0.950269  1
  Y  Y1  1  0.798975  0.401120  0.270545  1
  Y  Y2  1  0.200361  0.598572  0.729217  1
  Y  Y3  1  0.668191  0.751003  0.822577  1
  Y  Y4  1  0.331481  0.249103  0.177496  1
  Y  Y5  1  0.528216  0.706558  0.101372  1
  Y  Y6  1  0.472353  0.293660  0.898725  1
  Y  Y7  1  0.593167  0.045985  0.336227  1
  Y  Y8  1  0.407326  0.954204  0.663859  1
  Y  Y9  1  0.733382  0.079087  0.049925  1
  Co  Co10  1  0.467491  0.830337  0.882954  1
  Co  Co11  1  0.532508  0.169786  0.117101  1
  Br  Br12  1  0.999175  0.000230  0.000222  1
  Br  Br13  1  0.639836  0.886077  0.584308  1
  Br  Br14  1  0.360277  0.113889  0.415727  1
  Br  Br15  1  0.890627  0.307184  0.529078  1
  Br  Br16  1  0.109364  0.692785  0.470846  1
  Br  Br17  1  0.298584  0.763656  0.190079  1
  Br  Br18  1  0.701892  0.236293  0.810119  1
  Br  Br19  1  0.064039  0.340641  0.224875  1
  Br  Br20  1  0.164977  0.059308  0.695556  1
  Br  Br21  1  0.835366  0.940855  0.304487  1
  Br  Br22  1  0.241328  0.413672  0.946298  1
  Br  Br23  1  0.758927  0.586416  0.053767  1
  Br  Br24  1  0.407151  0.465418  0.667480  1
  Br  Br25  1  0.592869  0.534635  0.332525  1
  Br  Br26  1  0.934398  0.658278  0.774369  1
