# generated using pymatgen
data_Tb8In2PtRh
_symmetry_space_group_name_H-M   'P 1'
_cell_length_a   9.71775325
_cell_length_b   9.73065295
_cell_length_c   9.71775340
_cell_angle_alpha   59.95608584
_cell_angle_beta   60.19271061
_cell_angle_gamma   59.95608188
_symmetry_Int_Tables_number   1
_chemical_formula_structural   Tb8In2PtRh
_chemical_formula_sum   'Tb16 In4 Pt2 Rh2'
_cell_volume   650.27611671
_cell_formula_units_Z   2
loop_
 _symmetry_equiv_pos_site_id
 _symmetry_equiv_pos_as_xyz
  1  'x, y, z'
loop_
 _atom_site_type_symbol
 _atom_site_label
 _atom_site_symmetry_multiplicity
 _atom_site_fract_x
 _atom_site_fract_y
 _atom_site_fract_z
 _atom_site_occupancy
  Tb  Tb0  1  0.809463  0.809807  0.193312  1
  Tb  Tb1  1  0.809213  0.190787  0.809213  1
  Tb  Tb2  1  0.193312  0.187417  0.809463  1
  Tb  Tb3  1  0.649157  0.048068  0.649157  1
  Tb  Tb4  1  0.061913  0.062441  0.437089  1
  Tb  Tb5  1  0.437089  0.438557  0.061913  1
  Tb  Tb6  1  0.649157  0.653618  0.649157  1
  Tb  Tb7  1  0.809463  0.187417  0.193312  1
  Tb  Tb8  1  0.193312  0.809807  0.809463  1
  Tb  Tb9  1  0.053334  0.650415  0.645835  1
  Tb  Tb10  1  0.437089  0.062441  0.061913  1
  Tb  Tb11  1  0.437076  0.062924  0.437076  1
  Tb  Tb12  1  0.061202  0.438798  0.061202  1
  Tb  Tb13  1  0.645835  0.650415  0.053334  1
  Tb  Tb14  1  0.189882  0.810118  0.189882  1
  Tb  Tb15  1  0.061913  0.438557  0.437089  1
  In  In16  1  0.417331  0.417273  0.417331  1
  In  In17  1  0.418072  0.417360  0.747206  1
  In  In18  1  0.417331  0.748064  0.417331  1
  In  In19  1  0.747206  0.417360  0.418072  1
  Pt  Pt20  1  0.857915  0.428548  0.857915  1
  Pt  Pt21  1  0.857915  0.855623  0.857915  1
  Rh  Rh22  1  0.859226  0.857092  0.426591  1
  Rh  Rh23  1  0.426591  0.857092  0.859226  1
