# generated using pymatgen
data_AcIn4Cu
_symmetry_space_group_name_H-M   'P 1'
_cell_length_a   9.11758261
_cell_length_b   9.11758255
_cell_length_c   7.43872300
_cell_angle_alpha   90.00000000
_cell_angle_beta   90.00000000
_cell_angle_gamma   150.40659082
_symmetry_Int_Tables_number   1
_chemical_formula_structural   AcIn4Cu
_chemical_formula_sum   'Ac2 In8 Cu2'
_cell_volume   305.38358106
_cell_formula_units_Z   2
loop_
 _symmetry_equiv_pos_site_id
 _symmetry_equiv_pos_as_xyz
  1  'x, y, z'
loop_
 _atom_site_type_symbol
 _atom_site_label
 _atom_site_symmetry_multiplicity
 _atom_site_fract_x
 _atom_site_fract_y
 _atom_site_fract_z
 _atom_site_occupancy
  Ac  Ac0  1  0.884083  0.115917  0.750000  1
  Ac  Ac1  1  0.115917  0.884083  0.250000  1
  In  In2  1  0.500000  0.500000  0.000000  1
  In  In3  1  0.500000  0.500000  0.500000  1
  In  In4  1  0.076495  0.923505  0.750000  1
  In  In5  1  0.923505  0.076495  0.250000  1
  In  In6  1  0.686606  0.313394  0.949215  1
  In  In7  1  0.313394  0.686606  0.050785  1
  In  In8  1  0.686606  0.313394  0.550785  1
  In  In9  1  0.313394  0.686606  0.449215  1
  Cu  Cu10  1  0.228264  0.771736  0.750000  1
  Cu  Cu11  1  0.771736  0.228264  0.250000  1
