# generated using pymatgen
data_La19Dy(Hg2Os)4
_symmetry_space_group_name_H-M   'P 1'
_cell_length_a   8.32431476
_cell_length_b   9.05683500
_cell_length_c   12.67779200
_cell_angle_alpha   90.00000000
_cell_angle_beta   89.72952001
_cell_angle_gamma   90.00000000
_symmetry_Int_Tables_number   1
_chemical_formula_structural   La19Dy(Hg2Os)4
_chemical_formula_sum   'La19 Dy1 Hg8 Os4'
_cell_volume   955.79274984
_cell_formula_units_Z   1
loop_
 _symmetry_equiv_pos_site_id
 _symmetry_equiv_pos_as_xyz
  1  'x, y, z'
loop_
 _atom_site_type_symbol
 _atom_site_label
 _atom_site_symmetry_multiplicity
 _atom_site_fract_x
 _atom_site_fract_y
 _atom_site_fract_z
 _atom_site_occupancy
  La  La0  1  0.839500  0.750000  0.789632  1
  La  La1  1  0.161927  0.250000  0.212902  1
  La  La2  1  0.340571  0.250000  0.716387  1
  La  La3  1  0.664358  0.750000  0.284214  1
  La  La4  1  0.385139  0.750000  0.698167  1
  La  La5  1  0.614290  0.250000  0.300469  1
  La  La6  1  0.883304  0.250000  0.803305  1
  La  La7  1  0.114391  0.750000  0.196114  1
  La  La8  1  0.940470  0.750000  0.502420  1
  La  La9  1  0.063116  0.250000  0.500068  1
  La  La10  1  0.437850  0.250000  0.998654  1
  La  La11  1  0.675407  0.042905  0.570224  1
  La  La12  1  0.324564  0.956046  0.428713  1
  La  La13  1  0.178263  0.954781  0.929962  1
  La  La14  1  0.324564  0.543954  0.428713  1
  La  La15  1  0.821605  0.042263  0.069359  1
  La  La16  1  0.675407  0.457095  0.570224  1
  La  La17  1  0.821605  0.457737  0.069359  1
  La  La18  1  0.178263  0.545219  0.929962  1
  Dy  Dy19  1  0.557434  0.750000  0.003014  1
  Hg  Hg20  1  0.575745  0.489010  0.832938  1
  Hg  Hg21  1  0.424649  0.521972  0.166434  1
  Hg  Hg22  1  0.076667  0.516523  0.671347  1
  Hg  Hg23  1  0.424649  0.978028  0.166434  1
  Hg  Hg24  1  0.924205  0.482775  0.328959  1
  Hg  Hg25  1  0.575745  0.010990  0.832938  1
  Hg  Hg26  1  0.924205  0.017225  0.328959  1
  Hg  Hg27  1  0.076667  0.983477  0.671347  1
  Os  Os28  1  0.583856  0.750000  0.512013  1
  Os  Os29  1  0.416941  0.250000  0.487246  1
  Os  Os30  1  0.084823  0.250000  0.985248  1
  Os  Os31  1  0.909819  0.750000  0.014278  1
