# generated using pymatgen
data_Tb3DyHf5ZrSi8
_symmetry_space_group_name_H-M   'P 1'
_cell_length_a   7.30505146
_cell_length_b   7.30436175
_cell_length_c   13.42625700
_cell_angle_alpha   90.00000000
_cell_angle_beta   90.00000000
_cell_angle_gamma   89.95360437
_symmetry_Int_Tables_number   1
_chemical_formula_structural   Tb3DyHf5ZrSi8
_chemical_formula_sum   'Tb6 Dy2 Hf10 Zr2 Si16'
_cell_volume   716.40790144
_cell_formula_units_Z   2
loop_
 _symmetry_equiv_pos_site_id
 _symmetry_equiv_pos_as_xyz
  1  'x, y, z'
loop_
 _atom_site_type_symbol
 _atom_site_label
 _atom_site_symmetry_multiplicity
 _atom_site_fract_x
 _atom_site_fract_y
 _atom_site_fract_z
 _atom_site_occupancy
  Tb  Tb0  1  0.156062  0.496244  0.465027  1
  Tb  Tb1  1  0.503767  0.843833  0.034979  1
  Tb  Tb2  1  0.843938  0.503756  0.965027  1
  Tb  Tb3  1  0.496233  0.156167  0.534979  1
  Tb  Tb4  1  0.343808  0.996197  0.784837  1
  Tb  Tb5  1  0.656192  0.003803  0.284837  1
  Dy  Dy6  1  0.996559  0.344036  0.215101  1
  Dy  Dy7  1  0.003441  0.655964  0.715101  1
  Hf  Hf8  1  0.325258  0.674539  0.250008  1
  Hf  Hf9  1  0.674742  0.325461  0.750008  1
  Hf  Hf10  1  0.149263  0.995282  0.374372  1
  Hf  Hf11  1  0.850737  0.004718  0.874372  1
  Hf  Hf12  1  0.504298  0.649632  0.624354  1
  Hf  Hf13  1  0.350283  0.495824  0.875657  1
  Hf  Hf14  1  0.495702  0.350368  0.124354  1
  Hf  Hf15  1  0.649717  0.504176  0.375657  1
  Hf  Hf16  1  0.995341  0.149255  0.625611  1
  Hf  Hf17  1  0.004659  0.850745  0.125611  1
  Zr  Zr18  1  0.174298  0.174430  0.999998  1
  Zr  Zr19  1  0.825702  0.825570  0.499998  1
  Si  Si20  1  0.363087  0.295159  0.316856  1
  Si  Si21  1  0.636913  0.704841  0.816856  1
  Si  Si22  1  0.205621  0.863056  0.567266  1
  Si  Si23  1  0.136594  0.794031  0.932869  1
  Si  Si24  1  0.794379  0.136944  0.067266  1
  Si  Si25  1  0.863406  0.205969  0.432869  1
  Si  Si26  1  0.294819  0.363645  0.683040  1
  Si  Si27  1  0.705181  0.636355  0.183040  1
  Si  Si28  1  0.295278  0.048450  0.186238  1
  Si  Si29  1  0.704722  0.951550  0.686238  1
  Si  Si30  1  0.450372  0.794816  0.435460  1
  Si  Si31  1  0.204930  0.549381  0.064666  1
  Si  Si32  1  0.549628  0.205184  0.935460  1
  Si  Si33  1  0.795070  0.450619  0.564666  1
  Si  Si34  1  0.048166  0.295796  0.813660  1
  Si  Si35  1  0.951834  0.704204  0.313660  1
