# generated using pymatgen
data_YbY9LuIn7
_symmetry_space_group_name_H-M   'P 1'
_cell_length_a   9.32628900
_cell_length_b   9.32628858
_cell_length_c   6.70545100
_cell_angle_alpha   90.00000000
_cell_angle_beta   90.00000000
_cell_angle_gamma   119.99999795
_symmetry_Int_Tables_number   1
_chemical_formula_structural   YbY9LuIn7
_chemical_formula_sum   'Yb1 Y9 Lu1 In7'
_cell_volume   505.09881842
_cell_formula_units_Z   1
loop_
 _symmetry_equiv_pos_site_id
 _symmetry_equiv_pos_as_xyz
  1  'x, y, z'
loop_
 _atom_site_type_symbol
 _atom_site_label
 _atom_site_symmetry_multiplicity
 _atom_site_fract_x
 _atom_site_fract_y
 _atom_site_fract_z
 _atom_site_occupancy
  Yb  Yb0  1  0.000000  0.000000  0.500000  1
  Y  Y1  1  0.333333  0.666667  0.500000  1
  Y  Y2  1  0.666667  0.333333  0.500000  1
  Y  Y3  1  0.666667  0.333333  0.000000  1
  Y  Y4  1  0.306278  0.999200  0.770558  1
  Y  Y5  1  0.692922  0.999200  0.229442  1
  Y  Y6  1  0.000800  0.307078  0.770558  1
  Y  Y7  1  0.000800  0.693722  0.229442  1
  Y  Y8  1  0.692922  0.693722  0.770558  1
  Y  Y9  1  0.306278  0.307078  0.229442  1
  Lu  Lu10  1  0.333333  0.666667  0.000000  1
  In  In11  1  0.000000  0.000000  0.000000  1
  In  In12  1  0.640924  0.999832  0.737091  1
  In  In13  1  0.358909  0.999832  0.262909  1
  In  In14  1  0.000168  0.641091  0.737091  1
  In  In15  1  0.000168  0.359076  0.262909  1
  In  In16  1  0.358909  0.359076  0.737091  1
  In  In17  1  0.640924  0.641091  0.262909  1
