# generated using pymatgen
data_LaSb12(OsRu)2
_symmetry_space_group_name_H-M   'P 1'
_cell_length_a   8.15201669
_cell_length_b   8.15201749
_cell_length_c   8.14067684
_cell_angle_alpha   109.45535313
_cell_angle_beta   109.48072451
_cell_angle_gamma   109.53394490
_symmetry_Int_Tables_number   1
_chemical_formula_structural   LaSb12(OsRu)2
_chemical_formula_sum   'La1 Sb12 Os2 Ru2'
_cell_volume   416.16560054
_cell_formula_units_Z   1
loop_
 _symmetry_equiv_pos_site_id
 _symmetry_equiv_pos_as_xyz
  1  'x, y, z'
loop_
 _atom_site_type_symbol
 _atom_site_label
 _atom_site_symmetry_multiplicity
 _atom_site_fract_x
 _atom_site_fract_y
 _atom_site_fract_z
 _atom_site_occupancy
  La  La0  1  0.000000  0.000000  0.000000  1
  Sb  Sb1  1  0.158340  0.818480  0.661141  1
  Sb  Sb2  1  0.841660  0.181520  0.338859  1
  Sb  Sb3  1  0.842661  0.502802  0.661141  1
  Sb  Sb4  1  0.157339  0.497198  0.338859  1
  Sb  Sb5  1  0.818365  0.660014  0.157093  1
  Sb  Sb6  1  0.181635  0.339986  0.842907  1
  Sb  Sb7  1  0.502921  0.661272  0.842907  1
  Sb  Sb8  1  0.497079  0.338728  0.157093  1
  Sb  Sb9  1  0.660753  0.158080  0.818833  1
  Sb  Sb10  1  0.339247  0.841920  0.181167  1
  Sb  Sb11  1  0.660410  0.842320  0.502730  1
  Sb  Sb12  1  0.339590  0.157680  0.497270  1
  Os  Os13  1  0.000000  0.000000  0.500000  1
  Os  Os14  1  0.500000  0.500000  0.500000  1
  Ru  Ru15  1  0.500000  0.000000  0.000000  1
  Ru  Ru16  1  0.000000  0.500000  0.000000  1
