# generated using pymatgen
data_Ho2Tm(InAu)3
_symmetry_space_group_name_H-M   'P 1'
_cell_length_a   7.74854874
_cell_length_b   7.76338780
_cell_length_c   3.96040300
_cell_angle_alpha   90.00000000
_cell_angle_beta   90.00000000
_cell_angle_gamma   120.06337076
_symmetry_Int_Tables_number   1
_chemical_formula_structural   Ho2Tm(InAu)3
_chemical_formula_sum   'Ho2 Tm1 In3 Au3'
_cell_volume   206.18828325
_cell_formula_units_Z   1
loop_
 _symmetry_equiv_pos_site_id
 _symmetry_equiv_pos_as_xyz
  1  'x, y, z'
loop_
 _atom_site_type_symbol
 _atom_site_label
 _atom_site_symmetry_multiplicity
 _atom_site_fract_x
 _atom_site_fract_y
 _atom_site_fract_z
 _atom_site_occupancy
  Ho  Ho0  1  0.403542  0.403665  0.500000  1
  Ho  Ho1  1  0.596458  0.000124  0.500000  1
  Tm  Tm2  1  0.000000  0.596260  0.500000  1
  In  In3  1  0.738300  0.738399  0.000000  1
  In  In4  1  0.261700  0.000099  0.000000  1
  In  In5  1  0.000000  0.261561  0.000000  1
  Au  Au6  1  0.667757  0.334073  0.000000  1
  Au  Au7  1  0.332243  0.666317  0.000000  1
  Au  Au8  1  0.000000  0.999501  0.500000  1
