# generated using pymatgen
data_LuNb2B2Ru5
_symmetry_space_group_name_H-M   'P 1'
_cell_length_a   9.52692524
_cell_length_b   9.52692533
_cell_length_c   3.08699300
_cell_angle_alpha   90.00000000
_cell_angle_beta   90.00000000
_cell_angle_gamma   89.62813016
_symmetry_Int_Tables_number   1
_chemical_formula_structural   LuNb2B2Ru5
_chemical_formula_sum   'Lu2 Nb4 B4 Ru10'
_cell_volume   280.17670024
_cell_formula_units_Z   2
loop_
 _symmetry_equiv_pos_site_id
 _symmetry_equiv_pos_as_xyz
  1  'x, y, z'
loop_
 _atom_site_type_symbol
 _atom_site_label
 _atom_site_symmetry_multiplicity
 _atom_site_fract_x
 _atom_site_fract_y
 _atom_site_fract_z
 _atom_site_occupancy
  Lu  Lu0  1  0.175508  0.175508  0.000000  1
  Lu  Lu1  1  0.824492  0.824492  0.000000  1
  Nb  Nb2  1  0.500000  0.000000  0.000000  1
  Nb  Nb3  1  0.000000  0.500000  0.000000  1
  Nb  Nb4  1  0.675962  0.324038  0.000000  1
  Nb  Nb5  1  0.324038  0.675962  0.000000  1
  B  B6  1  0.378388  0.378388  0.000000  1
  B  B7  1  0.621612  0.621612  0.000000  1
  B  B8  1  0.879617  0.120383  0.000000  1
  B  B9  1  0.120383  0.879617  0.000000  1
  Ru  Ru10  1  0.500000  0.500000  0.500000  1
  Ru  Ru11  1  0.000000  0.000000  0.500000  1
  Ru  Ru12  1  0.437925  0.221902  0.500000  1
  Ru  Ru13  1  0.562075  0.778098  0.500000  1
  Ru  Ru14  1  0.920577  0.284624  0.500000  1
  Ru  Ru15  1  0.079423  0.715376  0.500000  1
  Ru  Ru16  1  0.715376  0.079423  0.500000  1
  Ru  Ru17  1  0.284624  0.920577  0.500000  1
  Ru  Ru18  1  0.778098  0.562075  0.500000  1
  Ru  Ru19  1  0.221902  0.437925  0.500000  1
