# generated using pymatgen
data_Hf6Ti16Mn2Ir5
_symmetry_space_group_name_H-M   'P 1'
_cell_length_a   8.86431259
_cell_length_b   8.86431322
_cell_length_c   8.93510300
_cell_angle_alpha   59.73547034
_cell_angle_beta   59.73546798
_cell_angle_gamma   60.22455390
_symmetry_Int_Tables_number   1
_chemical_formula_structural   Hf6Ti16Mn2Ir5
_chemical_formula_sum   'Hf6 Ti16 Mn2 Ir5'
_cell_volume   495.28166397
_cell_formula_units_Z   1
loop_
 _symmetry_equiv_pos_site_id
 _symmetry_equiv_pos_as_xyz
  1  'x, y, z'
loop_
 _atom_site_type_symbol
 _atom_site_label
 _atom_site_symmetry_multiplicity
 _atom_site_fract_x
 _atom_site_fract_y
 _atom_site_fract_z
 _atom_site_occupancy
  Hf  Hf0  1  0.686205  0.313795  0.316552  1
  Hf  Hf1  1  0.313795  0.686205  0.683448  1
  Hf  Hf2  1  0.313795  0.686205  0.316552  1
  Hf  Hf3  1  0.686205  0.313795  0.683448  1
  Hf  Hf4  1  0.314459  0.314459  0.685541  1
  Hf  Hf5  1  0.685541  0.685541  0.314459  1
  Ti  Ti6  1  0.337609  0.337609  0.321801  1
  Ti  Ti7  1  0.662391  0.662391  0.678199  1
  Ti  Ti8  1  0.337609  0.337609  0.002982  1
  Ti  Ti9  1  0.332735  0.009701  0.328782  1
  Ti  Ti10  1  0.662391  0.662391  0.997018  1
  Ti  Ti11  1  0.667265  0.990299  0.671218  1
  Ti  Ti12  1  0.009701  0.332735  0.328782  1
  Ti  Ti13  1  0.990299  0.667265  0.671218  1
  Ti  Ti14  1  0.116834  0.116834  0.113556  1
  Ti  Ti15  1  0.883166  0.883166  0.886444  1
  Ti  Ti16  1  0.116834  0.116834  0.652777  1
  Ti  Ti17  1  0.120614  0.656588  0.111399  1
  Ti  Ti18  1  0.883166  0.883166  0.347223  1
  Ti  Ti19  1  0.879386  0.343412  0.888601  1
  Ti  Ti20  1  0.656588  0.120614  0.111399  1
  Ti  Ti21  1  0.343412  0.879386  0.888601  1
  Mn  Mn22  1  0.500000  0.500000  0.000000  1
  Mn  Mn23  1  0.000000  0.000000  0.000000  1
  Ir  Ir24  1  0.500000  0.000000  0.000000  1
  Ir  Ir25  1  0.000000  0.500000  0.500000  1
  Ir  Ir26  1  0.000000  0.500000  0.000000  1
  Ir  Ir27  1  0.500000  0.000000  0.500000  1
  Ir  Ir28  1  0.000000  0.000000  0.500000  1
