# generated using pymatgen
data_Pr4IrRh3O14
_symmetry_space_group_name_H-M   'P 1'
_cell_length_a   7.42731385
_cell_length_b   7.43425686
_cell_length_c   7.43425700
_cell_angle_alpha   59.99999495
_cell_angle_beta   59.96906737
_cell_angle_gamma   59.96906998
_symmetry_Int_Tables_number   1
_chemical_formula_structural   Pr4IrRh3O14
_chemical_formula_sum   'Pr4 Ir1 Rh3 O14'
_cell_volume   290.12736390
_cell_formula_units_Z   1
loop_
 _symmetry_equiv_pos_site_id
 _symmetry_equiv_pos_as_xyz
  1  'x, y, z'
loop_
 _atom_site_type_symbol
 _atom_site_label
 _atom_site_symmetry_multiplicity
 _atom_site_fract_x
 _atom_site_fract_y
 _atom_site_fract_z
 _atom_site_occupancy
  Pr  Pr0  1  0.125000  0.125000  0.625000  1
  Pr  Pr1  1  0.125000  0.125000  0.125000  1
  Pr  Pr2  1  0.625000  0.125000  0.125000  1
  Pr  Pr3  1  0.125000  0.625000  0.125000  1
  Ir  Ir4  1  0.125000  0.625000  0.625000  1
  Rh  Rh5  1  0.625000  0.625000  0.625000  1
  Rh  Rh6  1  0.625000  0.125000  0.625000  1
  Rh  Rh7  1  0.625000  0.625000  0.125000  1
  O  O8  1  0.957792  0.545128  0.545128  1
  O  O9  1  0.292208  0.298049  0.704872  1
  O  O10  1  0.957792  0.545128  0.951951  1
  O  O11  1  0.707771  0.293268  0.293268  1
  O  O12  1  0.542229  0.544306  0.956732  1
  O  O13  1  0.542229  0.956732  0.544306  1
  O  O14  1  0.542229  0.956732  0.956732  1
  O  O15  1  0.248946  0.250351  0.250351  1
  O  O16  1  0.292208  0.704872  0.704872  1
  O  O17  1  0.707771  0.293268  0.705694  1
  O  O18  1  0.001054  0.999649  0.999649  1
  O  O19  1  0.957792  0.951951  0.545128  1
  O  O20  1  0.292208  0.704872  0.298049  1
  O  O21  1  0.707771  0.705694  0.293268  1
