# generated using pymatgen
data_Ho5ErB14OsW
_symmetry_space_group_name_H-M   'P 1'
_cell_length_a   8.06888128
_cell_length_b   8.06888179
_cell_length_c   9.36757633
_cell_angle_alpha   89.97049774
_cell_angle_beta   90.02950099
_cell_angle_gamma   155.04890700
_symmetry_Int_Tables_number   1
_chemical_formula_structural   Ho5ErB14OsW
_chemical_formula_sum   'Ho5 Er1 B14 Os1 W1'
_cell_volume   257.28012847
_cell_formula_units_Z   1
loop_
 _symmetry_equiv_pos_site_id
 _symmetry_equiv_pos_as_xyz
  1  'x, y, z'
loop_
 _atom_site_type_symbol
 _atom_site_label
 _atom_site_symmetry_multiplicity
 _atom_site_fract_x
 _atom_site_fract_y
 _atom_site_fract_z
 _atom_site_occupancy
  Ho  Ho0  1  0.893882  0.106118  0.437969  1
  Ho  Ho1  1  0.107266  0.892734  0.558315  1
  Ho  Ho2  1  0.893867  0.106133  0.062013  1
  Ho  Ho3  1  0.243636  0.756364  0.249971  1
  Ho  Ho4  1  0.754649  0.245351  0.750051  1
  Er  Er5  1  0.107192  0.892808  0.941941  1
  B  B6  1  0.726698  0.273302  0.464855  1
  B  B7  1  0.271719  0.728281  0.532033  1
  B  B8  1  0.726553  0.273447  0.035053  1
  B  B9  1  0.271541  0.728459  0.967897  1
  B  B10  1  0.631856  0.368144  0.150844  1
  B  B11  1  0.365168  0.634832  0.852768  1
  B  B12  1  0.631868  0.368132  0.348888  1
  B  B13  1  0.365181  0.634819  0.647239  1
  B  B14  1  0.520849  0.479151  0.096334  1
  B  B15  1  0.480931  0.519069  0.909334  1
  B  B16  1  0.520798  0.479202  0.403481  1
  B  B17  1  0.480817  0.519183  0.590848  1
  B  B18  1  0.456906  0.543094  0.249952  1
  B  B19  1  0.546920  0.453080  0.750273  1
  Os  Os20  1  0.053893  0.946107  0.249831  1
  W  W21  1  0.947811  0.052189  0.750110  1
