# generated using pymatgen
data_Pr4In2Ir2Rh
_symmetry_space_group_name_H-M   'P 1'
_cell_length_a   7.80876254
_cell_length_b   7.80876291
_cell_length_c   4.23574600
_cell_angle_alpha   90.00000000
_cell_angle_beta   90.00000000
_cell_angle_gamma   121.14964347
_symmetry_Int_Tables_number   1
_chemical_formula_structural   Pr4In2Ir2Rh
_chemical_formula_sum   'Pr4 In2 Ir2 Rh1'
_cell_volume   221.04281210
_cell_formula_units_Z   1
loop_
 _symmetry_equiv_pos_site_id
 _symmetry_equiv_pos_as_xyz
  1  'x, y, z'
loop_
 _atom_site_type_symbol
 _atom_site_label
 _atom_site_symmetry_multiplicity
 _atom_site_fract_x
 _atom_site_fract_y
 _atom_site_fract_z
 _atom_site_occupancy
  Pr  Pr0  1  0.583472  0.024020  0.000000  1
  Pr  Pr1  1  0.024020  0.583472  0.000000  1
  Pr  Pr2  1  0.383841  0.383841  0.000000  1
  Pr  Pr3  1  0.753892  0.753892  0.500000  1
  In  In4  1  0.249557  0.996253  0.500000  1
  In  In5  1  0.996253  0.249557  0.500000  1
  Ir  Ir6  1  0.329589  0.666897  0.500000  1
  Ir  Ir7  1  0.666897  0.329589  0.500000  1
  Rh  Rh8  1  0.012478  0.012478  0.000000  1
