# generated using pymatgen
data_Ba2CoH10Pt
_symmetry_space_group_name_H-M   'P 1'
_cell_length_a   4.95863500
_cell_length_b   6.85216316
_cell_length_c   9.43129278
_cell_angle_alpha   87.66478280
_cell_angle_beta   90.00000000
_cell_angle_gamma   90.00000000
_symmetry_Int_Tables_number   1
_chemical_formula_structural   Ba2CoH10Pt
_chemical_formula_sum   'Ba4 Co2 H20 Pt2'
_cell_volume   320.18446003
_cell_formula_units_Z   2
loop_
 _symmetry_equiv_pos_site_id
 _symmetry_equiv_pos_as_xyz
  1  'x, y, z'
loop_
 _atom_site_type_symbol
 _atom_site_label
 _atom_site_symmetry_multiplicity
 _atom_site_fract_x
 _atom_site_fract_y
 _atom_site_fract_z
 _atom_site_occupancy
  Ba  Ba0  1  0.234459  0.341156  0.164029  1
  Ba  Ba1  1  0.734459  0.658844  0.835971  1
  Ba  Ba2  1  0.733400  0.863671  0.304486  1
  Ba  Ba3  1  0.233400  0.136329  0.695514  1
  Co  Co4  1  0.729658  0.143033  0.957331  1
  Co  Co5  1  0.229658  0.856967  0.042669  1
  H  H6  1  0.981492  0.500330  0.500647  1
  H  H7  1  0.481492  0.499670  0.499353  1
  H  H8  1  0.447320  0.025216  0.990860  1
  H  H9  1  0.947320  0.974784  0.009140  1
  H  H10  1  0.028610  0.696565  0.087069  1
  H  H11  1  0.528610  0.303435  0.912931  1
  H  H12  1  0.468866  0.188799  0.408635  1
  H  H13  1  0.968866  0.811201  0.591365  1
  H  H14  1  0.450941  0.709917  0.083457  1
  H  H15  1  0.950941  0.290083  0.916543  1
  H  H16  1  0.995810  0.188662  0.408884  1
  H  H17  1  0.495810  0.811338  0.591116  1
  H  H18  1  0.232428  0.782227  0.891217  1
  H  H19  1  0.732428  0.217773  0.108783  1
  H  H20  1  0.732494  0.235998  0.607527  1
  H  H21  1  0.232494  0.764002  0.392473  1
  H  H22  1  0.232526  0.935144  0.196079  1
  H  H23  1  0.732526  0.064856  0.803921  1
  H  H24  1  0.733552  0.443300  0.283830  1
  H  H25  1  0.233552  0.556700  0.716170  1
  Pt  Pt26  1  0.232443  0.665593  0.553770  1
  Pt  Pt27  1  0.732443  0.334407  0.446230  1
