# generated using pymatgen
data_Y4ErGa6P6Ir19
_symmetry_space_group_name_H-M   'P 1'
_cell_length_a   12.96875100
_cell_length_b   12.96875140
_cell_length_c   3.98316500
_cell_angle_alpha   90.00000000
_cell_angle_beta   90.00000000
_cell_angle_gamma   120.00000152
_symmetry_Int_Tables_number   1
_chemical_formula_structural   Y4ErGa6P6Ir19
_chemical_formula_sum   'Y4 Er1 Ga6 P6 Ir19'
_cell_volume   580.16996178
_cell_formula_units_Z   1
loop_
 _symmetry_equiv_pos_site_id
 _symmetry_equiv_pos_as_xyz
  1  'x, y, z'
loop_
 _atom_site_type_symbol
 _atom_site_label
 _atom_site_symmetry_multiplicity
 _atom_site_fract_x
 _atom_site_fract_y
 _atom_site_fract_z
 _atom_site_occupancy
  Y  Y0  1  0.666667  0.333333  0.000000  1
  Y  Y1  1  0.816467  0.812288  0.500000  1
  Y  Y2  1  0.187712  0.004179  0.500000  1
  Y  Y3  1  0.995821  0.183533  0.500000  1
  Er  Er4  1  0.333333  0.666667  0.000000  1
  Ga  Ga5  1  0.677125  0.158381  0.500000  1
  Ga  Ga6  1  0.841619  0.518745  0.500000  1
  Ga  Ga7  1  0.481255  0.322875  0.500000  1
  Ga  Ga8  1  0.635124  0.636719  0.000000  1
  Ga  Ga9  1  0.363281  0.998406  0.000000  1
  Ga  Ga10  1  0.001594  0.364876  0.000000  1
  P  P11  1  0.180391  0.697483  0.500000  1
  P  P12  1  0.517091  0.819609  0.500000  1
  P  P13  1  0.302517  0.482909  0.500000  1
  P  P14  1  0.175913  0.181494  0.000000  1
  P  P15  1  0.818506  0.994417  0.000000  1
  P  P16  1  0.005583  0.824087  0.000000  1
  Ir  Ir17  1  0.808559  0.169118  0.000000  1
  Ir  Ir18  1  0.830882  0.639441  0.000000  1
  Ir  Ir19  1  0.360559  0.191441  0.000000  1
  Ir  Ir20  1  0.182267  0.793441  0.000000  1
  Ir  Ir21  1  0.611174  0.817733  0.000000  1
  Ir  Ir22  1  0.206559  0.388826  0.000000  1
  Ir  Ir23  1  0.446354  0.440490  0.000000  1
  Ir  Ir24  1  0.559510  0.005864  0.000000  1
  Ir  Ir25  1  0.994136  0.553646  0.000000  1
  Ir  Ir26  1  0.268406  0.281227  0.500000  1
  Ir  Ir27  1  0.718773  0.987179  0.500000  1
  Ir  Ir28  1  0.012821  0.731594  0.500000  1
  Ir  Ir29  1  0.873184  0.348794  0.500000  1
  Ir  Ir30  1  0.651206  0.524391  0.500000  1
  Ir  Ir31  1  0.475609  0.126816  0.500000  1
  Ir  Ir32  1  0.371506  0.868554  0.500000  1
  Ir  Ir33  1  0.497050  0.628494  0.500000  1
  Ir  Ir34  1  0.131446  0.502950  0.500000  1
  Ir  Ir35  1  0.000000  0.000000  0.000000  1
