# generated using pymatgen
data_La3IrO8
_symmetry_space_group_name_H-M   'P 1'
_cell_length_a   7.60356051
_cell_length_b   7.60356083
_cell_length_c   6.29992300
_cell_angle_alpha   90.00000000
_cell_angle_beta   90.00000000
_cell_angle_gamma   109.53309485
_symmetry_Int_Tables_number   1
_chemical_formula_structural   La3IrO8
_chemical_formula_sum   'La6 Ir2 O16'
_cell_volume   343.26293391
_cell_formula_units_Z   2
loop_
 _symmetry_equiv_pos_site_id
 _symmetry_equiv_pos_as_xyz
  1  'x, y, z'
loop_
 _atom_site_type_symbol
 _atom_site_label
 _atom_site_symmetry_multiplicity
 _atom_site_fract_x
 _atom_site_fract_y
 _atom_site_fract_z
 _atom_site_occupancy
  La  La0  1  0.106262  0.334971  0.250000  1
  La  La1  1  0.893738  0.665029  0.750000  1
  La  La2  1  0.603180  0.396820  0.250000  1
  La  La3  1  0.396820  0.603180  0.750000  1
  La  La4  1  0.334971  0.106262  0.750000  1
  La  La5  1  0.665029  0.893738  0.250000  1
  Ir  Ir6  1  0.183112  0.816888  0.250000  1
  Ir  Ir7  1  0.816888  0.183112  0.750000  1
  O  O8  1  0.969226  0.030774  0.750000  1
  O  O9  1  0.030774  0.969226  0.250000  1
  O  O10  1  0.032380  0.409840  0.750000  1
  O  O11  1  0.967620  0.590160  0.250000  1
  O  O12  1  0.660770  0.339230  0.750000  1
  O  O13  1  0.339230  0.660770  0.250000  1
  O  O14  1  0.590160  0.967620  0.750000  1
  O  O15  1  0.409840  0.032380  0.250000  1
  O  O16  1  0.662610  0.662610  0.000000  1
  O  O17  1  0.337390  0.337390  0.500000  1
  O  O18  1  0.337390  0.337390  0.000000  1
  O  O19  1  0.662610  0.662610  0.500000  1
  O  O20  1  0.805151  0.194849  0.053978  1
  O  O21  1  0.194849  0.805151  0.553978  1
  O  O22  1  0.194849  0.805151  0.946022  1
  O  O23  1  0.805151  0.194849  0.446022  1
