# generated using pymatgen
data_CaFe2P4(PbO8)2
_symmetry_space_group_name_H-M   'P 1'
_cell_length_a   9.10415700
_cell_length_b   9.06711833
_cell_length_c   9.40140515
_cell_angle_alpha   62.62838137
_cell_angle_beta   90.00000000
_cell_angle_gamma   90.00000000
_symmetry_Int_Tables_number   1
_chemical_formula_structural   CaFe2P4(PbO8)2
_chemical_formula_sum   'Ca2 Fe4 P8 Pb4 O32'
_cell_volume   689.18513472
_cell_formula_units_Z   2
loop_
 _symmetry_equiv_pos_site_id
 _symmetry_equiv_pos_as_xyz
  1  'x, y, z'
loop_
 _atom_site_type_symbol
 _atom_site_label
 _atom_site_symmetry_multiplicity
 _atom_site_fract_x
 _atom_site_fract_y
 _atom_site_fract_z
 _atom_site_occupancy
  Ca  Ca0  1  0.000000  0.000000  0.000000  1
  Ca  Ca1  1  0.500000  0.000000  0.500000  1
  Fe  Fe2  1  0.368055  0.754083  0.241235  1
  Fe  Fe3  1  0.868055  0.245917  0.258765  1
  Fe  Fe4  1  0.631945  0.245917  0.758765  1
  Fe  Fe5  1  0.131945  0.754083  0.741235  1
  P  P6  1  0.090786  0.579661  0.137983  1
  P  P7  1  0.638997  0.020504  0.161013  1
  P  P8  1  0.361003  0.979496  0.838987  1
  P  P9  1  0.409214  0.579661  0.637983  1
  P  P10  1  0.909214  0.420339  0.862017  1
  P  P11  1  0.590786  0.420339  0.362017  1
  P  P12  1  0.861003  0.020504  0.661013  1
  P  P13  1  0.138997  0.979496  0.338987  1
  Pb  Pb14  1  0.209449  0.297229  0.467904  1
  Pb  Pb15  1  0.709449  0.702771  0.032096  1
  Pb  Pb16  1  0.790551  0.702771  0.532096  1
  Pb  Pb17  1  0.290551  0.297229  0.967904  1
  O  O18  1  0.913615  0.159723  0.497562  1
  O  O19  1  0.798704  0.090748  0.773162  1
  O  O20  1  0.958505  0.604556  0.757130  1
  O  O21  1  0.701296  0.090748  0.273162  1
  O  O22  1  0.493866  0.084106  0.737923  1
  O  O23  1  0.541495  0.604556  0.257130  1
  O  O24  1  0.586385  0.159723  0.997562  1
  O  O25  1  0.006134  0.084106  0.237923  1
  O  O26  1  0.719194  0.408934  0.258202  1
  O  O27  1  0.458505  0.395444  0.742870  1
  O  O28  1  0.255744  0.088338  0.366962  1
  O  O29  1  0.413615  0.840277  0.002438  1
  O  O30  1  0.848346  0.395293  0.023483  1
  O  O31  1  0.086385  0.840277  0.502438  1
  O  O32  1  0.506134  0.915894  0.262077  1
  O  O33  1  0.348346  0.604707  0.476517  1
  O  O34  1  0.651654  0.395293  0.523483  1
  O  O35  1  0.744256  0.911662  0.633038  1
  O  O36  1  0.967268  0.704211  0.117726  1
  O  O37  1  0.280806  0.591066  0.741798  1
  O  O38  1  0.244256  0.088338  0.866962  1
  O  O39  1  0.780806  0.408934  0.758202  1
  O  O40  1  0.298704  0.909252  0.726838  1
  O  O41  1  0.755744  0.911662  0.133038  1
  O  O42  1  0.219194  0.591066  0.241798  1
  O  O43  1  0.151654  0.604707  0.976517  1
  O  O44  1  0.467268  0.295789  0.382274  1
  O  O45  1  0.032732  0.295789  0.882274  1
  O  O46  1  0.041495  0.395444  0.242870  1
  O  O47  1  0.201296  0.909252  0.226838  1
  O  O48  1  0.532732  0.704211  0.617726  1
  O  O49  1  0.993866  0.915894  0.762077  1
