# generated using pymatgen
data_Ac2ZnSi2Ge
_symmetry_space_group_name_H-M   'P 1'
_cell_length_a   4.49971181
_cell_length_b   4.43015548
_cell_length_c   8.11586000
_cell_angle_alpha   74.16118992
_cell_angle_beta   73.90581826
_cell_angle_gamma   90.00000347
_symmetry_Int_Tables_number   1
_chemical_formula_structural   Ac2ZnSi2Ge
_chemical_formula_sum   'Ac2 Zn1 Si2 Ge1'
_cell_volume   149.04066533
_cell_formula_units_Z   1
loop_
 _symmetry_equiv_pos_site_id
 _symmetry_equiv_pos_as_xyz
  1  'x, y, z'
loop_
 _atom_site_type_symbol
 _atom_site_label
 _atom_site_symmetry_multiplicity
 _atom_site_fract_x
 _atom_site_fract_y
 _atom_site_fract_z
 _atom_site_occupancy
  Ac  Ac0  1  0.756134  0.256134  0.487730  1
  Ac  Ac1  1  0.995186  0.995186  0.009629  1
  Zn  Zn2  1  0.167627  0.667627  0.664746  1
  Si  Si3  1  0.333314  0.833314  0.333371  1
  Si  Si4  1  0.415482  0.415482  0.169038  1
  Ge  Ge5  1  0.582257  0.582257  0.835485  1
