# generated using pymatgen
data_SmTh3(B4Rh)4
_symmetry_space_group_name_H-M   'P 1'
_cell_length_a   7.09505445
_cell_length_b   7.09505519
_cell_length_c   7.09505413
_cell_angle_alpha   111.71966936
_cell_angle_beta   111.71967422
_cell_angle_gamma   105.06226481
_symmetry_Int_Tables_number   1
_chemical_formula_structural   SmTh3(B4Rh)4
_chemical_formula_sum   'Sm1 Th3 B16 Rh4'
_cell_volume   273.73596874
_cell_formula_units_Z   1
loop_
 _symmetry_equiv_pos_site_id
 _symmetry_equiv_pos_as_xyz
  1  'x, y, z'
loop_
 _atom_site_type_symbol
 _atom_site_label
 _atom_site_symmetry_multiplicity
 _atom_site_fract_x
 _atom_site_fract_y
 _atom_site_fract_z
 _atom_site_occupancy
  Sm  Sm0  1  0.789715  0.789715  0.000000  1
  Th  Th1  1  0.750031  0.250031  0.500000  1
  Th  Th2  1  0.250031  0.750031  0.500000  1
  Th  Th3  1  0.211255  0.211255  0.000000  1
  B  B4  1  0.413083  0.413083  0.522506  1
  B  B5  1  0.890577  0.890577  0.477494  1
  B  B6  1  0.586311  0.110601  0.000000  1
  B  B7  1  0.110601  0.586311  0.000000  1
  B  B8  1  0.586311  0.586311  0.475710  1
  B  B9  1  0.110601  0.110601  0.524290  1
  B  B10  1  0.890577  0.413083  0.000000  1
  B  B11  1  0.413083  0.890577  0.000000  1
  B  B12  1  0.108094  0.265342  0.373014  1
  B  B13  1  0.892329  0.735081  0.626986  1
  B  B14  1  0.892329  0.265342  0.157248  1
  B  B15  1  0.108094  0.735081  0.842752  1
  B  B16  1  0.735081  0.892329  0.626986  1
  B  B17  1  0.265342  0.108094  0.373014  1
  B  B18  1  0.735081  0.108094  0.842752  1
  B  B19  1  0.265342  0.892329  0.157248  1
  Rh  Rh20  1  0.499033  0.260447  0.761414  1
  Rh  Rh21  1  0.499033  0.737619  0.238586  1
  Rh  Rh22  1  0.737619  0.499033  0.238586  1
  Rh  Rh23  1  0.260447  0.499033  0.761414  1
