# generated using pymatgen
data_Nd2BeSi8Ni17
_symmetry_space_group_name_H-M   'P 1'
_cell_length_a   7.97658829
_cell_length_b   7.86753603
_cell_length_c   7.78212381
_cell_angle_alpha   61.28444455
_cell_angle_beta   59.88561261
_cell_angle_gamma   58.82993249
_symmetry_Int_Tables_number   1
_chemical_formula_structural   Nd2BeSi8Ni17
_chemical_formula_sum   'Nd2 Be1 Si8 Ni17'
_cell_volume   345.01361067
_cell_formula_units_Z   1
loop_
 _symmetry_equiv_pos_site_id
 _symmetry_equiv_pos_as_xyz
  1  'x, y, z'
loop_
 _atom_site_type_symbol
 _atom_site_label
 _atom_site_symmetry_multiplicity
 _atom_site_fract_x
 _atom_site_fract_y
 _atom_site_fract_z
 _atom_site_occupancy
  Nd  Nd0  1  0.250000  0.250000  0.250000  1
  Nd  Nd1  1  0.750000  0.750000  0.750000  1
  Be  Be2  1  0.000000  0.000000  0.000000  1
  Si  Si3  1  0.709448  0.055426  0.944574  1
  Si  Si4  1  0.055426  0.709448  0.290552  1
  Si  Si5  1  0.208747  0.556388  0.791253  1
  Si  Si6  1  0.556388  0.208747  0.443612  1
  Si  Si7  1  0.290552  0.944574  0.055426  1
  Si  Si8  1  0.944574  0.290552  0.709448  1
  Si  Si9  1  0.791253  0.443612  0.208747  1
  Si  Si10  1  0.443612  0.791253  0.556388  1
  Ni  Ni11  1  0.717365  0.282635  0.060284  1
  Ni  Ni12  1  0.282635  0.717365  0.939716  1
  Ni  Ni13  1  0.200980  0.799020  0.436710  1
  Ni  Ni14  1  0.799020  0.200980  0.563290  1
  Ni  Ni15  1  0.436710  0.563290  0.200980  1
  Ni  Ni16  1  0.563290  0.436710  0.799020  1
  Ni  Ni17  1  0.060284  0.939716  0.717365  1
  Ni  Ni18  1  0.939716  0.060284  0.282635  1
  Ni  Ni19  1  0.447242  0.184489  0.815511  1
  Ni  Ni20  1  0.184489  0.447242  0.552758  1
  Ni  Ni21  1  0.940748  0.690706  0.059252  1
  Ni  Ni22  1  0.690706  0.940748  0.309294  1
  Ni  Ni23  1  0.552758  0.815511  0.184489  1
  Ni  Ni24  1  0.815511  0.552758  0.447242  1
  Ni  Ni25  1  0.059252  0.309294  0.940748  1
  Ni  Ni26  1  0.309294  0.059252  0.690706  1
  Ni  Ni27  1  0.500000  0.500000  0.500000  1
