# generated using pymatgen
data_Tb8Co3Si12Pd
_symmetry_space_group_name_H-M   'P 1'
_cell_length_a   8.02684600
_cell_length_b   8.02684466
_cell_length_c   8.05637800
_cell_angle_alpha   90.00000000
_cell_angle_beta   90.00000000
_cell_angle_gamma   120.00000553
_symmetry_Int_Tables_number   1
_chemical_formula_structural   Tb8Co3Si12Pd
_chemical_formula_sum   'Tb8 Co3 Si12 Pd1'
_cell_volume   449.53160565
_cell_formula_units_Z   1
loop_
 _symmetry_equiv_pos_site_id
 _symmetry_equiv_pos_as_xyz
  1  'x, y, z'
loop_
 _atom_site_type_symbol
 _atom_site_label
 _atom_site_symmetry_multiplicity
 _atom_site_fract_x
 _atom_site_fract_y
 _atom_site_fract_z
 _atom_site_occupancy
  Tb  Tb0  1  0.502668  0.005335  0.246958  1
  Tb  Tb1  1  0.502090  0.004181  0.752995  1
  Tb  Tb2  1  0.994665  0.497332  0.246958  1
  Tb  Tb3  1  0.995819  0.497910  0.752995  1
  Tb  Tb4  1  0.502668  0.497332  0.246958  1
  Tb  Tb5  1  0.502090  0.497910  0.752995  1
  Tb  Tb6  1  0.000000  0.000000  0.248614  1
  Tb  Tb7  1  0.000000  0.000000  0.751391  1
  Co  Co8  1  0.333333  0.666667  0.000732  1
  Co  Co9  1  0.666667  0.333333  0.998514  1
  Co  Co10  1  0.666667  0.333333  0.501722  1
  Si  Si11  1  0.172102  0.344205  0.000147  1
  Si  Si12  1  0.829174  0.658346  0.999940  1
  Si  Si13  1  0.655795  0.827898  0.000147  1
  Si  Si14  1  0.827536  0.655071  0.499962  1
  Si  Si15  1  0.341654  0.170826  0.999940  1
  Si  Si16  1  0.163699  0.327399  0.499976  1
  Si  Si17  1  0.172102  0.827898  0.000147  1
  Si  Si18  1  0.344929  0.172464  0.499962  1
  Si  Si19  1  0.829174  0.170826  0.999940  1
  Si  Si20  1  0.672601  0.836301  0.499976  1
  Si  Si21  1  0.827536  0.172464  0.499962  1
  Si  Si22  1  0.163699  0.836301  0.499976  1
  Pd  Pd23  1  0.333333  0.666667  0.499090  1
