# generated using pymatgen
data_Ho5ErTm10(CdIr)4
_symmetry_space_group_name_H-M   'P 1'
_cell_length_a   9.53705974
_cell_length_b   9.53705909
_cell_length_c   9.54448300
_cell_angle_alpha   59.97424994
_cell_angle_beta   59.97425221
_cell_angle_gamma   59.95850953
_symmetry_Int_Tables_number   1
_chemical_formula_structural   Ho5ErTm10(CdIr)4
_chemical_formula_sum   'Ho5 Er1 Tm10 Cd4 Ir4'
_cell_volume   613.42432571
_cell_formula_units_Z   1
loop_
 _symmetry_equiv_pos_site_id
 _symmetry_equiv_pos_as_xyz
  1  'x, y, z'
loop_
 _atom_site_type_symbol
 _atom_site_label
 _atom_site_symmetry_multiplicity
 _atom_site_fract_x
 _atom_site_fract_y
 _atom_site_fract_z
 _atom_site_occupancy
  Ho  Ho0  1  0.188110  0.812192  0.812068  1
  Ho  Ho1  1  0.812192  0.188110  0.187630  1
  Ho  Ho2  1  0.812192  0.188110  0.812068  1
  Ho  Ho3  1  0.188110  0.812192  0.187630  1
  Ho  Ho4  1  0.812108  0.812108  0.187892  1
  Er  Er5  1  0.187879  0.187879  0.812121  1
  Tm  Tm6  1  0.599119  0.599119  0.598801  1
  Tm  Tm7  1  0.599119  0.599119  0.202960  1
  Tm  Tm8  1  0.599313  0.202589  0.599049  1
  Tm  Tm9  1  0.202589  0.599313  0.599049  1
  Tm  Tm10  1  0.060569  0.438842  0.439476  1
  Tm  Tm11  1  0.438842  0.060569  0.061113  1
  Tm  Tm12  1  0.438842  0.060569  0.439476  1
  Tm  Tm13  1  0.060569  0.438842  0.061113  1
  Tm  Tm14  1  0.439186  0.439186  0.060814  1
  Tm  Tm15  1  0.060915  0.060915  0.439085  1
  Cd  Cd16  1  0.830926  0.830926  0.831031  1
  Cd  Cd17  1  0.830926  0.830926  0.507116  1
  Cd  Cd18  1  0.831155  0.506567  0.831138  1
  Cd  Cd19  1  0.506567  0.831155  0.831138  1
  Ir  Ir20  1  0.391969  0.391969  0.391592  1
  Ir  Ir21  1  0.391969  0.391969  0.824470  1
  Ir  Ir22  1  0.392088  0.824745  0.391583  1
  Ir  Ir23  1  0.824745  0.392088  0.391583  1
