# generated using pymatgen
data_Sm3MgCd2PtPb2
_symmetry_space_group_name_H-M   'P 1'
_cell_length_a   7.51626300
_cell_length_b   7.57538843
_cell_length_c   4.69305300
_cell_angle_alpha   90.00000000
_cell_angle_beta   90.00000000
_cell_angle_gamma   119.74215323
_symmetry_Int_Tables_number   1
_chemical_formula_structural   Sm3MgCd2PtPb2
_chemical_formula_sum   'Sm3 Mg1 Cd2 Pt1 Pb2'
_cell_volume   232.01470462
_cell_formula_units_Z   1
loop_
 _symmetry_equiv_pos_site_id
 _symmetry_equiv_pos_as_xyz
  1  'x, y, z'
loop_
 _atom_site_type_symbol
 _atom_site_label
 _atom_site_symmetry_multiplicity
 _atom_site_fract_x
 _atom_site_fract_y
 _atom_site_fract_z
 _atom_site_occupancy
  Sm  Sm0  1  0.606275  0.603950  0.000000  1
  Sm  Sm1  1  0.387469  0.000000  0.000000  1
  Sm  Sm2  1  0.002325  0.396050  0.000000  1
  Mg  Mg3  1  0.780765  0.000000  0.500000  1
  Cd  Cd4  1  0.998756  0.769199  0.500000  1
  Cd  Cd5  1  0.229557  0.230801  0.500000  1
  Pt  Pt6  1  0.986263  0.000000  0.000000  1
  Pb  Pb7  1  0.340515  0.672442  0.500000  1
  Pb  Pb8  1  0.668075  0.327558  0.500000  1
