# generated using pymatgen
data_TmTa(FeSi)2
_symmetry_space_group_name_H-M   'P 1'
_cell_length_a   4.02255900
_cell_length_b   4.02255851
_cell_length_c   13.09016700
_cell_angle_alpha   90.00000000
_cell_angle_beta   90.00000000
_cell_angle_gamma   119.99999584
_symmetry_Int_Tables_number   1
_chemical_formula_structural   TmTa(FeSi)2
_chemical_formula_sum   'Tm2 Ta2 Fe4 Si4'
_cell_volume   183.43433480
_cell_formula_units_Z   2
loop_
 _symmetry_equiv_pos_site_id
 _symmetry_equiv_pos_as_xyz
  1  'x, y, z'
loop_
 _atom_site_type_symbol
 _atom_site_label
 _atom_site_symmetry_multiplicity
 _atom_site_fract_x
 _atom_site_fract_y
 _atom_site_fract_z
 _atom_site_occupancy
  Tm  Tm0  1  0.000000  0.000000  0.250000  1
  Tm  Tm1  1  0.000000  0.000000  0.750000  1
  Ta  Ta2  1  0.000000  0.000000  0.000000  1
  Ta  Ta3  1  0.000000  0.000000  0.500000  1
  Fe  Fe4  1  0.666666  0.333333  0.067041  1
  Fe  Fe5  1  0.666666  0.333333  0.432959  1
  Fe  Fe6  1  0.333333  0.666666  0.567041  1
  Fe  Fe7  1  0.333333  0.666666  0.932959  1
  Si  Si8  1  0.333333  0.666666  0.118685  1
  Si  Si9  1  0.333333  0.666666  0.381315  1
  Si  Si10  1  0.666666  0.333333  0.618685  1
  Si  Si11  1  0.666666  0.333333  0.881315  1
