# generated using pymatgen
data_Ca20IrPd2Ru
_symmetry_space_group_name_H-M   'P 1'
_cell_length_a   6.83809314
_cell_length_b   7.54568718
_cell_length_c   16.15078300
_cell_angle_alpha   90.00000000
_cell_angle_beta   90.00000000
_cell_angle_gamma   89.95137069
_symmetry_Int_Tables_number   1
_chemical_formula_structural   Ca20IrPd2Ru
_chemical_formula_sum   'Ca20 Ir1 Pd2 Ru1'
_cell_volume   833.34960669
_cell_formula_units_Z   1
loop_
 _symmetry_equiv_pos_site_id
 _symmetry_equiv_pos_as_xyz
  1  'x, y, z'
loop_
 _atom_site_type_symbol
 _atom_site_label
 _atom_site_symmetry_multiplicity
 _atom_site_fract_x
 _atom_site_fract_y
 _atom_site_fract_z
 _atom_site_occupancy
  Ca  Ca0  1  0.148990  0.093513  0.250000  1
  Ca  Ca1  1  0.855212  0.189451  0.563944  1
  Ca  Ca2  1  0.852660  0.909368  0.750000  1
  Ca  Ca3  1  0.828965  0.468303  0.144398  1
  Ca  Ca4  1  0.169138  0.532329  0.643519  1
  Ca  Ca5  1  0.353974  0.310438  0.062094  1
  Ca  Ca6  1  0.338343  0.598649  0.250000  1
  Ca  Ca7  1  0.828965  0.468303  0.355602  1
  Ca  Ca8  1  0.321086  0.043256  0.856353  1
  Ca  Ca9  1  0.146421  0.810522  0.066928  1
  Ca  Ca10  1  0.647846  0.688191  0.560043  1
  Ca  Ca11  1  0.678620  0.956762  0.355571  1
  Ca  Ca12  1  0.647846  0.688191  0.939957  1
  Ca  Ca13  1  0.321086  0.043256  0.643647  1
  Ca  Ca14  1  0.146421  0.810522  0.433072  1
  Ca  Ca15  1  0.658617  0.397670  0.750000  1
  Ca  Ca16  1  0.169138  0.532329  0.856481  1
  Ca  Ca17  1  0.353974  0.310438  0.437906  1
  Ca  Ca18  1  0.678620  0.956762  0.144429  1
  Ca  Ca19  1  0.855212  0.189451  0.936056  1
  Ir  Ir20  1  0.960973  0.761373  0.250000  1
  Pd  Pd21  1  0.459342  0.740793  0.750000  1
  Pd  Pd22  1  0.539156  0.259040  0.250000  1
  Ru  Ru23  1  0.039397  0.241090  0.750000  1
