# generated using pymatgen
data_CaLa3(GaPt)4
_symmetry_space_group_name_H-M   'P 1'
_cell_length_a   4.53183900
_cell_length_b   7.17986427
_cell_length_c   7.90784828
_cell_angle_alpha   90.79968164
_cell_angle_beta   90.00000000
_cell_angle_gamma   90.00000000
_symmetry_Int_Tables_number   1
_chemical_formula_structural   CaLa3(GaPt)4
_chemical_formula_sum   'Ca1 La3 Ga4 Pt4'
_cell_volume   257.28041852
_cell_formula_units_Z   1
loop_
 _symmetry_equiv_pos_site_id
 _symmetry_equiv_pos_as_xyz
  1  'x, y, z'
loop_
 _atom_site_type_symbol
 _atom_site_label
 _atom_site_symmetry_multiplicity
 _atom_site_fract_x
 _atom_site_fract_y
 _atom_site_fract_z
 _atom_site_occupancy
  Ca  Ca0  1  0.250000  0.027152  0.692594  1
  La  La1  1  0.250000  0.529785  0.808147  1
  La  La2  1  0.750000  0.972674  0.316041  1
  La  La3  1  0.750000  0.469424  0.189432  1
  Ga  Ga4  1  0.250000  0.154044  0.064857  1
  Ga  Ga5  1  0.250000  0.658528  0.432575  1
  Ga  Ga6  1  0.750000  0.848707  0.925979  1
  Ga  Ga7  1  0.750000  0.339254  0.571763  1
  Pt  Pt8  1  0.250000  0.280442  0.390545  1
  Pt  Pt9  1  0.250000  0.780025  0.110553  1
  Pt  Pt10  1  0.750000  0.718699  0.607564  1
  Pt  Pt11  1  0.750000  0.221267  0.889951  1
