# generated using pymatgen
data_Ac2Co2Ge2C
_symmetry_space_group_name_H-M   'P 1'
_cell_length_a   6.05746173
_cell_length_b   6.05746167
_cell_length_c   7.48145800
_cell_angle_alpha   125.44712008
_cell_angle_beta   125.44711968
_cell_angle_gamma   39.89176085
_symmetry_Int_Tables_number   1
_chemical_formula_structural   Ac2Co2Ge2C
_chemical_formula_sum   'Ac2 Co2 Ge2 C1'
_cell_volume   138.55665096
_cell_formula_units_Z   1
loop_
 _symmetry_equiv_pos_site_id
 _symmetry_equiv_pos_as_xyz
  1  'x, y, z'
loop_
 _atom_site_type_symbol
 _atom_site_label
 _atom_site_symmetry_multiplicity
 _atom_site_fract_x
 _atom_site_fract_y
 _atom_site_fract_z
 _atom_site_occupancy
  Ac  Ac0  1  0.558457  0.558457  0.306262  1
  Ac  Ac1  1  0.441543  0.441543  0.693738  1
  Co  Co2  1  0.178403  0.178403  0.065536  1
  Co  Co3  1  0.821596  0.821596  0.934464  1
  Ge  Ge4  1  0.809562  0.809562  0.245904  1
  Ge  Ge5  1  0.190438  0.190438  0.754096  1
  C  C6  1  0.000000  0.000000  0.000000  1
