# generated using pymatgen
data_Li4InGa3I16
_symmetry_space_group_name_H-M   'P 1'
_cell_length_a   7.83534931
_cell_length_b   8.37790478
_cell_length_c   15.40354100
_cell_angle_alpha   86.86901595
_cell_angle_beta   90.18604426
_cell_angle_gamma   89.95480760
_symmetry_Int_Tables_number   1
_chemical_formula_structural   Li4InGa3I16
_chemical_formula_sum   'Li4 In1 Ga3 I16'
_cell_volume   1009.63197047
_cell_formula_units_Z   1
loop_
 _symmetry_equiv_pos_site_id
 _symmetry_equiv_pos_as_xyz
  1  'x, y, z'
loop_
 _atom_site_type_symbol
 _atom_site_label
 _atom_site_symmetry_multiplicity
 _atom_site_fract_x
 _atom_site_fract_y
 _atom_site_fract_z
 _atom_site_occupancy
  Li  Li0  1  0.993925  0.853436  0.389746  1
  Li  Li1  1  0.504960  0.150675  0.106515  1
  Li  Li2  1  0.006447  0.151299  0.608015  1
  Li  Li3  1  0.510211  0.852995  0.889565  1
  In  In4  1  0.325423  0.694368  0.100935  1
  Ga  Ga5  1  0.168124  0.706922  0.598824  1
  Ga  Ga6  1  0.667877  0.297355  0.899923  1
  Ga  Ga7  1  0.831590  0.293752  0.402922  1
  I  I8  1  0.306837  0.695706  0.447722  1
  I  I9  1  0.811194  0.314923  0.050350  1
  I  I10  1  0.689536  0.306504  0.553082  1
  I  I11  1  0.190724  0.695487  0.935683  1
  I  I12  1  0.143057  0.188362  0.432667  1
  I  I13  1  0.650232  0.825601  0.070633  1
  I  I14  1  0.858007  0.816567  0.570564  1
  I  I15  1  0.358624  0.187524  0.930020  1
  I  I16  1  0.308497  0.933627  0.684074  1
  I  I17  1  0.805560  0.068854  0.815446  1
  I  I18  1  0.696135  0.065317  0.317174  1
  I  I19  1  0.176323  0.931855  0.193042  1
  I  I20  1  0.176372  0.436268  0.686598  1
  I  I21  1  0.676108  0.565992  0.810731  1
  I  I22  1  0.822208  0.562780  0.313697  1
  I  I23  1  0.322027  0.403830  0.192073  1
