# generated using pymatgen
data_Pu2Cd3(NiO6)2
_symmetry_space_group_name_H-M   'P 1'
_cell_length_a   5.54734449
_cell_length_b   5.68090000
_cell_length_c   7.88697900
_cell_angle_alpha   89.56181297
_cell_angle_beta   90.61299818
_cell_angle_gamma   89.54124200
_symmetry_Int_Tables_number   1
_chemical_formula_structural   Pu2Cd3(NiO6)2
_chemical_formula_sum   'Pu2 Cd3 Ni2 O12'
_cell_volume   248.51991603
_cell_formula_units_Z   1
loop_
 _symmetry_equiv_pos_site_id
 _symmetry_equiv_pos_as_xyz
  1  'x, y, z'
loop_
 _atom_site_type_symbol
 _atom_site_label
 _atom_site_symmetry_multiplicity
 _atom_site_fract_x
 _atom_site_fract_y
 _atom_site_fract_z
 _atom_site_occupancy
  Pu  Pu0  1  0.496616  0.994117  0.002927  1
  Pu  Pu1  1  0.003558  0.501388  0.497067  1
  Cd  Cd2  1  0.991459  0.955780  0.749750  1
  Cd  Cd3  1  0.518779  0.446674  0.747323  1
  Cd  Cd4  1  0.008003  0.044163  0.248605  1
  Ni  Ni5  1  0.001829  0.500171  0.004427  1
  Ni  Ni6  1  0.500068  0.993746  0.493863  1
  O  O7  1  0.916797  0.457099  0.254556  1
  O  O8  1  0.603655  0.972052  0.246237  1
  O  O9  1  0.111438  0.537906  0.750073  1
  O  O10  1  0.399125  0.035018  0.749802  1
  O  O11  1  0.302837  0.274777  0.048044  1
  O  O12  1  0.183207  0.810097  0.451264  1
  O  O13  1  0.694033  0.709138  0.939229  1
  O  O14  1  0.801700  0.202948  0.557069  1
  O  O15  1  0.796197  0.202348  0.944530  1
  O  O16  1  0.711329  0.700413  0.556041  1
  O  O17  1  0.185951  0.808201  0.045606  1
  O  O18  1  0.286256  0.300703  0.460817  1
