# generated using pymatgen
data_Yb5HfZr2(Si4Mo3)4
_symmetry_space_group_name_H-M   'P 1'
_cell_length_a   6.68409827
_cell_length_b   6.85579530
_cell_length_c   12.86797608
_cell_angle_alpha   89.44126079
_cell_angle_beta   90.00902512
_cell_angle_gamma   90.01103115
_symmetry_Int_Tables_number   1
_chemical_formula_structural   Yb5HfZr2(Si4Mo3)4
_chemical_formula_sum   'Yb5 Hf1 Zr2 Si16 Mo12'
_cell_volume   589.64449633
_cell_formula_units_Z   1
loop_
 _symmetry_equiv_pos_site_id
 _symmetry_equiv_pos_as_xyz
  1  'x, y, z'
loop_
 _atom_site_type_symbol
 _atom_site_label
 _atom_site_symmetry_multiplicity
 _atom_site_fract_x
 _atom_site_fract_y
 _atom_site_fract_z
 _atom_site_occupancy
  Yb  Yb0  1  0.503899  0.664148  0.910686  1
  Yb  Yb1  1  0.004401  0.837055  0.588724  1
  Yb  Yb2  1  0.497608  0.333513  0.088767  1
  Yb  Yb3  1  0.997971  0.165643  0.411599  1
  Yb  Yb4  1  0.498416  0.332642  0.408876  1
  Hf  Hf5  1  0.503535  0.671997  0.600182  1
  Zr  Zr6  1  0.002217  0.170779  0.096280  1
  Zr  Zr7  1  0.001207  0.831437  0.904006  1
  Si  Si8  1  0.034029  0.128949  0.749138  1
  Si  Si9  1  0.963212  0.875121  0.249714  1
  Si  Si10  1  0.465431  0.627985  0.247699  1
  Si  Si11  1  0.533791  0.370375  0.750076  1
  Si  Si12  1  0.300122  0.863794  0.750166  1
  Si  Si13  1  0.697986  0.134437  0.250048  1
  Si  Si14  1  0.198187  0.365181  0.250349  1
  Si  Si15  1  0.803204  0.635324  0.750299  1
  Si  Si16  1  0.167380  0.463426  0.546985  1
  Si  Si17  1  0.837620  0.542074  0.456511  1
  Si  Si18  1  0.343170  0.954182  0.455021  1
  Si  Si19  1  0.841603  0.542652  0.042203  1
  Si  Si20  1  0.656062  0.038446  0.547582  1
  Si  Si21  1  0.158386  0.457473  0.955664  1
  Si  Si22  1  0.668361  0.038648  0.955045  1
  Si  Si23  1  0.331136  0.960206  0.043013  1
  Mo  Mo24  1  0.165308  0.502851  0.750120  1
  Mo  Mo25  1  0.838267  0.502760  0.248433  1
  Mo  Mo26  1  0.333103  0.997919  0.246335  1
  Mo  Mo27  1  0.664870  0.996813  0.750995  1
  Mo  Mo28  1  0.330798  0.163955  0.625181  1
  Mo  Mo29  1  0.664943  0.828282  0.375221  1
  Mo  Mo30  1  0.166974  0.667203  0.370922  1
  Mo  Mo31  1  0.668952  0.834197  0.124924  1
  Mo  Mo32  1  0.830161  0.338778  0.626930  1
  Mo  Mo33  1  0.329060  0.161828  0.873374  1
  Mo  Mo34  1  0.834448  0.332860  0.876066  1
  Mo  Mo35  1  0.164185  0.667067  0.122871  1
