# generated using pymatgen
data_Mg4Zn6Si(B4Rh9)2
_symmetry_space_group_name_H-M   'P 1'
_cell_length_a   17.91223300
_cell_length_b   17.91223300
_cell_length_c   2.90465300
_cell_angle_alpha   90.00000000
_cell_angle_beta   90.00000000
_cell_angle_gamma   90.00000000
_symmetry_Int_Tables_number   1
_chemical_formula_structural   Mg4Zn6Si(B4Rh9)2
_chemical_formula_sum   'Mg8 Zn12 Si2 B16 Rh36'
_cell_volume   931.95237020
_cell_formula_units_Z   2
loop_
 _symmetry_equiv_pos_site_id
 _symmetry_equiv_pos_as_xyz
  1  'x, y, z'
loop_
 _atom_site_type_symbol
 _atom_site_label
 _atom_site_symmetry_multiplicity
 _atom_site_fract_x
 _atom_site_fract_y
 _atom_site_fract_z
 _atom_site_occupancy
  Mg  Mg0  1  0.030750  0.191250  0.000000  1
  Mg  Mg1  1  0.969250  0.808750  0.000000  1
  Mg  Mg2  1  0.191250  0.969250  0.000000  1
  Mg  Mg3  1  0.530750  0.308750  0.000000  1
  Mg  Mg4  1  0.808750  0.030750  0.000000  1
  Mg  Mg5  1  0.469250  0.691250  0.000000  1
  Mg  Mg6  1  0.691250  0.530750  0.000000  1
  Mg  Mg7  1  0.308750  0.469250  0.000000  1
  Zn  Zn8  1  0.549226  0.049226  0.000000  1
  Zn  Zn9  1  0.450774  0.950774  0.000000  1
  Zn  Zn10  1  0.049226  0.450774  0.000000  1
  Zn  Zn11  1  0.950774  0.549226  0.000000  1
  Zn  Zn12  1  0.209882  0.709882  0.000000  1
  Zn  Zn13  1  0.790118  0.290118  0.000000  1
  Zn  Zn14  1  0.709882  0.790118  0.000000  1
  Zn  Zn15  1  0.290118  0.209882  0.000000  1
  Zn  Zn16  1  0.668732  0.168732  0.000000  1
  Zn  Zn17  1  0.331268  0.831268  0.000000  1
  Zn  Zn18  1  0.168732  0.331268  0.000000  1
  Zn  Zn19  1  0.831268  0.668732  0.000000  1
  Si  Si20  1  0.000000  0.000000  0.000000  1
  Si  Si21  1  0.500000  0.500000  0.000000  1
  B  B22  1  0.333576  0.038278  0.000000  1
  B  B23  1  0.666424  0.961722  0.000000  1
  B  B24  1  0.038278  0.666424  0.000000  1
  B  B25  1  0.833576  0.461722  0.000000  1
  B  B26  1  0.961722  0.333576  0.000000  1
  B  B27  1  0.166424  0.538278  0.000000  1
  B  B28  1  0.538278  0.833576  0.000000  1
  B  B29  1  0.461722  0.166424  0.000000  1
  B  B30  1  0.167022  0.124069  0.000000  1
  B  B31  1  0.832978  0.875931  0.000000  1
  B  B32  1  0.124069  0.832978  0.000000  1
  B  B33  1  0.667022  0.375931  0.000000  1
  B  B34  1  0.875931  0.167022  0.000000  1
  B  B35  1  0.332978  0.624069  0.000000  1
  B  B36  1  0.624069  0.667022  0.000000  1
  B  B37  1  0.375931  0.332978  0.000000  1
  Rh  Rh38  1  0.255519  0.088353  0.500000  1
  Rh  Rh39  1  0.744481  0.911647  0.500000  1
  Rh  Rh40  1  0.088353  0.744481  0.500000  1
  Rh  Rh41  1  0.755519  0.411647  0.500000  1
  Rh  Rh42  1  0.911647  0.255519  0.500000  1
  Rh  Rh43  1  0.244481  0.588353  0.500000  1
  Rh  Rh44  1  0.588353  0.755519  0.500000  1
  Rh  Rh45  1  0.411647  0.244481  0.500000  1
  Rh  Rh46  1  0.047977  0.328125  0.500000  1
  Rh  Rh47  1  0.952023  0.671875  0.500000  1
  Rh  Rh48  1  0.328125  0.952023  0.500000  1
  Rh  Rh49  1  0.547977  0.171875  0.500000  1
  Rh  Rh50  1  0.671875  0.047977  0.500000  1
  Rh  Rh51  1  0.452023  0.828125  0.500000  1
  Rh  Rh52  1  0.828125  0.547977  0.500000  1
  Rh  Rh53  1  0.171875  0.452023  0.500000  1
  Rh  Rh54  1  0.161897  0.210938  0.500000  1
  Rh  Rh55  1  0.838103  0.789062  0.500000  1
  Rh  Rh56  1  0.210938  0.838103  0.500000  1
  Rh  Rh57  1  0.661897  0.289062  0.500000  1
  Rh  Rh58  1  0.789062  0.161897  0.500000  1
  Rh  Rh59  1  0.338103  0.710938  0.500000  1
  Rh  Rh60  1  0.710938  0.661897  0.500000  1
  Rh  Rh61  1  0.289062  0.338103  0.500000  1
  Rh  Rh62  1  0.094626  0.067337  0.500000  1
  Rh  Rh63  1  0.905374  0.932663  0.500000  1
  Rh  Rh64  1  0.067337  0.905374  0.500000  1
  Rh  Rh65  1  0.594626  0.432663  0.500000  1
  Rh  Rh66  1  0.932663  0.094626  0.500000  1
  Rh  Rh67  1  0.405374  0.567337  0.500000  1
  Rh  Rh68  1  0.567337  0.594626  0.500000  1
  Rh  Rh69  1  0.432663  0.405374  0.500000  1
  Rh  Rh70  1  0.082459  0.582459  0.500000  1
  Rh  Rh71  1  0.917541  0.417541  0.500000  1
  Rh  Rh72  1  0.582459  0.917541  0.500000  1
  Rh  Rh73  1  0.417541  0.082459  0.500000  1
