# generated using pymatgen
data_Rb3Tm7S12
_symmetry_space_group_name_H-M   'P 1'
_cell_length_a   3.96379700
_cell_length_b   11.89950000
_cell_length_c   24.73478900
_cell_angle_alpha   90.00000000
_cell_angle_beta   90.00000000
_cell_angle_gamma   90.00000000
_symmetry_Int_Tables_number   1
_chemical_formula_structural   Rb3Tm7S12
_chemical_formula_sum   'Rb6 Tm14 S24'
_cell_volume   1166.67079912
_cell_formula_units_Z   2
loop_
 _symmetry_equiv_pos_site_id
 _symmetry_equiv_pos_as_xyz
  1  'x, y, z'
loop_
 _atom_site_type_symbol
 _atom_site_label
 _atom_site_symmetry_multiplicity
 _atom_site_fract_x
 _atom_site_fract_y
 _atom_site_fract_z
 _atom_site_occupancy
  Rb  Rb0  1  0.500000  0.546421  0.132562  1
  Rb  Rb1  1  0.500000  0.944917  0.863179  1
  Rb  Rb2  1  0.000000  0.055083  0.363179  1
  Rb  Rb3  1  0.000000  0.453579  0.632562  1
  Rb  Rb4  1  0.500000  0.815254  0.469766  1
  Rb  Rb5  1  0.000000  0.184746  0.969766  1
  Tm  Tm6  1  0.500000  0.314089  0.818868  1
  Tm  Tm7  1  0.500000  0.190314  0.179182  1
  Tm  Tm8  1  0.000000  0.809686  0.679182  1
  Tm  Tm9  1  0.000000  0.685911  0.318868  1
  Tm  Tm10  1  0.000000  0.249746  0.500121  1
  Tm  Tm11  1  0.500000  0.750254  0.000121  1
  Tm  Tm12  1  0.500000  0.477534  0.420603  1
  Tm  Tm13  1  0.500000  0.022671  0.582306  1
  Tm  Tm14  1  0.000000  0.977329  0.082306  1
  Tm  Tm15  1  0.000000  0.522466  0.920603  1
  Tm  Tm16  1  0.500000  0.644569  0.788901  1
  Tm  Tm17  1  0.500000  0.855775  0.211084  1
  Tm  Tm18  1  0.000000  0.144225  0.711084  1
  Tm  Tm19  1  0.000000  0.355431  0.288901  1
  S  S20  1  0.500000  0.518304  0.307404  1
  S  S21  1  0.500000  0.980844  0.693213  1
  S  S22  1  0.000000  0.019156  0.193213  1
  S  S23  1  0.000000  0.481696  0.807404  1
  S  S24  1  0.500000  0.661043  0.679850  1
  S  S25  1  0.500000  0.837655  0.322187  1
  S  S26  1  0.000000  0.162345  0.822187  1
  S  S27  1  0.000000  0.338957  0.179850  1
  S  S28  1  0.500000  0.398682  0.520241  1
  S  S29  1  0.500000  0.096262  0.479915  1
  S  S30  1  0.000000  0.903738  0.979915  1
  S  S31  1  0.000000  0.601318  0.020241  1
  S  S32  1  0.500000  0.369858  0.923789  1
  S  S33  1  0.500000  0.131015  0.074840  1
  S  S34  1  0.000000  0.868985  0.574840  1
  S  S35  1  0.000000  0.630142  0.423789  1
  S  S36  1  0.500000  0.290556  0.712875  1
  S  S37  1  0.500000  0.208937  0.286334  1
  S  S38  1  0.000000  0.791063  0.786334  1
  S  S39  1  0.000000  0.709444  0.212875  1
  S  S40  1  0.500000  0.670270  0.897972  1
  S  S41  1  0.500000  0.828643  0.102708  1
  S  S42  1  0.000000  0.171357  0.602708  1
  S  S43  1  0.000000  0.329730  0.397972  1
