# generated using pymatgen
data_GeRu(SeF6)4
_symmetry_space_group_name_H-M   'P 1'
_cell_length_a   6.19626800
_cell_length_b   7.82579079
_cell_length_c   9.85193369
_cell_angle_alpha   89.80933557
_cell_angle_beta   90.00000000
_cell_angle_gamma   90.00000000
_symmetry_Int_Tables_number   1
_chemical_formula_structural   GeRu(SeF6)4
_chemical_formula_sum   'Ge1 Ru1 Se4 F24'
_cell_volume   477.72448682
_cell_formula_units_Z   1
loop_
 _symmetry_equiv_pos_site_id
 _symmetry_equiv_pos_as_xyz
  1  'x, y, z'
loop_
 _atom_site_type_symbol
 _atom_site_label
 _atom_site_symmetry_multiplicity
 _atom_site_fract_x
 _atom_site_fract_y
 _atom_site_fract_z
 _atom_site_occupancy
  Ge  Ge0  1  0.500000  0.000000  0.500000  1
  Ru  Ru1  1  0.000000  0.500000  0.000000  1
  Se  Se2  1  0.500000  0.583118  0.242346  1
  Se  Se3  1  0.500000  0.416882  0.757654  1
  Se  Se4  1  0.000000  0.079602  0.262995  1
  Se  Se5  1  0.000000  0.920398  0.737005  1
  F  F6  1  0.223499  0.364746  0.910551  1
  F  F7  1  0.223499  0.635254  0.089449  1
  F  F8  1  0.289627  0.873401  0.586309  1
  F  F9  1  0.289627  0.126599  0.413691  1
  F  F10  1  0.776501  0.635254  0.089449  1
  F  F11  1  0.776501  0.364746  0.910551  1
  F  F12  1  0.798032  0.970232  0.852347  1
  F  F13  1  0.798032  0.029768  0.147653  1
  F  F14  1  0.702980  0.472308  0.644095  1
  F  F15  1  0.702980  0.527692  0.355905  1
  F  F16  1  0.201968  0.029768  0.147653  1
  F  F17  1  0.201968  0.970232  0.852347  1
  F  F18  1  0.297020  0.527692  0.355905  1
  F  F19  1  0.297020  0.472308  0.644095  1
  F  F20  1  0.000000  0.653655  0.842870  1
  F  F21  1  0.000000  0.346345  0.157130  1
  F  F22  1  0.500000  0.151091  0.642053  1
  F  F23  1  0.500000  0.848909  0.357947  1
  F  F24  1  0.500000  0.619607  0.829953  1
  F  F25  1  0.500000  0.380393  0.170047  1
  F  F26  1  0.000000  0.126117  0.669552  1
  F  F27  1  0.000000  0.873883  0.330448  1
  F  F28  1  0.710373  0.873401  0.586309  1
  F  F29  1  0.710373  0.126599  0.413691  1
