# generated using pymatgen
data_Ca4NdIr2
_symmetry_space_group_name_H-M   'P 1'
_cell_length_a   8.71323764
_cell_length_b   8.71323766
_cell_length_c   7.49096454
_cell_angle_alpha   82.91187520
_cell_angle_beta   82.91187588
_cell_angle_gamma   45.09585943
_symmetry_Int_Tables_number   1
_chemical_formula_structural   Ca4NdIr2
_chemical_formula_sum   'Ca8 Nd2 Ir4'
_cell_volume   399.20489597
_cell_formula_units_Z   2
loop_
 _symmetry_equiv_pos_site_id
 _symmetry_equiv_pos_as_xyz
  1  'x, y, z'
loop_
 _atom_site_type_symbol
 _atom_site_label
 _atom_site_symmetry_multiplicity
 _atom_site_fract_x
 _atom_site_fract_y
 _atom_site_fract_z
 _atom_site_occupancy
  Ca  Ca0  1  0.016514  0.808180  0.916362  1
  Ca  Ca1  1  0.191820  0.983486  0.583638  1
  Ca  Ca2  1  0.983486  0.191820  0.083638  1
  Ca  Ca3  1  0.808180  0.016514  0.416362  1
  Ca  Ca4  1  0.359074  0.203360  0.820222  1
  Ca  Ca5  1  0.796640  0.640926  0.679778  1
  Ca  Ca6  1  0.640926  0.796640  0.179778  1
  Ca  Ca7  1  0.203360  0.359074  0.320222  1
  Nd  Nd8  1  0.565484  0.434516  0.750000  1
  Nd  Nd9  1  0.434516  0.565484  0.250000  1
  Ir  Ir10  1  0.185360  0.600182  0.577361  1
  Ir  Ir11  1  0.399818  0.814640  0.922639  1
  Ir  Ir12  1  0.814640  0.399818  0.422639  1
  Ir  Ir13  1  0.600182  0.185360  0.077361  1
