# generated using pymatgen
data_Ho6Er4Si5Pb
_symmetry_space_group_name_H-M   'P 1'
_cell_length_a   8.47719600
_cell_length_b   8.50441488
_cell_length_c   6.35431800
_cell_angle_alpha   90.00000000
_cell_angle_beta   90.00000000
_cell_angle_gamma   119.89418271
_symmetry_Int_Tables_number   1
_chemical_formula_structural   Ho6Er4Si5Pb
_chemical_formula_sum   'Ho6 Er4 Si5 Pb1'
_cell_volume   397.15344599
_cell_formula_units_Z   1
loop_
 _symmetry_equiv_pos_site_id
 _symmetry_equiv_pos_as_xyz
  1  'x, y, z'
loop_
 _atom_site_type_symbol
 _atom_site_label
 _atom_site_symmetry_multiplicity
 _atom_site_fract_x
 _atom_site_fract_y
 _atom_site_fract_z
 _atom_site_occupancy
  Ho  Ho0  1  0.987616  0.747611  0.750000  1
  Ho  Ho1  1  0.998638  0.242617  0.250000  1
  Ho  Ho2  1  0.756020  0.757383  0.250000  1
  Ho  Ho3  1  0.766792  0.000000  0.750000  1
  Ho  Ho4  1  0.240005  0.252389  0.750000  1
  Ho  Ho5  1  0.240305  0.000000  0.250000  1
  Er  Er6  1  0.331320  0.656596  0.496054  1
  Er  Er7  1  0.674724  0.343404  0.003946  1
  Er  Er8  1  0.674724  0.343404  0.496054  1
  Er  Er9  1  0.331320  0.656596  0.003946  1
  Si  Si10  1  0.393894  0.392516  0.250000  1
  Si  Si11  1  0.001377  0.607484  0.250000  1
  Si  Si12  1  0.998520  0.394716  0.750000  1
  Si  Si13  1  0.603805  0.605284  0.750000  1
  Si  Si14  1  0.605706  0.000000  0.250000  1
  Pb  Pb15  1  0.395234  0.000000  0.750000  1
