# generated using pymatgen
data_Ho3CuSn3IrRh
_symmetry_space_group_name_H-M   'P 1'
_cell_length_a   7.51113500
_cell_length_b   7.51113363
_cell_length_c   3.87862400
_cell_angle_alpha   90.00000000
_cell_angle_beta   90.00000000
_cell_angle_gamma   119.99999284
_symmetry_Int_Tables_number   1
_chemical_formula_structural   Ho3CuSn3IrRh
_chemical_formula_sum   'Ho3 Cu1 Sn3 Ir1 Rh1'
_cell_volume   189.50444426
_cell_formula_units_Z   1
loop_
 _symmetry_equiv_pos_site_id
 _symmetry_equiv_pos_as_xyz
  1  'x, y, z'
loop_
 _atom_site_type_symbol
 _atom_site_label
 _atom_site_symmetry_multiplicity
 _atom_site_fract_x
 _atom_site_fract_y
 _atom_site_fract_z
 _atom_site_occupancy
  Ho  Ho0  1  0.396673  0.410479  0.500000  1
  Ho  Ho1  1  0.589521  0.986194  0.500000  1
  Ho  Ho2  1  0.013806  0.603327  0.500000  1
  Cu  Cu3  1  0.666667  0.333333  0.000000  1
  Sn  Sn4  1  0.741134  0.733477  0.000000  1
  Sn  Sn5  1  0.266523  0.007657  0.000000  1
  Sn  Sn6  1  0.992343  0.258866  0.000000  1
  Ir  Ir7  1  0.333333  0.666667  0.000000  1
  Rh  Rh8  1  0.000000  0.000000  0.500000  1
