# generated using pymatgen
data_Dy10Y6MgAg3Rh4
_symmetry_space_group_name_H-M   'P 1'
_cell_length_a   9.58105941
_cell_length_b   9.58781034
_cell_length_c   9.58775700
_cell_angle_alpha   59.99943199
_cell_angle_beta   59.97583979
_cell_angle_gamma   59.97690153
_symmetry_Int_Tables_number   1
_chemical_formula_structural   Dy10Y6MgAg3Rh4
_chemical_formula_sum   'Dy10 Y6 Mg1 Ag3 Rh4'
_cell_volume   622.55528046
_cell_formula_units_Z   1
loop_
 _symmetry_equiv_pos_site_id
 _symmetry_equiv_pos_as_xyz
  1  'x, y, z'
loop_
 _atom_site_type_symbol
 _atom_site_label
 _atom_site_symmetry_multiplicity
 _atom_site_fract_x
 _atom_site_fract_y
 _atom_site_fract_z
 _atom_site_occupancy
  Dy  Dy0  1  0.602493  0.600488  0.600480  1
  Dy  Dy1  1  0.602492  0.600487  0.196542  1
  Dy  Dy2  1  0.602488  0.196542  0.600485  1
  Dy  Dy3  1  0.182132  0.605963  0.605957  1
  Dy  Dy4  1  0.061260  0.438108  0.438115  1
  Dy  Dy5  1  0.435887  0.063573  0.063594  1
  Dy  Dy6  1  0.435888  0.063576  0.436946  1
  Dy  Dy7  1  0.061260  0.438107  0.062525  1
  Dy  Dy8  1  0.435882  0.436950  0.063588  1
  Dy  Dy9  1  0.061271  0.062494  0.438120  1
  Y  Y10  1  0.184456  0.813983  0.813978  1
  Y  Y11  1  0.813611  0.185306  0.185318  1
  Y  Y12  1  0.813612  0.185309  0.815772  1
  Y  Y13  1  0.184453  0.813981  0.187585  1
  Y  Y14  1  0.813599  0.815775  0.185313  1
  Y  Y15  1  0.184459  0.187578  0.813984  1
  Mg  Mg16  1  0.538390  0.820550  0.820525  1
  Ag  Ag17  1  0.832335  0.834241  0.834241  1
  Ag  Ag18  1  0.832333  0.834242  0.499180  1
  Ag  Ag19  1  0.832331  0.499185  0.834240  1
  Rh  Rh20  1  0.390202  0.395269  0.395228  1
  Rh  Rh21  1  0.390232  0.395269  0.819274  1
  Rh  Rh22  1  0.390284  0.819258  0.395225  1
  Rh  Rh23  1  0.818650  0.393770  0.393785  1
