# generated using pymatgen
data_NaHf(Si7Ir3)2
_symmetry_space_group_name_H-M   'P 1'
_cell_length_a   7.97591113
_cell_length_b   7.97591178
_cell_length_c   7.97591084
_cell_angle_alpha   56.78817703
_cell_angle_beta   56.78816293
_cell_angle_gamma   56.78817052
_symmetry_Int_Tables_number   1
_chemical_formula_structural   NaHf(Si7Ir3)2
_chemical_formula_sum   'Na1 Hf1 Si14 Ir6'
_cell_volume   332.18032451
_cell_formula_units_Z   1
loop_
 _symmetry_equiv_pos_site_id
 _symmetry_equiv_pos_as_xyz
  1  'x, y, z'
loop_
 _atom_site_type_symbol
 _atom_site_label
 _atom_site_symmetry_multiplicity
 _atom_site_fract_x
 _atom_site_fract_y
 _atom_site_fract_z
 _atom_site_occupancy
  Na  Na0  1  0.500000  0.500000  0.500000  1
  Hf  Hf1  1  0.000000  0.000000  0.000000  1
  Si  Si2  1  0.847315  0.066228  0.671804  1
  Si  Si3  1  0.671804  0.847315  0.066228  1
  Si  Si4  1  0.066228  0.671804  0.847315  1
  Si  Si5  1  0.646119  0.825556  0.434627  1
  Si  Si6  1  0.249773  0.249773  0.249773  1
  Si  Si7  1  0.750227  0.750227  0.750227  1
  Si  Si8  1  0.174444  0.565373  0.353881  1
  Si  Si9  1  0.565373  0.353881  0.174444  1
  Si  Si10  1  0.353881  0.174444  0.565373  1
  Si  Si11  1  0.933772  0.328196  0.152685  1
  Si  Si12  1  0.328196  0.152685  0.933772  1
  Si  Si13  1  0.152685  0.933772  0.328196  1
  Si  Si14  1  0.825556  0.434627  0.646119  1
  Si  Si15  1  0.434627  0.646119  0.825556  1
  Ir  Ir16  1  0.757548  0.065634  0.420598  1
  Ir  Ir17  1  0.420598  0.757548  0.065634  1
  Ir  Ir18  1  0.065634  0.420598  0.757548  1
  Ir  Ir19  1  0.242452  0.934366  0.579402  1
  Ir  Ir20  1  0.579402  0.242452  0.934366  1
  Ir  Ir21  1  0.934366  0.579402  0.242452  1
