# generated using pymatgen
data_DyMgPaZnRh2
_symmetry_space_group_name_H-M   'P 1'
_cell_length_a   3.82938700
_cell_length_b   7.24411624
_cell_length_c   8.70643969
_cell_angle_alpha   93.91581625
_cell_angle_beta   90.00000000
_cell_angle_gamma   90.00000000
_symmetry_Int_Tables_number   1
_chemical_formula_structural   DyMgPaZnRh2
_chemical_formula_sum   'Dy2 Mg2 Pa2 Zn2 Rh4'
_cell_volume   240.95736460
_cell_formula_units_Z   2
loop_
 _symmetry_equiv_pos_site_id
 _symmetry_equiv_pos_as_xyz
  1  'x, y, z'
loop_
 _atom_site_type_symbol
 _atom_site_label
 _atom_site_symmetry_multiplicity
 _atom_site_fract_x
 _atom_site_fract_y
 _atom_site_fract_z
 _atom_site_occupancy
  Dy  Dy0  1  0.250000  0.058167  0.329977  1
  Dy  Dy1  1  0.750000  0.941823  0.670032  1
  Mg  Mg2  1  0.250000  0.131213  0.936470  1
  Mg  Mg3  1  0.750000  0.868821  0.063514  1
  Pa  Pa4  1  0.250000  0.539393  0.198671  1
  Pa  Pa5  1  0.750000  0.460651  0.801305  1
  Zn  Zn6  1  0.250000  0.628909  0.555737  1
  Zn  Zn7  1  0.750000  0.371114  0.444300  1
  Rh  Rh8  1  0.750000  0.740466  0.356700  1
  Rh  Rh9  1  0.250000  0.259586  0.643266  1
  Rh  Rh10  1  0.750000  0.287573  0.130247  1
  Rh  Rh11  1  0.250000  0.712284  0.869781  1
