# generated using pymatgen
data_TbEr4(In2Au)2
_symmetry_space_group_name_H-M   'P 1'
_cell_length_a   3.64552100
_cell_length_b   8.19474900
_cell_length_c   18.39441800
_cell_angle_alpha   90.00000000
_cell_angle_beta   90.00000000
_cell_angle_gamma   90.00000000
_symmetry_Int_Tables_number   1
_chemical_formula_structural   TbEr4(In2Au)2
_chemical_formula_sum   'Tb2 Er8 In8 Au4'
_cell_volume   549.51722668
_cell_formula_units_Z   2
loop_
 _symmetry_equiv_pos_site_id
 _symmetry_equiv_pos_as_xyz
  1  'x, y, z'
loop_
 _atom_site_type_symbol
 _atom_site_label
 _atom_site_symmetry_multiplicity
 _atom_site_fract_x
 _atom_site_fract_y
 _atom_site_fract_z
 _atom_site_occupancy
  Tb  Tb0  1  0.000000  0.500000  0.500000  1
  Tb  Tb1  1  0.000000  0.000000  0.000000  1
  Er  Er2  1  0.000000  0.736961  0.281484  1
  Er  Er3  1  0.000000  0.263039  0.718516  1
  Er  Er4  1  0.000000  0.763039  0.781484  1
  Er  Er5  1  0.000000  0.236961  0.218516  1
  Er  Er6  1  0.000000  0.618896  0.080130  1
  Er  Er7  1  0.000000  0.381104  0.919870  1
  Er  Er8  1  0.000000  0.881104  0.580130  1
  Er  Er9  1  0.000000  0.118896  0.419870  1
  In  In10  1  0.500000  0.710423  0.932737  1
  In  In11  1  0.500000  0.289577  0.067263  1
  In  In12  1  0.500000  0.789577  0.432737  1
  In  In13  1  0.500000  0.210423  0.567263  1
  In  In14  1  0.500000  0.581226  0.647517  1
  In  In15  1  0.500000  0.418774  0.352483  1
  In  In16  1  0.500000  0.918774  0.147517  1
  In  In17  1  0.500000  0.081226  0.852483  1
  Au  Au18  1  0.500000  0.525755  0.196551  1
  Au  Au19  1  0.500000  0.474245  0.803449  1
  Au  Au20  1  0.500000  0.974245  0.696551  1
  Au  Au21  1  0.500000  0.025755  0.303449  1
