# generated using pymatgen
data_AcBe3AsP2
_symmetry_space_group_name_H-M   'P 1'
_cell_length_a   3.78258500
_cell_length_b   10.73275400
_cell_length_c   11.57332900
_cell_angle_alpha   90.00000000
_cell_angle_beta   90.00000000
_cell_angle_gamma   90.00000000
_symmetry_Int_Tables_number   1
_chemical_formula_structural   AcBe3AsP2
_chemical_formula_sum   'Ac4 Be12 As4 P8'
_cell_volume   469.84885238
_cell_formula_units_Z   4
loop_
 _symmetry_equiv_pos_site_id
 _symmetry_equiv_pos_as_xyz
  1  'x, y, z'
loop_
 _atom_site_type_symbol
 _atom_site_label
 _atom_site_symmetry_multiplicity
 _atom_site_fract_x
 _atom_site_fract_y
 _atom_site_fract_z
 _atom_site_occupancy
  Ac  Ac0  1  0.750000  0.936018  0.333605  1
  Ac  Ac1  1  0.250000  0.436018  0.166395  1
  Ac  Ac2  1  0.750000  0.563982  0.833605  1
  Ac  Ac3  1  0.250000  0.063982  0.666395  1
  Be  Be4  1  0.750000  0.252334  0.453789  1
  Be  Be5  1  0.250000  0.752334  0.046211  1
  Be  Be6  1  0.750000  0.247666  0.953789  1
  Be  Be7  1  0.250000  0.747666  0.546211  1
  Be  Be8  1  0.750000  0.639685  0.298430  1
  Be  Be9  1  0.250000  0.139685  0.201570  1
  Be  Be10  1  0.750000  0.860315  0.798430  1
  Be  Be11  1  0.250000  0.360315  0.701570  1
  Be  Be12  1  0.750000  0.035631  0.062525  1
  Be  Be13  1  0.250000  0.535631  0.437475  1
  Be  Be14  1  0.750000  0.464369  0.562525  1
  Be  Be15  1  0.250000  0.964369  0.937475  1
  As  As16  1  0.750000  0.652375  0.099072  1
  As  As17  1  0.250000  0.152375  0.400928  1
  As  As18  1  0.750000  0.847625  0.599072  1
  As  As19  1  0.250000  0.347625  0.900928  1
  P  P20  1  0.750000  0.443723  0.376152  1
  P  P21  1  0.250000  0.943723  0.123848  1
  P  P22  1  0.750000  0.056277  0.876152  1
  P  P23  1  0.250000  0.556277  0.623848  1
  P  P24  1  0.750000  0.218059  0.140535  1
  P  P25  1  0.250000  0.718059  0.359465  1
  P  P26  1  0.750000  0.281941  0.640535  1
  P  P27  1  0.250000  0.781941  0.859465  1
