# generated using pymatgen
data_K3NbS3O
_symmetry_space_group_name_H-M   'P 1'
_cell_length_a   6.69993200
_cell_length_b   10.85037700
_cell_length_c   13.31192300
_cell_angle_alpha   90.00000000
_cell_angle_beta   90.00000000
_cell_angle_gamma   90.00000000
_symmetry_Int_Tables_number   1
_chemical_formula_structural   K3NbS3O
_chemical_formula_sum   'K12 Nb4 S12 O4'
_cell_volume   967.73404519
_cell_formula_units_Z   4
loop_
 _symmetry_equiv_pos_site_id
 _symmetry_equiv_pos_as_xyz
  1  'x, y, z'
loop_
 _atom_site_type_symbol
 _atom_site_label
 _atom_site_symmetry_multiplicity
 _atom_site_fract_x
 _atom_site_fract_y
 _atom_site_fract_z
 _atom_site_occupancy
  K  K0  1  0.252630  0.454535  0.131215  1
  K  K1  1  0.236973  0.750000  0.365806  1
  K  K2  1  0.247370  0.954535  0.631215  1
  K  K3  1  0.752630  0.045465  0.368785  1
  K  K4  1  0.263027  0.250000  0.865806  1
  K  K5  1  0.252630  0.045465  0.131215  1
  K  K6  1  0.247370  0.545465  0.631215  1
  K  K7  1  0.736973  0.750000  0.134194  1
  K  K8  1  0.752630  0.454535  0.368785  1
  K  K9  1  0.747370  0.954535  0.868785  1
  K  K10  1  0.763027  0.250000  0.634194  1
  K  K11  1  0.747370  0.545465  0.868785  1
  Nb  Nb12  1  0.337076  0.250000  0.453999  1
  Nb  Nb13  1  0.162924  0.750000  0.953999  1
  Nb  Nb14  1  0.662924  0.750000  0.546001  1
  Nb  Nb15  1  0.837076  0.250000  0.046001  1
  S  S16  1  0.247468  0.750000  0.123978  1
  S  S17  1  0.235381  0.068171  0.378171  1
  S  S18  1  0.252532  0.250000  0.623979  1
  S  S19  1  0.235381  0.431829  0.378171  1
  S  S20  1  0.752532  0.250000  0.876021  1
  S  S21  1  0.735381  0.431829  0.121829  1
  S  S22  1  0.764619  0.568171  0.621829  1
  S  S23  1  0.735381  0.068171  0.121829  1
  S  S24  1  0.764619  0.931829  0.621829  1
  S  S25  1  0.264619  0.931829  0.878171  1
  S  S26  1  0.264619  0.568171  0.878171  1
  S  S27  1  0.747468  0.750000  0.376022  1
  O  O28  1  0.608289  0.250000  0.450019  1
  O  O29  1  0.391711  0.750000  0.549981  1
  O  O30  1  0.891711  0.750000  0.950019  1
  O  O31  1  0.108289  0.250000  0.049981  1
