# generated using pymatgen
data_Sc6Al6Cu2Si3Ge
_symmetry_space_group_name_H-M   'P 1'
_cell_length_a   6.70110100
_cell_length_b   6.70110274
_cell_length_c   7.87452200
_cell_angle_alpha   90.00000000
_cell_angle_beta   90.00000000
_cell_angle_gamma   119.99998646
_symmetry_Int_Tables_number   1
_chemical_formula_structural   Sc6Al6Cu2Si3Ge
_chemical_formula_sum   'Sc6 Al6 Cu2 Si3 Ge1'
_cell_volume   306.22971630
_cell_formula_units_Z   1
loop_
 _symmetry_equiv_pos_site_id
 _symmetry_equiv_pos_as_xyz
  1  'x, y, z'
loop_
 _atom_site_type_symbol
 _atom_site_label
 _atom_site_symmetry_multiplicity
 _atom_site_fract_x
 _atom_site_fract_y
 _atom_site_fract_z
 _atom_site_occupancy
  Sc  Sc0  1  0.594126  0.001614  0.748833  1
  Sc  Sc1  1  0.998386  0.592511  0.748833  1
  Sc  Sc2  1  0.407489  0.405874  0.748833  1
  Sc  Sc3  1  0.998356  0.592504  0.251155  1
  Sc  Sc4  1  0.594148  0.001644  0.251155  1
  Sc  Sc5  1  0.407496  0.405852  0.251155  1
  Al  Al6  1  0.762373  0.757355  0.000014  1
  Al  Al7  1  0.242645  0.005019  0.000014  1
  Al  Al8  1  0.994981  0.237627  0.000014  1
  Al  Al9  1  0.757186  0.757884  0.499980  1
  Al  Al10  1  0.242116  0.999303  0.499980  1
  Al  Al11  1  0.000697  0.242814  0.499980  1
  Cu  Cu12  1  0.000000  0.000000  0.749932  1
  Cu  Cu13  1  0.000000  0.000000  0.250104  1
  Si  Si14  1  0.666667  0.333333  0.999996  1
  Si  Si15  1  0.666667  0.333333  0.499973  1
  Si  Si16  1  0.333333  0.666667  0.499956  1
  Ge  Ge17  1  0.333333  0.666667  0.000096  1
