# generated using pymatgen
data_Y10Al3Sn3Cl2
_symmetry_space_group_name_H-M   'P 1'
_cell_length_a   9.03123346
_cell_length_b   9.02441579
_cell_length_c   6.61388700
_cell_angle_alpha   90.00000000
_cell_angle_beta   90.00000000
_cell_angle_gamma   120.24410826
_symmetry_Int_Tables_number   1
_chemical_formula_structural   Y10Al3Sn3Cl2
_chemical_formula_sum   'Y10 Al3 Sn3 Cl2'
_cell_volume   465.67189526
_cell_formula_units_Z   1
loop_
 _symmetry_equiv_pos_site_id
 _symmetry_equiv_pos_as_xyz
  1  'x, y, z'
loop_
 _atom_site_type_symbol
 _atom_site_label
 _atom_site_symmetry_multiplicity
 _atom_site_fract_x
 _atom_site_fract_y
 _atom_site_fract_z
 _atom_site_occupancy
  Y  Y0  1  0.256154  0.257469  0.750000  1
  Y  Y1  1  0.006109  0.741798  0.750000  1
  Y  Y2  1  0.741612  0.007164  0.750000  1
  Y  Y3  1  0.993675  0.254072  0.250000  1
  Y  Y4  1  0.333000  0.670881  0.501717  1
  Y  Y5  1  0.739198  0.745668  0.250000  1
  Y  Y6  1  0.666642  0.325816  0.501876  1
  Y  Y7  1  0.263515  0.000361  0.250000  1
  Y  Y8  1  0.333000  0.670881  0.998283  1
  Y  Y9  1  0.666642  0.325816  0.998124  1
  Al  Al10  1  0.603596  0.999570  0.250000  1
  Al  Al11  1  0.001341  0.394577  0.750000  1
  Al  Al12  1  0.395865  0.000339  0.750000  1
  Sn  Sn13  1  0.609602  0.608756  0.750000  1
  Sn  Sn14  1  0.998299  0.606364  0.250000  1
  Sn  Sn15  1  0.391467  0.392572  0.250000  1
  Cl  Cl16  1  0.000141  0.998948  0.000505  1
  Cl  Cl17  1  0.000141  0.998948  0.499495  1
