# generated using pymatgen
data_Sm2Lu4Co17TcP12
_symmetry_space_group_name_H-M   'P 1'
_cell_length_a   3.68332700
_cell_length_b   10.48223600
_cell_length_c   12.17176600
_cell_angle_alpha   90.00000000
_cell_angle_beta   90.00000000
_cell_angle_gamma   90.00000000
_symmetry_Int_Tables_number   1
_chemical_formula_structural   Sm2Lu4Co17TcP12
_chemical_formula_sum   'Sm2 Lu4 Co17 Tc1 P12'
_cell_volume   469.94583442
_cell_formula_units_Z   1
loop_
 _symmetry_equiv_pos_site_id
 _symmetry_equiv_pos_as_xyz
  1  'x, y, z'
loop_
 _atom_site_type_symbol
 _atom_site_label
 _atom_site_symmetry_multiplicity
 _atom_site_fract_x
 _atom_site_fract_y
 _atom_site_fract_z
 _atom_site_occupancy
  Sm  Sm0  1  0.000000  0.500000  0.525064  1
  Sm  Sm1  1  0.500000  0.000000  0.477104  1
  Lu  Lu2  1  0.500000  0.818004  0.205902  1
  Lu  Lu3  1  0.500000  0.181996  0.205902  1
  Lu  Lu4  1  0.000000  0.682490  0.795955  1
  Lu  Lu5  1  0.000000  0.317510  0.795955  1
  Co  Co6  1  0.000000  0.000000  0.841295  1
  Co  Co7  1  0.500000  0.500000  0.705742  1
  Co  Co8  1  0.000000  0.000000  0.293541  1
  Co  Co9  1  0.000000  0.500000  0.987258  1
  Co  Co10  1  0.500000  0.000000  0.014540  1
  Co  Co11  1  0.500000  0.331661  0.990624  1
  Co  Co12  1  0.500000  0.668339  0.990624  1
  Co  Co13  1  0.000000  0.166513  0.005945  1
  Co  Co14  1  0.000000  0.833487  0.005945  1
  Co  Co15  1  0.500000  0.296057  0.429454  1
  Co  Co16  1  0.500000  0.703943  0.429454  1
  Co  Co17  1  0.000000  0.203918  0.570361  1
  Co  Co18  1  0.000000  0.796082  0.570361  1
  Co  Co19  1  0.500000  0.878379  0.711247  1
  Co  Co20  1  0.500000  0.121621  0.711247  1
  Co  Co21  1  0.000000  0.621651  0.289547  1
  Co  Co22  1  0.000000  0.378349  0.289547  1
  Tc  Tc23  1  0.500000  0.500000  0.155281  1
  P  P24  1  0.500000  0.500000  0.881328  1
  P  P25  1  0.000000  0.000000  0.117318  1
  P  P26  1  0.500000  0.500000  0.346835  1
  P  P27  1  0.000000  0.000000  0.657978  1
  P  P28  1  0.500000  0.309666  0.619150  1
  P  P29  1  0.500000  0.690334  0.619150  1
  P  P30  1  0.000000  0.189824  0.381866  1
  P  P31  1  0.000000  0.810176  0.381866  1
  P  P32  1  0.500000  0.848268  0.891831  1
  P  P33  1  0.500000  0.151732  0.891831  1
  P  P34  1  0.000000  0.656970  0.106476  1
  P  P35  1  0.000000  0.343030  0.106476  1
