# generated using pymatgen
data_Hf16Co4Re3Mo
_symmetry_space_group_name_H-M   'P 1'
_cell_length_a   8.63902855
_cell_length_b   8.63349161
_cell_length_c   8.63349200
_cell_angle_alpha   60.00000617
_cell_angle_beta   60.02120540
_cell_angle_gamma   60.02120620
_symmetry_Int_Tables_number   1
_chemical_formula_structural   Hf16Co4Re3Mo
_chemical_formula_sum   'Hf16 Co4 Re3 Mo1'
_cell_volume   455.47235433
_cell_formula_units_Z   1
loop_
 _symmetry_equiv_pos_site_id
 _symmetry_equiv_pos_as_xyz
  1  'x, y, z'
loop_
 _atom_site_type_symbol
 _atom_site_label
 _atom_site_symmetry_multiplicity
 _atom_site_fract_x
 _atom_site_fract_y
 _atom_site_fract_z
 _atom_site_occupancy
  Hf  Hf0  1  0.697480  0.100840  0.100840  1
  Hf  Hf1  1  0.101407  0.697798  0.100397  1
  Hf  Hf2  1  0.101407  0.100397  0.697798  1
  Hf  Hf3  1  0.101407  0.100397  0.100397  1
  Hf  Hf4  1  0.314188  0.314369  0.685721  1
  Hf  Hf5  1  0.684278  0.686686  0.314518  1
  Hf  Hf6  1  0.314188  0.685721  0.314369  1
  Hf  Hf7  1  0.684278  0.314518  0.686686  1
  Hf  Hf8  1  0.684278  0.314518  0.314518  1
  Hf  Hf9  1  0.314188  0.685721  0.685721  1
  Hf  Hf10  1  0.954173  0.952911  0.546458  1
  Hf  Hf11  1  0.545858  0.545980  0.954081  1
  Hf  Hf12  1  0.954173  0.546458  0.952911  1
  Hf  Hf13  1  0.545858  0.954081  0.545980  1
  Hf  Hf14  1  0.545858  0.954081  0.954081  1
  Hf  Hf15  1  0.954173  0.546458  0.546458  1
  Co  Co16  1  0.328818  0.890394  0.890394  1
  Co  Co17  1  0.890329  0.329109  0.890280  1
  Co  Co18  1  0.890329  0.890280  0.329109  1
  Co  Co19  1  0.890329  0.890280  0.890280  1
  Re  Re20  1  0.333176  0.001456  0.332684  1
  Re  Re21  1  0.333176  0.332684  0.001456  1
  Re  Re22  1  0.333176  0.332684  0.332684  1
  Mo  Mo23  1  0.003474  0.332175  0.332175  1
