# generated using pymatgen
data_Th2Zr3P7Ir9
_symmetry_space_group_name_H-M   'P 1'
_cell_length_a   9.80546300
_cell_length_b   9.80546270
_cell_length_c   4.02450500
_cell_angle_alpha   90.00000000
_cell_angle_beta   90.00000000
_cell_angle_gamma   119.99999763
_symmetry_Int_Tables_number   1
_chemical_formula_structural   Th2Zr3P7Ir9
_chemical_formula_sum   'Th2 Zr3 P7 Ir9'
_cell_volume   335.10376765
_cell_formula_units_Z   1
loop_
 _symmetry_equiv_pos_site_id
 _symmetry_equiv_pos_as_xyz
  1  'x, y, z'
loop_
 _atom_site_type_symbol
 _atom_site_label
 _atom_site_symmetry_multiplicity
 _atom_site_fract_x
 _atom_site_fract_y
 _atom_site_fract_z
 _atom_site_occupancy
  Th  Th0  1  0.333333  0.666667  0.000000  1
  Th  Th1  1  0.000000  0.000000  0.500000  1
  Zr  Zr2  1  0.790613  0.231935  0.500000  1
  Zr  Zr3  1  0.768065  0.558677  0.500000  1
  Zr  Zr4  1  0.441323  0.209387  0.500000  1
  P  P5  1  0.778645  0.029177  0.000000  1
  P  P6  1  0.970823  0.749469  0.000000  1
  P  P7  1  0.250531  0.221355  0.000000  1
  P  P8  1  0.384299  0.922872  0.500000  1
  P  P9  1  0.077128  0.461427  0.500000  1
  P  P10  1  0.538573  0.615701  0.500000  1
  P  P11  1  0.666667  0.333333  0.000000  1
  Ir  Ir12  1  0.030289  0.254104  0.000000  1
  Ir  Ir13  1  0.745896  0.776186  0.000000  1
  Ir  Ir14  1  0.223814  0.969711  0.000000  1
  Ir  Ir15  1  0.548090  0.050704  0.000000  1
  Ir  Ir16  1  0.949296  0.497387  0.000000  1
  Ir  Ir17  1  0.502613  0.451910  0.000000  1
  Ir  Ir18  1  0.609055  0.882192  0.500000  1
  Ir  Ir19  1  0.117808  0.726862  0.500000  1
  Ir  Ir20  1  0.273138  0.390945  0.500000  1
