# generated using pymatgen
data_Li4Cr3RhO8
_symmetry_space_group_name_H-M   'P 1'
_cell_length_a   5.15825651
_cell_length_b   5.94863103
_cell_length_c   5.95859000
_cell_angle_alpha   59.94444905
_cell_angle_beta   89.99984403
_cell_angle_gamma   73.27534169
_symmetry_Int_Tables_number   1
_chemical_formula_structural   Li4Cr3RhO8
_chemical_formula_sum   'Li4 Cr3 Rh1 O8'
_cell_volume   149.24983756
_cell_formula_units_Z   1
loop_
 _symmetry_equiv_pos_site_id
 _symmetry_equiv_pos_as_xyz
  1  'x, y, z'
loop_
 _atom_site_type_symbol
 _atom_site_label
 _atom_site_symmetry_multiplicity
 _atom_site_fract_x
 _atom_site_fract_y
 _atom_site_fract_z
 _atom_site_occupancy
  Li  Li0  1  0.004537  0.996897  0.001542  1
  Li  Li1  1  0.995471  0.003107  0.498461  1
  Li  Li2  1  0.500008  0.999998  0.250006  1
  Li  Li3  1  0.500013  0.999998  0.749998  1
  Cr  Cr4  1  0.000018  0.499999  0.999557  1
  Cr  Cr5  1  0.999999  0.499997  0.500452  1
  Cr  Cr6  1  0.499960  0.500008  0.749993  1
  Rh  Rh7  1  0.500010  0.499996  0.249999  1
  O  O8  1  0.233921  0.269939  0.365031  1
  O  O9  1  0.242493  0.274034  0.862985  1
  O  O10  1  0.747392  0.269540  0.108829  1
  O  O11  1  0.252603  0.730458  0.391155  1
  O  O12  1  0.252599  0.730458  0.878388  1
  O  O13  1  0.766081  0.730064  0.134968  1
  O  O14  1  0.747397  0.269545  0.621619  1
  O  O15  1  0.757495  0.725961  0.637019  1
