# generated using pymatgen
data_Ca2Cd4Au3
_symmetry_space_group_name_H-M   'P 1'
_cell_length_a   4.49900400
_cell_length_b   13.03221800
_cell_length_c   14.65147200
_cell_angle_alpha   90.00000000
_cell_angle_beta   90.00000000
_cell_angle_gamma   90.00000000
_symmetry_Int_Tables_number   1
_chemical_formula_structural   Ca2Cd4Au3
_chemical_formula_sum   'Ca8 Cd16 Au12'
_cell_volume   859.04511965
_cell_formula_units_Z   4
loop_
 _symmetry_equiv_pos_site_id
 _symmetry_equiv_pos_as_xyz
  1  'x, y, z'
loop_
 _atom_site_type_symbol
 _atom_site_label
 _atom_site_symmetry_multiplicity
 _atom_site_fract_x
 _atom_site_fract_y
 _atom_site_fract_z
 _atom_site_occupancy
  Ca  Ca0  1  0.750000  0.214464  0.522481  1
  Ca  Ca1  1  0.750000  0.416363  0.293100  1
  Ca  Ca2  1  0.250000  0.785535  0.477519  1
  Ca  Ca3  1  0.250000  0.714465  0.977519  1
  Ca  Ca4  1  0.750000  0.285536  0.022481  1
  Ca  Ca5  1  0.250000  0.583637  0.706900  1
  Ca  Ca6  1  0.750000  0.083637  0.793100  1
  Ca  Ca7  1  0.250000  0.916363  0.206900  1
  Cd  Cd8  1  0.750000  0.708723  0.320602  1
  Cd  Cd9  1  0.250000  0.208723  0.179398  1
  Cd  Cd10  1  0.750000  0.367581  0.808425  1
  Cd  Cd11  1  0.250000  0.416583  0.498044  1
  Cd  Cd12  1  0.750000  0.960076  0.571791  1
  Cd  Cd13  1  0.750000  0.791277  0.820602  1
  Cd  Cd14  1  0.250000  0.291277  0.679398  1
  Cd  Cd15  1  0.750000  0.539924  0.071791  1
  Cd  Cd16  1  0.750000  0.583417  0.501956  1
  Cd  Cd17  1  0.250000  0.039924  0.428209  1
  Cd  Cd18  1  0.750000  0.916583  0.001956  1
  Cd  Cd19  1  0.250000  0.632419  0.191575  1
  Cd  Cd20  1  0.250000  0.460076  0.928209  1
  Cd  Cd21  1  0.750000  0.132419  0.308425  1
  Cd  Cd22  1  0.250000  0.083417  0.998044  1
  Cd  Cd23  1  0.250000  0.867581  0.691575  1
  Au  Au24  1  0.750000  0.754244  0.127845  1
  Au  Au25  1  0.750000  0.917507  0.373339  1
  Au  Au26  1  0.250000  0.082493  0.626661  1
  Au  Au27  1  0.750000  0.745756  0.627845  1
  Au  Au28  1  0.750000  0.582493  0.873339  1
  Au  Au29  1  0.250000  0.917237  0.876630  1
  Au  Au30  1  0.750000  0.417237  0.623370  1
  Au  Au31  1  0.250000  0.245756  0.872155  1
  Au  Au32  1  0.250000  0.582763  0.376630  1
  Au  Au33  1  0.250000  0.254244  0.372155  1
  Au  Au34  1  0.750000  0.082763  0.123370  1
  Au  Au35  1  0.250000  0.417507  0.126661  1
