# generated using pymatgen
data_MnNi10Sn(BO5)4
_symmetry_space_group_name_H-M   'P 1'
_cell_length_a   6.11730000
_cell_length_b   9.33980800
_cell_length_c   12.32170700
_cell_angle_alpha   90.00000000
_cell_angle_beta   90.00000000
_cell_angle_gamma   90.00000000
_symmetry_Int_Tables_number   1
_chemical_formula_structural   MnNi10Sn(BO5)4
_chemical_formula_sum   'Mn2 Ni20 Sn2 B8 O40'
_cell_volume   703.99342857
_cell_formula_units_Z   2
loop_
 _symmetry_equiv_pos_site_id
 _symmetry_equiv_pos_as_xyz
  1  'x, y, z'
loop_
 _atom_site_type_symbol
 _atom_site_label
 _atom_site_symmetry_multiplicity
 _atom_site_fract_x
 _atom_site_fract_y
 _atom_site_fract_z
 _atom_site_occupancy
  Mn  Mn0  1  0.250000  0.743611  0.114166  1
  Mn  Mn1  1  0.250000  0.243611  0.385834  1
  Ni  Ni2  1  0.250000  0.759003  0.612279  1
  Ni  Ni3  1  0.750000  0.988835  0.002314  1
  Ni  Ni4  1  0.750000  0.739316  0.116305  1
  Ni  Ni5  1  0.498882  0.501839  0.282213  1
  Ni  Ni6  1  0.750000  0.488835  0.497686  1
  Ni  Ni7  1  0.003976  0.497720  0.718540  1
  Ni  Ni8  1  0.001118  0.001839  0.217787  1
  Ni  Ni9  1  0.003976  0.997720  0.781460  1
  Ni  Ni10  1  0.250000  0.259003  0.887721  1
  Ni  Ni11  1  0.496024  0.497720  0.718540  1
  Ni  Ni12  1  0.250000  0.003893  0.999823  1
  Ni  Ni13  1  0.496024  0.997720  0.781460  1
  Ni  Ni14  1  0.001118  0.501839  0.282213  1
  Ni  Ni15  1  0.496009  0.003094  0.496702  1
  Ni  Ni16  1  0.498882  0.001839  0.217787  1
  Ni  Ni17  1  0.750000  0.239316  0.383695  1
  Ni  Ni18  1  0.250000  0.503893  0.500177  1
  Ni  Ni19  1  0.496009  0.503094  0.003298  1
  Ni  Ni20  1  0.003991  0.503094  0.003298  1
  Ni  Ni21  1  0.003991  0.003094  0.496702  1
  Sn  Sn22  1  0.750000  0.260786  0.884780  1
  Sn  Sn23  1  0.750000  0.760786  0.615220  1
  B  B24  1  0.750000  0.773601  0.357211  1
  B  B25  1  0.250000  0.772451  0.359181  1
  B  B26  1  0.250000  0.229629  0.638776  1
  B  B27  1  0.250000  0.272451  0.140819  1
  B  B28  1  0.250000  0.729629  0.861224  1
  B  B29  1  0.750000  0.721755  0.864616  1
  B  B30  1  0.750000  0.221755  0.635384  1
  B  B31  1  0.750000  0.273601  0.142789  1
  O  O32  1  0.485498  0.383080  0.421510  1
  O  O33  1  0.016572  0.612095  0.145024  1
  O  O34  1  0.750000  0.124878  0.141908  1
  O  O35  1  0.014502  0.883080  0.078490  1
  O  O36  1  0.250000  0.125313  0.140390  1
  O  O37  1  0.250000  0.657183  0.962520  1
  O  O38  1  0.016572  0.112095  0.354976  1
  O  O39  1  0.509232  0.110525  0.922825  1
  O  O40  1  0.750000  0.351940  0.045049  1
  O  O41  1  0.750000  0.851875  0.262478  1
  O  O42  1  0.750000  0.145497  0.734140  1
  O  O43  1  0.990768  0.610525  0.577175  1
  O  O44  1  0.250000  0.343920  0.241707  1
  O  O45  1  0.250000  0.877377  0.858811  1
  O  O46  1  0.497464  0.897009  0.641036  1
  O  O47  1  0.250000  0.377377  0.641189  1
  O  O48  1  0.250000  0.843920  0.258293  1
  O  O49  1  0.750000  0.146139  0.539445  1
  O  O50  1  0.750000  0.645497  0.765860  1
  O  O51  1  0.002536  0.897009  0.641036  1
  O  O52  1  0.750000  0.851940  0.454951  1
  O  O53  1  0.483428  0.112095  0.354976  1
  O  O54  1  0.485498  0.883080  0.078490  1
  O  O55  1  0.483428  0.612095  0.145024  1
  O  O56  1  0.002536  0.397009  0.858964  1
  O  O57  1  0.250000  0.650245  0.766617  1
  O  O58  1  0.497464  0.397009  0.858964  1
  O  O59  1  0.990768  0.110525  0.922825  1
  O  O60  1  0.250000  0.150245  0.733383  1
  O  O61  1  0.750000  0.646139  0.960555  1
  O  O62  1  0.014502  0.383080  0.421510  1
  O  O63  1  0.509232  0.610525  0.577175  1
  O  O64  1  0.750000  0.369400  0.640525  1
  O  O65  1  0.250000  0.157183  0.537480  1
  O  O66  1  0.250000  0.625313  0.359610  1
  O  O67  1  0.750000  0.869400  0.859475  1
  O  O68  1  0.250000  0.852628  0.453421  1
  O  O69  1  0.750000  0.351875  0.237522  1
  O  O70  1  0.250000  0.352628  0.046579  1
  O  O71  1  0.750000  0.624878  0.358092  1
