# generated using pymatgen
data_LiPrTm5Co17P12
_symmetry_space_group_name_H-M   'P 1'
_cell_length_a   3.70047900
_cell_length_b   10.52943200
_cell_length_c   12.14859800
_cell_angle_alpha   90.00000000
_cell_angle_beta   90.00000000
_cell_angle_gamma   90.00000000
_symmetry_Int_Tables_number   1
_chemical_formula_structural   LiPrTm5Co17P12
_chemical_formula_sum   'Li1 Pr1 Tm5 Co17 P12'
_cell_volume   473.35726783
_cell_formula_units_Z   1
loop_
 _symmetry_equiv_pos_site_id
 _symmetry_equiv_pos_as_xyz
  1  'x, y, z'
loop_
 _atom_site_type_symbol
 _atom_site_label
 _atom_site_symmetry_multiplicity
 _atom_site_fract_x
 _atom_site_fract_y
 _atom_site_fract_z
 _atom_site_occupancy
  Li  Li0  1  0.500000  0.500000  0.148686  1
  Pr  Pr1  1  0.000000  0.500000  0.523599  1
  Tm  Tm2  1  0.500000  0.000000  0.477963  1
  Tm  Tm3  1  0.500000  0.820516  0.206300  1
  Tm  Tm4  1  0.500000  0.179484  0.206300  1
  Tm  Tm5  1  0.000000  0.682463  0.795700  1
  Tm  Tm6  1  0.000000  0.317537  0.795700  1
  Co  Co7  1  0.000000  0.000000  0.840161  1
  Co  Co8  1  0.500000  0.500000  0.708380  1
  Co  Co9  1  0.000000  0.000000  0.296122  1
  Co  Co10  1  0.000000  0.500000  0.986885  1
  Co  Co11  1  0.500000  0.000000  0.012505  1
  Co  Co12  1  0.500000  0.330106  0.995082  1
  Co  Co13  1  0.500000  0.669894  0.995082  1
  Co  Co14  1  0.000000  0.164585  0.003123  1
  Co  Co15  1  0.000000  0.835415  0.003123  1
  Co  Co16  1  0.500000  0.291520  0.431037  1
  Co  Co17  1  0.500000  0.708480  0.431037  1
  Co  Co18  1  0.000000  0.198854  0.571000  1
  Co  Co19  1  0.000000  0.801146  0.571000  1
  Co  Co20  1  0.500000  0.880530  0.710409  1
  Co  Co21  1  0.500000  0.119470  0.710409  1
  Co  Co22  1  0.000000  0.623891  0.290500  1
  Co  Co23  1  0.000000  0.376109  0.290500  1
  P  P24  1  0.500000  0.500000  0.885717  1
  P  P25  1  0.000000  0.000000  0.117309  1
  P  P26  1  0.500000  0.500000  0.339755  1
  P  P27  1  0.000000  0.000000  0.654888  1
  P  P28  1  0.500000  0.306192  0.619384  1
  P  P29  1  0.500000  0.693808  0.619384  1
  P  P30  1  0.000000  0.187411  0.384199  1
  P  P31  1  0.000000  0.812589  0.384199  1
  P  P32  1  0.500000  0.847659  0.891449  1
  P  P33  1  0.500000  0.152341  0.891449  1
  P  P34  1  0.000000  0.658866  0.105829  1
  P  P35  1  0.000000  0.341134  0.105829  1
