# generated using pymatgen
data_Ac3(InPt)4
_symmetry_space_group_name_H-M   'P 1'
_cell_length_a   8.92192291
_cell_length_b   8.92192186
_cell_length_c   8.92192133
_cell_angle_alpha   151.06821984
_cell_angle_beta   126.26497028
_cell_angle_gamma   62.17862434
_symmetry_Int_Tables_number   1
_chemical_formula_structural   Ac3(InPt)4
_chemical_formula_sum   'Ac3 In4 Pt4'
_cell_volume   274.63904027
_cell_formula_units_Z   1
loop_
 _symmetry_equiv_pos_site_id
 _symmetry_equiv_pos_as_xyz
  1  'x, y, z'
loop_
 _atom_site_type_symbol
 _atom_site_label
 _atom_site_symmetry_multiplicity
 _atom_site_fract_x
 _atom_site_fract_y
 _atom_site_fract_z
 _atom_site_occupancy
  Ac  Ac0  1  0.500000  0.000000  0.500000  1
  Ac  Ac1  1  0.879200  0.879200  0.000000  1
  Ac  Ac2  1  0.120800  0.120800  0.000000  1
  In  In3  1  0.479228  0.674704  0.804524  1
  In  In4  1  0.870180  0.674704  0.195476  1
  In  In5  1  0.129820  0.325296  0.804524  1
  In  In6  1  0.520772  0.325296  0.195476  1
  Pt  Pt7  1  0.280461  0.780461  0.500000  1
  Pt  Pt8  1  0.719539  0.219539  0.500000  1
  Pt  Pt9  1  0.796580  0.500000  0.296580  1
  Pt  Pt10  1  0.203420  0.500000  0.703420  1
