# generated using pymatgen
data_K4CrFe3F14
_symmetry_space_group_name_H-M   'P 1'
_cell_length_a   7.77319263
_cell_length_b   7.81114637
_cell_length_c   7.81114763
_cell_angle_alpha   121.22285295
_cell_angle_beta   116.85975389
_cell_angle_gamma   91.84383367
_symmetry_Int_Tables_number   1
_chemical_formula_structural   K4CrFe3F14
_chemical_formula_sum   'K4 Cr1 Fe3 F14'
_cell_volume   339.05012378
_cell_formula_units_Z   1
loop_
 _symmetry_equiv_pos_site_id
 _symmetry_equiv_pos_as_xyz
  1  'x, y, z'
loop_
 _atom_site_type_symbol
 _atom_site_label
 _atom_site_symmetry_multiplicity
 _atom_site_fract_x
 _atom_site_fract_y
 _atom_site_fract_z
 _atom_site_occupancy
  K  K0  1  0.500000  0.500000  0.000000  1
  K  K1  1  0.000000  0.000000  0.000000  1
  K  K2  1  0.000000  0.500000  0.000000  1
  K  K3  1  0.000000  0.000000  0.500000  1
  Cr  Cr4  1  0.000000  0.500000  0.500000  1
  Fe  Fe5  1  0.500000  0.500000  0.500000  1
  Fe  Fe6  1  0.500000  0.000000  0.000000  1
  Fe  Fe7  1  0.500000  0.000000  0.500000  1
  F  F8  1  0.877840  0.585968  0.291873  1
  F  F9  1  0.204210  0.913883  0.290328  1
  F  F10  1  0.186012  0.798890  0.757935  1
  F  F11  1  0.458434  0.700342  0.385603  1
  F  F12  1  0.458434  0.072831  0.758093  1
  F  F13  1  0.186012  0.428077  0.387122  1
  F  F14  1  0.813988  0.571923  0.612878  1
  F  F15  1  0.541566  0.927169  0.241907  1
  F  F16  1  0.541566  0.299658  0.614397  1
  F  F17  1  0.813988  0.201110  0.242065  1
  F  F18  1  0.391705  0.246505  0.145200  1
  F  F19  1  0.122160  0.414032  0.708127  1
  F  F20  1  0.795790  0.086117  0.709672  1
  F  F21  1  0.608295  0.753495  0.854800  1
