# generated using pymatgen
data_Yb2HoTm(FeB4)4
_symmetry_space_group_name_H-M   'P 1'
_cell_length_a   3.34382000
_cell_length_b   5.87547135
_cell_length_c   11.36417953
_cell_angle_alpha   89.90054096
_cell_angle_beta   90.00000000
_cell_angle_gamma   90.00000000
_symmetry_Int_Tables_number   1
_chemical_formula_structural   Yb2HoTm(FeB4)4
_chemical_formula_sum   'Yb2 Ho1 Tm1 Fe4 B16'
_cell_volume   223.26622836
_cell_formula_units_Z   1
loop_
 _symmetry_equiv_pos_site_id
 _symmetry_equiv_pos_as_xyz
  1  'x, y, z'
loop_
 _atom_site_type_symbol
 _atom_site_label
 _atom_site_symmetry_multiplicity
 _atom_site_fract_x
 _atom_site_fract_y
 _atom_site_fract_z
 _atom_site_occupancy
  Yb  Yb0  1  0.000000  0.626168  0.849910  1
  Yb  Yb1  1  0.000000  0.373894  0.150378  1
  Ho  Ho2  1  0.000000  0.126859  0.650725  1
  Tm  Tm3  1  0.000000  0.872984  0.349139  1
  Fe  Fe4  1  0.000000  0.128110  0.915343  1
  Fe  Fe5  1  0.000000  0.871863  0.085362  1
  Fe  Fe6  1  0.000000  0.633209  0.586683  1
  Fe  Fe7  1  0.000000  0.366948  0.412437  1
  B  B8  1  0.500000  0.361313  0.967990  1
  B  B9  1  0.500000  0.638779  0.032621  1
  B  B10  1  0.500000  0.861145  0.531206  1
  B  B11  1  0.500000  0.138752  0.467700  1
  B  B12  1  0.500000  0.475565  0.690460  1
  B  B13  1  0.500000  0.525061  0.309143  1
  B  B14  1  0.500000  0.976158  0.810126  1
  B  B15  1  0.500000  0.023398  0.190687  1
  B  B16  1  0.500000  0.281531  0.817711  1
  B  B17  1  0.500000  0.718569  0.183007  1
  B  B18  1  0.500000  0.780576  0.683588  1
  B  B19  1  0.500000  0.218457  0.316108  1
  B  B20  1  0.500000  0.389093  0.546004  1
  B  B21  1  0.500000  0.611806  0.452999  1
  B  B22  1  0.500000  0.887182  0.954201  1
  B  B23  1  0.500000  0.112581  0.046471  1
