# generated using pymatgen
data_Ca2Nd6PaRh6
_symmetry_space_group_name_H-M   'P 1'
_cell_length_a   7.66348540
_cell_length_b   7.66348525
_cell_length_c   7.66348639
_cell_angle_alpha   69.53674157
_cell_angle_beta   69.53675032
_cell_angle_gamma   69.53673350
_symmetry_Int_Tables_number   1
_chemical_formula_structural   Ca2Nd6PaRh6
_chemical_formula_sum   'Ca2 Nd6 Pa1 Rh6'
_cell_volume   381.57427710
_cell_formula_units_Z   1
loop_
 _symmetry_equiv_pos_site_id
 _symmetry_equiv_pos_as_xyz
  1  'x, y, z'
loop_
 _atom_site_type_symbol
 _atom_site_label
 _atom_site_symmetry_multiplicity
 _atom_site_fract_x
 _atom_site_fract_y
 _atom_site_fract_z
 _atom_site_occupancy
  Ca  Ca0  1  0.994140  0.994140  0.994140  1
  Ca  Ca1  1  0.799235  0.799235  0.799235  1
  Nd  Nd2  1  0.156043  0.394706  0.666067  1
  Nd  Nd3  1  0.666067  0.156043  0.394706  1
  Nd  Nd4  1  0.394706  0.666067  0.156043  1
  Nd  Nd5  1  0.843404  0.608550  0.332832  1
  Nd  Nd6  1  0.332832  0.843404  0.608550  1
  Nd  Nd7  1  0.608550  0.332832  0.843404  1
  Pa  Pa8  1  0.190547  0.190547  0.190547  1
  Rh  Rh9  1  0.972940  0.186514  0.545426  1
  Rh  Rh10  1  0.545426  0.972940  0.186514  1
  Rh  Rh11  1  0.186514  0.545426  0.972940  1
  Rh  Rh12  1  0.058034  0.851505  0.400057  1
  Rh  Rh13  1  0.400057  0.058034  0.851505  1
  Rh  Rh14  1  0.851505  0.400057  0.058034  1
