# generated using pymatgen
data_Ca4Mn5Cr3(P2O9)4
_symmetry_space_group_name_H-M   'P 1'
_cell_length_a   6.45827600
_cell_length_b   7.43104395
_cell_length_c   14.41310601
_cell_angle_alpha   90.44312552
_cell_angle_beta   90.00000000
_cell_angle_gamma   90.00000000
_symmetry_Int_Tables_number   1
_chemical_formula_structural   Ca4Mn5Cr3(P2O9)4
_chemical_formula_sum   'Ca4 Mn5 Cr3 P8 O36'
_cell_volume   691.68924538
_cell_formula_units_Z   1
loop_
 _symmetry_equiv_pos_site_id
 _symmetry_equiv_pos_as_xyz
  1  'x, y, z'
loop_
 _atom_site_type_symbol
 _atom_site_label
 _atom_site_symmetry_multiplicity
 _atom_site_fract_x
 _atom_site_fract_y
 _atom_site_fract_z
 _atom_site_occupancy
  Ca  Ca0  1  0.750000  0.886408  0.778821  1
  Ca  Ca1  1  0.750000  0.612817  0.279518  1
  Ca  Ca2  1  0.250000  0.386967  0.720556  1
  Ca  Ca3  1  0.250000  0.112181  0.220623  1
  Mn  Mn4  1  0.750000  0.353434  0.883076  1
  Mn  Mn5  1  0.500555  0.995175  0.999981  1
  Mn  Mn6  1  0.499862  0.499215  0.500254  1
  Mn  Mn7  1  0.000138  0.499215  0.500254  1
  Mn  Mn8  1  0.999445  0.995175  0.999981  1
  Cr  Cr9  1  0.250000  0.649060  0.120804  1
  Cr  Cr10  1  0.250000  0.853078  0.619528  1
  Cr  Cr11  1  0.750000  0.148098  0.379613  1
  P  P12  1  0.250000  0.369812  0.934413  1
  P  P13  1  0.750000  0.627827  0.065755  1
  P  P14  1  0.750000  0.870123  0.565246  1
  P  P15  1  0.250000  0.130712  0.434274  1
  P  P16  1  0.750000  0.403796  0.694744  1
  P  P17  1  0.750000  0.104963  0.194424  1
  P  P18  1  0.250000  0.893228  0.805065  1
  P  P19  1  0.250000  0.606195  0.305816  1
  O  O20  1  0.053369  0.597913  0.366633  1
  O  O21  1  0.553586  0.397525  0.633529  1
  O  O22  1  0.946390  0.095573  0.133578  1
  O  O23  1  0.446545  0.900444  0.865904  1
  O  O24  1  0.946414  0.397525  0.633529  1
  O  O25  1  0.446631  0.597913  0.366633  1
  O  O26  1  0.053455  0.900444  0.865904  1
  O  O27  1  0.553610  0.095573  0.133578  1
  O  O28  1  0.250000  0.311177  0.489557  1
  O  O29  1  0.750000  0.686851  0.512445  1
  O  O30  1  0.750000  0.802358  0.008011  1
  O  O31  1  0.250000  0.187528  0.985973  1
  O  O32  1  0.750000  0.110964  0.948809  1
  O  O33  1  0.250000  0.881752  0.054936  1
  O  O34  1  0.250000  0.617514  0.554320  1
  O  O35  1  0.750000  0.382148  0.445781  1
  O  O36  1  0.750000  0.233439  0.760769  1
  O  O37  1  0.250000  0.781364  0.245856  1
  O  O38  1  0.250000  0.719260  0.743140  1
  O  O39  1  0.750000  0.280629  0.255239  1
  O  O40  1  0.438259  0.130143  0.366694  1
  O  O41  1  0.938560  0.874604  0.632584  1
  O  O42  1  0.561928  0.628790  0.133118  1
  O  O43  1  0.061894  0.376463  0.866556  1
  O  O44  1  0.561440  0.874604  0.632584  1
  O  O45  1  0.061741  0.130143  0.366694  1
  O  O46  1  0.438106  0.376463  0.866556  1
  O  O47  1  0.938072  0.628790  0.133118  1
  O  O48  1  0.750000  0.462349  0.002364  1
  O  O49  1  0.250000  0.044885  0.729913  1
  O  O50  1  0.250000  0.455572  0.228984  1
  O  O51  1  0.750000  0.562807  0.764137  1
  O  O52  1  0.750000  0.024902  0.497997  1
  O  O53  1  0.250000  0.972524  0.499464  1
  O  O54  1  0.250000  0.526415  0.001763  1
  O  O55  1  0.750000  0.955175  0.270606  1
