# generated using pymatgen
data_Sc6NbAl13Os7W2
_symmetry_space_group_name_H-M   'P 1'
_cell_length_a   8.82641420
_cell_length_b   8.82641359
_cell_length_c   8.83963610
_cell_angle_alpha   59.81536443
_cell_angle_beta   59.81536808
_cell_angle_gamma   59.85086293
_symmetry_Int_Tables_number   1
_chemical_formula_structural   Sc6NbAl13Os7W2
_chemical_formula_sum   'Sc6 Nb1 Al13 Os7 W2'
_cell_volume   485.04403501
_cell_formula_units_Z   1
loop_
 _symmetry_equiv_pos_site_id
 _symmetry_equiv_pos_as_xyz
  1  'x, y, z'
loop_
 _atom_site_type_symbol
 _atom_site_label
 _atom_site_symmetry_multiplicity
 _atom_site_fract_x
 _atom_site_fract_y
 _atom_site_fract_z
 _atom_site_occupancy
  Sc  Sc0  1  0.712417  0.712417  0.277892  1
  Sc  Sc1  1  0.291144  0.710584  0.289713  1
  Sc  Sc2  1  0.710584  0.291144  0.289713  1
  Sc  Sc3  1  0.289608  0.289608  0.711875  1
  Sc  Sc4  1  0.713347  0.277192  0.713825  1
  Sc  Sc5  1  0.277192  0.713347  0.713825  1
  Nb  Nb6  1  0.877447  0.877447  0.363096  1
  Al  Al7  1  0.880082  0.880082  0.880739  1
  Al  Al8  1  0.121366  0.121366  0.636884  1
  Al  Al9  1  0.120912  0.638140  0.121179  1
  Al  Al10  1  0.638140  0.120912  0.121179  1
  Al  Al11  1  0.121939  0.121939  0.122536  1
  Al  Al12  1  0.665950  0.665950  0.009026  1
  Al  Al13  1  0.665198  0.009547  0.666153  1
  Al  Al14  1  0.009547  0.665198  0.666153  1
  Al  Al15  1  0.657577  0.657577  0.657569  1
  Al  Al16  1  0.335418  0.335418  0.996436  1
  Al  Al17  1  0.335697  0.996600  0.335187  1
  Al  Al18  1  0.996600  0.335697  0.335187  1
  Al  Al19  1  0.335536  0.335536  0.335161  1
  Os  Os20  1  0.006668  0.006668  0.996626  1
  Os  Os21  1  0.998786  0.998786  0.499858  1
  Os  Os22  1  0.500792  0.997001  0.507294  1
  Os  Os23  1  0.997001  0.500792  0.507294  1
  Os  Os24  1  0.505083  0.505083  0.995665  1
  Os  Os25  1  0.998095  0.497023  0.998083  1
  Os  Os26  1  0.497023  0.998095  0.998083  1
  W  W27  1  0.875748  0.365108  0.876887  1
  W  W28  1  0.365108  0.875748  0.876887  1
