# generated using pymatgen
data_LiTb2PrAg2Ge3
_symmetry_space_group_name_H-M   'P 1'
_cell_length_a   7.24629792
_cell_length_b   7.24629701
_cell_length_c   4.31223500
_cell_angle_alpha   90.00000000
_cell_angle_beta   90.00000000
_cell_angle_gamma   120.94472180
_symmetry_Int_Tables_number   1
_chemical_formula_structural   LiTb2PrAg2Ge3
_chemical_formula_sum   'Li1 Tb2 Pr1 Ag2 Ge3'
_cell_volume   194.20115913
_cell_formula_units_Z   1
loop_
 _symmetry_equiv_pos_site_id
 _symmetry_equiv_pos_as_xyz
  1  'x, y, z'
loop_
 _atom_site_type_symbol
 _atom_site_label
 _atom_site_symmetry_multiplicity
 _atom_site_fract_x
 _atom_site_fract_y
 _atom_site_fract_z
 _atom_site_occupancy
  Li  Li0  1  0.770002  0.770002  0.500000  1
  Tb  Tb1  1  0.003510  0.582412  0.000000  1
  Tb  Tb2  1  0.582412  0.003510  0.000000  1
  Pr  Pr3  1  0.417009  0.417009  0.000000  1
  Ag  Ag4  1  0.242782  0.994931  0.500000  1
  Ag  Ag5  1  0.994931  0.242782  0.500000  1
  Ge  Ge6  1  0.982977  0.982977  0.000000  1
  Ge  Ge7  1  0.670969  0.335408  0.500000  1
  Ge  Ge8  1  0.335408  0.670969  0.500000  1
