# generated using pymatgen
data_Y7ErTi12Si15As
_symmetry_space_group_name_H-M   'P 1'
_cell_length_a   7.06335993
_cell_length_b   7.05542788
_cell_length_c   12.97713702
_cell_angle_alpha   89.99916932
_cell_angle_beta   89.82789517
_cell_angle_gamma   89.93301079
_symmetry_Int_Tables_number   1
_chemical_formula_structural   Y7ErTi12Si15As
_chemical_formula_sum   'Y7 Er1 Ti12 Si15 As1'
_cell_volume   646.71260894
_cell_formula_units_Z   1
loop_
 _symmetry_equiv_pos_site_id
 _symmetry_equiv_pos_as_xyz
  1  'x, y, z'
loop_
 _atom_site_type_symbol
 _atom_site_label
 _atom_site_symmetry_multiplicity
 _atom_site_fract_x
 _atom_site_fract_y
 _atom_site_fract_z
 _atom_site_occupancy
  Y  Y0  1  0.341196  0.001812  0.465964  1
  Y  Y1  1  0.497307  0.842483  0.717553  1
  Y  Y2  1  0.502365  0.158993  0.216191  1
  Y  Y3  1  0.840260  0.496817  0.283018  1
  Y  Y4  1  0.158933  0.501280  0.783358  1
  Y  Y5  1  0.661276  0.994887  0.967899  1
  Y  Y6  1  0.999424  0.343208  0.531981  1
  Er  Er7  1  0.999149  0.659044  0.033642  1
  Ti  Ti8  1  0.325798  0.327036  0.999914  1
  Ti  Ti9  1  0.172932  0.826646  0.249683  1
  Ti  Ti10  1  0.823736  0.173927  0.750362  1
  Ti  Ti11  1  0.672706  0.672911  0.500014  1
  Ti  Ti12  1  0.154125  0.009795  0.875962  1
  Ti  Ti13  1  0.491577  0.651755  0.125780  1
  Ti  Ti14  1  0.508994  0.347127  0.627397  1
  Ti  Ti15  1  0.655117  0.495428  0.875281  1
  Ti  Ti16  1  0.346932  0.507922  0.373475  1
  Ti  Ti17  1  0.847006  0.992006  0.375612  1
  Ti  Ti18  1  0.008290  0.151385  0.123833  1
  Ti  Ti19  1  0.989297  0.843858  0.622815  1
  Si  Si20  1  0.368341  0.702674  0.934339  1
  Si  Si21  1  0.628712  0.297982  0.434899  1
  Si  Si22  1  0.703960  0.370969  0.066030  1
  Si  Si23  1  0.297867  0.629981  0.565554  1
  Si  Si24  1  0.798028  0.868758  0.184145  1
  Si  Si25  1  0.130118  0.202347  0.315420  1
  Si  Si26  1  0.871093  0.797917  0.815517  1
  Si  Si27  1  0.290164  0.951960  0.064440  1
  Si  Si28  1  0.547247  0.789956  0.314232  1
  Si  Si29  1  0.462226  0.212204  0.819844  1
  Si  Si30  1  0.790010  0.547124  0.685522  1
  Si  Si31  1  0.208714  0.453113  0.185018  1
  Si  Si32  1  0.708752  0.046502  0.564151  1
  Si  Si33  1  0.953757  0.291638  0.935892  1
  Si  Si34  1  0.046983  0.710034  0.434685  1
  As  As35  1  0.197611  0.128528  0.680579  1
