# generated using pymatgen
data_Th2TlSe6
_symmetry_space_group_name_H-M   'P 1'
_cell_length_a   11.75909618
_cell_length_b   11.75909664
_cell_length_c   11.75909600
_cell_angle_alpha   159.18210851
_cell_angle_beta   152.51456876
_cell_angle_gamma   34.73029332
_symmetry_Int_Tables_number   1
_chemical_formula_structural   Th2TlSe6
_chemical_formula_sum   'Th2 Tl1 Se6'
_cell_volume   266.43578739
_cell_formula_units_Z   1
loop_
 _symmetry_equiv_pos_site_id
 _symmetry_equiv_pos_as_xyz
  1  'x, y, z'
loop_
 _atom_site_type_symbol
 _atom_site_label
 _atom_site_symmetry_multiplicity
 _atom_site_fract_x
 _atom_site_fract_y
 _atom_site_fract_z
 _atom_site_occupancy
  Th  Th0  1  0.322300  0.822300  0.500000  1
  Th  Th1  1  0.677700  0.177700  0.500000  1
  Tl  Tl2  1  0.000000  0.000000  0.000000  1
  Se  Se3  1  0.228289  0.228289  0.000000  1
  Se  Se4  1  0.359641  0.604982  0.754660  1
  Se  Se5  1  0.640359  0.395018  0.245340  1
  Se  Se6  1  0.149678  0.395018  0.754660  1
  Se  Se7  1  0.850322  0.604982  0.245340  1
  Se  Se8  1  0.771711  0.771711  0.000000  1
