# generated using pymatgen
data_Tm2CrFe3(PIr)6
_symmetry_space_group_name_H-M   'P 1'
_cell_length_a   3.83162000
_cell_length_b   10.59664100
_cell_length_c   12.35194600
_cell_angle_alpha   90.00000000
_cell_angle_beta   90.00000000
_cell_angle_gamma   90.00000000
_symmetry_Int_Tables_number   1
_chemical_formula_structural   Tm2CrFe3(PIr)6
_chemical_formula_sum   'Tm4 Cr2 Fe6 P12 Ir12'
_cell_volume   501.51743670
_cell_formula_units_Z   2
loop_
 _symmetry_equiv_pos_site_id
 _symmetry_equiv_pos_as_xyz
  1  'x, y, z'
loop_
 _atom_site_type_symbol
 _atom_site_label
 _atom_site_symmetry_multiplicity
 _atom_site_fract_x
 _atom_site_fract_y
 _atom_site_fract_z
 _atom_site_occupancy
  Tm  Tm0  1  0.250000  0.573847  0.711846  1
  Tm  Tm1  1  0.250000  0.926153  0.211846  1
  Tm  Tm2  1  0.750000  0.411784  0.289267  1
  Tm  Tm3  1  0.750000  0.088216  0.789267  1
  Cr  Cr4  1  0.750000  0.292929  0.010149  1
  Cr  Cr5  1  0.750000  0.207071  0.510149  1
  Fe  Fe6  1  0.750000  0.122527  0.304515  1
  Fe  Fe7  1  0.750000  0.377473  0.804515  1
  Fe  Fe8  1  0.250000  0.464688  0.935740  1
  Fe  Fe9  1  0.250000  0.035312  0.435740  1
  Fe  Fe10  1  0.750000  0.545942  0.062156  1
  Fe  Fe11  1  0.750000  0.954058  0.562156  1
  P  P12  1  0.250000  0.425955  0.105136  1
  P  P13  1  0.250000  0.074045  0.605136  1
  P  P14  1  0.750000  0.558228  0.886182  1
  P  P15  1  0.750000  0.941772  0.386182  1
  P  P16  1  0.250000  0.277278  0.865872  1
  P  P17  1  0.250000  0.222722  0.365872  1
  P  P18  1  0.750000  0.735065  0.132994  1
  P  P19  1  0.750000  0.764935  0.632994  1
  P  P20  1  0.250000  0.592743  0.388612  1
  P  P21  1  0.250000  0.907257  0.888612  1
  P  P22  1  0.750000  0.397428  0.621548  1
  P  P23  1  0.750000  0.102572  0.121548  1
  Ir  Ir24  1  0.250000  0.716513  0.987363  1
  Ir  Ir25  1  0.250000  0.783487  0.487363  1
  Ir  Ir26  1  0.250000  0.399842  0.476617  1
  Ir  Ir27  1  0.250000  0.100158  0.976617  1
  Ir  Ir28  1  0.750000  0.589432  0.520870  1
  Ir  Ir29  1  0.750000  0.910568  0.020870  1
  Ir  Ir30  1  0.250000  0.227370  0.175526  1
  Ir  Ir31  1  0.250000  0.272630  0.675526  1
  Ir  Ir32  1  0.750000  0.761425  0.823482  1
  Ir  Ir33  1  0.750000  0.738575  0.323482  1
  Ir  Ir34  1  0.250000  0.886895  0.702126  1
  Ir  Ir35  1  0.250000  0.613105  0.202126  1
