# generated using pymatgen
data_CeLu19(IrPt2)4
_symmetry_space_group_name_H-M   'P 1'
_cell_length_a   10.82944500
_cell_length_b   10.83024420
_cell_length_c   6.26144600
_cell_angle_alpha   89.99582062
_cell_angle_beta   89.99886778
_cell_angle_gamma   90.01020500
_symmetry_Int_Tables_number   1
_chemical_formula_structural   CeLu19(IrPt2)4
_chemical_formula_sum   'Ce1 Lu19 Ir4 Pt8'
_cell_volume   734.37702354
_cell_formula_units_Z   1
loop_
 _symmetry_equiv_pos_site_id
 _symmetry_equiv_pos_as_xyz
  1  'x, y, z'
loop_
 _atom_site_type_symbol
 _atom_site_label
 _atom_site_symmetry_multiplicity
 _atom_site_fract_x
 _atom_site_fract_y
 _atom_site_fract_z
 _atom_site_occupancy
  Ce  Ce0  1  0.086549  0.295177  0.125342  1
  Lu  Lu1  1  0.296180  0.085142  0.375926  1
  Lu  Lu2  1  0.295833  0.913758  0.875258  1
  Lu  Lu3  1  0.704159  0.085650  0.873875  1
  Lu  Lu4  1  0.704771  0.913030  0.374332  1
  Lu  Lu5  1  0.586882  0.795107  0.874426  1
  Lu  Lu6  1  0.586136  0.204821  0.373835  1
  Lu  Lu7  1  0.414415  0.795425  0.374879  1
  Lu  Lu8  1  0.413677  0.204565  0.873684  1
  Lu  Lu9  1  0.206348  0.416057  0.625076  1
  Lu  Lu10  1  0.206397  0.590523  0.126043  1
  Lu  Lu11  1  0.791380  0.414845  0.125809  1
  Lu  Lu12  1  0.794736  0.585976  0.626367  1
  Lu  Lu13  1  0.913757  0.703911  0.125662  1
  Lu  Lu14  1  0.910356  0.295583  0.625497  1
  Lu  Lu15  1  0.087174  0.703854  0.625465  1
  Lu  Lu16  1  0.999579  0.999149  0.500034  1
  Lu  Lu17  1  0.998903  0.997409  0.999255  1
  Lu  Lu18  1  0.499833  0.500929  0.998983  1
  Lu  Lu19  1  0.500592  0.500543  0.499786  1
  Ir  Ir20  1  0.500766  0.999520  0.120791  1
  Ir  Ir21  1  0.500527  0.999888  0.620371  1
  Ir  Ir22  1  0.999351  0.500857  0.880175  1
  Ir  Ir23  1  0.999453  0.499913  0.379512  1
  Pt  Pt24  1  0.843880  0.152743  0.250715  1
  Pt  Pt25  1  0.846506  0.845495  0.749791  1
  Pt  Pt26  1  0.154683  0.152293  0.747105  1
  Pt  Pt27  1  0.154154  0.846581  0.250865  1
  Pt  Pt28  1  0.653119  0.346010  0.750085  1
  Pt  Pt29  1  0.653843  0.653718  0.249872  1
  Pt  Pt30  1  0.349333  0.347340  0.251028  1
  Pt  Pt31  1  0.346724  0.654189  0.750156  1
