# generated using pymatgen
data_Mn2Tl3(PO4)3
_symmetry_space_group_name_H-M   'P 1'
_cell_length_a   9.56759586
_cell_length_b   9.56759529
_cell_length_c   16.98186200
_cell_angle_alpha   65.64571363
_cell_angle_beta   65.64571517
_cell_angle_gamma   60.32502205
_symmetry_Int_Tables_number   1
_chemical_formula_structural   Mn2Tl3(PO4)3
_chemical_formula_sum   'Mn8 Tl12 P12 O48'
_cell_volume   1187.10081558
_cell_formula_units_Z   4
loop_
 _symmetry_equiv_pos_site_id
 _symmetry_equiv_pos_as_xyz
  1  'x, y, z'
loop_
 _atom_site_type_symbol
 _atom_site_label
 _atom_site_symmetry_multiplicity
 _atom_site_fract_x
 _atom_site_fract_y
 _atom_site_fract_z
 _atom_site_occupancy
  Mn  Mn0  1  0.821357  0.829588  0.822587  1
  Mn  Mn1  1  0.829588  0.821357  0.322587  1
  Mn  Mn2  1  0.178643  0.170412  0.177413  1
  Mn  Mn3  1  0.782723  0.280684  0.962856  1
  Mn  Mn4  1  0.719316  0.217277  0.537144  1
  Mn  Mn5  1  0.280684  0.782723  0.462856  1
  Mn  Mn6  1  0.170412  0.178643  0.677413  1
  Mn  Mn7  1  0.217277  0.719316  0.037144  1
  Tl  Tl8  1  0.303015  0.545019  0.692138  1
  Tl  Tl9  1  0.086003  0.326529  0.412886  1
  Tl  Tl10  1  0.705041  0.294959  0.750000  1
  Tl  Tl11  1  0.545019  0.303015  0.192138  1
  Tl  Tl12  1  0.326529  0.086003  0.912886  1
  Tl  Tl13  1  0.000000  0.500000  0.000000  1
  Tl  Tl14  1  0.294959  0.705041  0.250000  1
  Tl  Tl15  1  0.913997  0.673471  0.587114  1
  Tl  Tl16  1  0.696985  0.454981  0.307862  1
  Tl  Tl17  1  0.454981  0.696985  0.807862  1
  Tl  Tl18  1  0.500000  0.000000  0.500000  1
  Tl  Tl19  1  0.673471  0.913997  0.087114  1
  P  P20  1  0.032213  0.993265  0.623614  1
  P  P21  1  0.344765  0.402269  0.489572  1
  P  P22  1  0.993265  0.032214  0.123614  1
  P  P23  1  0.961457  0.432571  0.807281  1
  P  P24  1  0.655235  0.597731  0.510428  1
  P  P25  1  0.402269  0.344765  0.989572  1
  P  P26  1  0.597731  0.655235  0.010428  1
  P  P27  1  0.006735  0.967787  0.876386  1
  P  P28  1  0.967787  0.006735  0.376386  1
  P  P29  1  0.038543  0.567429  0.192719  1
  P  P30  1  0.432571  0.961457  0.307281  1
  P  P31  1  0.567429  0.038543  0.692719  1
  O  O32  1  0.901855  0.629794  0.276063  1
  O  O33  1  0.629794  0.901855  0.776063  1
  O  O34  1  0.773985  0.690430  0.443801  1
  O  O35  1  0.842161  0.112621  0.086540  1
  O  O36  1  0.526989  0.284984  0.494610  1
  O  O37  1  0.973979  0.592304  0.800241  1
  O  O38  1  0.887379  0.157839  0.413460  1
  O  O39  1  0.458542  0.784366  0.315616  1
  O  O40  1  0.840607  0.075521  0.933014  1
  O  O41  1  0.285732  0.558278  0.522173  1
  O  O42  1  0.592304  0.973979  0.300241  1
  O  O43  1  0.667596  0.556946  0.604402  1
  O  O44  1  0.284984  0.526989  0.994610  1
  O  O45  1  0.098145  0.370206  0.723937  1
  O  O46  1  0.690430  0.773985  0.943801  1
  O  O47  1  0.294856  0.002001  0.396702  1
  O  O48  1  0.964294  0.909143  0.216483  1
  O  O49  1  0.112621  0.842161  0.586540  1
  O  O50  1  0.705144  0.997999  0.603298  1
  O  O51  1  0.558278  0.285732  0.022173  1
  O  O52  1  0.075521  0.840607  0.433014  1
  O  O53  1  0.035706  0.090857  0.783517  1
  O  O54  1  0.556946  0.667596  0.104402  1
  O  O55  1  0.090857  0.035706  0.283517  1
  O  O56  1  0.924479  0.159393  0.566986  1
  O  O57  1  0.714268  0.441722  0.477827  1
  O  O58  1  0.002001  0.294856  0.896702  1
  O  O59  1  0.824998  0.974532  0.374070  1
  O  O60  1  0.715016  0.473011  0.005390  1
  O  O61  1  0.309570  0.226015  0.056199  1
  O  O62  1  0.997999  0.705144  0.103298  1
  O  O63  1  0.541458  0.215634  0.684384  1
  O  O64  1  0.407696  0.026021  0.699759  1
  O  O65  1  0.332404  0.443054  0.395598  1
  O  O66  1  0.215634  0.541458  0.184384  1
  O  O67  1  0.026021  0.407696  0.199759  1
  O  O68  1  0.441722  0.714268  0.977827  1
  O  O69  1  0.175002  0.025468  0.625930  1
  O  O70  1  0.157839  0.887379  0.913460  1
  O  O71  1  0.025468  0.175002  0.125930  1
  O  O72  1  0.226015  0.309570  0.556199  1
  O  O73  1  0.159393  0.924479  0.066986  1
  O  O74  1  0.909143  0.964294  0.716483  1
  O  O75  1  0.784366  0.458542  0.815616  1
  O  O76  1  0.370206  0.098145  0.223937  1
  O  O77  1  0.974532  0.824998  0.874070  1
  O  O78  1  0.443054  0.332404  0.895598  1
  O  O79  1  0.473011  0.715016  0.505390  1
