# generated using pymatgen
data_Er6RhAu7
_symmetry_space_group_name_H-M   'P 1'
_cell_length_a   7.98179368
_cell_length_b   7.98179487
_cell_length_c   7.98179409
_cell_angle_alpha   114.18559254
_cell_angle_beta   114.18559097
_cell_angle_gamma   114.18560026
_symmetry_Int_Tables_number   1
_chemical_formula_structural   Er6RhAu7
_chemical_formula_sum   'Er6 Rh1 Au7'
_cell_volume   304.64943279
_cell_formula_units_Z   1
loop_
 _symmetry_equiv_pos_site_id
 _symmetry_equiv_pos_as_xyz
  1  'x, y, z'
loop_
 _atom_site_type_symbol
 _atom_site_label
 _atom_site_symmetry_multiplicity
 _atom_site_fract_x
 _atom_site_fract_y
 _atom_site_fract_z
 _atom_site_occupancy
  Er  Er0  1  0.739552  0.617514  0.992128  1
  Er  Er1  1  0.992128  0.739552  0.617514  1
  Er  Er2  1  0.617514  0.992128  0.739552  1
  Er  Er3  1  0.260448  0.382486  0.007872  1
  Er  Er4  1  0.007872  0.260448  0.382486  1
  Er  Er5  1  0.382486  0.007872  0.260448  1
  Rh  Rh6  1  0.000000  0.000000  0.000000  1
  Au  Au7  1  0.567373  0.238560  0.076784  1
  Au  Au8  1  0.076784  0.567373  0.238560  1
  Au  Au9  1  0.238560  0.076784  0.567373  1
  Au  Au10  1  0.432627  0.761440  0.923216  1
  Au  Au11  1  0.923216  0.432627  0.761440  1
  Au  Au12  1  0.761440  0.923216  0.432627  1
  Au  Au13  1  0.500000  0.500000  0.500000  1
