# generated using pymatgen
data_K5Rb35Tl8O32
_symmetry_space_group_name_H-M   'P 1'
_cell_length_a   7.12284400
_cell_length_b   12.36858800
_cell_length_c   21.51165100
_cell_angle_alpha   90.00000000
_cell_angle_beta   90.00000000
_cell_angle_gamma   90.00000000
_symmetry_Int_Tables_number   1
_chemical_formula_structural   K5Rb35Tl8O32
_chemical_formula_sum   'K5 Rb35 Tl8 O32'
_cell_volume   1895.16618826
_cell_formula_units_Z   1
loop_
 _symmetry_equiv_pos_site_id
 _symmetry_equiv_pos_as_xyz
  1  'x, y, z'
loop_
 _atom_site_type_symbol
 _atom_site_label
 _atom_site_symmetry_multiplicity
 _atom_site_fract_x
 _atom_site_fract_y
 _atom_site_fract_z
 _atom_site_occupancy
  K  K0  1  0.104361  0.170293  0.172718  1
  K  K1  1  0.103888  0.669337  0.327696  1
  K  K2  1  0.604493  0.329161  0.172497  1
  K  K3  1  0.396092  0.170001  0.671676  1
  K  K4  1  0.895407  0.830144  0.828692  1
  Rb  Rb5  1  0.918237  0.198427  0.359433  1
  Rb  Rb6  1  0.420336  0.801903  0.139306  1
  Rb  Rb7  1  0.580150  0.698134  0.639601  1
  Rb  Rb8  1  0.079854  0.301877  0.860349  1
  Rb  Rb9  1  0.078544  0.799138  0.640118  1
  Rb  Rb10  1  0.578894  0.200743  0.860059  1
  Rb  Rb11  1  0.421278  0.299696  0.359545  1
  Rb  Rb12  1  0.920167  0.699491  0.140272  1
  Rb  Rb13  1  0.918755  0.157463  0.997290  1
  Rb  Rb14  1  0.415348  0.842989  0.502961  1
  Rb  Rb15  1  0.583903  0.656905  0.003667  1
  Rb  Rb16  1  0.083808  0.342280  0.496337  1
  Rb  Rb17  1  0.080638  0.843186  0.002281  1
  Rb  Rb18  1  0.577821  0.158217  0.497739  1
  Rb  Rb19  1  0.420912  0.342380  0.998180  1
  Rb  Rb20  1  0.921336  0.658384  0.501623  1
  Rb  Rb21  1  0.896742  0.082481  0.749366  1
  Rb  Rb22  1  0.396435  0.917487  0.750824  1
  Rb  Rb23  1  0.602499  0.582145  0.250766  1
  Rb  Rb24  1  0.102756  0.412932  0.249329  1
  Rb  Rb25  1  0.102145  0.913792  0.250050  1
  Rb  Rb26  1  0.601483  0.087820  0.248673  1
  Rb  Rb27  1  0.397686  0.412330  0.749527  1
  Rb  Rb28  1  0.897775  0.587663  0.750630  1
  Rb  Rb29  1  0.916216  0.428180  0.067815  1
  Rb  Rb30  1  0.417278  0.568748  0.432837  1
  Rb  Rb31  1  0.582110  0.932179  0.933818  1
  Rb  Rb32  1  0.082492  0.069138  0.566744  1
  Rb  Rb33  1  0.084869  0.565972  0.935958  1
  Rb  Rb34  1  0.585740  0.433876  0.564439  1
  Rb  Rb35  1  0.416866  0.071299  0.066260  1
  Rb  Rb36  1  0.913746  0.934549  0.435030  1
  Rb  Rb37  1  0.894477  0.327633  0.673169  1
  Rb  Rb38  1  0.394226  0.672378  0.827004  1
  Rb  Rb39  1  0.605508  0.827930  0.326497  1
  Tl  Tl40  1  0.823860  0.463303  0.375087  1
  Tl  Tl41  1  0.322038  0.533864  0.125396  1
  Tl  Tl42  1  0.676079  0.962995  0.624827  1
  Tl  Tl43  1  0.176383  0.037025  0.875267  1
  Tl  Tl44  1  0.180186  0.533054  0.622992  1
  Tl  Tl45  1  0.679981  0.466869  0.876975  1
  Tl  Tl46  1  0.317947  0.034451  0.375355  1
  Tl  Tl47  1  0.823349  0.968138  0.123512  1
  O  O48  1  0.808169  0.371612  0.952516  1
  O  O49  1  0.308490  0.628554  0.547509  1
  O  O50  1  0.694441  0.872655  0.048259  1
  O  O51  1  0.190096  0.128304  0.451497  1
  O  O52  1  0.195212  0.629179  0.049958  1
  O  O53  1  0.695668  0.369156  0.450640  1
  O  O54  1  0.305465  0.130019  0.951082  1
  O  O55  1  0.804088  0.869489  0.549012  1
  O  O56  1  0.868005  0.043409  0.879976  1
  O  O57  1  0.367535  0.956923  0.619969  1
  O  O58  1  0.630470  0.541579  0.120170  1
  O  O59  1  0.132122  0.456656  0.379842  1
  O  O60  1  0.131463  0.959441  0.119063  1
  O  O61  1  0.625453  0.045934  0.380887  1
  O  O62  1  0.372297  0.454644  0.881818  1
  O  O63  1  0.872641  0.545336  0.618310  1
  O  O64  1  0.746601  0.137572  0.626416  1
  O  O65  1  0.246314  0.862347  0.873703  1
  O  O66  1  0.753439  0.637897  0.373345  1
  O  O67  1  0.251888  0.357517  0.127468  1
  O  O68  1  0.239075  0.859040  0.374213  1
  O  O69  1  0.751766  0.144417  0.126243  1
  O  O70  1  0.259866  0.357721  0.624729  1
  O  O71  1  0.759509  0.642093  0.875363  1
  O  O72  1  0.728014  0.378771  0.287640  1
  O  O73  1  0.227106  0.619004  0.212767  1
  O  O74  1  0.770795  0.878314  0.712600  1
  O  O75  1  0.271091  0.121743  0.787479  1
  O  O76  1  0.271702  0.615833  0.710182  1
  O  O77  1  0.771647  0.384095  0.789819  1
  O  O78  1  0.225838  0.118401  0.287494  1
  O  O79  1  0.728639  0.883968  0.209852  1
