# generated using pymatgen
data_Tb4Tm12CdIn3Ni4
_symmetry_space_group_name_H-M   'P 1'
_cell_length_a   9.47167332
_cell_length_b   9.47986899
_cell_length_c   9.47986800
_cell_angle_alpha   60.00000345
_cell_angle_beta   59.97137604
_cell_angle_gamma   59.97138059
_symmetry_Int_Tables_number   1
_chemical_formula_structural   Tb4Tm12CdIn3Ni4
_chemical_formula_sum   'Tb4 Tm12 Cd1 In3 Ni4'
_cell_volume   601.62840338
_cell_formula_units_Z   1
loop_
 _symmetry_equiv_pos_site_id
 _symmetry_equiv_pos_as_xyz
  1  'x, y, z'
loop_
 _atom_site_type_symbol
 _atom_site_label
 _atom_site_symmetry_multiplicity
 _atom_site_fract_x
 _atom_site_fract_y
 _atom_site_fract_z
 _atom_site_occupancy
  Tb  Tb0  1  0.348791  0.349247  0.349247  1
  Tb  Tb1  1  0.348791  0.349247  0.952714  1
  Tb  Tb2  1  0.348791  0.952714  0.349247  1
  Tb  Tb3  1  0.952373  0.349209  0.349209  1
  Tm  Tm4  1  0.812101  0.187705  0.187705  1
  Tm  Tm5  1  0.187167  0.813013  0.813013  1
  Tm  Tm6  1  0.187167  0.813013  0.186809  1
  Tm  Tm7  1  0.812101  0.187705  0.812489  1
  Tm  Tm8  1  0.187167  0.186809  0.813013  1
  Tm  Tm9  1  0.812101  0.812489  0.187705  1
  Tm  Tm10  1  0.938131  0.563784  0.563784  1
  Tm  Tm11  1  0.564892  0.935791  0.935791  1
  Tm  Tm12  1  0.564892  0.935791  0.563524  1
  Tm  Tm13  1  0.938131  0.563784  0.934301  1
  Tm  Tm14  1  0.564892  0.563524  0.935791  1
  Tm  Tm15  1  0.938131  0.934301  0.563784  1
  Cd  Cd16  1  0.250442  0.583187  0.583187  1
  In  In17  1  0.581659  0.583638  0.583638  1
  In  In18  1  0.581659  0.583638  0.251064  1
  In  In19  1  0.581659  0.251064  0.583638  1
  Ni  Ni20  1  0.141209  0.141327  0.141327  1
  Ni  Ni21  1  0.141209  0.141327  0.576138  1
  Ni  Ni22  1  0.141209  0.576138  0.141327  1
  Ni  Ni23  1  0.575335  0.141555  0.141555  1
