# generated using pymatgen
data_YbY(Al5Pt3)2
_symmetry_space_group_name_H-M   'P 1'
_cell_length_a   4.09415400
_cell_length_b   7.43344940
_cell_length_c   20.55411297
_cell_angle_alpha   90.41439540
_cell_angle_beta   90.00000000
_cell_angle_gamma   90.00000000
_symmetry_Int_Tables_number   1
_chemical_formula_structural   YbY(Al5Pt3)2
_chemical_formula_sum   'Yb2 Y2 Al20 Pt12'
_cell_volume   625.52107142
_cell_formula_units_Z   2
loop_
 _symmetry_equiv_pos_site_id
 _symmetry_equiv_pos_as_xyz
  1  'x, y, z'
loop_
 _atom_site_type_symbol
 _atom_site_label
 _atom_site_symmetry_multiplicity
 _atom_site_fract_x
 _atom_site_fract_y
 _atom_site_fract_z
 _atom_site_occupancy
  Yb  Yb0  1  0.250000  0.116489  0.639845  1
  Yb  Yb1  1  0.750000  0.883511  0.360155  1
  Y  Y2  1  0.250000  0.386941  0.139724  1
  Y  Y3  1  0.750000  0.613059  0.860276  1
  Al  Al4  1  0.750000  0.351485  0.381021  1
  Al  Al5  1  0.750000  0.883991  0.983610  1
  Al  Al6  1  0.750000  0.685137  0.200189  1
  Al  Al7  1  0.250000  0.871147  0.492520  1
  Al  Al8  1  0.250000  0.630723  0.991175  1
  Al  Al9  1  0.250000  0.314863  0.799811  1
  Al  Al10  1  0.750000  0.072817  0.209074  1
  Al  Al11  1  0.250000  0.648515  0.618979  1
  Al  Al12  1  0.250000  0.572006  0.290926  1
  Al  Al13  1  0.250000  0.187534  0.299564  1
  Al  Al14  1  0.750000  0.145137  0.882183  1
  Al  Al15  1  0.250000  0.927183  0.790926  1
  Al  Al16  1  0.750000  0.369277  0.008825  1
  Al  Al17  1  0.750000  0.616721  0.483590  1
  Al  Al18  1  0.750000  0.128853  0.507480  1
  Al  Al19  1  0.250000  0.116009  0.016390  1
  Al  Al20  1  0.250000  0.854863  0.117817  1
  Al  Al21  1  0.250000  0.383279  0.516410  1
  Al  Al22  1  0.750000  0.427994  0.709074  1
  Al  Al23  1  0.750000  0.812466  0.700436  1
  Pt  Pt24  1  0.750000  0.382150  0.257988  1
  Pt  Pt25  1  0.250000  0.880250  0.240990  1
  Pt  Pt26  1  0.250000  0.617850  0.742012  1
  Pt  Pt27  1  0.750000  0.119750  0.759010  1
  Pt  Pt28  1  0.250000  0.159943  0.426477  1
  Pt  Pt29  1  0.750000  0.417996  0.584744  1
  Pt  Pt30  1  0.750000  0.081889  0.085780  1
  Pt  Pt31  1  0.250000  0.918111  0.914220  1
  Pt  Pt32  1  0.750000  0.840057  0.573523  1
  Pt  Pt33  1  0.250000  0.339100  0.926369  1
  Pt  Pt34  1  0.750000  0.660900  0.073631  1
  Pt  Pt35  1  0.250000  0.582004  0.415256  1
