# generated using pymatgen
data_NaHo2(B3Ir4)2
_symmetry_space_group_name_H-M   'P 1'
_cell_length_a   9.90186017
_cell_length_b   9.05251462
_cell_length_c   5.60882600
_cell_angle_alpha   81.30005626
_cell_angle_beta   64.64938131
_cell_angle_gamma   34.05054378
_symmetry_Int_Tables_number   1
_chemical_formula_structural   NaHo2(B3Ir4)2
_chemical_formula_sum   'Na1 Ho2 B6 Ir8'
_cell_volume   232.92091971
_cell_formula_units_Z   1
loop_
 _symmetry_equiv_pos_site_id
 _symmetry_equiv_pos_as_xyz
  1  'x, y, z'
loop_
 _atom_site_type_symbol
 _atom_site_label
 _atom_site_symmetry_multiplicity
 _atom_site_fract_x
 _atom_site_fract_y
 _atom_site_fract_z
 _atom_site_occupancy
  Na  Na0  1  0.184059  0.184059  0.815941  1
  Ho  Ho1  1  0.008064  0.008064  0.991936  1
  Ho  Ho2  1  0.820265  0.820265  0.179735  1
  B  B3  1  0.826563  0.517811  0.482189  1
  B  B4  1  0.170539  0.478626  0.521374  1
  B  B5  1  0.478626  0.170539  0.829461  1
  B  B6  1  0.668696  0.330099  0.669901  1
  B  B7  1  0.517811  0.826563  0.173437  1
  B  B8  1  0.330099  0.668696  0.331304  1
  Ir  Ir9  1  0.412579  0.412579  0.587421  1
  Ir  Ir10  1  0.585589  0.585589  0.914411  1
  Ir  Ir11  1  0.085589  0.085589  0.414411  1
  Ir  Ir12  1  0.914613  0.914613  0.585387  1
  Ir  Ir13  1  0.585014  0.585014  0.414986  1
  Ir  Ir14  1  0.248640  0.248640  0.251360  1
  Ir  Ir15  1  0.414613  0.414613  0.085387  1
  Ir  Ir16  1  0.748640  0.748640  0.751360  1
