# generated using pymatgen
data_Eu3GdMgRu
_symmetry_space_group_name_H-M   'P 1'
_cell_length_a   10.20091925
_cell_length_b   10.20091866
_cell_length_c   10.20091900
_cell_angle_alpha   59.99999566
_cell_angle_beta   59.99999758
_cell_angle_gamma   60.00000021
_symmetry_Int_Tables_number   1
_chemical_formula_structural   Eu3GdMgRu
_chemical_formula_sum   'Eu12 Gd4 Mg4 Ru4'
_cell_volume   750.59017318
_cell_formula_units_Z   4
loop_
 _symmetry_equiv_pos_site_id
 _symmetry_equiv_pos_as_xyz
  1  'x, y, z'
loop_
 _atom_site_type_symbol
 _atom_site_label
 _atom_site_symmetry_multiplicity
 _atom_site_fract_x
 _atom_site_fract_y
 _atom_site_fract_z
 _atom_site_occupancy
  Eu  Eu0  1  0.946728  0.553272  0.553272  1
  Eu  Eu1  1  0.553272  0.946728  0.946728  1
  Eu  Eu2  1  0.553272  0.946728  0.553272  1
  Eu  Eu3  1  0.946728  0.553272  0.946728  1
  Eu  Eu4  1  0.553272  0.553272  0.946728  1
  Eu  Eu5  1  0.946728  0.946728  0.553272  1
  Eu  Eu6  1  0.809355  0.190645  0.190645  1
  Eu  Eu7  1  0.190645  0.809355  0.809355  1
  Eu  Eu8  1  0.190645  0.809355  0.190645  1
  Eu  Eu9  1  0.809355  0.190645  0.809355  1
  Eu  Eu10  1  0.190645  0.190645  0.809355  1
  Eu  Eu11  1  0.809355  0.809355  0.190645  1
  Gd  Gd12  1  0.338767  0.338767  0.338767  1
  Gd  Gd13  1  0.338767  0.338767  0.983699  1
  Gd  Gd14  1  0.338767  0.983699  0.338767  1
  Gd  Gd15  1  0.983699  0.338767  0.338767  1
  Mg  Mg16  1  0.576951  0.576951  0.576951  1
  Mg  Mg17  1  0.576951  0.576951  0.269148  1
  Mg  Mg18  1  0.576951  0.269148  0.576951  1
  Mg  Mg19  1  0.269148  0.576951  0.576951  1
  Ru  Ru20  1  0.139871  0.139871  0.139871  1
  Ru  Ru21  1  0.139871  0.139871  0.580386  1
  Ru  Ru22  1  0.139871  0.580386  0.139871  1
  Ru  Ru23  1  0.580386  0.139871  0.139871  1
