# generated using pymatgen
data_Tb8Hf9Nb2Si16Ru
_symmetry_space_group_name_H-M   'P 1'
_cell_length_a   7.23513344
_cell_length_b   7.23292379
_cell_length_c   13.22097233
_cell_angle_alpha   89.91537241
_cell_angle_beta   90.17602852
_cell_angle_gamma   89.97078797
_symmetry_Int_Tables_number   1
_chemical_formula_structural   Tb8Hf9Nb2Si16Ru
_chemical_formula_sum   'Tb8 Hf9 Nb2 Si16 Ru1'
_cell_volume   691.86482254
_cell_formula_units_Z   1
loop_
 _symmetry_equiv_pos_site_id
 _symmetry_equiv_pos_as_xyz
  1  'x, y, z'
loop_
 _atom_site_type_symbol
 _atom_site_label
 _atom_site_symmetry_multiplicity
 _atom_site_fract_x
 _atom_site_fract_y
 _atom_site_fract_z
 _atom_site_occupancy
  Tb  Tb0  1  0.999040  0.344470  0.213693  1
  Tb  Tb1  1  0.004090  0.655614  0.715202  1
  Tb  Tb2  1  0.155082  0.497509  0.464597  1
  Tb  Tb3  1  0.500884  0.844859  0.034251  1
  Tb  Tb4  1  0.845755  0.501511  0.967892  1
  Tb  Tb5  1  0.496377  0.155037  0.533132  1
  Tb  Tb6  1  0.343346  0.997418  0.786903  1
  Tb  Tb7  1  0.654650  0.002284  0.284180  1
  Hf  Hf8  1  0.675603  0.323835  0.750953  1
  Hf  Hf9  1  0.146000  0.993555  0.372572  1
  Hf  Hf10  1  0.852630  0.004521  0.877445  1
  Hf  Hf11  1  0.505796  0.648717  0.623229  1
  Hf  Hf12  1  0.352151  0.495521  0.877758  1
  Hf  Hf13  1  0.495315  0.354961  0.124888  1
  Hf  Hf14  1  0.646887  0.506347  0.374206  1
  Hf  Hf15  1  0.995883  0.145581  0.625318  1
  Hf  Hf16  1  0.007151  0.851621  0.124836  1
  Nb  Nb17  1  0.823660  0.823881  0.499427  1
  Nb  Nb18  1  0.322886  0.675036  0.248962  1
  Si  Si19  1  0.360410  0.296389  0.316123  1
  Si  Si20  1  0.638366  0.705210  0.817703  1
  Si  Si21  1  0.205307  0.862091  0.565659  1
  Si  Si22  1  0.136269  0.794337  0.932838  1
  Si  Si23  1  0.794297  0.135576  0.068287  1
  Si  Si24  1  0.862053  0.205189  0.433033  1
  Si  Si25  1  0.295169  0.361454  0.683537  1
  Si  Si26  1  0.704897  0.639067  0.182882  1
  Si  Si27  1  0.293895  0.054146  0.182246  1
  Si  Si28  1  0.704611  0.949052  0.684113  1
  Si  Si29  1  0.449293  0.796031  0.433439  1
  Si  Si30  1  0.206912  0.551506  0.065382  1
  Si  Si31  1  0.549877  0.206101  0.936518  1
  Si  Si32  1  0.796576  0.451225  0.564105  1
  Si  Si33  1  0.054487  0.292987  0.818948  1
  Si  Si34  1  0.949832  0.703590  0.315192  1
  Ru  Ru35  1  0.174563  0.173774  0.000550  1
