# generated using pymatgen
data_LiDy2HoCd3Ga2
_symmetry_space_group_name_H-M   'P 1'
_cell_length_a   7.39780352
_cell_length_b   7.39780180
_cell_length_c   4.23760600
_cell_angle_alpha   90.00000000
_cell_angle_beta   90.00000000
_cell_angle_gamma   119.94874254
_symmetry_Int_Tables_number   1
_chemical_formula_structural   LiDy2HoCd3Ga2
_chemical_formula_sum   'Li1 Dy2 Ho1 Cd3 Ga2'
_cell_volume   200.94665156
_cell_formula_units_Z   1
loop_
 _symmetry_equiv_pos_site_id
 _symmetry_equiv_pos_as_xyz
  1  'x, y, z'
loop_
 _atom_site_type_symbol
 _atom_site_label
 _atom_site_symmetry_multiplicity
 _atom_site_fract_x
 _atom_site_fract_y
 _atom_site_fract_z
 _atom_site_occupancy
  Li  Li0  1  0.000333  0.000333  0.500000  1
  Dy  Dy1  1  0.576806  0.999842  0.500000  1
  Dy  Dy2  1  0.999842  0.576806  0.500000  1
  Ho  Ho3  1  0.423311  0.423311  0.500000  1
  Cd  Cd4  1  0.755256  0.755256  0.000000  1
  Cd  Cd5  1  0.244453  0.000229  0.000000  1
  Cd  Cd6  1  0.000229  0.244453  0.000000  1
  Ga  Ga7  1  0.666299  0.333471  0.000000  1
  Ga  Ga8  1  0.333471  0.666299  0.000000  1
