# generated using pymatgen
data_Lu4MgGe(B2Rh5)2
_symmetry_space_group_name_H-M   'P 1'
_cell_length_a   9.43582200
_cell_length_b   9.43582200
_cell_length_c   3.19626000
_cell_angle_alpha   90.00000000
_cell_angle_beta   90.00000000
_cell_angle_gamma   90.00000000
_symmetry_Int_Tables_number   1
_chemical_formula_structural   Lu4MgGe(B2Rh5)2
_chemical_formula_sum   'Lu4 Mg1 Ge1 B4 Rh10'
_cell_volume   284.57816789
_cell_formula_units_Z   1
loop_
 _symmetry_equiv_pos_site_id
 _symmetry_equiv_pos_as_xyz
  1  'x, y, z'
loop_
 _atom_site_type_symbol
 _atom_site_label
 _atom_site_symmetry_multiplicity
 _atom_site_fract_x
 _atom_site_fract_y
 _atom_site_fract_z
 _atom_site_occupancy
  Lu  Lu0  1  0.825521  0.325863  0.000000  1
  Lu  Lu1  1  0.325863  0.174479  0.000000  1
  Lu  Lu2  1  0.674137  0.825521  0.000000  1
  Lu  Lu3  1  0.174479  0.674137  0.000000  1
  Mg  Mg4  1  0.000000  0.000000  0.000000  1
  Ge  Ge5  1  0.500000  0.500000  0.000000  1
  B  B6  1  0.623753  0.122123  0.000000  1
  B  B7  1  0.122123  0.376247  0.000000  1
  B  B8  1  0.877877  0.623753  0.000000  1
  B  B9  1  0.376247  0.877877  0.000000  1
  Rh  Rh10  1  0.073277  0.222140  0.500000  1
  Rh  Rh11  1  0.222140  0.926723  0.500000  1
  Rh  Rh12  1  0.777860  0.073277  0.500000  1
  Rh  Rh13  1  0.926723  0.777860  0.500000  1
  Rh  Rh14  1  0.430196  0.715893  0.500000  1
  Rh  Rh15  1  0.569804  0.284107  0.500000  1
  Rh  Rh16  1  0.715893  0.569804  0.500000  1
  Rh  Rh17  1  0.284107  0.430196  0.500000  1
  Rh  Rh18  1  0.500000  0.000000  0.500000  1
  Rh  Rh19  1  0.000000  0.500000  0.500000  1
