# generated using pymatgen
data_Cs4Si8W2O23
_symmetry_space_group_name_H-M   'P 1'
_cell_length_a   7.10659060
_cell_length_b   7.92236995
_cell_length_c   11.24267777
_cell_angle_alpha   103.16429252
_cell_angle_beta   89.83532593
_cell_angle_gamma   107.42069566
_symmetry_Int_Tables_number   1
_chemical_formula_structural   Cs4Si8W2O23
_chemical_formula_sum   'Cs4 Si8 W2 O23'
_cell_volume   586.61559136
_cell_formula_units_Z   1
loop_
 _symmetry_equiv_pos_site_id
 _symmetry_equiv_pos_as_xyz
  1  'x, y, z'
loop_
 _atom_site_type_symbol
 _atom_site_label
 _atom_site_symmetry_multiplicity
 _atom_site_fract_x
 _atom_site_fract_y
 _atom_site_fract_z
 _atom_site_occupancy
  Cs  Cs0  1  0.795918  0.214576  0.987019  1
  Cs  Cs1  1  0.171295  0.718010  0.363007  1
  Cs  Cs2  1  0.828705  0.281990  0.636993  1
  Cs  Cs3  1  0.204082  0.785424  0.012981  1
  Si  Si4  1  0.341945  0.330703  0.130307  1
  Si  Si5  1  0.569989  0.141760  0.287350  1
  Si  Si6  1  0.647111  0.703476  0.501569  1
  Si  Si7  1  0.992603  0.812485  0.704922  1
  Si  Si8  1  0.430011  0.858240  0.712650  1
  Si  Si9  1  0.007397  0.187515  0.295078  1
  Si  Si10  1  0.352889  0.296524  0.498431  1
  Si  Si11  1  0.658055  0.669297  0.869693  1
  W  W12  1  0.702670  0.743986  0.186754  1
  W  W13  1  0.297330  0.256014  0.813246  1
  O  O14  1  0.456144  0.151793  0.415662  1
  O  O15  1  0.518343  0.756782  0.799997  1
  O  O16  1  0.857872  0.600516  0.151748  1
  O  O17  1  0.300666  0.215914  0.988967  1
  O  O18  1  0.869581  0.699551  0.801247  1
  O  O19  1  0.459652  0.068319  0.778338  1
  O  O20  1  0.434589  0.548773  0.148419  1
  O  O21  1  0.680150  0.740042  0.368559  1
  O  O22  1  0.565411  0.451227  0.851581  1
  O  O23  1  0.138160  0.267404  0.428041  1
  O  O24  1  0.540348  0.931681  0.221662  1
  O  O25  1  0.699334  0.784086  0.011033  1
  O  O26  1  0.130419  0.300449  0.198753  1
  O  O27  1  0.192284  0.746860  0.678497  1
  O  O28  1  0.954437  0.971683  0.242216  1
  O  O29  1  0.861840  0.732596  0.571959  1
  O  O30  1  0.500000  0.500000  0.500000  1
  O  O31  1  0.481657  0.243218  0.200003  1
  O  O32  1  0.142128  0.399484  0.848252  1
  O  O33  1  0.045563  0.028317  0.757784  1
  O  O34  1  0.807716  0.253140  0.321503  1
  O  O35  1  0.319850  0.259958  0.631441  1
  O  O36  1  0.543856  0.848207  0.584338  1
