# generated using pymatgen
data_Tb4LuOs2
_symmetry_space_group_name_H-M   'P 1'
_cell_length_a   6.35318662
_cell_length_b   7.35683459
_cell_length_c   8.41293920
_cell_angle_alpha   96.80151086
_cell_angle_beta   112.18411803
_cell_angle_gamma   89.99999367
_symmetry_Int_Tables_number   1
_chemical_formula_structural   Tb4LuOs2
_chemical_formula_sum   'Tb8 Lu2 Os4'
_cell_volume   361.11732160
_cell_formula_units_Z   2
loop_
 _symmetry_equiv_pos_site_id
 _symmetry_equiv_pos_as_xyz
  1  'x, y, z'
loop_
 _atom_site_type_symbol
 _atom_site_label
 _atom_site_symmetry_multiplicity
 _atom_site_fract_x
 _atom_site_fract_y
 _atom_site_fract_z
 _atom_site_occupancy
  Tb  Tb0  1  0.526869  0.082118  0.818260  1
  Tb  Tb1  1  0.473131  0.917882  0.181740  1
  Tb  Tb2  1  0.708609  0.417882  0.181740  1
  Tb  Tb3  1  0.291391  0.582118  0.818260  1
  Tb  Tb4  1  0.294837  0.317371  0.433747  1
  Tb  Tb5  1  0.705163  0.682629  0.566253  1
  Tb  Tb6  1  0.861090  0.182629  0.566253  1
  Tb  Tb7  1  0.138910  0.817371  0.433747  1
  Lu  Lu8  1  0.078034  0.250000  0.000000  1
  Lu  Lu9  1  0.921966  0.750000  0.000000  1
  Os  Os10  1  0.316947  0.576647  0.214499  1
  Os  Os11  1  0.683053  0.423353  0.785501  1
  Os  Os12  1  0.102447  0.923353  0.785501  1
  Os  Os13  1  0.897553  0.076647  0.214499  1
