# generated using pymatgen
data_Ce4Cd2IrPt3
_symmetry_space_group_name_H-M   'P 1'
_cell_length_a   7.85133634
_cell_length_b   7.85133634
_cell_length_c   3.73402600
_cell_angle_alpha   90.00000000
_cell_angle_beta   90.00000000
_cell_angle_gamma   89.89431639
_symmetry_Int_Tables_number   1
_chemical_formula_structural   Ce4Cd2IrPt3
_chemical_formula_sum   'Ce4 Cd2 Ir1 Pt3'
_cell_volume   230.17797411
_cell_formula_units_Z   1
loop_
 _symmetry_equiv_pos_site_id
 _symmetry_equiv_pos_as_xyz
  1  'x, y, z'
loop_
 _atom_site_type_symbol
 _atom_site_label
 _atom_site_symmetry_multiplicity
 _atom_site_fract_x
 _atom_site_fract_y
 _atom_site_fract_z
 _atom_site_occupancy
  Ce  Ce0  1  0.166542  0.333458  0.500000  1
  Ce  Ce1  1  0.338446  0.829093  0.500000  1
  Ce  Ce2  1  0.823712  0.676288  0.500000  1
  Ce  Ce3  1  0.670907  0.161554  0.500000  1
  Cd  Cd4  1  0.500668  0.499694  0.000000  1
  Cd  Cd5  1  0.000306  0.999332  0.000000  1
  Ir  Ir6  1  0.634303  0.865697  0.000000  1
  Pt  Pt7  1  0.132279  0.633546  0.000000  1
  Pt  Pt8  1  0.866454  0.367721  0.000000  1
  Pt  Pt9  1  0.366382  0.133618  0.000000  1
