# generated using pymatgen
data_Zr3Pa(InRh2)2
_symmetry_space_group_name_H-M   'P 1'
_cell_length_a   7.59668817
_cell_length_b   7.59668817
_cell_length_c   3.42409100
_cell_angle_alpha   90.00000000
_cell_angle_beta   90.00000000
_cell_angle_gamma   87.96473457
_symmetry_Int_Tables_number   1
_chemical_formula_structural   Zr3Pa(InRh2)2
_chemical_formula_sum   'Zr3 Pa1 In2 Rh4'
_cell_volume   197.47850925
_cell_formula_units_Z   1
loop_
 _symmetry_equiv_pos_site_id
 _symmetry_equiv_pos_as_xyz
  1  'x, y, z'
loop_
 _atom_site_type_symbol
 _atom_site_label
 _atom_site_symmetry_multiplicity
 _atom_site_fract_x
 _atom_site_fract_y
 _atom_site_fract_z
 _atom_site_occupancy
  Zr  Zr0  1  0.664691  0.172886  0.500000  1
  Zr  Zr1  1  0.327114  0.835309  0.500000  1
  Zr  Zr2  1  0.174568  0.325432  0.500000  1
  Pa  Pa3  1  0.832876  0.667124  0.500000  1
  In  In4  1  0.004746  0.011574  0.000000  1
  In  In5  1  0.488426  0.495254  0.000000  1
  Rh  Rh6  1  0.123892  0.635555  0.000000  1
  Rh  Rh7  1  0.864445  0.376108  0.000000  1
  Rh  Rh8  1  0.642446  0.857554  0.000000  1
  Rh  Rh9  1  0.376796  0.123204  0.000000  1
