# generated using pymatgen
data_Li8Dy2Ho6Sn7Bi
_symmetry_space_group_name_H-M   'P 1'
_cell_length_a   9.38584503
_cell_length_b   9.38633407
_cell_length_c   7.28236515
_cell_angle_alpha   90.07711232
_cell_angle_beta   89.99379451
_cell_angle_gamma   120.00293299
_symmetry_Int_Tables_number   1
_chemical_formula_structural   Li8Dy2Ho6Sn7Bi
_chemical_formula_sum   'Li8 Dy2 Ho6 Sn7 Bi1'
_cell_volume   555.59604724
_cell_formula_units_Z   1
loop_
 _symmetry_equiv_pos_site_id
 _symmetry_equiv_pos_as_xyz
  1  'x, y, z'
loop_
 _atom_site_type_symbol
 _atom_site_label
 _atom_site_symmetry_multiplicity
 _atom_site_fract_x
 _atom_site_fract_y
 _atom_site_fract_z
 _atom_site_occupancy
  Li  Li0  1  0.166417  0.333169  0.283912  1
  Li  Li1  1  0.167786  0.833474  0.288421  1
  Li  Li2  1  0.665801  0.833684  0.288199  1
  Li  Li3  1  0.833527  0.666793  0.787095  1
  Li  Li4  1  0.829312  0.164944  0.791979  1
  Li  Li5  1  0.335570  0.164752  0.791975  1
  Li  Li6  1  0.335044  0.670428  0.670718  1
  Li  Li7  1  0.666294  0.332385  0.172935  1
  Dy  Dy8  1  0.512153  0.024114  0.494029  1
  Dy  Dy9  1  0.516243  0.491325  0.491458  1
  Ho  Ho10  1  0.974946  0.491286  0.491198  1
  Ho  Ho11  1  0.487733  0.975604  0.994517  1
  Ho  Ho12  1  0.494167  0.514035  0.996194  1
  Ho  Ho13  1  0.019822  0.514037  0.996192  1
  Ho  Ho14  1  0.997325  0.994685  0.497593  1
  Ho  Ho15  1  0.997697  0.995367  0.002224  1
  Sn  Sn16  1  0.165792  0.832761  0.730271  1
  Sn  Sn17  1  0.667148  0.833038  0.730497  1
  Sn  Sn18  1  0.833700  0.666805  0.230636  1
  Sn  Sn19  1  0.834127  0.167061  0.229850  1
  Sn  Sn20  1  0.332763  0.166744  0.229256  1
  Sn  Sn21  1  0.332368  0.665482  0.259091  1
  Sn  Sn22  1  0.667827  0.334747  0.760938  1
  Bi  Bi23  1  0.166439  0.333279  0.732791  1
