# generated using pymatgen
data_Er4Al18RuRh4Au
_symmetry_space_group_name_H-M   'P 1'
_cell_length_a   7.57606718
_cell_length_b   7.57606743
_cell_length_c   9.45541969
_cell_angle_alpha   90.02821268
_cell_angle_beta   90.02821460
_cell_angle_gamma   119.61990472
_symmetry_Int_Tables_number   1
_chemical_formula_structural   Er4Al18RuRh4Au
_chemical_formula_sum   'Er4 Al18 Ru1 Rh4 Au1'
_cell_volume   471.79090071
_cell_formula_units_Z   1
loop_
 _symmetry_equiv_pos_site_id
 _symmetry_equiv_pos_as_xyz
  1  'x, y, z'
loop_
 _atom_site_type_symbol
 _atom_site_label
 _atom_site_symmetry_multiplicity
 _atom_site_fract_x
 _atom_site_fract_y
 _atom_site_fract_z
 _atom_site_occupancy
  Er  Er0  1  0.992601  0.667762  0.750417  1
  Er  Er1  1  0.002193  0.328301  0.250256  1
  Er  Er2  1  0.671699  0.997807  0.749744  1
  Er  Er3  1  0.332238  0.007399  0.249583  1
  Al  Al4  1  0.126124  0.123655  0.751106  1
  Al  Al5  1  0.876345  0.873876  0.248894  1
  Al  Al6  1  0.012902  0.337233  0.578394  1
  Al  Al7  1  0.009638  0.674094  0.421687  1
  Al  Al8  1  0.002558  0.665527  0.074699  1
  Al  Al9  1  0.334473  0.997442  0.925301  1
  Al  Al10  1  0.000513  0.334537  0.924260  1
  Al  Al11  1  0.665463  0.999487  0.075740  1
  Al  Al12  1  0.662767  0.987098  0.421606  1
  Al  Al13  1  0.325906  0.990362  0.578313  1
  Al  Al14  1  0.331189  0.331516  0.049788  1
  Al  Al15  1  0.668484  0.668811  0.950212  1
  Al  Al16  1  0.664317  0.673472  0.557557  1
  Al  Al17  1  0.326528  0.335683  0.442443  1
  Al  Al18  1  0.340866  0.553585  0.750481  1
  Al  Al19  1  0.660438  0.457802  0.241718  1
  Al  Al20  1  0.542198  0.339562  0.758282  1
  Al  Al21  1  0.446415  0.659134  0.249519  1
  Ru  Ru22  1  0.328505  0.671495  0.500000  1
  Rh  Rh23  1  0.328412  0.671588  0.000000  1
  Rh  Rh24  1  0.672898  0.327102  0.000000  1
  Rh  Rh25  1  0.000078  0.999922  0.500000  1
  Rh  Rh26  1  0.000464  0.999536  0.000000  1
  Au  Au27  1  0.673787  0.326213  0.500000  1
