# generated using pymatgen
data_Ca4Pa2O9
_symmetry_space_group_name_H-M   'P 1'
_cell_length_a   5.89234100
_cell_length_b   5.89234076
_cell_length_c   15.48395300
_cell_angle_alpha   90.00000000
_cell_angle_beta   90.00000000
_cell_angle_gamma   119.99999576
_symmetry_Int_Tables_number   1
_chemical_formula_structural   Ca4Pa2O9
_chemical_formula_sum   'Ca8 Pa4 O18'
_cell_volume   465.57346617
_cell_formula_units_Z   2
loop_
 _symmetry_equiv_pos_site_id
 _symmetry_equiv_pos_as_xyz
  1  'x, y, z'
loop_
 _atom_site_type_symbol
 _atom_site_label
 _atom_site_symmetry_multiplicity
 _atom_site_fract_x
 _atom_site_fract_y
 _atom_site_fract_z
 _atom_site_occupancy
  Ca  Ca0  1  0.333333  0.666667  0.020106  1
  Ca  Ca1  1  0.333333  0.666667  0.308381  1
  Ca  Ca2  1  0.333333  0.666667  0.808381  1
  Ca  Ca3  1  0.333333  0.666667  0.520106  1
  Ca  Ca4  1  0.666667  0.333333  0.191619  1
  Ca  Ca5  1  0.666667  0.333333  0.691619  1
  Ca  Ca6  1  0.666667  0.333333  0.479894  1
  Ca  Ca7  1  0.666667  0.333333  0.979894  1
  Pa  Pa8  1  0.000000  0.000000  0.142019  1
  Pa  Pa9  1  0.000000  0.000000  0.357981  1
  Pa  Pa10  1  0.000000  0.000000  0.642019  1
  Pa  Pa11  1  0.000000  0.000000  0.857981  1
  O  O12  1  0.000000  0.730359  0.750000  1
  O  O13  1  0.038309  0.690233  0.413653  1
  O  O14  1  0.309767  0.961691  0.913653  1
  O  O15  1  0.038309  0.348075  0.913653  1
  O  O16  1  0.000000  0.269641  0.250000  1
  O  O17  1  0.269641  0.269641  0.750000  1
  O  O18  1  0.309767  0.348075  0.413653  1
  O  O19  1  0.651925  0.961691  0.413653  1
  O  O20  1  0.348075  0.309767  0.086347  1
  O  O21  1  0.269641  0.000000  0.250000  1
  O  O22  1  0.651925  0.690233  0.913653  1
  O  O23  1  0.348075  0.038309  0.586347  1
  O  O24  1  0.690233  0.651925  0.586347  1
  O  O25  1  0.730359  0.730359  0.250000  1
  O  O26  1  0.961691  0.651925  0.086347  1
  O  O27  1  0.690233  0.038309  0.086347  1
  O  O28  1  0.730359  0.000000  0.750000  1
  O  O29  1  0.961691  0.309767  0.586347  1
