# generated using pymatgen
data_Th10Si16Ni
_symmetry_space_group_name_H-M   'P 1'
_cell_length_a   11.37838335
_cell_length_b   11.37954397
_cell_length_c   11.37838395
_cell_angle_alpha   144.06150738
_cell_angle_beta   136.70014696
_cell_angle_gamma   57.48979605
_symmetry_Int_Tables_number   1
_chemical_formula_structural   Th10Si16Ni
_chemical_formula_sum   'Th10 Si16 Ni1'
_cell_volume   588.09181135
_cell_formula_units_Z   1
loop_
 _symmetry_equiv_pos_site_id
 _symmetry_equiv_pos_as_xyz
  1  'x, y, z'
loop_
 _atom_site_type_symbol
 _atom_site_label
 _atom_site_symmetry_multiplicity
 _atom_site_fract_x
 _atom_site_fract_y
 _atom_site_fract_z
 _atom_site_occupancy
  Th  Th0  1  0.052770  0.567690  0.017313  1
  Th  Th1  1  0.350607  0.370030  0.520900  1
  Th  Th2  1  0.149190  0.163420  0.516167  1
  Th  Th3  1  0.452352  0.964267  0.018851  1
  Th  Th4  1  0.647255  0.163420  0.014231  1
  Th  Th5  1  0.945415  0.964267  0.511914  1
  Th  Th6  1  0.849130  0.370030  0.019422  1
  Th  Th7  1  0.550378  0.567690  0.514920  1
  Th  Th8  1  0.247534  0.762675  0.007812  1
  Th  Th9  1  0.754863  0.762675  0.515141  1
  Si  Si10  1  0.110830  0.062720  0.951889  1
  Si  Si11  1  0.802019  0.226108  0.424089  1
  Si  Si12  1  0.299246  0.898148  0.598902  1
  Si  Si13  1  0.400979  0.501335  0.100355  1
  Si  Si14  1  0.894902  0.829467  0.934565  1
  Si  Si15  1  0.101653  0.704488  0.602835  1
  Si  Si16  1  0.199944  0.597192  0.397248  1
  Si  Si17  1  0.699510  0.299025  0.599516  1
  Si  Si18  1  0.996389  0.434378  0.437989  1
  Si  Si19  1  0.706761  0.652488  0.945727  1
  Si  Si20  1  0.598235  0.698910  0.100675  1
  Si  Si21  1  0.000802  0.093266  0.092464  1
  Si  Si22  1  0.498354  0.394776  0.896422  1
  Si  Si23  1  0.292283  0.241551  0.949268  1
  Si  Si24  1  0.590695  0.039871  0.449174  1
  Si  Si25  1  0.409011  0.856538  0.447527  1
  Ni  Ni26  1  0.898894  0.502495  0.603603  1
