# generated using pymatgen
data_Ho16MgHg3(RuRh)2
_symmetry_space_group_name_H-M   'P 1'
_cell_length_a   9.58289102
_cell_length_b   9.55890356
_cell_length_c   9.61948000
_cell_angle_alpha   59.79014560
_cell_angle_beta   59.87361581
_cell_angle_gamma   59.69919902
_symmetry_Int_Tables_number   1
_chemical_formula_structural   Ho16MgHg3(RuRh)2
_chemical_formula_sum   'Ho16 Mg1 Hg3 Ru2 Rh2'
_cell_volume   620.06966287
_cell_formula_units_Z   1
loop_
 _symmetry_equiv_pos_site_id
 _symmetry_equiv_pos_as_xyz
  1  'x, y, z'
loop_
 _atom_site_type_symbol
 _atom_site_label
 _atom_site_symmetry_multiplicity
 _atom_site_fract_x
 _atom_site_fract_y
 _atom_site_fract_z
 _atom_site_occupancy
  Ho  Ho0  1  0.810264  0.189156  0.191674  1
  Ho  Ho1  1  0.186177  0.813255  0.811174  1
  Ho  Ho2  1  0.186177  0.813255  0.189393  1
  Ho  Ho3  1  0.810264  0.189156  0.808907  1
  Ho  Ho4  1  0.185946  0.187376  0.813339  1
  Ho  Ho5  1  0.807755  0.808643  0.191802  1
  Ho  Ho6  1  0.936569  0.559029  0.564558  1
  Ho  Ho7  1  0.560172  0.937442  0.937180  1
  Ho  Ho8  1  0.560172  0.937442  0.565206  1
  Ho  Ho9  1  0.936569  0.559029  0.939843  1
  Ho  Ho10  1  0.562688  0.564202  0.936555  1
  Ho  Ho11  1  0.938469  0.939312  0.561109  1
  Ho  Ho12  1  0.349295  0.347844  0.347370  1
  Ho  Ho13  1  0.349295  0.347844  0.955491  1
  Ho  Ho14  1  0.348159  0.959207  0.346317  1
  Ho  Ho15  1  0.947931  0.350586  0.350741  1
  Mg  Mg16  1  0.283827  0.570863  0.572655  1
  Hg  Hg17  1  0.581394  0.586829  0.587393  1
  Hg  Hg18  1  0.581394  0.586829  0.244385  1
  Hg  Hg19  1  0.581460  0.244136  0.587202  1
  Ru  Ru20  1  0.139135  0.144170  0.140125  1
  Ru  Ru21  1  0.139135  0.144170  0.576569  1
  Rh  Rh22  1  0.141307  0.575996  0.141348  1
  Rh  Rh23  1  0.576449  0.144227  0.139662  1
