# generated using pymatgen
data_CdCo5(AsO4)4
_symmetry_space_group_name_H-M   'P 1'
_cell_length_a   8.81058196
_cell_length_b   5.33753485
_cell_length_c   9.19454538
_cell_angle_alpha   60.41096180
_cell_angle_beta   90.30935634
_cell_angle_gamma   90.60305961
_symmetry_Int_Tables_number   1
_chemical_formula_structural   CdCo5(AsO4)4
_chemical_formula_sum   'Cd1 Co5 As4 O16'
_cell_volume   375.98087606
_cell_formula_units_Z   1
loop_
 _symmetry_equiv_pos_site_id
 _symmetry_equiv_pos_as_xyz
  1  'x, y, z'
loop_
 _atom_site_type_symbol
 _atom_site_label
 _atom_site_symmetry_multiplicity
 _atom_site_fract_x
 _atom_site_fract_y
 _atom_site_fract_z
 _atom_site_occupancy
  Cd  Cd0  1  0.000000  0.500000  0.500000  1
  Co  Co1  1  0.141675  0.476571  0.105661  1
  Co  Co2  1  0.633316  0.500799  0.393474  1
  Co  Co3  1  0.858325  0.523429  0.894339  1
  Co  Co4  1  0.366684  0.499201  0.606526  1
  Co  Co5  1  0.500000  0.500000  0.000000  1
  As  As6  1  0.310770  0.844024  0.191665  1
  As  As7  1  0.793965  0.156540  0.294880  1
  As  As8  1  0.689230  0.155976  0.808335  1
  As  As9  1  0.206035  0.843460  0.705120  1
  O  O10  1  0.074152  0.681553  0.865332  1
  O  O11  1  0.569456  0.311396  0.636722  1
  O  O12  1  0.925848  0.318447  0.134668  1
  O  O13  1  0.430544  0.688604  0.363278  1
  O  O14  1  0.207708  0.204936  0.641191  1
  O  O15  1  0.694268  0.791192  0.880063  1
  O  O16  1  0.792292  0.795064  0.358809  1
  O  O17  1  0.305732  0.208808  0.119937  1
  O  O18  1  0.164059  0.790689  0.539133  1
  O  O19  1  0.639371  0.229564  0.963864  1
  O  O20  1  0.135382  0.669093  0.247045  1
  O  O21  1  0.621276  0.335555  0.235486  1
  O  O22  1  0.864618  0.330907  0.752955  1
  O  O23  1  0.378724  0.664445  0.764514  1
  O  O24  1  0.360629  0.770436  0.036136  1
  O  O25  1  0.835941  0.209311  0.460867  1
