# generated using pymatgen
data_Tm5SnRu4
_symmetry_space_group_name_H-M   'P 1'
_cell_length_a   3.40959500
_cell_length_b   3.40959500
_cell_length_c   17.54754500
_cell_angle_alpha   90.00000000
_cell_angle_beta   90.00000000
_cell_angle_gamma   90.00000000
_symmetry_Int_Tables_number   1
_chemical_formula_structural   Tm5SnRu4
_chemical_formula_sum   'Tm5 Sn1 Ru4'
_cell_volume   203.99614282
_cell_formula_units_Z   1
loop_
 _symmetry_equiv_pos_site_id
 _symmetry_equiv_pos_as_xyz
  1  'x, y, z'
loop_
 _atom_site_type_symbol
 _atom_site_label
 _atom_site_symmetry_multiplicity
 _atom_site_fract_x
 _atom_site_fract_y
 _atom_site_fract_z
 _atom_site_occupancy
  Tm  Tm0  1  0.000000  0.000000  0.873433  1
  Tm  Tm1  1  0.000000  0.000000  0.126567  1
  Tm  Tm2  1  0.000000  0.000000  0.311526  1
  Tm  Tm3  1  0.000000  0.000000  0.500000  1
  Tm  Tm4  1  0.000000  0.000000  0.688474  1
  Sn  Sn5  1  0.500000  0.500000  0.000000  1
  Ru  Ru6  1  0.500000  0.500000  0.212653  1
  Ru  Ru7  1  0.500000  0.500000  0.404357  1
  Ru  Ru8  1  0.500000  0.500000  0.595643  1
  Ru  Ru9  1  0.500000  0.500000  0.787347  1
