# generated using pymatgen
data_YbY2ErNi13C4
_symmetry_space_group_name_H-M   'P 1'
_cell_length_a   8.35111888
_cell_length_b   8.35111839
_cell_length_c   3.84458500
_cell_angle_alpha   90.00000000
_cell_angle_beta   90.00000000
_cell_angle_gamma   91.16956281
_symmetry_Int_Tables_number   1
_chemical_formula_structural   YbY2ErNi13C4
_chemical_formula_sum   'Yb1 Y2 Er1 Ni13 C4'
_cell_volume   268.07004482
_cell_formula_units_Z   1
loop_
 _symmetry_equiv_pos_site_id
 _symmetry_equiv_pos_as_xyz
  1  'x, y, z'
loop_
 _atom_site_type_symbol
 _atom_site_label
 _atom_site_symmetry_multiplicity
 _atom_site_fract_x
 _atom_site_fract_y
 _atom_site_fract_z
 _atom_site_occupancy
  Yb  Yb0  1  0.191541  0.808459  0.500000  1
  Y  Y1  1  0.346910  0.349310  0.500000  1
  Y  Y2  1  0.650690  0.653090  0.500000  1
  Er  Er3  1  0.813844  0.186156  0.500000  1
  Ni  Ni4  1  0.501575  0.002088  0.500000  1
  Ni  Ni5  1  0.997912  0.498425  0.500000  1
  Ni  Ni6  1  0.999416  0.000584  0.000000  1
  Ni  Ni7  1  0.428814  0.785089  0.000000  1
  Ni  Ni8  1  0.570523  0.214836  0.000000  1
  Ni  Ni9  1  0.785164  0.429477  0.000000  1
  Ni  Ni10  1  0.214911  0.571186  0.000000  1
  Ni  Ni11  1  0.709514  0.928302  0.000000  1
  Ni  Ni12  1  0.289342  0.075493  0.000000  1
  Ni  Ni13  1  0.924507  0.710658  0.000000  1
  Ni  Ni14  1  0.071698  0.290486  0.000000  1
  Ni  Ni15  1  0.883045  0.876276  0.500000  1
  Ni  Ni16  1  0.123724  0.116955  0.500000  1
  C  C17  1  0.000063  0.502532  0.000000  1
  C  C18  1  0.497468  0.999937  0.000000  1
  C  C19  1  0.557002  0.442998  0.000000  1
  C  C20  1  0.442337  0.557663  0.000000  1
