# generated using pymatgen
data_Dy3Cd3SnPbAu
_symmetry_space_group_name_H-M   'P 1'
_cell_length_a   7.53686500
_cell_length_b   7.53686477
_cell_length_c   4.54893900
_cell_angle_alpha   90.00000000
_cell_angle_beta   90.00000000
_cell_angle_gamma   120.00000540
_symmetry_Int_Tables_number   1
_chemical_formula_structural   Dy3Cd3SnPbAu
_chemical_formula_sum   'Dy3 Cd3 Sn1 Pb1 Au1'
_cell_volume   223.78046937
_cell_formula_units_Z   1
loop_
 _symmetry_equiv_pos_site_id
 _symmetry_equiv_pos_as_xyz
  1  'x, y, z'
loop_
 _atom_site_type_symbol
 _atom_site_label
 _atom_site_symmetry_multiplicity
 _atom_site_fract_x
 _atom_site_fract_y
 _atom_site_fract_z
 _atom_site_occupancy
  Dy  Dy0  1  0.595960  0.002783  0.000000  1
  Dy  Dy1  1  0.997217  0.593177  0.000000  1
  Dy  Dy2  1  0.406823  0.404040  0.000000  1
  Cd  Cd3  1  0.239777  0.003492  0.500000  1
  Cd  Cd4  1  0.996508  0.236285  0.500000  1
  Cd  Cd5  1  0.763715  0.760223  0.500000  1
  Sn  Sn6  1  0.666667  0.333333  0.500000  1
  Pb  Pb7  1  0.333333  0.666667  0.500000  1
  Au  Au8  1  0.000000  0.000000  0.000000  1
