# generated using pymatgen
data_Cs3Y(PSe4)2
_symmetry_space_group_name_H-M   'P 1'
_cell_length_a   16.31116799
_cell_length_b   7.32499600
_cell_length_c   16.40629000
_cell_angle_alpha   90.00000000
_cell_angle_beta   99.64320936
_cell_angle_gamma   90.00000000
_symmetry_Int_Tables_number   1
_chemical_formula_structural   Cs3Y(PSe4)2
_chemical_formula_sum   'Cs12 Y4 P8 Se32'
_cell_volume   1932.51326031
_cell_formula_units_Z   4
loop_
 _symmetry_equiv_pos_site_id
 _symmetry_equiv_pos_as_xyz
  1  'x, y, z'
loop_
 _atom_site_type_symbol
 _atom_site_label
 _atom_site_symmetry_multiplicity
 _atom_site_fract_x
 _atom_site_fract_y
 _atom_site_fract_z
 _atom_site_occupancy
  Cs  Cs0  1  0.611789  0.760856  0.021105  1
  Cs  Cs1  1  0.044339  0.243736  0.115437  1
  Cs  Cs2  1  0.275803  0.740904  0.120082  1
  Cs  Cs3  1  0.224197  0.240903  0.379918  1
  Cs  Cs4  1  0.455661  0.743736  0.384563  1
  Cs  Cs5  1  0.888212  0.260856  0.478895  1
  Cs  Cs6  1  0.111789  0.739144  0.521106  1
  Cs  Cs7  1  0.544338  0.256264  0.615436  1
  Cs  Cs8  1  0.775803  0.759096  0.620082  1
  Cs  Cs9  1  0.724197  0.259096  0.879918  1
  Cs  Cs10  1  0.955661  0.756265  0.884564  1
  Cs  Cs11  1  0.388211  0.239145  0.978894  1
  Y  Y12  1  0.876853  0.768349  0.230429  1
  Y  Y13  1  0.623147  0.268348  0.269571  1
  Y  Y14  1  0.376853  0.731652  0.730429  1
  Y  Y15  1  0.123147  0.231651  0.769571  1
  P  P16  1  0.782786  0.227590  0.132722  1
  P  P17  1  0.420076  0.243599  0.226283  1
  P  P18  1  0.079924  0.743599  0.273717  1
  P  P19  1  0.717214  0.727589  0.367278  1
  P  P20  1  0.282786  0.272410  0.632721  1
  P  P21  1  0.920076  0.256400  0.726283  1
  P  P22  1  0.579924  0.756401  0.773717  1
  P  P23  1  0.217214  0.772411  0.867278  1
  Se  Se24  1  0.834470  0.985950  0.075378  1
  Se  Se25  1  0.645917  0.258192  0.093756  1
  Se  Se26  1  0.848041  0.477395  0.099058  1
  Se  Se27  1  0.047380  0.746607  0.136562  1
  Se  Se28  1  0.287609  0.238391  0.171646  1
  Se  Se29  1  0.482943  0.493969  0.187432  1
  Se  Se30  1  0.489312  0.004743  0.188146  1
  Se  Se31  1  0.702908  0.648670  0.233812  1
  Se  Se32  1  0.797092  0.148671  0.266188  1
  Se  Se33  1  0.010689  0.504744  0.311854  1
  Se  Se34  1  0.017057  0.993968  0.312567  1
  Se  Se35  1  0.212392  0.738392  0.328355  1
  Se  Se36  1  0.452620  0.246607  0.363438  1
  Se  Se37  1  0.651959  0.977395  0.400942  1
  Se  Se38  1  0.854082  0.758191  0.406245  1
  Se  Se39  1  0.665530  0.485949  0.424621  1
  Se  Se40  1  0.334470  0.514050  0.575378  1
  Se  Se41  1  0.145918  0.241809  0.593756  1
  Se  Se42  1  0.348041  0.022604  0.599058  1
  Se  Se43  1  0.547380  0.753393  0.636562  1
  Se  Se44  1  0.787609  0.261608  0.671645  1
  Se  Se45  1  0.982943  0.006031  0.687432  1
  Se  Se46  1  0.989311  0.495257  0.688146  1
  Se  Se47  1  0.202908  0.851330  0.733812  1
  Se  Se48  1  0.297092  0.351329  0.766189  1
  Se  Se49  1  0.510689  0.995258  0.811854  1
  Se  Se50  1  0.517057  0.506032  0.812568  1
  Se  Se51  1  0.712391  0.761608  0.828355  1
  Se  Se52  1  0.952620  0.253393  0.863438  1
  Se  Se53  1  0.151959  0.522605  0.900943  1
  Se  Se54  1  0.354083  0.741809  0.906244  1
  Se  Se55  1  0.165530  0.014050  0.924621  1
