# generated using pymatgen
data_Ta3TiMn2(P2Rh)2
_symmetry_space_group_name_H-M   'P 1'
_cell_length_a   3.66395400
_cell_length_b   6.22336904
_cell_length_c   7.13589020
_cell_angle_alpha   88.83671790
_cell_angle_beta   90.00000000
_cell_angle_gamma   90.00000000
_symmetry_Int_Tables_number   1
_chemical_formula_structural   Ta3TiMn2(P2Rh)2
_chemical_formula_sum   'Ta3 Ti1 Mn2 P4 Rh2'
_cell_volume   162.68001684
_cell_formula_units_Z   1
loop_
 _symmetry_equiv_pos_site_id
 _symmetry_equiv_pos_as_xyz
  1  'x, y, z'
loop_
 _atom_site_type_symbol
 _atom_site_label
 _atom_site_symmetry_multiplicity
 _atom_site_fract_x
 _atom_site_fract_y
 _atom_site_fract_z
 _atom_site_occupancy
  Ta  Ta0  1  0.250000  0.527980  0.334840  1
  Ta  Ta1  1  0.250000  0.022004  0.181495  1
  Ta  Ta2  1  0.750000  0.474741  0.665895  1
  Ti  Ti3  1  0.750000  0.977600  0.815652  1
  Mn  Mn4  1  0.750000  0.854411  0.442336  1
  Mn  Mn5  1  0.250000  0.145136  0.557950  1
  P  P6  1  0.250000  0.784086  0.615625  1
  P  P7  1  0.750000  0.217677  0.389163  1
  P  P8  1  0.250000  0.255700  0.862384  1
  P  P9  1  0.750000  0.740282  0.134554  1
  Rh  Rh10  1  0.750000  0.350087  0.067253  1
  Rh  Rh11  1  0.250000  0.650295  0.932855  1
