# generated using pymatgen
data_Zr18Re5Mo3Pt2
_symmetry_space_group_name_H-M   'P 1'
_cell_length_a   8.85262237
_cell_length_b   8.85658678
_cell_length_c   8.54534700
_cell_angle_alpha   90.00000000
_cell_angle_beta   90.00000000
_cell_angle_gamma   120.01481740
_symmetry_Int_Tables_number   1
_chemical_formula_structural   Zr18Re5Mo3Pt2
_chemical_formula_sum   'Zr18 Re5 Mo3 Pt2'
_cell_volume   580.14131052
_cell_formula_units_Z   1
loop_
 _symmetry_equiv_pos_site_id
 _symmetry_equiv_pos_as_xyz
  1  'x, y, z'
loop_
 _atom_site_type_symbol
 _atom_site_label
 _atom_site_symmetry_multiplicity
 _atom_site_fract_x
 _atom_site_fract_y
 _atom_site_fract_z
 _atom_site_occupancy
  Zr  Zr0  1  0.541561  0.084335  0.250000  1
  Zr  Zr1  1  0.456413  0.915745  0.750000  1
  Zr  Zr2  1  0.915568  0.457784  0.250000  1
  Zr  Zr3  1  0.541561  0.457226  0.250000  1
  Zr  Zr4  1  0.456413  0.540668  0.750000  1
  Zr  Zr5  1  0.084115  0.542058  0.750000  1
  Zr  Zr6  1  0.194398  0.388716  0.053426  1
  Zr  Zr7  1  0.805611  0.610323  0.551961  1
  Zr  Zr8  1  0.610948  0.805474  0.054379  1
  Zr  Zr9  1  0.194398  0.805681  0.053426  1
  Zr  Zr10  1  0.805611  0.195291  0.551961  1
  Zr  Zr11  1  0.388682  0.194341  0.553503  1
  Zr  Zr12  1  0.805611  0.610323  0.948039  1
  Zr  Zr13  1  0.805611  0.195291  0.948039  1
  Zr  Zr14  1  0.388682  0.194341  0.946497  1
  Zr  Zr15  1  0.610948  0.805474  0.445621  1
  Zr  Zr16  1  0.194398  0.805681  0.446574  1
  Zr  Zr17  1  0.194398  0.388716  0.446574  1
  Re  Re18  1  0.892659  0.784325  0.250000  1
  Re  Re19  1  0.109106  0.216722  0.750000  1
  Re  Re20  1  0.215950  0.107976  0.250000  1
  Re  Re21  1  0.892659  0.108334  0.250000  1
  Re  Re22  1  0.109106  0.892383  0.750000  1
  Mo  Mo23  1  0.000479  0.000239  0.999814  1
  Mo  Mo24  1  0.000479  0.000239  0.500186  1
  Mo  Mo25  1  0.784641  0.892319  0.750000  1
  Pt  Pt26  1  0.333257  0.666630  0.250000  1
  Pt  Pt27  1  0.666738  0.333368  0.750000  1
