# generated using pymatgen
data_Mn4Be2B4IrRh9
_symmetry_space_group_name_H-M   'P 1'
_cell_length_a   9.11558419
_cell_length_b   9.12906319
_cell_length_c   2.87739000
_cell_angle_alpha   90.00000000
_cell_angle_beta   90.00000000
_cell_angle_gamma   89.97679233
_symmetry_Int_Tables_number   1
_chemical_formula_structural   Mn4Be2B4IrRh9
_chemical_formula_sum   'Mn4 Be2 B4 Ir1 Rh9'
_cell_volume   239.44700746
_cell_formula_units_Z   1
loop_
 _symmetry_equiv_pos_site_id
 _symmetry_equiv_pos_as_xyz
  1  'x, y, z'
loop_
 _atom_site_type_symbol
 _atom_site_label
 _atom_site_symmetry_multiplicity
 _atom_site_fract_x
 _atom_site_fract_y
 _atom_site_fract_z
 _atom_site_occupancy
  Mn  Mn0  1  0.676295  0.177219  0.000000  1
  Mn  Mn1  1  0.323273  0.823479  0.000000  1
  Mn  Mn2  1  0.176824  0.324152  0.000000  1
  Mn  Mn3  1  0.823471  0.676879  0.000000  1
  Be  Be4  1  0.999876  0.999824  0.000000  1
  Be  Be5  1  0.500025  0.499813  0.000000  1
  B  B6  1  0.130929  0.631509  0.000000  1
  B  B7  1  0.869167  0.368603  0.000000  1
  B  B8  1  0.631423  0.868577  0.000000  1
  B  B9  1  0.368670  0.130794  0.000000  1
  Ir  Ir10  1  0.432198  0.294561  0.500000  1
  Rh  Rh11  1  0.205730  0.067441  0.500000  1
  Rh  Rh12  1  0.794043  0.931923  0.500000  1
  Rh  Rh13  1  0.068399  0.793577  0.500000  1
  Rh  Rh14  1  0.706034  0.431979  0.500000  1
  Rh  Rh15  1  0.931988  0.206253  0.500000  1
  Rh  Rh16  1  0.293704  0.567850  0.500000  1
  Rh  Rh17  1  0.568169  0.706269  0.500000  1
  Rh  Rh18  1  0.500025  0.999368  0.500000  1
  Rh  Rh19  1  0.999757  0.499931  0.500000  1
