# generated using pymatgen
data_Tb2Eu2Al18(NiIr)3
_symmetry_space_group_name_H-M   'P 1'
_cell_length_a   7.55293236
_cell_length_b   7.55463247
_cell_length_c   9.45955766
_cell_angle_alpha   89.99391741
_cell_angle_beta   89.93652865
_cell_angle_gamma   119.42862279
_symmetry_Int_Tables_number   1
_chemical_formula_structural   Tb2Eu2Al18(NiIr)3
_chemical_formula_sum   'Tb2 Eu2 Al18 Ni3 Ir3'
_cell_volume   470.11251018
_cell_formula_units_Z   1
loop_
 _symmetry_equiv_pos_site_id
 _symmetry_equiv_pos_as_xyz
  1  'x, y, z'
loop_
 _atom_site_type_symbol
 _atom_site_label
 _atom_site_symmetry_multiplicity
 _atom_site_fract_x
 _atom_site_fract_y
 _atom_site_fract_z
 _atom_site_occupancy
  Tb  Tb0  1  0.671587  0.995367  0.250603  1
  Tb  Tb1  1  0.328413  0.004633  0.749397  1
  Eu  Eu2  1  0.994331  0.670217  0.249205  1
  Eu  Eu3  1  0.005669  0.329783  0.750795  1
  Al  Al4  1  0.126716  0.128206  0.246074  1
  Al  Al5  1  0.873284  0.871794  0.753926  1
  Al  Al6  1  0.998940  0.334483  0.073156  1
  Al  Al7  1  0.001060  0.665517  0.926844  1
  Al  Al8  1  0.998386  0.664250  0.573107  1
  Al  Al9  1  0.334844  0.000908  0.426089  1
  Al  Al10  1  0.001614  0.335750  0.426893  1
  Al  Al11  1  0.665156  0.999092  0.573911  1
  Al  Al12  1  0.664708  0.001279  0.926699  1
  Al  Al13  1  0.335292  0.998721  0.073301  1
  Al  Al14  1  0.333034  0.333124  0.547249  1
  Al  Al15  1  0.666966  0.666876  0.452751  1
  Al  Al16  1  0.667173  0.667862  0.047362  1
  Al  Al17  1  0.332827  0.332138  0.952638  1
  Al  Al18  1  0.342521  0.551191  0.246706  1
  Al  Al19  1  0.657479  0.448809  0.753294  1
  Al  Al20  1  0.548046  0.337654  0.246147  1
  Al  Al21  1  0.451954  0.662346  0.753853  1
  Ni  Ni22  1  0.667685  0.327176  0.000038  1
  Ni  Ni23  1  0.332315  0.672824  0.999962  1
  Ni  Ni24  1  0.000000  0.000000  0.000000  1
  Ir  Ir25  1  0.331184  0.672686  0.500273  1
  Ir  Ir26  1  0.668816  0.327314  0.499727  1
  Ir  Ir27  1  0.000000  0.000000  0.500000  1
