# generated using pymatgen
data_YHo7(HgIr)2
_symmetry_space_group_name_H-M   'P 1'
_cell_length_a   9.56163458
_cell_length_b   9.56163387
_cell_length_c   9.56061300
_cell_angle_alpha   60.00352830
_cell_angle_beta   60.00353076
_cell_angle_gamma   59.99293704
_symmetry_Int_Tables_number   1
_chemical_formula_structural   YHo7(HgIr)2
_chemical_formula_sum   'Y2 Ho14 Hg4 Ir4'
_cell_volume   618.06616587
_cell_formula_units_Z   2
loop_
 _symmetry_equiv_pos_site_id
 _symmetry_equiv_pos_as_xyz
  1  'x, y, z'
loop_
 _atom_site_type_symbol
 _atom_site_label
 _atom_site_symmetry_multiplicity
 _atom_site_fract_x
 _atom_site_fract_y
 _atom_site_fract_z
 _atom_site_occupancy
  Y  Y0  1  0.561612  0.561612  0.938388  1
  Y  Y1  1  0.938388  0.938388  0.561612  1
  Ho  Ho2  1  0.350644  0.350644  0.350741  1
  Ho  Ho3  1  0.350644  0.350644  0.947970  1
  Ho  Ho4  1  0.350741  0.947970  0.350644  1
  Ho  Ho5  1  0.947970  0.350741  0.350644  1
  Ho  Ho6  1  0.809597  0.190403  0.190403  1
  Ho  Ho7  1  0.190403  0.809597  0.809597  1
  Ho  Ho8  1  0.190403  0.809597  0.190403  1
  Ho  Ho9  1  0.809597  0.190403  0.809597  1
  Ho  Ho10  1  0.190440  0.190440  0.809560  1
  Ho  Ho11  1  0.809560  0.809560  0.190440  1
  Ho  Ho12  1  0.938558  0.561442  0.561442  1
  Ho  Ho13  1  0.561442  0.938558  0.938558  1
  Ho  Ho14  1  0.561442  0.938558  0.561442  1
  Ho  Ho15  1  0.938558  0.561442  0.938558  1
  Hg  Hg16  1  0.584721  0.584721  0.584650  1
  Hg  Hg17  1  0.584721  0.584721  0.245911  1
  Hg  Hg18  1  0.584650  0.245911  0.584721  1
  Hg  Hg19  1  0.245911  0.584650  0.584721  1
  Ir  Ir20  1  0.141810  0.141810  0.141705  1
  Ir  Ir21  1  0.141810  0.141810  0.574677  1
  Ir  Ir22  1  0.141705  0.574677  0.141810  1
  Ir  Ir23  1  0.574677  0.141705  0.141810  1
