# generated using pymatgen
data_Yb7LuSi16(MoW3)3
_symmetry_space_group_name_H-M   'P 1'
_cell_length_a   6.71308213
_cell_length_b   6.90136835
_cell_length_c   13.00193940
_cell_angle_alpha   89.87163329
_cell_angle_beta   90.01442062
_cell_angle_gamma   89.98758175
_symmetry_Int_Tables_number   1
_chemical_formula_structural   Yb7LuSi16(MoW3)3
_chemical_formula_sum   'Yb7 Lu1 Si16 Mo3 W9'
_cell_volume   602.37118924
_cell_formula_units_Z   1
loop_
 _symmetry_equiv_pos_site_id
 _symmetry_equiv_pos_as_xyz
  1  'x, y, z'
loop_
 _atom_site_type_symbol
 _atom_site_label
 _atom_site_symmetry_multiplicity
 _atom_site_fract_x
 _atom_site_fract_y
 _atom_site_fract_z
 _atom_site_occupancy
  Yb  Yb0  1  0.498676  0.332475  0.089802  1
  Yb  Yb1  1  0.998159  0.167278  0.409895  1
  Yb  Yb2  1  0.501057  0.667473  0.590297  1
  Yb  Yb3  1  0.001158  0.830096  0.908401  1
  Yb  Yb4  1  0.500930  0.667540  0.909600  1
  Yb  Yb5  1  0.001235  0.832783  0.590358  1
  Yb  Yb6  1  0.498702  0.333232  0.410064  1
  Lu  Lu7  1  0.999069  0.171417  0.093544  1
  Si  Si8  1  0.659932  0.042456  0.545297  1
  Si  Si9  1  0.160557  0.457257  0.955421  1
  Si  Si10  1  0.337685  0.958553  0.044925  1
  Si  Si11  1  0.839413  0.543089  0.455271  1
  Si  Si12  1  0.339305  0.957373  0.454854  1
  Si  Si13  1  0.839748  0.542149  0.045049  1
  Si  Si14  1  0.662340  0.041365  0.955094  1
  Si  Si15  1  0.160395  0.457809  0.545220  1
  Si  Si16  1  0.534923  0.377116  0.749780  1
  Si  Si17  1  0.035236  0.121559  0.750326  1
  Si  Si18  1  0.465825  0.623654  0.248285  1
  Si  Si19  1  0.964175  0.877543  0.249709  1
  Si  Si20  1  0.799391  0.635058  0.749990  1
  Si  Si21  1  0.300086  0.863631  0.749820  1
  Si  Si22  1  0.201758  0.364208  0.250845  1
  Si  Si23  1  0.698293  0.137012  0.250363  1
  Mo  Mo24  1  0.667875  0.835607  0.126088  1
  Mo  Mo25  1  0.835921  0.331041  0.874164  1
  Mo  Mo26  1  0.334565  0.166530  0.627090  1
  W  W27  1  0.835515  0.332164  0.628196  1
  W  W28  1  0.334670  0.166928  0.872744  1
  W  W29  1  0.165024  0.666838  0.126563  1
  W  W30  1  0.664839  0.832585  0.371646  1
  W  W31  1  0.165164  0.667337  0.371919  1
  W  W32  1  0.660053  0.010345  0.750462  1
  W  W33  1  0.160118  0.488825  0.750229  1
  W  W34  1  0.337826  0.990925  0.249411  1
  W  W35  1  0.840386  0.508746  0.249279  1
