# generated using pymatgen
data_Tb5Dy3(Er3Pt4)4
_symmetry_space_group_name_H-M   'P 1'
_cell_length_a   7.42242707
_cell_length_b   7.53239102
_cell_length_c   14.76245313
_cell_angle_alpha   90.00398102
_cell_angle_beta   89.98547425
_cell_angle_gamma   89.99261351
_symmetry_Int_Tables_number   1
_chemical_formula_structural   Tb5Dy3(Er3Pt4)4
_chemical_formula_sum   'Tb5 Dy3 Er12 Pt16'
_cell_volume   825.34839180
_cell_formula_units_Z   1
loop_
 _symmetry_equiv_pos_site_id
 _symmetry_equiv_pos_as_xyz
  1  'x, y, z'
loop_
 _atom_site_type_symbol
 _atom_site_label
 _atom_site_symmetry_multiplicity
 _atom_site_fract_x
 _atom_site_fract_y
 _atom_site_fract_z
 _atom_site_occupancy
  Tb  Tb0  1  0.481868  0.674155  0.595425  1
  Tb  Tb1  1  0.981944  0.826125  0.904814  1
  Tb  Tb2  1  0.518090  0.326210  0.095175  1
  Tb  Tb3  1  0.017972  0.173555  0.404746  1
  Tb  Tb4  1  0.517994  0.326078  0.404509  1
  Dy  Dy5  1  0.017946  0.174299  0.095547  1
  Dy  Dy6  1  0.482107  0.674274  0.904346  1
  Dy  Dy7  1  0.982342  0.825700  0.595549  1
  Er  Er8  1  0.638715  0.169081  0.621524  1
  Er  Er9  1  0.138227  0.330774  0.878436  1
  Er  Er10  1  0.361809  0.830734  0.121369  1
  Er  Er11  1  0.861920  0.669414  0.378601  1
  Er  Er12  1  0.361449  0.830917  0.378431  1
  Er  Er13  1  0.861683  0.669031  0.121626  1
  Er  Er14  1  0.638357  0.168965  0.878193  1
  Er  Er15  1  0.138490  0.330928  0.621659  1
  Er  Er16  1  0.800155  0.510955  0.749904  1
  Er  Er17  1  0.300135  0.989082  0.749835  1
  Er  Er18  1  0.199785  0.488988  0.250038  1
  Er  Er19  1  0.699843  0.010902  0.249981  1
  Pt  Pt20  1  0.694382  0.970935  0.458173  1
  Pt  Pt21  1  0.194157  0.528132  0.042155  1
  Pt  Pt22  1  0.305690  0.028135  0.957805  1
  Pt  Pt23  1  0.805940  0.472396  0.542590  1
  Pt  Pt24  1  0.304836  0.027855  0.542381  1
  Pt  Pt25  1  0.804631  0.472147  0.957566  1
  Pt  Pt26  1  0.695413  0.972177  0.042412  1
  Pt  Pt27  1  0.194211  0.528495  0.457823  1
  Pt  Pt28  1  0.432578  0.382517  0.750230  1
  Pt  Pt29  1  0.932566  0.117320  0.749873  1
  Pt  Pt30  1  0.567540  0.617784  0.249995  1
  Pt  Pt31  1  0.067407  0.882283  0.249689  1
  Pt  Pt32  1  0.661901  0.858975  0.750252  1
  Pt  Pt33  1  0.162064  0.640997  0.750059  1
  Pt  Pt34  1  0.337695  0.140607  0.249652  1
  Pt  Pt35  1  0.838157  0.359077  0.249638  1
