# generated using pymatgen
data_Ho7ErTi11Si16Pt
_symmetry_space_group_name_H-M   'P 1'
_cell_length_a   7.03045466
_cell_length_b   7.03083905
_cell_length_c   12.83519903
_cell_angle_alpha   90.14992247
_cell_angle_beta   89.85334805
_cell_angle_gamma   89.72954788
_symmetry_Int_Tables_number   1
_chemical_formula_structural   Ho7ErTi11Si16Pt
_chemical_formula_sum   'Ho7 Er1 Ti11 Si16 Pt1'
_cell_volume   634.43248808
_cell_formula_units_Z   1
loop_
 _symmetry_equiv_pos_site_id
 _symmetry_equiv_pos_as_xyz
  1  'x, y, z'
loop_
 _atom_site_type_symbol
 _atom_site_label
 _atom_site_symmetry_multiplicity
 _atom_site_fract_x
 _atom_site_fract_y
 _atom_site_fract_z
 _atom_site_occupancy
  Ho  Ho0  1  0.496941  0.841366  0.717868  1
  Ho  Ho1  1  0.501125  0.158204  0.214729  1
  Ho  Ho2  1  0.841294  0.496984  0.282099  1
  Ho  Ho3  1  0.158245  0.501143  0.785294  1
  Ho  Ho4  1  0.656996  0.998491  0.968379  1
  Ho  Ho5  1  0.003799  0.340416  0.532994  1
  Ho  Ho6  1  0.998527  0.657027  0.031627  1
  Er  Er7  1  0.340493  0.003618  0.466961  1
  Ti  Ti8  1  0.175592  0.826836  0.248709  1
  Ti  Ti9  1  0.826830  0.175524  0.751308  1
  Ti  Ti10  1  0.673080  0.673230  0.499998  1
  Ti  Ti11  1  0.149088  0.004209  0.876597  1
  Ti  Ti12  1  0.494419  0.654246  0.124363  1
  Ti  Ti13  1  0.506964  0.350228  0.627068  1
  Ti  Ti14  1  0.654214  0.494419  0.875658  1
  Ti  Ti15  1  0.350268  0.507031  0.372913  1
  Ti  Ti16  1  0.849732  0.993726  0.374814  1
  Ti  Ti17  1  0.004265  0.149035  0.123392  1
  Ti  Ti18  1  0.993778  0.849724  0.625172  1
  Si  Si19  1  0.202225  0.132853  0.685061  1
  Si  Si20  1  0.372514  0.708938  0.932374  1
  Si  Si21  1  0.631215  0.294713  0.433407  1
  Si  Si22  1  0.708892  0.372532  0.067642  1
  Si  Si23  1  0.294927  0.631617  0.566549  1
  Si  Si24  1  0.796805  0.868122  0.183478  1
  Si  Si25  1  0.133046  0.201991  0.315010  1
  Si  Si26  1  0.868168  0.796835  0.816528  1
  Si  Si27  1  0.286337  0.945418  0.064553  1
  Si  Si28  1  0.547045  0.792099  0.315265  1
  Si  Si29  1  0.450538  0.209119  0.815044  1
  Si  Si30  1  0.791958  0.547204  0.684818  1
  Si  Si31  1  0.209166  0.450582  0.184948  1
  Si  Si32  1  0.708014  0.047754  0.565382  1
  Si  Si33  1  0.945487  0.286297  0.935425  1
  Si  Si34  1  0.047957  0.708402  0.434547  1
  Pt  Pt35  1  0.330055  0.330066  0.000024  1
