# generated using pymatgen
data_HoLuMg2(AlPt)4
_symmetry_space_group_name_H-M   'P 1'
_cell_length_a   4.20122900
_cell_length_b   6.82207890
_cell_length_c   7.71306893
_cell_angle_alpha   89.46603659
_cell_angle_beta   90.00000000
_cell_angle_gamma   90.00000000
_symmetry_Int_Tables_number   1
_chemical_formula_structural   HoLuMg2(AlPt)4
_chemical_formula_sum   'Ho1 Lu1 Mg2 Al4 Pt4'
_cell_volume   221.05556101
_cell_formula_units_Z   1
loop_
 _symmetry_equiv_pos_site_id
 _symmetry_equiv_pos_as_xyz
  1  'x, y, z'
loop_
 _atom_site_type_symbol
 _atom_site_label
 _atom_site_symmetry_multiplicity
 _atom_site_fract_x
 _atom_site_fract_y
 _atom_site_fract_z
 _atom_site_occupancy
  Ho  Ho0  1  0.750000  0.973505  0.332300  1
  Lu  Lu1  1  0.750000  0.471951  0.166717  1
  Mg  Mg2  1  0.250000  0.029790  0.676385  1
  Mg  Mg3  1  0.250000  0.528757  0.825086  1
  Al  Al4  1  0.250000  0.140669  0.052906  1
  Al  Al5  1  0.250000  0.640801  0.447486  1
  Al  Al6  1  0.750000  0.859379  0.936580  1
  Al  Al7  1  0.750000  0.360910  0.563203  1
  Pt  Pt8  1  0.250000  0.275747  0.371497  1
  Pt  Pt9  1  0.250000  0.769285  0.125712  1
  Pt  Pt10  1  0.750000  0.723831  0.630575  1
  Pt  Pt11  1  0.750000  0.225375  0.871552  1
