# generated using pymatgen
data_CeNd6Th(ZnRh)8
_symmetry_space_group_name_H-M   'P 1'
_cell_length_a   3.94903500
_cell_length_b   7.47843901
_cell_length_c   16.55942602
_cell_angle_alpha   89.99374281
_cell_angle_beta   90.00000000
_cell_angle_gamma   90.00000000
_symmetry_Int_Tables_number   1
_chemical_formula_structural   CeNd6Th(ZnRh)8
_chemical_formula_sum   'Ce1 Nd6 Th1 Zn8 Rh8'
_cell_volume   489.04319024
_cell_formula_units_Z   1
loop_
 _symmetry_equiv_pos_site_id
 _symmetry_equiv_pos_as_xyz
  1  'x, y, z'
loop_
 _atom_site_type_symbol
 _atom_site_label
 _atom_site_symmetry_multiplicity
 _atom_site_fract_x
 _atom_site_fract_y
 _atom_site_fract_z
 _atom_site_occupancy
  Ce  Ce0  1  0.250000  0.174276  0.940312  1
  Nd  Nd1  1  0.750000  0.328703  0.437564  1
  Nd  Nd2  1  0.750000  0.946245  0.284635  1
  Nd  Nd3  1  0.750000  0.830620  0.061117  1
  Nd  Nd4  1  0.750000  0.446592  0.214400  1
  Nd  Nd5  1  0.250000  0.052552  0.715706  1
  Nd  Nd6  1  0.250000  0.550120  0.786235  1
  Th  Th7  1  0.250000  0.671354  0.560404  1
  Zn  Zn8  1  0.750000  0.010735  0.559920  1
  Zn  Zn9  1  0.250000  0.618708  0.347936  1
  Zn  Zn10  1  0.750000  0.379831  0.654646  1
  Zn  Zn11  1  0.250000  0.501226  0.058898  1
  Zn  Zn12  1  0.750000  0.508152  0.940219  1
  Zn  Zn13  1  0.250000  0.002626  0.440188  1
  Zn  Zn14  1  0.250000  0.119568  0.150843  1
  Zn  Zn15  1  0.750000  0.882644  0.846817  1
  Rh  Rh16  1  0.750000  0.747156  0.441899  1
  Rh  Rh17  1  0.250000  0.240373  0.311779  1
  Rh  Rh18  1  0.750000  0.246157  0.823964  1
  Rh  Rh19  1  0.750000  0.747419  0.678568  1
  Rh  Rh20  1  0.250000  0.254428  0.566216  1
  Rh  Rh21  1  0.250000  0.740754  0.187643  1
  Rh  Rh22  1  0.750000  0.247263  0.056462  1
  Rh  Rh23  1  0.250000  0.752501  0.933627  1
