# generated using pymatgen
data_Ca3Bi5O14
_symmetry_space_group_name_H-M   'P 1'
_cell_length_a   7.81787804
_cell_length_b   7.81787697
_cell_length_c   7.76830733
_cell_angle_alpha   59.78869693
_cell_angle_beta   59.78869151
_cell_angle_gamma   59.99999981
_symmetry_Int_Tables_number   1
_chemical_formula_structural   Ca3Bi5O14
_chemical_formula_sum   'Ca3 Bi5 O14'
_cell_volume   334.65292649
_cell_formula_units_Z   1
loop_
 _symmetry_equiv_pos_site_id
 _symmetry_equiv_pos_as_xyz
  1  'x, y, z'
loop_
 _atom_site_type_symbol
 _atom_site_label
 _atom_site_symmetry_multiplicity
 _atom_site_fract_x
 _atom_site_fract_y
 _atom_site_fract_z
 _atom_site_occupancy
  Ca  Ca0  1  0.000000  0.000000  0.499999  1
  Ca  Ca1  1  0.499999  0.500000  0.500001  1
  Ca  Ca2  1  0.000000  0.499999  0.500001  1
  Bi  Bi3  1  0.000000  0.000000  0.000000  1
  Bi  Bi4  1  0.500000  0.000000  0.000000  1
  Bi  Bi5  1  0.000000  0.500001  0.000000  1
  Bi  Bi6  1  0.500001  0.500001  0.000000  1
  Bi  Bi7  1  0.500001  0.000000  0.499999  1
  O  O8  1  0.583346  0.666620  0.083415  1
  O  O9  1  0.166619  0.083350  0.083415  1
  O  O10  1  0.166618  0.666619  0.083415  1
  O  O11  1  0.416607  0.333132  0.333654  1
  O  O12  1  0.416606  0.916609  0.333654  1
  O  O13  1  0.833131  0.916608  0.333656  1
  O  O14  1  0.877377  0.377376  0.367871  1
  O  O15  1  0.122624  0.622626  0.632126  1
  O  O16  1  0.583394  0.083393  0.666344  1
  O  O17  1  0.166869  0.083393  0.666344  1
  O  O18  1  0.583391  0.666869  0.666346  1
  O  O19  1  0.833383  0.916654  0.916582  1
  O  O20  1  0.416652  0.333382  0.916585  1
  O  O21  1  0.833380  0.333382  0.916585  1
