# generated using pymatgen
data_TbLu7Ta8(TiSi4)4
_symmetry_space_group_name_H-M   'P 1'
_cell_length_a   6.99448706
_cell_length_b   6.99887066
_cell_length_c   12.86773958
_cell_angle_alpha   90.00006557
_cell_angle_beta   89.97817760
_cell_angle_gamma   89.96544025
_symmetry_Int_Tables_number   1
_chemical_formula_structural   TbLu7Ta8(TiSi4)4
_chemical_formula_sum   'Tb1 Lu7 Ta8 Ti4 Si16'
_cell_volume   629.92086135
_cell_formula_units_Z   1
loop_
 _symmetry_equiv_pos_site_id
 _symmetry_equiv_pos_as_xyz
  1  'x, y, z'
loop_
 _atom_site_type_symbol
 _atom_site_label
 _atom_site_symmetry_multiplicity
 _atom_site_fract_x
 _atom_site_fract_y
 _atom_site_fract_z
 _atom_site_occupancy
  Tb  Tb0  1  0.995845  0.660425  0.032481  1
  Lu  Lu1  1  0.342432  0.001650  0.467171  1
  Lu  Lu2  1  0.499052  0.840820  0.717121  1
  Lu  Lu3  1  0.500327  0.157402  0.218048  1
  Lu  Lu4  1  0.841015  0.500288  0.283320  1
  Lu  Lu5  1  0.158929  0.500454  0.781644  1
  Lu  Lu6  1  0.657969  0.998271  0.967467  1
  Lu  Lu7  1  0.001219  0.341807  0.532295  1
  Ta  Ta8  1  0.329248  0.328824  0.000087  1
  Ta  Ta9  1  0.173234  0.827902  0.250715  1
  Ta  Ta10  1  0.827566  0.172965  0.749422  1
  Ta  Ta11  1  0.671410  0.670417  0.500280  1
  Ta  Ta12  1  0.152350  0.006276  0.872853  1
  Ta  Ta13  1  0.492461  0.652562  0.124063  1
  Ta  Ta14  1  0.506689  0.349296  0.624184  1
  Ta  Ta15  1  0.650774  0.491277  0.875131  1
  Ti  Ti16  1  0.348885  0.506518  0.376815  1
  Ti  Ti17  1  0.847956  0.993599  0.373976  1
  Ti  Ti18  1  0.007001  0.152495  0.126055  1
  Ti  Ti19  1  0.991920  0.846606  0.626189  1
  Si  Si20  1  0.203762  0.133205  0.679898  1
  Si  Si21  1  0.366014  0.705654  0.930275  1
  Si  Si22  1  0.634647  0.295233  0.431272  1
  Si  Si23  1  0.704572  0.361813  0.069417  1
  Si  Si24  1  0.294733  0.637125  0.567955  1
  Si  Si25  1  0.796292  0.869071  0.184595  1
  Si  Si26  1  0.133916  0.202871  0.318378  1
  Si  Si27  1  0.863773  0.796677  0.817304  1
  Si  Si28  1  0.294997  0.956507  0.064820  1
  Si  Si29  1  0.545765  0.794912  0.315337  1
  Si  Si30  1  0.453562  0.202797  0.813077  1
  Si  Si31  1  0.798604  0.547035  0.684959  1
  Si  Si32  1  0.204765  0.451987  0.187956  1
  Si  Si33  1  0.708115  0.045436  0.562840  1
  Si  Si34  1  0.954352  0.293465  0.936586  1
  Si  Si35  1  0.045850  0.706357  0.436014  1
