# generated using pymatgen
data_Y(HoHg2)5
_symmetry_space_group_name_H-M   'P 1'
_cell_length_a   6.37858559
_cell_length_b   6.37858521
_cell_length_c   10.15087181
_cell_angle_alpha   90.04095344
_cell_angle_beta   90.04095291
_cell_angle_gamma   105.29555388
_symmetry_Int_Tables_number   1
_chemical_formula_structural   Y(HoHg2)5
_chemical_formula_sum   'Y1 Ho5 Hg10'
_cell_volume   398.37226495
_cell_formula_units_Z   1
loop_
 _symmetry_equiv_pos_site_id
 _symmetry_equiv_pos_as_xyz
  1  'x, y, z'
loop_
 _atom_site_type_symbol
 _atom_site_label
 _atom_site_symmetry_multiplicity
 _atom_site_fract_x
 _atom_site_fract_y
 _atom_site_fract_z
 _atom_site_occupancy
  Y  Y0  1  0.213136  0.786864  0.500000  1
  Ho  Ho1  1  0.571310  0.570768  0.249949  1
  Ho  Ho2  1  0.429232  0.428690  0.750051  1
  Ho  Ho3  1  0.213370  0.786630  0.000000  1
  Ho  Ho4  1  0.786973  0.213027  0.500000  1
  Ho  Ho5  1  0.786608  0.213392  0.000000  1
  Hg  Hg6  1  0.973387  0.973709  0.249525  1
  Hg  Hg7  1  0.026291  0.026613  0.750475  1
  Hg  Hg8  1  0.292704  0.292613  0.029430  1
  Hg  Hg9  1  0.707387  0.707296  0.970570  1
  Hg  Hg10  1  0.293032  0.293715  0.470111  1
  Hg  Hg11  1  0.706285  0.706968  0.529889  1
  Hg  Hg12  1  0.481266  0.039284  0.249512  1
  Hg  Hg13  1  0.960716  0.518734  0.750488  1
  Hg  Hg14  1  0.520120  0.961817  0.750757  1
  Hg  Hg15  1  0.038183  0.479880  0.249243  1
