# generated using pymatgen
data_CeGdS3
_symmetry_space_group_name_H-M   'P 1'
_cell_length_a   6.74686600
_cell_length_b   6.74686581
_cell_length_c   9.72300400
_cell_angle_alpha   90.00000000
_cell_angle_beta   90.00000000
_cell_angle_gamma   145.87507603
_symmetry_Int_Tables_number   1
_chemical_formula_structural   CeGdS3
_chemical_formula_sum   'Ce2 Gd2 S6'
_cell_volume   248.29434393
_cell_formula_units_Z   2
loop_
 _symmetry_equiv_pos_site_id
 _symmetry_equiv_pos_as_xyz
  1  'x, y, z'
loop_
 _atom_site_type_symbol
 _atom_site_label
 _atom_site_symmetry_multiplicity
 _atom_site_fract_x
 _atom_site_fract_y
 _atom_site_fract_z
 _atom_site_occupancy
  Ce  Ce0  1  0.748944  0.251056  0.250000  1
  Ce  Ce1  1  0.251056  0.748944  0.750000  1
  Gd  Gd2  1  0.000000  0.000000  0.500000  1
  Gd  Gd3  1  0.000000  0.000000  0.000000  1
  S  S4  1  0.643310  0.356690  0.568699  1
  S  S5  1  0.643310  0.356690  0.931301  1
  S  S6  1  0.356690  0.643310  0.068699  1
  S  S7  1  0.356690  0.643310  0.431301  1
  S  S8  1  0.094367  0.905633  0.250000  1
  S  S9  1  0.905633  0.094367  0.750000  1
