# generated using pymatgen
data_Sc4CrMo2Os5
_symmetry_space_group_name_H-M   'P 1'
_cell_length_a   5.33253452
_cell_length_b   5.17849230
_cell_length_c   8.66461400
_cell_angle_alpha   90.00000000
_cell_angle_beta   90.00000000
_cell_angle_gamma   121.93622696
_symmetry_Int_Tables_number   1
_chemical_formula_structural   Sc4CrMo2Os5
_chemical_formula_sum   'Sc4 Cr1 Mo2 Os5'
_cell_volume   203.05252591
_cell_formula_units_Z   1
loop_
 _symmetry_equiv_pos_site_id
 _symmetry_equiv_pos_as_xyz
  1  'x, y, z'
loop_
 _atom_site_type_symbol
 _atom_site_label
 _atom_site_symmetry_multiplicity
 _atom_site_fract_x
 _atom_site_fract_y
 _atom_site_fract_z
 _atom_site_occupancy
  Sc  Sc0  1  0.331931  0.659988  0.440664  1
  Sc  Sc1  1  0.667566  0.337294  0.569311  1
  Sc  Sc2  1  0.667566  0.337294  0.930689  1
  Sc  Sc3  1  0.331931  0.659988  0.059336  1
  Cr  Cr4  1  0.169517  0.340007  0.750000  1
  Mo  Mo5  1  0.342151  0.168670  0.250000  1
  Mo  Mo6  1  0.832735  0.665014  0.250000  1
  Os  Os7  1  0.172466  0.820412  0.750000  1
  Os  Os8  1  0.647847  0.819827  0.750000  1
  Os  Os9  1  0.004603  0.008561  0.992126  1
  Os  Os10  1  0.827084  0.174384  0.250000  1
  Os  Os11  1  0.004603  0.008561  0.507874  1
