# generated using pymatgen
data_Sc12Ni2AgI16
_symmetry_space_group_name_H-M   'P 1'
_cell_length_a   9.30100969
_cell_length_b   12.02913557
_cell_length_c   12.64337700
_cell_angle_alpha   117.18126912
_cell_angle_beta   101.33595392
_cell_angle_gamma   100.80801291
_symmetry_Int_Tables_number   1
_chemical_formula_structural   Sc12Ni2AgI16
_chemical_formula_sum   'Sc12 Ni2 Ag1 I16'
_cell_volume   1169.79265975
_cell_formula_units_Z   1
loop_
 _symmetry_equiv_pos_site_id
 _symmetry_equiv_pos_as_xyz
  1  'x, y, z'
loop_
 _atom_site_type_symbol
 _atom_site_label
 _atom_site_symmetry_multiplicity
 _atom_site_fract_x
 _atom_site_fract_y
 _atom_site_fract_z
 _atom_site_occupancy
  Sc  Sc0  1  0.097002  0.273030  0.360339  1
  Sc  Sc1  1  0.902998  0.726970  0.639661  1
  Sc  Sc2  1  0.773674  0.534872  0.331563  1
  Sc  Sc3  1  0.226326  0.465128  0.668437  1
  Sc  Sc4  1  0.281644  0.726984  0.639123  1
  Sc  Sc5  1  0.718356  0.273016  0.360877  1
  Sc  Sc6  1  0.152324  0.534561  0.331179  1
  Sc  Sc7  1  0.847676  0.465439  0.668821  1
  Sc  Sc8  1  0.411028  0.367044  0.286823  1
  Sc  Sc9  1  0.588972  0.632956  0.713177  1
  Sc  Sc10  1  0.461294  0.319589  0.520166  1
  Sc  Sc11  1  0.538706  0.680411  0.479834  1
  Ni  Ni12  1  0.348500  0.499963  0.499646  1
  Ni  Ni13  1  0.651501  0.500037  0.500354  1
  Ag  Ag14  1  0.000000  0.500000  0.500000  1
  I  I15  1  0.396362  0.737773  0.880411  1
  I  I16  1  0.603638  0.262227  0.119589  1
  I  I17  1  0.184863  0.955164  0.778441  1
  I  I18  1  0.815137  0.044836  0.221559  1
  I  I19  1  0.338151  0.100544  0.254365  1
  I  I20  1  0.661849  0.899456  0.745635  1
  I  I21  1  0.561144  0.438992  0.796815  1
  I  I22  1  0.438856  0.561008  0.203185  1
  I  I23  1  0.307694  0.822740  0.462769  1
  I  I24  1  0.692306  0.177260  0.537231  1
  I  I25  1  0.169461  0.176590  0.535411  1
  I  I26  1  0.830539  0.823410  0.464589  1
  I  I27  1  0.926362  0.571783  0.163914  1
  I  I28  1  0.073638  0.428217  0.836086  1
  I  I29  1  0.920936  0.736957  0.880933  1
  I  I30  1  0.079064  0.263043  0.119067  1
