# generated using pymatgen
data_Tb3In4CuRh
_symmetry_space_group_name_H-M   'P 1'
_cell_length_a   7.85830900
_cell_length_b   7.85830856
_cell_length_c   3.84872400
_cell_angle_alpha   90.00000000
_cell_angle_beta   90.00000000
_cell_angle_gamma   119.99999766
_symmetry_Int_Tables_number   1
_chemical_formula_structural   Tb3In4CuRh
_chemical_formula_sum   'Tb3 In4 Cu1 Rh1'
_cell_volume   205.82853797
_cell_formula_units_Z   1
loop_
 _symmetry_equiv_pos_site_id
 _symmetry_equiv_pos_as_xyz
  1  'x, y, z'
loop_
 _atom_site_type_symbol
 _atom_site_label
 _atom_site_symmetry_multiplicity
 _atom_site_fract_x
 _atom_site_fract_y
 _atom_site_fract_z
 _atom_site_occupancy
  Tb  Tb0  1  0.385540  0.419504  0.500000  1
  Tb  Tb1  1  0.033964  0.614461  0.500000  1
  Tb  Tb2  1  0.580496  0.966036  0.500000  1
  In  In3  1  0.001346  0.251739  0.000000  1
  In  In4  1  0.666667  0.333334  0.000000  1
  In  In5  1  0.748260  0.749607  0.000000  1
  In  In6  1  0.250394  0.998654  0.000000  1
  Cu  Cu7  1  0.000000  0.000000  0.500000  1
  Rh  Rh8  1  0.333334  0.666667  0.000000  1
