# generated using pymatgen
data_Sr3CrInO6
_symmetry_space_group_name_H-M   'P 1'
_cell_length_a   6.79830389
_cell_length_b   6.79838318
_cell_length_c   6.79836168
_cell_angle_alpha   92.20657794
_cell_angle_beta   92.20574549
_cell_angle_gamma   92.20603620
_symmetry_Int_Tables_number   1
_chemical_formula_structural   Sr3CrInO6
_chemical_formula_sum   'Sr6 Cr2 In2 O12'
_cell_volume   313.48597499
_cell_formula_units_Z   2
loop_
 _symmetry_equiv_pos_site_id
 _symmetry_equiv_pos_as_xyz
  1  'x, y, z'
loop_
 _atom_site_type_symbol
 _atom_site_label
 _atom_site_symmetry_multiplicity
 _atom_site_fract_x
 _atom_site_fract_y
 _atom_site_fract_z
 _atom_site_occupancy
  Sr  Sr0  1  0.615758  0.884243  0.249990  1
  Sr  Sr1  1  0.884246  0.250000  0.615765  1
  Sr  Sr2  1  0.250004  0.615759  0.884241  1
  Sr  Sr3  1  0.115760  0.750003  0.384244  1
  Sr  Sr4  1  0.750002  0.384242  0.115759  1
  Sr  Sr5  1  0.384235  0.115759  0.750003  1
  Cr  Cr6  1  0.499974  0.499974  0.499997  1
  Cr  Cr7  1  0.000041  0.000011  0.000008  1
  In  In8  1  0.249994  0.250004  0.249990  1
  In  In9  1  0.750001  0.749997  0.750005  1
  O  O10  1  0.541049  0.214033  0.410374  1
  O  O11  1  0.214038  0.410386  0.541055  1
  O  O12  1  0.410374  0.541062  0.214035  1
  O  O13  1  0.041048  0.910375  0.714028  1
  O  O14  1  0.910370  0.714023  0.041060  1
  O  O15  1  0.714034  0.041057  0.910380  1
  O  O16  1  0.458948  0.785964  0.589624  1
  O  O17  1  0.785965  0.589621  0.458941  1
  O  O18  1  0.589623  0.458936  0.785962  1
  O  O19  1  0.958944  0.089632  0.285971  1
  O  O20  1  0.089623  0.285973  0.958944  1
  O  O21  1  0.285968  0.958947  0.089622  1
