# generated using pymatgen
data_YbErPa2(B4Os)4
_symmetry_space_group_name_H-M   'P 1'
_cell_length_a   3.57649900
_cell_length_b   5.97422375
_cell_length_c   11.58131546
_cell_angle_alpha   90.13747728
_cell_angle_beta   90.00000000
_cell_angle_gamma   90.00000000
_symmetry_Int_Tables_number   1
_chemical_formula_structural   YbErPa2(B4Os)4
_chemical_formula_sum   'Yb1 Er1 Pa2 B16 Os4'
_cell_volume   247.45499985
_cell_formula_units_Z   1
loop_
 _symmetry_equiv_pos_site_id
 _symmetry_equiv_pos_as_xyz
  1  'x, y, z'
loop_
 _atom_site_type_symbol
 _atom_site_label
 _atom_site_symmetry_multiplicity
 _atom_site_fract_x
 _atom_site_fract_y
 _atom_site_fract_z
 _atom_site_occupancy
  Yb  Yb0  1  0.000000  0.371226  0.147271  1
  Er  Er1  1  0.000000  0.627938  0.853318  1
  Pa  Pa2  1  0.000000  0.128820  0.651440  1
  Pa  Pa3  1  0.000000  0.871094  0.347492  1
  B  B4  1  0.500000  0.474574  0.692569  1
  B  B5  1  0.500000  0.525159  0.307879  1
  B  B6  1  0.500000  0.970630  0.810341  1
  B  B7  1  0.500000  0.027306  0.189532  1
  B  B8  1  0.500000  0.290606  0.814797  1
  B  B9  1  0.500000  0.710828  0.185038  1
  B  B10  1  0.500000  0.788677  0.688829  1
  B  B11  1  0.500000  0.211813  0.311926  1
  B  B12  1  0.500000  0.363368  0.969448  1
  B  B13  1  0.500000  0.636327  0.030834  1
  B  B14  1  0.500000  0.865575  0.531501  1
  B  B15  1  0.500000  0.133818  0.467484  1
  B  B16  1  0.500000  0.386833  0.546491  1
  B  B17  1  0.500000  0.612422  0.452994  1
  B  B18  1  0.500000  0.886148  0.955156  1
  B  B19  1  0.500000  0.114718  0.045714  1
  Os  Os20  1  0.000000  0.139516  0.904319  1
  Os  Os21  1  0.000000  0.861185  0.094010  1
  Os  Os22  1  0.000000  0.643639  0.595598  1
  Os  Os23  1  0.000000  0.357779  0.406019  1
