# generated using pymatgen
data_Tb7Sn23PdRu5
_symmetry_space_group_name_H-M   'P 1'
_cell_length_a   9.77384908
_cell_length_b   9.77384786
_cell_length_c   10.02630700
_cell_angle_alpha   89.82792214
_cell_angle_beta   90.17208370
_cell_angle_gamma   120.01259919
_symmetry_Int_Tables_number   1
_chemical_formula_structural   Tb7Sn23PdRu5
_chemical_formula_sum   'Tb7 Sn23 Pd1 Ru5'
_cell_volume   829.36379187
_cell_formula_units_Z   1
loop_
 _symmetry_equiv_pos_site_id
 _symmetry_equiv_pos_as_xyz
  1  'x, y, z'
loop_
 _atom_site_type_symbol
 _atom_site_label
 _atom_site_symmetry_multiplicity
 _atom_site_fract_x
 _atom_site_fract_y
 _atom_site_fract_z
 _atom_site_occupancy
  Tb  Tb0  1  0.002652  0.997348  0.996907  1
  Tb  Tb1  1  0.481211  0.518789  0.305585  1
  Tb  Tb2  1  0.518955  0.481045  0.695097  1
  Tb  Tb3  1  0.478242  0.961214  0.306819  1
  Tb  Tb4  1  0.516937  0.035345  0.694628  1
  Tb  Tb5  1  0.038786  0.521758  0.306819  1
  Tb  Tb6  1  0.964655  0.483063  0.694628  1
  Sn  Sn7  1  0.349428  0.000490  0.999998  1
  Sn  Sn8  1  0.644825  0.993883  0.997790  1
  Sn  Sn9  1  0.006117  0.355175  0.997790  1
  Sn  Sn10  1  0.999510  0.650572  0.999998  1
  Sn  Sn11  1  0.650850  0.649714  0.999341  1
  Sn  Sn12  1  0.350286  0.349150  0.999341  1
  Sn  Sn13  1  0.334046  0.665954  0.816204  1
  Sn  Sn14  1  0.663040  0.336960  0.183690  1
  Sn  Sn15  1  0.999380  0.000620  0.498778  1
  Sn  Sn16  1  0.777401  0.222599  0.461860  1
  Sn  Sn17  1  0.218796  0.781204  0.540597  1
  Sn  Sn18  1  0.780914  0.562053  0.460187  1
  Sn  Sn19  1  0.219797  0.439712  0.540621  1
  Sn  Sn20  1  0.437947  0.219086  0.460187  1
  Sn  Sn21  1  0.560288  0.780203  0.540621  1
  Sn  Sn22  1  0.333712  0.666288  0.121682  1
  Sn  Sn23  1  0.667848  0.332152  0.879448  1
  Sn  Sn24  1  0.119160  0.880840  0.273421  1
  Sn  Sn25  1  0.881604  0.118396  0.725913  1
  Sn  Sn26  1  0.121139  0.238096  0.277881  1
  Sn  Sn27  1  0.882999  0.763820  0.725143  1
  Sn  Sn28  1  0.761904  0.878861  0.277881  1
  Sn  Sn29  1  0.236180  0.117001  0.725143  1
  Pd  Pd30  1  0.829221  0.170779  0.199011  1
  Ru  Ru31  1  0.169887  0.830113  0.799983  1
  Ru  Ru32  1  0.830950  0.661002  0.200878  1
  Ru  Ru33  1  0.170319  0.337982  0.797626  1
  Ru  Ru34  1  0.338998  0.169050  0.200878  1
  Ru  Ru35  1  0.662018  0.829681  0.797626  1
