# generated using pymatgen
data_Dy5TaTi2(Co4P3)4
_symmetry_space_group_name_H-M   'P 1'
_cell_length_a   12.14446414
_cell_length_b   12.15358567
_cell_length_c   3.68248300
_cell_angle_alpha   90.00000000
_cell_angle_beta   90.00000000
_cell_angle_gamma   120.02483893
_symmetry_Int_Tables_number   1
_chemical_formula_structural   Dy5TaTi2(Co4P3)4
_chemical_formula_sum   'Dy5 Ta1 Ti2 Co16 P12'
_cell_volume   470.59294327
_cell_formula_units_Z   1
loop_
 _symmetry_equiv_pos_site_id
 _symmetry_equiv_pos_as_xyz
  1  'x, y, z'
loop_
 _atom_site_type_symbol
 _atom_site_label
 _atom_site_symmetry_multiplicity
 _atom_site_fract_x
 _atom_site_fract_y
 _atom_site_fract_z
 _atom_site_occupancy
  Dy  Dy0  1  0.666038  0.333516  0.000000  1
  Dy  Dy1  1  0.333962  0.667480  0.000000  1
  Dy  Dy2  1  0.184614  0.184215  0.500000  1
  Dy  Dy3  1  0.815386  0.999601  0.500000  1
  Dy  Dy4  1  0.000000  0.816731  0.500000  1
  Ta  Ta5  1  0.000000  0.442718  0.000000  1
  Ti  Ti6  1  0.559350  0.559572  0.000000  1
  Ti  Ti7  1  0.440650  0.000221  0.000000  1
  Co  Co8  1  0.822893  0.197485  0.000000  1
  Co  Co9  1  0.801450  0.624332  0.000000  1
  Co  Co10  1  0.375454  0.177088  0.000000  1
  Co  Co11  1  0.198550  0.822883  0.000000  1
  Co  Co12  1  0.624546  0.801635  0.000000  1
  Co  Co13  1  0.177107  0.374594  0.000000  1
  Co  Co14  1  0.644359  0.125192  0.500000  1
  Co  Co15  1  0.874170  0.518888  0.500000  1
  Co  Co16  1  0.480473  0.355603  0.500000  1
  Co  Co17  1  0.125830  0.644719  0.500000  1
  Co  Co18  1  0.519527  0.875130  0.500000  1
  Co  Co19  1  0.355641  0.480833  0.500000  1
  Co  Co20  1  0.718589  0.718317  0.500000  1
  Co  Co21  1  0.281411  0.999728  0.500000  1
  Co  Co22  1  0.000000  0.280184  0.500000  1
  Co  Co23  1  0.000000  0.999461  0.000000  1
  P  P24  1  0.358680  0.357993  0.000000  1
  P  P25  1  0.641320  0.999313  0.000000  1
  P  P26  1  0.000000  0.644879  0.000000  1
  P  P27  1  0.830627  0.310787  0.500000  1
  P  P28  1  0.686610  0.520024  0.500000  1
  P  P29  1  0.479635  0.167044  0.500000  1
  P  P30  1  0.313390  0.833415  0.500000  1
  P  P31  1  0.520365  0.687410  0.500000  1
  P  P32  1  0.169373  0.480160  0.500000  1
  P  P33  1  0.820764  0.820899  0.000000  1
  P  P34  1  0.179236  0.000135  0.000000  1
  P  P35  1  0.000000  0.177816  0.000000  1
