# generated using pymatgen
data_YBi3Te10
_symmetry_space_group_name_H-M   'P 1'
_cell_length_a   23.87274223
_cell_length_b   23.87274167
_cell_length_c   3.18212500
_cell_angle_alpha   90.00000000
_cell_angle_beta   90.00000000
_cell_angle_gamma   166.31665380
_symmetry_Int_Tables_number   1
_chemical_formula_structural   YBi3Te10
_chemical_formula_sum   'Y1 Bi3 Te10'
_cell_volume   428.99806873
_cell_formula_units_Z   1
loop_
 _symmetry_equiv_pos_site_id
 _symmetry_equiv_pos_as_xyz
  1  'x, y, z'
loop_
 _atom_site_type_symbol
 _atom_site_label
 _atom_site_symmetry_multiplicity
 _atom_site_fract_x
 _atom_site_fract_y
 _atom_site_fract_z
 _atom_site_occupancy
  Y  Y0  1  0.104200  0.895800  0.750000  1
  Bi  Bi1  1  0.682295  0.317705  0.250000  1
  Bi  Bi2  1  0.319902  0.680098  0.750000  1
  Bi  Bi3  1  0.887401  0.112599  0.250000  1
  Te  Te4  1  0.618252  0.381748  0.250000  1
  Te  Te5  1  0.385945  0.614055  0.750000  1
  Te  Te6  1  0.821430  0.178570  0.250000  1
  Te  Te7  1  0.173487  0.826513  0.750000  1
  Te  Te8  1  0.955685  0.044315  0.750000  1
  Te  Te9  1  0.046017  0.953983  0.250000  1
  Te  Te10  1  0.544677  0.455323  0.750000  1
  Te  Te11  1  0.459818  0.540182  0.250000  1
  Te  Te12  1  0.748495  0.251505  0.750000  1
  Te  Te13  1  0.252395  0.747605  0.250000  1
