# generated using pymatgen
data_Na3TbMn3(AsO5)3
_symmetry_space_group_name_H-M   'P 1'
_cell_length_a   11.27569900
_cell_length_b   11.27569857
_cell_length_c   6.12645600
_cell_angle_alpha   90.00000000
_cell_angle_beta   90.00000000
_cell_angle_gamma   120.00000418
_symmetry_Int_Tables_number   1
_chemical_formula_structural   Na3TbMn3(AsO5)3
_chemical_formula_sum   'Na6 Tb2 Mn6 As6 O30'
_cell_volume   674.56975287
_cell_formula_units_Z   2
loop_
 _symmetry_equiv_pos_site_id
 _symmetry_equiv_pos_as_xyz
  1  'x, y, z'
loop_
 _atom_site_type_symbol
 _atom_site_label
 _atom_site_symmetry_multiplicity
 _atom_site_fract_x
 _atom_site_fract_y
 _atom_site_fract_z
 _atom_site_occupancy
  Na  Na0  1  0.840843  0.733985  0.750000  1
  Na  Na1  1  0.893142  0.159157  0.750000  1
  Na  Na2  1  0.266015  0.106858  0.750000  1
  Na  Na3  1  0.159157  0.266015  0.250000  1
  Na  Na4  1  0.106858  0.840843  0.250000  1
  Na  Na5  1  0.733985  0.893142  0.250000  1
  Tb  Tb6  1  0.333333  0.666667  0.250000  1
  Tb  Tb7  1  0.666667  0.333333  0.750000  1
  Mn  Mn8  1  0.500000  0.500000  0.500000  1
  Mn  Mn9  1  0.000000  0.500000  0.500000  1
  Mn  Mn10  1  0.500000  0.000000  0.500000  1
  Mn  Mn11  1  0.500000  0.500000  0.000000  1
  Mn  Mn12  1  0.000000  0.500000  0.000000  1
  Mn  Mn13  1  0.500000  0.000000  0.000000  1
  As  As14  1  0.213523  0.401907  0.750000  1
  As  As15  1  0.188385  0.786477  0.750000  1
  As  As16  1  0.598093  0.811615  0.750000  1
  As  As17  1  0.786477  0.598093  0.250000  1
  As  As18  1  0.811615  0.213523  0.250000  1
  As  As19  1  0.401907  0.188385  0.250000  1
  O  O20  1  0.521956  0.613013  0.250000  1
  O  O21  1  0.091057  0.478044  0.250000  1
  O  O22  1  0.386987  0.908943  0.250000  1
  O  O23  1  0.478044  0.386987  0.750000  1
  O  O24  1  0.908943  0.521956  0.750000  1
  O  O25  1  0.613013  0.091057  0.750000  1
  O  O26  1  0.308347  0.485723  0.518554  1
  O  O27  1  0.177376  0.691653  0.518554  1
  O  O28  1  0.514277  0.822624  0.518554  1
  O  O29  1  0.691653  0.514277  0.018554  1
  O  O30  1  0.822624  0.308347  0.018554  1
  O  O31  1  0.485723  0.177376  0.018554  1
  O  O32  1  0.691653  0.514277  0.481446  1
  O  O33  1  0.822624  0.308347  0.481446  1
  O  O34  1  0.485723  0.177376  0.481446  1
  O  O35  1  0.308347  0.485723  0.981446  1
  O  O36  1  0.177376  0.691653  0.981446  1
  O  O37  1  0.514277  0.822624  0.981446  1
  O  O38  1  0.069413  0.418152  0.750000  1
  O  O39  1  0.348740  0.930587  0.750000  1
  O  O40  1  0.581848  0.651260  0.750000  1
  O  O41  1  0.930587  0.581848  0.250000  1
  O  O42  1  0.651260  0.069413  0.250000  1
  O  O43  1  0.418152  0.348740  0.250000  1
  O  O44  1  0.152886  0.231160  0.750000  1
  O  O45  1  0.078275  0.847114  0.750000  1
  O  O46  1  0.768840  0.921725  0.750000  1
  O  O47  1  0.847114  0.768840  0.250000  1
  O  O48  1  0.921725  0.152886  0.250000  1
  O  O49  1  0.231160  0.078275  0.250000  1
