# generated using pymatgen
data_Ho2(ThTc)3
_symmetry_space_group_name_H-M   'P 1'
_cell_length_a   6.44954000
_cell_length_b   8.26456525
_cell_length_c   8.26417300
_cell_angle_alpha   120.00157317
_cell_angle_beta   90.00000000
_cell_angle_gamma   90.00000000
_symmetry_Int_Tables_number   1
_chemical_formula_structural   Ho2(ThTc)3
_chemical_formula_sum   'Ho4 Th6 Tc6'
_cell_volume   381.48011100
_cell_formula_units_Z   2
loop_
 _symmetry_equiv_pos_site_id
 _symmetry_equiv_pos_as_xyz
  1  'x, y, z'
loop_
 _atom_site_type_symbol
 _atom_site_label
 _atom_site_symmetry_multiplicity
 _atom_site_fract_x
 _atom_site_fract_y
 _atom_site_fract_z
 _atom_site_occupancy
  Ho  Ho0  1  0.500003  0.333340  0.666683  1
  Ho  Ho1  1  0.500003  0.666658  0.333317  1
  Ho  Ho2  1  0.000003  0.666660  0.333317  1
  Ho  Ho3  1  0.000003  0.333342  0.666683  1
  Th  Th4  1  0.749990  0.247920  0.000000  1
  Th  Th5  1  0.749997  0.752073  0.752040  1
  Th  Th6  1  0.749997  0.000034  0.247960  1
  Th  Th7  1  0.249990  0.752080  0.000000  1
  Th  Th8  1  0.249997  0.247927  0.247960  1
  Th  Th9  1  0.249997  0.999966  0.752040  1
  Tc  Tc10  1  0.750000  0.614703  0.000000  1
  Tc  Tc11  1  0.750004  0.385283  0.385280  1
  Tc  Tc12  1  0.750004  0.000003  0.614720  1
  Tc  Tc13  1  0.250000  0.385297  0.000000  1
  Tc  Tc14  1  0.250004  0.614717  0.614720  1
  Tc  Tc15  1  0.250004  0.999997  0.385280  1
