# generated using pymatgen
data_Nd2Fe3Co8NiP7
_symmetry_space_group_name_H-M   'P 1'
_cell_length_a   9.07792662
_cell_length_b   9.07260802
_cell_length_c   3.67505500
_cell_angle_alpha   90.00000000
_cell_angle_beta   90.00000000
_cell_angle_gamma   119.90383060
_symmetry_Int_Tables_number   1
_chemical_formula_structural   Nd2Fe3Co8NiP7
_chemical_formula_sum   'Nd2 Fe3 Co8 Ni1 P7'
_cell_volume   262.38157521
_cell_formula_units_Z   1
loop_
 _symmetry_equiv_pos_site_id
 _symmetry_equiv_pos_as_xyz
  1  'x, y, z'
loop_
 _atom_site_type_symbol
 _atom_site_label
 _atom_site_symmetry_multiplicity
 _atom_site_fract_x
 _atom_site_fract_y
 _atom_site_fract_z
 _atom_site_occupancy
  Nd  Nd0  1  0.665667  0.332153  0.000000  1
  Nd  Nd1  1  0.333447  0.666822  0.500000  1
  Fe  Fe2  1  0.092653  0.878961  0.500000  1
  Fe  Fe3  1  0.785398  0.906219  0.500000  1
  Fe  Fe4  1  0.121130  0.214762  0.500000  1
  Co  Co5  1  0.571549  0.941394  0.000000  1
  Co  Co6  1  0.371566  0.429952  0.000000  1
  Co  Co7  1  0.270897  0.117931  0.000000  1
  Co  Co8  1  0.845724  0.727045  0.000000  1
  Co  Co9  1  0.881686  0.153394  0.000000  1
  Co  Co10  1  0.430143  0.049233  0.500000  1
  Co  Co11  1  0.617247  0.570142  0.500000  1
  Co  Co12  1  0.952422  0.383027  0.500000  1
  Ni  Ni13  1  0.059794  0.629056  0.000000  1
  P  P14  1  0.303036  0.896460  0.000000  1
  P  P15  1  0.594598  0.702815  0.000000  1
  P  P16  1  0.108734  0.401258  0.000000  1
  P  P17  1  0.397565  0.292335  0.500000  1
  P  P18  1  0.888296  0.601062  0.500000  1
  P  P19  1  0.709335  0.106610  0.500000  1
  P  P20  1  0.999111  0.999369  0.000000  1
