# generated using pymatgen
data_K5LuO4
_symmetry_space_group_name_H-M   'P 1'
_cell_length_a   6.31559000
_cell_length_b   8.24767000
_cell_length_c   8.60932600
_cell_angle_alpha   90.00000000
_cell_angle_beta   90.00000000
_cell_angle_gamma   90.00000000
_symmetry_Int_Tables_number   1
_chemical_formula_structural   K5LuO4
_chemical_formula_sum   'K10 Lu2 O8'
_cell_volume   448.45033981
_cell_formula_units_Z   2
loop_
 _symmetry_equiv_pos_site_id
 _symmetry_equiv_pos_as_xyz
  1  'x, y, z'
loop_
 _atom_site_type_symbol
 _atom_site_label
 _atom_site_symmetry_multiplicity
 _atom_site_fract_x
 _atom_site_fract_y
 _atom_site_fract_z
 _atom_site_occupancy
  K  K0  1  0.259304  0.763629  0.810320  1
  K  K1  1  0.259304  0.236371  0.810320  1
  K  K2  1  0.821750  0.500000  0.000000  1
  K  K3  1  0.259304  0.763629  0.189680  1
  K  K4  1  0.259304  0.236371  0.189680  1
  K  K5  1  0.740696  0.736371  0.310320  1
  K  K6  1  0.740696  0.263629  0.310320  1
  K  K7  1  0.178250  0.000000  0.500000  1
  K  K8  1  0.740696  0.736371  0.689680  1
  K  K9  1  0.740696  0.263629  0.689680  1
  Lu  Lu10  1  0.785840  0.000000  0.000000  1
  Lu  Lu11  1  0.214160  0.500000  0.500000  1
  O  O12  1  0.966457  0.000000  0.791903  1
  O  O13  1  0.608633  0.782769  0.000000  1
  O  O14  1  0.608633  0.217231  0.000000  1
  O  O15  1  0.966457  0.000000  0.208097  1
  O  O16  1  0.033543  0.500000  0.291903  1
  O  O17  1  0.391367  0.717231  0.500000  1
  O  O18  1  0.391367  0.282769  0.500000  1
  O  O19  1  0.033543  0.500000  0.708097  1
