# generated using pymatgen
data_Gd4Al18(TcPd)3
_symmetry_space_group_name_H-M   'P 1'
_cell_length_a   7.59630820
_cell_length_b   7.59630549
_cell_length_c   9.74017000
_cell_angle_alpha   89.98670997
_cell_angle_beta   89.98670997
_cell_angle_gamma   119.97736453
_symmetry_Int_Tables_number   1
_chemical_formula_structural   Gd4Al18(TcPd)3
_chemical_formula_sum   'Gd4 Al18 Tc3 Pd3'
_cell_volume   486.85668091
_cell_formula_units_Z   1
loop_
 _symmetry_equiv_pos_site_id
 _symmetry_equiv_pos_as_xyz
  1  'x, y, z'
loop_
 _atom_site_type_symbol
 _atom_site_label
 _atom_site_symmetry_multiplicity
 _atom_site_fract_x
 _atom_site_fract_y
 _atom_site_fract_z
 _atom_site_occupancy
  Gd  Gd0  1  0.999012  0.668892  0.251884  1
  Gd  Gd1  1  0.005471  0.333751  0.748158  1
  Gd  Gd2  1  0.666250  0.994530  0.251842  1
  Gd  Gd3  1  0.331108  0.000987  0.748116  1
  Al  Al4  1  0.132761  0.131014  0.248374  1
  Al  Al5  1  0.868986  0.867239  0.751626  1
  Al  Al6  1  0.005952  0.338205  0.072165  1
  Al  Al7  1  0.998964  0.666463  0.927103  1
  Al  Al8  1  0.993908  0.662278  0.573368  1
  Al  Al9  1  0.337721  0.006092  0.426632  1
  Al  Al10  1  0.008465  0.336433  0.425262  1
  Al  Al11  1  0.663568  0.991537  0.574739  1
  Al  Al12  1  0.661795  0.994047  0.927835  1
  Al  Al13  1  0.333537  0.001036  0.072897  1
  Al  Al14  1  0.342700  0.341490  0.552677  1
  Al  Al15  1  0.658510  0.657300  0.447324  1
  Al  Al16  1  0.657989  0.664924  0.055014  1
  Al  Al17  1  0.335076  0.342010  0.944985  1
  Al  Al18  1  0.336965  0.548188  0.248746  1
  Al  Al19  1  0.664507  0.454577  0.746644  1
  Al  Al20  1  0.545422  0.335494  0.253355  1
  Al  Al21  1  0.451813  0.663034  0.751254  1
  Tc  Tc22  1  0.326141  0.673859  0.000000  1
  Tc  Tc23  1  0.326228  0.673773  0.500000  1
  Tc  Tc24  1  0.675670  0.324330  0.500000  1
  Pd  Pd25  1  0.671639  0.328360  0.999999  1
  Pd  Pd26  1  0.999422  0.000578  0.000000  1
  Pd  Pd27  1  0.000421  0.999579  0.500000  1
