# generated using pymatgen
data_Bi6Sb(RuO9)2
_symmetry_space_group_name_H-M   'P 1'
_cell_length_a   9.26591300
_cell_length_b   9.26591271
_cell_length_c   5.31671900
_cell_angle_alpha   90.00000000
_cell_angle_beta   90.00000000
_cell_angle_gamma   119.99999747
_symmetry_Int_Tables_number   1
_chemical_formula_structural   Bi6Sb(RuO9)2
_chemical_formula_sum   'Bi6 Sb1 Ru2 O18'
_cell_volume   395.32180809
_cell_formula_units_Z   1
loop_
 _symmetry_equiv_pos_site_id
 _symmetry_equiv_pos_as_xyz
  1  'x, y, z'
loop_
 _atom_site_type_symbol
 _atom_site_label
 _atom_site_symmetry_multiplicity
 _atom_site_fract_x
 _atom_site_fract_y
 _atom_site_fract_z
 _atom_site_occupancy
  Bi  Bi0  1  0.998337  0.375854  0.500475  1
  Bi  Bi1  1  0.282688  0.286790  0.004823  1
  Bi  Bi2  1  0.004102  0.717312  0.004823  1
  Bi  Bi3  1  0.624146  0.622483  0.500475  1
  Bi  Bi4  1  0.377517  0.001663  0.500475  1
  Bi  Bi5  1  0.713210  0.995898  0.004823  1
  Sb  Sb6  1  0.666667  0.333333  0.996558  1
  Ru  Ru7  1  0.000000  0.000000  0.496102  1
  Ru  Ru8  1  0.333333  0.666667  0.005451  1
  O  O9  1  0.078543  0.197147  0.703381  1
  O  O10  1  0.225060  0.467965  0.217742  1
  O  O11  1  0.135960  0.597223  0.799429  1
  O  O12  1  0.402777  0.538737  0.799429  1
  O  O13  1  0.242907  0.774940  0.217742  1
  O  O14  1  0.118604  0.921457  0.703381  1
  O  O15  1  0.532035  0.757093  0.217742  1
  O  O16  1  0.197830  0.071263  0.281396  1
  O  O17  1  0.461263  0.864040  0.799429  1
  O  O18  1  0.802853  0.881396  0.703381  1
  O  O19  1  0.458346  0.229959  0.780854  1
  O  O20  1  0.595683  0.130052  0.212530  1
  O  O21  1  0.534369  0.404317  0.212530  1
  O  O22  1  0.770041  0.228388  0.780854  1
  O  O23  1  0.928737  0.126567  0.281396  1
  O  O24  1  0.771612  0.541654  0.780854  1
  O  O25  1  0.869948  0.465631  0.212530  1
  O  O26  1  0.873433  0.802170  0.281396  1
