# generated using pymatgen
data_Pr8Y12Ga11Si5
_symmetry_space_group_name_H-M   'P 1'
_cell_length_a   7.61734320
_cell_length_b   8.01943024
_cell_length_c   15.20958501
_cell_angle_alpha   89.96461731
_cell_angle_beta   90.14883651
_cell_angle_gamma   90.21022174
_symmetry_Int_Tables_number   1
_chemical_formula_structural   Pr8Y12Ga11Si5
_chemical_formula_sum   'Pr8 Y12 Ga11 Si5'
_cell_volume   929.09459370
_cell_formula_units_Z   1
loop_
 _symmetry_equiv_pos_site_id
 _symmetry_equiv_pos_as_xyz
  1  'x, y, z'
loop_
 _atom_site_type_symbol
 _atom_site_label
 _atom_site_symmetry_multiplicity
 _atom_site_fract_x
 _atom_site_fract_y
 _atom_site_fract_z
 _atom_site_occupancy
  Pr  Pr0  1  0.019956  0.180226  0.406075  1
  Pr  Pr1  1  0.518341  0.321421  0.406771  1
  Pr  Pr2  1  0.483778  0.680357  0.905774  1
  Pr  Pr3  1  0.482561  0.684143  0.593468  1
  Pr  Pr4  1  0.981895  0.814665  0.593524  1
  Pr  Pr5  1  0.980719  0.820810  0.905741  1
  Pr  Pr6  1  0.515909  0.318519  0.095052  1
  Pr  Pr7  1  0.016767  0.183351  0.095068  1
  Y  Y8  1  0.326320  0.174464  0.620906  1
  Y  Y9  1  0.673741  0.820508  0.378651  1
  Y  Y10  1  0.664993  0.980985  0.751651  1
  Y  Y11  1  0.175760  0.677281  0.377922  1
  Y  Y12  1  0.822355  0.323938  0.877684  1
  Y  Y13  1  0.823586  0.327488  0.621645  1
  Y  Y14  1  0.839807  0.485162  0.251315  1
  Y  Y15  1  0.336558  0.018079  0.251478  1
  Y  Y16  1  0.328250  0.176702  0.876756  1
  Y  Y17  1  0.174714  0.672610  0.123532  1
  Y  Y18  1  0.673207  0.824881  0.122077  1
  Y  Y19  1  0.159294  0.514191  0.750567  1
  Ga  Ga20  1  0.274335  0.878406  0.749158  1
  Ga  Ga21  1  0.468197  0.606586  0.251361  1
  Ga  Ga22  1  0.031905  0.113731  0.748203  1
  Ga  Ga23  1  0.531100  0.394275  0.748678  1
  Ga  Ga24  1  0.153302  0.469010  0.539967  1
  Ga  Ga25  1  0.967473  0.887116  0.250396  1
  Ga  Ga26  1  0.725151  0.121784  0.251465  1
  Ga  Ga27  1  0.844747  0.530757  0.041215  1
  Ga  Ga28  1  0.344535  0.967275  0.040178  1
  Ga  Ga29  1  0.153962  0.469062  0.958120  1
  Ga  Ga30  1  0.655110  0.032740  0.539712  1
  Si  Si31  1  0.349031  0.968949  0.458211  1
  Si  Si32  1  0.851151  0.529077  0.457561  1
  Si  Si33  1  0.775318  0.617811  0.749051  1
  Si  Si34  1  0.225123  0.381989  0.251630  1
  Si  Si35  1  0.651051  0.031652  0.959435  1
