# generated using pymatgen
data_SmYMn5(NiP)7
_symmetry_space_group_name_H-M   'P 1'
_cell_length_a   9.17986834
_cell_length_b   9.15791537
_cell_length_c   3.69232700
_cell_angle_alpha   90.00000000
_cell_angle_beta   90.00000000
_cell_angle_gamma   119.93650464
_symmetry_Int_Tables_number   1
_chemical_formula_structural   SmYMn5(NiP)7
_chemical_formula_sum   'Sm1 Y1 Mn5 Ni7 P7'
_cell_volume   268.99324977
_cell_formula_units_Z   1
loop_
 _symmetry_equiv_pos_site_id
 _symmetry_equiv_pos_as_xyz
  1  'x, y, z'
loop_
 _atom_site_type_symbol
 _atom_site_label
 _atom_site_symmetry_multiplicity
 _atom_site_fract_x
 _atom_site_fract_y
 _atom_site_fract_z
 _atom_site_occupancy
  Sm  Sm0  1  0.334396  0.667015  0.500000  1
  Y  Y1  1  0.665272  0.332728  0.000000  1
  Mn  Mn2  1  0.727369  0.880832  0.500000  1
  Mn  Mn3  1  0.120581  0.843451  0.500000  1
  Mn  Mn4  1  0.217572  0.099003  0.000000  1
  Mn  Mn5  1  0.901821  0.121005  0.000000  1
  Mn  Mn6  1  0.878013  0.777455  0.000000  1
  Ni  Ni7  1  0.435827  0.063310  0.500000  1
  Ni  Ni8  1  0.939569  0.374123  0.500000  1
  Ni  Ni9  1  0.628406  0.565201  0.500000  1
  Ni  Ni10  1  0.153418  0.276546  0.500000  1
  Ni  Ni11  1  0.384346  0.434467  0.000000  1
  Ni  Ni12  1  0.565324  0.950714  0.000000  1
  Ni  Ni13  1  0.047542  0.612602  0.000000  1
  P  P14  1  0.112023  0.401795  0.000000  1
  P  P15  1  0.600081  0.712399  0.000000  1
  P  P16  1  0.287766  0.889026  0.000000  1
  P  P17  1  0.001041  0.997982  0.500000  1
  P  P18  1  0.406946  0.295328  0.500000  1
  P  P19  1  0.704724  0.111481  0.500000  1
  P  P20  1  0.887962  0.593538  0.500000  1
