# generated using pymatgen
data_CaLa2Zr(GaO3)4
_symmetry_space_group_name_H-M   'P 1'
_cell_length_a   11.04705774
_cell_length_b   11.12730663
_cell_length_c   11.14426111
_cell_angle_alpha   109.31097496
_cell_angle_beta   109.39673043
_cell_angle_gamma   109.23275939
_symmetry_Int_Tables_number   1
_chemical_formula_structural   CaLa2Zr(GaO3)4
_chemical_formula_sum   'Ca4 La8 Zr4 Ga16 O48'
_cell_volume   1060.65941230
_cell_formula_units_Z   4
loop_
 _symmetry_equiv_pos_site_id
 _symmetry_equiv_pos_as_xyz
  1  'x, y, z'
loop_
 _atom_site_type_symbol
 _atom_site_label
 _atom_site_symmetry_multiplicity
 _atom_site_fract_x
 _atom_site_fract_y
 _atom_site_fract_z
 _atom_site_occupancy
  Ca  Ca0  1  0.621984  0.235044  0.369434  1
  Ca  Ca1  1  0.872348  0.120506  0.242303  1
  Ca  Ca2  1  0.127652  0.879494  0.757697  1
  Ca  Ca3  1  0.378016  0.764956  0.630566  1
  La  La4  1  0.249776  0.624617  0.875501  1
  La  La5  1  0.628385  0.370016  0.748662  1
  La  La6  1  0.126150  0.250630  0.880705  1
  La  La7  1  0.250291  0.122975  0.369066  1
  La  La8  1  0.873850  0.749370  0.119295  1
  La  La9  1  0.749709  0.877025  0.630934  1
  La  La10  1  0.371615  0.629984  0.251338  1
  La  La11  1  0.750224  0.375383  0.124499  1
  Zr  Zr12  1  0.000000  0.000000  0.500000  1
  Zr  Zr13  1  0.500000  0.000000  0.000000  1
  Zr  Zr14  1  0.000000  0.500000  0.500000  1
  Zr  Zr15  1  0.500000  0.500000  0.500000  1
  Ga  Ga16  1  0.885121  0.637109  0.762040  1
  Ga  Ga17  1  0.623679  0.749578  0.873203  1
  Ga  Ga18  1  0.867101  0.251675  0.626902  1
  Ga  Ga19  1  0.246328  0.870874  0.127370  1
  Ga  Ga20  1  0.254778  0.375147  0.632275  1
  Ga  Ga21  1  0.500000  0.500000  0.000000  1
  Ga  Ga22  1  0.000000  0.000000  0.000000  1
  Ga  Ga23  1  0.625523  0.875813  0.250220  1
  Ga  Ga24  1  0.374477  0.124187  0.749780  1
  Ga  Ga25  1  0.500000  0.000000  0.500000  1
  Ga  Ga26  1  0.753672  0.129126  0.872629  1
  Ga  Ga27  1  0.745222  0.624853  0.367725  1
  Ga  Ga28  1  0.132899  0.748325  0.373098  1
  Ga  Ga29  1  0.000000  0.500000  0.000000  1
  Ga  Ga30  1  0.376321  0.250422  0.126797  1
  Ga  Ga31  1  0.114879  0.362891  0.237960  1
  O  O32  1  0.296305  0.878489  0.983699  1
  O  O33  1  0.421723  0.294561  0.320505  1
  O  O34  1  0.691033  0.491315  0.610056  1
  O  O35  1  0.027278  0.627341  0.708144  1
  O  O36  1  0.474923  0.793766  0.876521  1
  O  O37  1  0.205010  0.517636  0.622604  1
  O  O38  1  0.876966  0.298355  0.483260  1
  O  O39  1  0.017676  0.401664  0.819708  1
  O  O40  1  0.671023  0.198360  0.577780  1
  O  O41  1  0.398314  0.014579  0.318762  1
  O  O42  1  0.623948  0.021497  0.203527  1
  O  O43  1  0.616196  0.596446  0.915573  1
  O  O44  1  0.076921  0.172680  0.196264  1
  O  O45  1  0.403812  0.378028  0.585835  1
  O  O46  1  0.301231  0.417891  0.824704  1
  O  O47  1  0.104897  0.185481  0.483483  1
  O  O48  1  0.884203  0.583675  0.905921  1
  O  O49  1  0.817474  0.898904  0.015436  1
  O  O50  1  0.914790  0.100946  0.622349  1
  O  O51  1  0.197916  0.676141  0.080979  1
  O  O52  1  0.585084  0.882398  0.403051  1
  O  O53  1  0.819393  0.917341  0.293877  1
  O  O54  1  0.520886  0.319308  0.901061  1
  O  O55  1  0.095282  0.916292  0.118344  1
  O  O56  1  0.904718  0.083708  0.881656  1
  O  O57  1  0.479114  0.680692  0.098939  1
  O  O58  1  0.180607  0.082659  0.706123  1
  O  O59  1  0.414916  0.117602  0.596949  1
  O  O60  1  0.802084  0.323859  0.919021  1
  O  O61  1  0.085210  0.899054  0.377651  1
  O  O62  1  0.182526  0.101096  0.984564  1
  O  O63  1  0.115797  0.416325  0.094079  1
  O  O64  1  0.895103  0.814519  0.516517  1
  O  O65  1  0.698769  0.582109  0.175296  1
  O  O66  1  0.596188  0.621972  0.414165  1
  O  O67  1  0.923079  0.827320  0.803736  1
  O  O68  1  0.383804  0.403554  0.084427  1
  O  O69  1  0.376052  0.978503  0.796473  1
  O  O70  1  0.601686  0.985421  0.681238  1
  O  O71  1  0.328977  0.801640  0.422220  1
  O  O72  1  0.982324  0.598336  0.180292  1
  O  O73  1  0.123034  0.701645  0.516740  1
  O  O74  1  0.794990  0.482364  0.377396  1
  O  O75  1  0.525077  0.206234  0.123479  1
  O  O76  1  0.972722  0.372659  0.291856  1
  O  O77  1  0.308967  0.508685  0.389944  1
  O  O78  1  0.578277  0.705439  0.679495  1
  O  O79  1  0.703695  0.121511  0.016301  1
