# generated using pymatgen
data_Eu2(CuAu2)3
_symmetry_space_group_name_H-M   'P 1'
_cell_length_a   8.69091501
_cell_length_b   8.69091504
_cell_length_c   8.69091470
_cell_angle_alpha   57.53277111
_cell_angle_beta   57.53277269
_cell_angle_gamma   57.53276541
_symmetry_Int_Tables_number   1
_chemical_formula_structural   Eu2(CuAu2)3
_chemical_formula_sum   'Eu4 Cu6 Au12'
_cell_volume   437.83961023
_cell_formula_units_Z   2
loop_
 _symmetry_equiv_pos_site_id
 _symmetry_equiv_pos_as_xyz
  1  'x, y, z'
loop_
 _atom_site_type_symbol
 _atom_site_label
 _atom_site_symmetry_multiplicity
 _atom_site_fract_x
 _atom_site_fract_y
 _atom_site_fract_z
 _atom_site_occupancy
  Eu  Eu0  1  0.907677  0.907677  0.907677  1
  Eu  Eu1  1  0.407677  0.407677  0.407677  1
  Eu  Eu2  1  0.092323  0.092323  0.092323  1
  Eu  Eu3  1  0.592323  0.592323  0.592323  1
  Cu  Cu4  1  0.573497  0.750000  0.926503  1
  Cu  Cu5  1  0.926503  0.573497  0.750000  1
  Cu  Cu6  1  0.750000  0.926503  0.573497  1
  Cu  Cu7  1  0.426503  0.250000  0.073497  1
  Cu  Cu8  1  0.073497  0.426503  0.250000  1
  Cu  Cu9  1  0.250000  0.073497  0.426503  1
  Au  Au10  1  0.477979  0.862584  0.204490  1
  Au  Au11  1  0.204490  0.477979  0.862584  1
  Au  Au12  1  0.862584  0.204490  0.477979  1
  Au  Au13  1  0.704490  0.362584  0.977979  1
  Au  Au14  1  0.977979  0.704490  0.362584  1
  Au  Au15  1  0.362584  0.977979  0.704490  1
  Au  Au16  1  0.522021  0.137416  0.795510  1
  Au  Au17  1  0.795510  0.522021  0.137416  1
  Au  Au18  1  0.137416  0.795510  0.522021  1
  Au  Au19  1  0.295510  0.637416  0.022021  1
  Au  Au20  1  0.022021  0.295510  0.637416  1
  Au  Au21  1  0.637416  0.022021  0.295510  1
