# generated using pymatgen
data_Sc6Zn23O
_symmetry_space_group_name_H-M   'P 1'
_cell_length_a   8.70447880
_cell_length_b   8.70447857
_cell_length_c   8.70447900
_cell_angle_alpha   60.00000218
_cell_angle_beta   60.00000305
_cell_angle_gamma   59.99999897
_symmetry_Int_Tables_number   1
_chemical_formula_structural   Sc6Zn23O
_chemical_formula_sum   'Sc6 Zn23 O1'
_cell_volume   466.35144875
_cell_formula_units_Z   1
loop_
 _symmetry_equiv_pos_site_id
 _symmetry_equiv_pos_as_xyz
  1  'x, y, z'
loop_
 _atom_site_type_symbol
 _atom_site_label
 _atom_site_symmetry_multiplicity
 _atom_site_fract_x
 _atom_site_fract_y
 _atom_site_fract_z
 _atom_site_occupancy
  Sc  Sc0  1  0.688697  0.311303  0.311303  1
  Sc  Sc1  1  0.311303  0.688697  0.688697  1
  Sc  Sc2  1  0.311303  0.688697  0.311303  1
  Sc  Sc3  1  0.688697  0.311303  0.688697  1
  Sc  Sc4  1  0.311303  0.311303  0.688697  1
  Sc  Sc5  1  0.688697  0.688697  0.311303  1
  Zn  Zn6  1  0.120982  0.120982  0.120982  1
  Zn  Zn7  1  0.879018  0.879018  0.879018  1
  Zn  Zn8  1  0.120982  0.120982  0.637056  1
  Zn  Zn9  1  0.120982  0.637056  0.120982  1
  Zn  Zn10  1  0.879018  0.879018  0.362944  1
  Zn  Zn11  1  0.879018  0.362944  0.879018  1
  Zn  Zn12  1  0.637056  0.120982  0.120982  1
  Zn  Zn13  1  0.362944  0.879018  0.879018  1
  Zn  Zn14  1  0.500000  0.000000  0.000000  1
  Zn  Zn15  1  0.000000  0.500000  0.500000  1
  Zn  Zn16  1  0.000000  0.500000  0.000000  1
  Zn  Zn17  1  0.500000  0.000000  0.500000  1
  Zn  Zn18  1  0.000000  0.000000  0.500000  1
  Zn  Zn19  1  0.500000  0.500000  0.000000  1
  Zn  Zn20  1  0.331839  0.331839  0.331839  1
  Zn  Zn21  1  0.668161  0.668161  0.668161  1
  Zn  Zn22  1  0.331839  0.331839  0.004484  1
  Zn  Zn23  1  0.331839  0.004484  0.331839  1
  Zn  Zn24  1  0.668161  0.668161  0.995516  1
  Zn  Zn25  1  0.668161  0.995516  0.668161  1
  Zn  Zn26  1  0.004484  0.331839  0.331839  1
  Zn  Zn27  1  0.995516  0.668161  0.668161  1
  Zn  Zn28  1  0.000000  0.000000  0.000000  1
  O  O29  1  0.500000  0.500000  0.500000  1
