# generated using pymatgen
data_Ac4ThRu2
_symmetry_space_group_name_H-M   'P 1'
_cell_length_a   9.65422803
_cell_length_b   9.65422897
_cell_length_c   7.53717925
_cell_angle_alpha   82.83695167
_cell_angle_beta   82.83694857
_cell_angle_gamma   41.40149000
_symmetry_Int_Tables_number   1
_chemical_formula_structural   Ac4ThRu2
_chemical_formula_sum   'Ac8 Th2 Ru4'
_cell_volume   460.43677398
_cell_formula_units_Z   2
loop_
 _symmetry_equiv_pos_site_id
 _symmetry_equiv_pos_as_xyz
  1  'x, y, z'
loop_
 _atom_site_type_symbol
 _atom_site_label
 _atom_site_symmetry_multiplicity
 _atom_site_fract_x
 _atom_site_fract_y
 _atom_site_fract_z
 _atom_site_occupancy
  Ac  Ac0  1  0.010535  0.804145  0.917339  1
  Ac  Ac1  1  0.195855  0.989465  0.582661  1
  Ac  Ac2  1  0.989465  0.195855  0.082661  1
  Ac  Ac3  1  0.804145  0.010535  0.417339  1
  Ac  Ac4  1  0.360269  0.224427  0.818650  1
  Ac  Ac5  1  0.775573  0.639731  0.681350  1
  Ac  Ac6  1  0.639731  0.775573  0.181350  1
  Ac  Ac7  1  0.224427  0.360269  0.318650  1
  Th  Th8  1  0.573454  0.426546  0.750000  1
  Th  Th9  1  0.426546  0.573454  0.250000  1
  Ru  Ru10  1  0.234037  0.580292  0.558214  1
  Ru  Ru11  1  0.419708  0.765963  0.941786  1
  Ru  Ru12  1  0.765963  0.419708  0.441786  1
  Ru  Ru13  1  0.580292  0.234037  0.058214  1
