# generated using pymatgen
data_Pu3(CuGe)4
_symmetry_space_group_name_H-M   'P 1'
_cell_length_a   4.29407500
_cell_length_b   6.55534367
_cell_length_c   7.95296851
_cell_angle_alpha   114.42769991
_cell_angle_beta   105.66228107
_cell_angle_gamma   90.00000436
_symmetry_Int_Tables_number   1
_chemical_formula_structural   Pu3(CuGe)4
_chemical_formula_sum   'Pu3 Cu4 Ge4'
_cell_volume   194.66309956
_cell_formula_units_Z   1
loop_
 _symmetry_equiv_pos_site_id
 _symmetry_equiv_pos_as_xyz
  1  'x, y, z'
loop_
 _atom_site_type_symbol
 _atom_site_label
 _atom_site_symmetry_multiplicity
 _atom_site_fract_x
 _atom_site_fract_y
 _atom_site_fract_z
 _atom_site_occupancy
  Pu  Pu0  1  0.000000  0.500000  0.000000  1
  Pu  Pu1  1  0.126476  0.126515  0.252953  1
  Pu  Pu2  1  0.873525  0.873485  0.747047  1
  Cu  Cu3  1  0.670126  0.479892  0.340251  1
  Cu  Cu4  1  0.670137  0.860453  0.340271  1
  Cu  Cu5  1  0.329864  0.139547  0.659729  1
  Cu  Cu6  1  0.329875  0.520108  0.659749  1
  Ge  Ge7  1  0.500020  0.192633  0.000039  1
  Ge  Ge8  1  0.499982  0.807366  0.999961  1
  Ge  Ge9  1  0.217497  0.717150  0.434992  1
  Ge  Ge10  1  0.782505  0.282851  0.565008  1
