# generated using pymatgen
data_Ti4PbC2S
_symmetry_space_group_name_H-M   'P 1'
_cell_length_a   3.21019400
_cell_length_b   3.21019439
_cell_length_c   12.65841400
_cell_angle_alpha   90.00000000
_cell_angle_beta   90.00000000
_cell_angle_gamma   119.99999603
_symmetry_Int_Tables_number   1
_chemical_formula_structural   Ti4PbC2S
_chemical_formula_sum   'Ti4 Pb1 C2 S1'
_cell_volume   112.97245175
_cell_formula_units_Z   1
loop_
 _symmetry_equiv_pos_site_id
 _symmetry_equiv_pos_as_xyz
  1  'x, y, z'
loop_
 _atom_site_type_symbol
 _atom_site_label
 _atom_site_symmetry_multiplicity
 _atom_site_fract_x
 _atom_site_fract_y
 _atom_site_fract_z
 _atom_site_occupancy
  Ti  Ti0  1  0.333333  0.666667  0.441320  1
  Ti  Ti1  1  0.666667  0.333333  0.883551  1
  Ti  Ti2  1  0.666667  0.333333  0.616449  1
  Ti  Ti3  1  0.333333  0.666667  0.058680  1
  Pb  Pb4  1  0.666667  0.333333  0.250000  1
  C  C5  1  0.000000  0.000000  0.525609  1
  C  C6  1  0.000000  0.000000  0.974391  1
  S  S7  1  0.333333  0.666667  0.750000  1
