# generated using pymatgen
data_Ce(BPt4)2
_symmetry_space_group_name_H-M   'P 1'
_cell_length_a   6.14992413
_cell_length_b   6.14992430
_cell_length_c   9.03613162
_cell_angle_alpha   55.35184315
_cell_angle_beta   55.35184359
_cell_angle_gamma   37.86438608
_symmetry_Int_Tables_number   1
_chemical_formula_structural   Ce(BPt4)2
_chemical_formula_sum   'Ce1 B2 Pt8'
_cell_volume   167.65121729
_cell_formula_units_Z   1
loop_
 _symmetry_equiv_pos_site_id
 _symmetry_equiv_pos_as_xyz
  1  'x, y, z'
loop_
 _atom_site_type_symbol
 _atom_site_label
 _atom_site_symmetry_multiplicity
 _atom_site_fract_x
 _atom_site_fract_y
 _atom_site_fract_z
 _atom_site_occupancy
  Ce  Ce0  1  0.500000  0.500000  0.500000  1
  B  B1  1  0.053937  0.053937  0.709730  1
  B  B2  1  0.946063  0.946063  0.290270  1
  Pt  Pt3  1  0.224287  0.224287  0.422027  1
  Pt  Pt4  1  0.827468  0.827468  0.838820  1
  Pt  Pt5  1  0.172532  0.172532  0.161180  1
  Pt  Pt6  1  0.156930  0.156930  0.848391  1
  Pt  Pt7  1  0.480260  0.480260  0.857848  1
  Pt  Pt8  1  0.519740  0.519740  0.142152  1
  Pt  Pt9  1  0.775713  0.775713  0.577973  1
  Pt  Pt10  1  0.843070  0.843070  0.151609  1
