# generated using pymatgen
data_Dy2Y2ReB12Ru
_symmetry_space_group_name_H-M   'P 1'
_cell_length_a   3.67557600
_cell_length_b   9.16080890
_cell_length_c   11.55158705
_cell_angle_alpha   90.21059848
_cell_angle_beta   90.00000000
_cell_angle_gamma   90.00000000
_symmetry_Int_Tables_number   1
_chemical_formula_structural   Dy2Y2ReB12Ru
_chemical_formula_sum   'Dy4 Y4 Re2 B24 Ru2'
_cell_volume   388.95374016
_cell_formula_units_Z   2
loop_
 _symmetry_equiv_pos_site_id
 _symmetry_equiv_pos_as_xyz
  1  'x, y, z'
loop_
 _atom_site_type_symbol
 _atom_site_label
 _atom_site_symmetry_multiplicity
 _atom_site_fract_x
 _atom_site_fract_y
 _atom_site_fract_z
 _atom_site_occupancy
  Dy  Dy0  1  0.000000  0.942843  0.370405  1
  Dy  Dy1  1  0.000000  0.057157  0.629595  1
  Dy  Dy2  1  0.000000  0.442958  0.129452  1
  Dy  Dy3  1  0.000000  0.557042  0.870548  1
  Y  Y4  1  0.000000  0.321187  0.412490  1
  Y  Y5  1  0.000000  0.678813  0.587510  1
  Y  Y6  1  0.000000  0.824915  0.084455  1
  Y  Y7  1  0.000000  0.175085  0.915545  1
  Re  Re8  1  0.000000  0.138671  0.179673  1
  Re  Re9  1  0.000000  0.861329  0.820327  1
  B  B10  1  0.500000  0.554100  0.432796  1
  B  B11  1  0.500000  0.445900  0.567204  1
  B  B12  1  0.500000  0.053308  0.066963  1
  B  B13  1  0.500000  0.946692  0.933037  1
  B  B14  1  0.500000  0.748401  0.418734  1
  B  B15  1  0.500000  0.251599  0.581266  1
  B  B16  1  0.500000  0.248834  0.081268  1
  B  B17  1  0.500000  0.751166  0.918732  1
  B  B18  1  0.500000  0.790493  0.266122  1
  B  B19  1  0.500000  0.209507  0.733878  1
  B  B20  1  0.500000  0.291628  0.234541  1
  B  B21  1  0.500000  0.708372  0.765459  1
  B  B22  1  0.500000  0.631275  0.186366  1
  B  B23  1  0.500000  0.368725  0.813634  1
  B  B24  1  0.500000  0.131573  0.314556  1
  B  B25  1  0.500000  0.868427  0.685444  1
  B  B26  1  0.500000  0.983222  0.212427  1
  B  B27  1  0.500000  0.016778  0.787573  1
  B  B28  1  0.500000  0.483902  0.288128  1
  B  B29  1  0.500000  0.516098  0.711872  1
  B  B30  1  0.500000  0.603696  0.028801  1
  B  B31  1  0.500000  0.396304  0.971199  1
  B  B32  1  0.500000  0.104247  0.471213  1
  B  B33  1  0.500000  0.895753  0.528787  1
  Ru  Ru34  1  0.000000  0.637966  0.321640  1
  Ru  Ru35  1  0.000000  0.362034  0.678360  1
