# generated using pymatgen
data_HfNp(InCl3)4
_symmetry_space_group_name_H-M   'P 1'
_cell_length_a   7.21569500
_cell_length_b   7.21569500
_cell_length_c   10.59758100
_cell_angle_alpha   90.00000000
_cell_angle_beta   90.00000000
_cell_angle_gamma   90.00000000
_symmetry_Int_Tables_number   1
_chemical_formula_structural   HfNp(InCl3)4
_chemical_formula_sum   'Hf1 Np1 In4 Cl12'
_cell_volume   551.77634766
_cell_formula_units_Z   1
loop_
 _symmetry_equiv_pos_site_id
 _symmetry_equiv_pos_as_xyz
  1  'x, y, z'
loop_
 _atom_site_type_symbol
 _atom_site_label
 _atom_site_symmetry_multiplicity
 _atom_site_fract_x
 _atom_site_fract_y
 _atom_site_fract_z
 _atom_site_occupancy
  Hf  Hf0  1  0.000000  0.000000  0.500000  1
  Np  Np1  1  0.500000  0.500000  0.000000  1
  In  In2  1  0.000000  0.500000  0.253796  1
  In  In3  1  0.000000  0.500000  0.746204  1
  In  In4  1  0.500000  0.000000  0.746204  1
  In  In5  1  0.500000  0.000000  0.253796  1
  Cl  Cl6  1  0.827073  0.706435  0.500000  1
  Cl  Cl7  1  0.188186  0.318024  0.000000  1
  Cl  Cl8  1  0.500000  0.500000  0.753320  1
  Cl  Cl9  1  0.293565  0.827073  0.500000  1
  Cl  Cl10  1  0.000000  0.000000  0.268364  1
  Cl  Cl11  1  0.811814  0.681976  0.000000  1
  Cl  Cl12  1  0.681976  0.188186  0.000000  1
  Cl  Cl13  1  0.318024  0.811814  0.000000  1
  Cl  Cl14  1  0.000000  0.000000  0.731636  1
  Cl  Cl15  1  0.172927  0.293565  0.500000  1
  Cl  Cl16  1  0.500000  0.500000  0.246680  1
  Cl  Cl17  1  0.706435  0.172927  0.500000  1
