# generated using pymatgen
data_Pr4Er2Ga3Si
_symmetry_space_group_name_H-M   'P 1'
_cell_length_a   7.71818772
_cell_length_b   7.71818772
_cell_length_c   4.54867600
_cell_angle_alpha   90.00000000
_cell_angle_beta   90.00000000
_cell_angle_gamma   90.52732104
_symmetry_Int_Tables_number   1
_chemical_formula_structural   Pr4Er2Ga3Si
_chemical_formula_sum   'Pr4 Er2 Ga3 Si1'
_cell_volume   270.95507151
_cell_formula_units_Z   1
loop_
 _symmetry_equiv_pos_site_id
 _symmetry_equiv_pos_as_xyz
  1  'x, y, z'
loop_
 _atom_site_type_symbol
 _atom_site_label
 _atom_site_symmetry_multiplicity
 _atom_site_fract_x
 _atom_site_fract_y
 _atom_site_fract_z
 _atom_site_occupancy
  Pr  Pr0  1  0.327411  0.174930  0.500001  1
  Pr  Pr1  1  0.821261  0.321260  0.500001  1
  Pr  Pr2  1  0.175576  0.675577  0.500001  1
  Pr  Pr3  1  0.674931  0.827412  0.500001  1
  Er  Er4  1  0.996822  0.000161  0.000000  1
  Er  Er5  1  0.500160  0.496821  0.000000  1
  Ga  Ga6  1  0.119910  0.380461  0.000000  1
  Ga  Ga7  1  0.880461  0.619909  0.000000  1
  Ga  Ga8  1  0.383223  0.883223  0.000000  1
  Si  Si9  1  0.620246  0.120247  0.000000  1
