# generated using pymatgen
data_SrNd3(BPt4)4
_symmetry_space_group_name_H-M   'P 1'
_cell_length_a   5.53518600
_cell_length_b   6.15070365
_cell_length_c   11.93440434
_cell_angle_alpha   90.01026235
_cell_angle_beta   90.00000000
_cell_angle_gamma   90.00000000
_symmetry_Int_Tables_number   1
_chemical_formula_structural   SrNd3(BPt4)4
_chemical_formula_sum   'Sr1 Nd3 B4 Pt16'
_cell_volume   406.31023491
_cell_formula_units_Z   1
loop_
 _symmetry_equiv_pos_site_id
 _symmetry_equiv_pos_as_xyz
  1  'x, y, z'
loop_
 _atom_site_type_symbol
 _atom_site_label
 _atom_site_symmetry_multiplicity
 _atom_site_fract_x
 _atom_site_fract_y
 _atom_site_fract_z
 _atom_site_occupancy
  Sr  Sr0  1  0.250000  0.187286  0.661029  1
  Nd  Nd1  1  0.750000  0.308360  0.157877  1
  Nd  Nd2  1  0.750000  0.808110  0.342940  1
  Nd  Nd3  1  0.250000  0.690936  0.841124  1
  B  B4  1  0.750000  0.401675  0.551582  1
  B  B5  1  0.750000  0.901532  0.950381  1
  B  B6  1  0.250000  0.595682  0.449587  1
  B  B7  1  0.250000  0.097479  0.050154  1
  Pt  Pt8  1  0.750000  0.391498  0.736977  1
  Pt  Pt9  1  0.750000  0.884895  0.764085  1
  Pt  Pt10  1  0.250000  0.611498  0.263052  1
  Pt  Pt11  1  0.250000  0.119829  0.234911  1
  Pt  Pt12  1  0.750000  0.060856  0.555836  1
  Pt  Pt13  1  0.750000  0.560561  0.944641  1
  Pt  Pt14  1  0.250000  0.935485  0.437981  1
  Pt  Pt15  1  0.250000  0.440862  0.055807  1
  Pt  Pt16  1  0.999049  0.162891  0.910808  1
  Pt  Pt17  1  0.500051  0.665266  0.589717  1
  Pt  Pt18  1  0.501346  0.836842  0.093222  1
  Pt  Pt19  1  0.997803  0.336731  0.407272  1
  Pt  Pt20  1  0.998654  0.836842  0.093222  1
  Pt  Pt21  1  0.502197  0.336731  0.407272  1
  Pt  Pt22  1  0.500951  0.162891  0.910808  1
  Pt  Pt23  1  0.999949  0.665266  0.589717  1
