# generated using pymatgen
data_Pr8Er12Si15Sn
_symmetry_space_group_name_H-M   'P 1'
_cell_length_a   7.51573062
_cell_length_b   7.82435440
_cell_length_c   14.86558380
_cell_angle_alpha   90.04195691
_cell_angle_beta   89.44948528
_cell_angle_gamma   90.11061822
_symmetry_Int_Tables_number   1
_chemical_formula_structural   Pr8Er12Si15Sn
_chemical_formula_sum   'Pr8 Er12 Si15 Sn1'
_cell_volume   874.13945225
_cell_formula_units_Z   1
loop_
 _symmetry_equiv_pos_site_id
 _symmetry_equiv_pos_as_xyz
  1  'x, y, z'
loop_
 _atom_site_type_symbol
 _atom_site_label
 _atom_site_symmetry_multiplicity
 _atom_site_fract_x
 _atom_site_fract_y
 _atom_site_fract_z
 _atom_site_occupancy
  Pr  Pr0  1  0.012316  0.170744  0.398511  1
  Pr  Pr1  1  0.516988  0.321059  0.399156  1
  Pr  Pr2  1  0.482138  0.677481  0.902213  1
  Pr  Pr3  1  0.494587  0.684131  0.601279  1
  Pr  Pr4  1  0.983832  0.827096  0.600120  1
  Pr  Pr5  1  0.981717  0.823283  0.902355  1
  Pr  Pr6  1  0.517589  0.322511  0.098688  1
  Pr  Pr7  1  0.017728  0.177261  0.098125  1
  Er  Er8  1  0.338181  0.164308  0.628855  1
  Er  Er9  1  0.668143  0.823251  0.374834  1
  Er  Er10  1  0.662236  0.991060  0.752288  1
  Er  Er11  1  0.167628  0.684973  0.371284  1
  Er  Er12  1  0.825298  0.322260  0.877423  1
  Er  Er13  1  0.819548  0.323768  0.624279  1
  Er  Er14  1  0.838996  0.491332  0.249684  1
  Er  Er15  1  0.340283  0.009036  0.249121  1
  Er  Er16  1  0.324867  0.176655  0.877254  1
  Er  Er17  1  0.174277  0.677671  0.123373  1
  Er  Er18  1  0.673649  0.821884  0.122525  1
  Er  Er19  1  0.159926  0.507618  0.753769  1
  Si  Si20  1  0.279925  0.875099  0.752473  1
  Si  Si21  1  0.465837  0.615659  0.248433  1
  Si  Si22  1  0.032967  0.118946  0.751063  1
  Si  Si23  1  0.532444  0.385317  0.752337  1
  Si  Si24  1  0.964256  0.885937  0.247134  1
  Si  Si25  1  0.719552  0.120449  0.247923  1
  Si  Si26  1  0.851028  0.532492  0.039508  1
  Si  Si27  1  0.350289  0.967735  0.039598  1
  Si  Si28  1  0.148199  0.466948  0.961418  1
  Si  Si29  1  0.655693  0.035318  0.537652  1
  Si  Si30  1  0.345835  0.966830  0.460365  1
  Si  Si31  1  0.837661  0.536668  0.458370  1
  Si  Si32  1  0.781962  0.621873  0.751727  1
  Si  Si33  1  0.219426  0.379527  0.249131  1
  Si  Si34  1  0.647956  0.033114  0.961021  1
  Sn  Sn35  1  0.167043  0.460703  0.536708  1
