# generated using pymatgen
data_ErFe3Cl7O
_symmetry_space_group_name_H-M   'P 1'
_cell_length_a   7.63941745
_cell_length_b   7.72223437
_cell_length_c   7.63941800
_cell_angle_alpha   58.10820314
_cell_angle_beta   57.30613458
_cell_angle_gamma   58.10818823
_symmetry_Int_Tables_number   1
_chemical_formula_structural   ErFe3Cl7O
_chemical_formula_sum   'Er1 Fe3 Cl7 O1'
_cell_volume   302.83630245
_cell_formula_units_Z   1
loop_
 _symmetry_equiv_pos_site_id
 _symmetry_equiv_pos_as_xyz
  1  'x, y, z'
loop_
 _atom_site_type_symbol
 _atom_site_label
 _atom_site_symmetry_multiplicity
 _atom_site_fract_x
 _atom_site_fract_y
 _atom_site_fract_z
 _atom_site_occupancy
  Er  Er0  1  0.029298  0.969362  0.029298  1
  Fe  Fe1  1  0.477988  0.513488  0.022509  1
  Fe  Fe2  1  0.022509  0.513488  0.477988  1
  Fe  Fe3  1  0.500322  0.003244  0.500322  1
  Cl  Cl4  1  0.270630  0.238492  0.270630  1
  Cl  Cl5  1  0.741323  0.765600  0.261809  1
  Cl  Cl6  1  0.261809  0.765600  0.741323  1
  Cl  Cl7  1  0.731349  0.755888  0.731349  1
  Cl  Cl8  1  0.763109  0.288902  0.763109  1
  Cl  Cl9  1  0.252043  0.247950  0.737245  1
  Cl  Cl10  1  0.737245  0.247950  0.252043  1
  O  O11  1  0.212375  0.690038  0.212375  1
