# generated using pymatgen
data_Sc4FeTcRu6
_symmetry_space_group_name_H-M   'P 1'
_cell_length_a   5.12551739
_cell_length_b   5.14207791
_cell_length_c   8.66849700
_cell_angle_alpha   90.00000000
_cell_angle_beta   90.00000000
_cell_angle_gamma   121.15512953
_symmetry_Int_Tables_number   1
_chemical_formula_structural   Sc4FeTcRu6
_chemical_formula_sum   'Sc4 Fe1 Tc1 Ru6'
_cell_volume   195.51364163
_cell_formula_units_Z   1
loop_
 _symmetry_equiv_pos_site_id
 _symmetry_equiv_pos_as_xyz
  1  'x, y, z'
loop_
 _atom_site_type_symbol
 _atom_site_label
 _atom_site_symmetry_multiplicity
 _atom_site_fract_x
 _atom_site_fract_y
 _atom_site_fract_z
 _atom_site_occupancy
  Sc  Sc0  1  0.335804  0.665612  0.435251  1
  Sc  Sc1  1  0.666542  0.335224  0.568421  1
  Sc  Sc2  1  0.666542  0.335224  0.931579  1
  Sc  Sc3  1  0.335804  0.665612  0.064749  1
  Fe  Fe4  1  0.164806  0.331885  0.750000  1
  Tc  Tc5  1  0.338994  0.169064  0.250000  1
  Ru  Ru6  1  0.169561  0.824400  0.750000  1
  Ru  Ru7  1  0.825472  0.657614  0.250000  1
  Ru  Ru8  1  0.648094  0.820654  0.750000  1
  Ru  Ru9  1  0.012525  0.012783  0.996643  1
  Ru  Ru10  1  0.823329  0.169146  0.250000  1
  Ru  Ru11  1  0.012525  0.012783  0.503357  1
