# generated using pymatgen
data_Nd6Al24Os5Pt2Rh
_symmetry_space_group_name_H-M   'P 1'
_cell_length_a   8.90531855
_cell_length_b   8.92720402
_cell_length_c   9.67208958
_cell_angle_alpha   90.05556528
_cell_angle_beta   89.68904313
_cell_angle_gamma   119.44359898
_symmetry_Int_Tables_number   1
_chemical_formula_structural   Nd6Al24Os5Pt2Rh
_chemical_formula_sum   'Nd6 Al24 Os5 Pt2 Rh1'
_cell_volume   669.60144320
_cell_formula_units_Z   1
loop_
 _symmetry_equiv_pos_site_id
 _symmetry_equiv_pos_as_xyz
  1  'x, y, z'
loop_
 _atom_site_type_symbol
 _atom_site_label
 _atom_site_symmetry_multiplicity
 _atom_site_fract_x
 _atom_site_fract_y
 _atom_site_fract_z
 _atom_site_occupancy
  Nd  Nd0  1  0.186457  0.380103  0.251383  1
  Nd  Nd1  1  0.813543  0.619897  0.748617  1
  Nd  Nd2  1  0.616978  0.814564  0.252721  1
  Nd  Nd3  1  0.383022  0.185436  0.747279  1
  Nd  Nd4  1  0.193039  0.810741  0.250547  1
  Nd  Nd5  1  0.806961  0.189259  0.749453  1
  Al  Al6  1  0.336947  0.670005  0.019078  1
  Al  Al7  1  0.663053  0.329995  0.980922  1
  Al  Al8  1  0.669282  0.331310  0.518396  1
  Al  Al9  1  0.330718  0.668690  0.481604  1
  Al  Al10  1  0.158689  0.324688  0.575292  1
  Al  Al11  1  0.841311  0.675312  0.424708  1
  Al  Al12  1  0.674241  0.840279  0.574965  1
  Al  Al13  1  0.834397  0.676118  0.076637  1
  Al  Al14  1  0.325759  0.159721  0.425035  1
  Al  Al15  1  0.165603  0.323882  0.923363  1
  Al  Al16  1  0.164008  0.835348  0.574153  1
  Al  Al17  1  0.325373  0.161440  0.074845  1
  Al  Al18  1  0.835992  0.164652  0.425847  1
  Al  Al19  1  0.674627  0.838560  0.925155  1
  Al  Al20  1  0.832116  0.159390  0.074578  1
  Al  Al21  1  0.167884  0.840610  0.925422  1
  Al  Al22  1  0.562390  0.127397  0.249603  1
  Al  Al23  1  0.437610  0.872603  0.750397  1
  Al  Al24  1  0.872416  0.437760  0.253811  1
  Al  Al25  1  0.127584  0.562240  0.746189  1
  Al  Al26  1  0.562528  0.438242  0.246781  1
  Al  Al27  1  0.437472  0.561758  0.753219  1
  Al  Al28  1  0.998854  0.001324  0.250299  1
  Al  Al29  1  0.001146  0.998676  0.749701  1
  Os  Os30  1  0.500000  0.000000  0.000000  1
  Os  Os31  1  0.500000  0.000000  0.500000  1
  Os  Os32  1  0.000000  0.500000  0.500000  1
  Os  Os33  1  0.000000  0.000000  0.000000  1
  Os  Os34  1  0.000000  0.000000  0.500000  1
  Pt  Pt35  1  0.000000  0.500000  0.000000  1
  Pt  Pt36  1  0.500000  0.500000  0.500000  1
  Rh  Rh37  1  0.500000  0.500000  0.000000  1
