# generated using pymatgen
data_Dy3Y7Pb6
_symmetry_space_group_name_H-M   'P 1'
_cell_length_a   9.06606100
_cell_length_b   9.06599136
_cell_length_c   6.66308700
_cell_angle_alpha   90.00032784
_cell_angle_beta   90.00012339
_cell_angle_gamma   119.99946698
_symmetry_Int_Tables_number   1
_chemical_formula_structural   Dy3Y7Pb6
_chemical_formula_sum   'Dy3 Y7 Pb6'
_cell_volume   474.28827228
_cell_formula_units_Z   1
loop_
 _symmetry_equiv_pos_site_id
 _symmetry_equiv_pos_as_xyz
  1  'x, y, z'
loop_
 _atom_site_type_symbol
 _atom_site_label
 _atom_site_symmetry_multiplicity
 _atom_site_fract_x
 _atom_site_fract_y
 _atom_site_fract_z
 _atom_site_occupancy
  Dy  Dy0  1  0.666674  0.333340  0.000002  1
  Dy  Dy1  1  0.333319  0.666653  0.000001  1
  Dy  Dy2  1  0.666682  0.333347  0.500001  1
  Y  Y3  1  0.762295  0.762317  0.249992  1
  Y  Y4  1  0.000016  0.237700  0.250001  1
  Y  Y5  1  0.237665  0.999967  0.250003  1
  Y  Y6  1  0.333324  0.666657  0.500001  1
  Y  Y7  1  0.237682  0.237707  0.749994  1
  Y  Y8  1  0.762310  0.999983  0.750003  1
  Y  Y9  1  0.000033  0.762323  0.750003  1
  Pb  Pb10  1  0.605390  0.000034  0.249938  1
  Pb  Pb11  1  0.999983  0.605364  0.249935  1
  Pb  Pb12  1  0.394619  0.394599  0.249938  1
  Pb  Pb13  1  0.394635  0.000015  0.750064  1
  Pb  Pb14  1  0.999971  0.394613  0.750061  1
  Pb  Pb15  1  0.605401  0.605378  0.750067  1
