# generated using pymatgen
data_Rb2NaDyBi2
_symmetry_space_group_name_H-M   'P 1'
_cell_length_a   10.20786724
_cell_length_b   10.20786608
_cell_length_c   10.20786609
_cell_angle_alpha   136.09613603
_cell_angle_beta   63.98816691
_cell_angle_gamma   135.89392253
_symmetry_Int_Tables_number   1
_chemical_formula_structural   Rb2NaDyBi2
_chemical_formula_sum   'Rb4 Na2 Dy2 Bi4'
_cell_volume   506.47161493
_cell_formula_units_Z   2
loop_
 _symmetry_equiv_pos_site_id
 _symmetry_equiv_pos_as_xyz
  1  'x, y, z'
loop_
 _atom_site_type_symbol
 _atom_site_label
 _atom_site_symmetry_multiplicity
 _atom_site_fract_x
 _atom_site_fract_y
 _atom_site_fract_z
 _atom_site_occupancy
  Rb  Rb0  1  0.821324  0.280725  0.102051  1
  Rb  Rb1  1  0.678675  0.780725  0.459401  1
  Rb  Rb2  1  0.321324  0.219275  0.540599  1
  Rb  Rb3  1  0.178676  0.719274  0.897948  1
  Na  Na4  1  0.750000  0.250000  0.500000  1
  Na  Na5  1  0.250000  0.750000  0.500000  1
  Dy  Dy6  1  0.250000  0.250000  0.000000  1
  Dy  Dy7  1  0.750001  0.750001  0.000000  1
  Bi  Bi8  1  0.399341  0.727411  0.126755  1
  Bi  Bi9  1  0.100658  0.227412  0.328070  1
  Bi  Bi10  1  0.899341  0.772588  0.671930  1
  Bi  Bi11  1  0.600658  0.272588  0.873245  1
