# generated using pymatgen
data_DyY3As3S
_symmetry_space_group_name_H-M   'P 1'
_cell_length_a   4.08648000
_cell_length_b   5.75687500
_cell_length_c   8.16430000
_cell_angle_alpha   90.00000000
_cell_angle_beta   90.00000000
_cell_angle_gamma   90.00000000
_symmetry_Int_Tables_number   1
_chemical_formula_structural   DyY3As3S
_chemical_formula_sum   'Dy1 Y3 As3 S1'
_cell_volume   192.06805215
_cell_formula_units_Z   1
loop_
 _symmetry_equiv_pos_site_id
 _symmetry_equiv_pos_as_xyz
  1  'x, y, z'
loop_
 _atom_site_type_symbol
 _atom_site_label
 _atom_site_symmetry_multiplicity
 _atom_site_fract_x
 _atom_site_fract_y
 _atom_site_fract_z
 _atom_site_occupancy
  Dy  Dy0  1  0.000000  0.000000  0.000000  1
  Y  Y1  1  0.500000  0.500000  0.249260  1
  Y  Y2  1  0.000000  0.000000  0.500000  1
  Y  Y3  1  0.500000  0.500000  0.750740  1
  As  As4  1  0.500000  0.000000  0.747709  1
  As  As5  1  0.000000  0.500000  0.000000  1
  As  As6  1  0.500000  0.000000  0.252291  1
  S  S7  1  0.000000  0.500000  0.500000  1
