# generated using pymatgen
data_Tb7YTi7Ge16Mo5
_symmetry_space_group_name_H-M   'P 1'
_cell_length_a   6.94687351
_cell_length_b   7.10874392
_cell_length_c   13.41699708
_cell_angle_alpha   89.94407741
_cell_angle_beta   89.95533714
_cell_angle_gamma   90.04135768
_symmetry_Int_Tables_number   1
_chemical_formula_structural   Tb7YTi7Ge16Mo5
_chemical_formula_sum   'Tb7 Y1 Ti7 Ge16 Mo5'
_cell_volume   662.57818709
_cell_formula_units_Z   1
loop_
 _symmetry_equiv_pos_site_id
 _symmetry_equiv_pos_as_xyz
  1  'x, y, z'
loop_
 _atom_site_type_symbol
 _atom_site_label
 _atom_site_symmetry_multiplicity
 _atom_site_fract_x
 _atom_site_fract_y
 _atom_site_fract_z
 _atom_site_occupancy
  Tb  Tb0  1  0.503856  0.325892  0.095881  1
  Tb  Tb1  1  0.496760  0.672176  0.596193  1
  Tb  Tb2  1  0.995880  0.827388  0.903752  1
  Tb  Tb3  1  0.996294  0.827207  0.596542  1
  Tb  Tb4  1  0.496001  0.673320  0.905792  1
  Tb  Tb5  1  0.502804  0.328348  0.403005  1
  Tb  Tb6  1  0.005730  0.169912  0.095724  1
  Y  Y7  1  0.003476  0.172025  0.404126  1
  Ti  Ti8  1  0.837921  0.670061  0.371099  1
  Ti  Ti9  1  0.662057  0.168220  0.627692  1
  Ti  Ti10  1  0.161979  0.331182  0.873457  1
  Ti  Ti11  1  0.162301  0.331641  0.627523  1
  Ti  Ti12  1  0.661676  0.167823  0.872571  1
  Ti  Ti13  1  0.841507  0.669490  0.127509  1
  Ti  Ti14  1  0.335624  0.831034  0.371744  1
  Ge  Ge15  1  0.329021  0.043784  0.544259  1
  Ge  Ge16  1  0.828569  0.456698  0.955925  1
  Ge  Ge17  1  0.668583  0.956592  0.044798  1
  Ge  Ge18  1  0.170663  0.544345  0.455679  1
  Ge  Ge19  1  0.172811  0.543315  0.044159  1
  Ge  Ge20  1  0.669539  0.956508  0.455378  1
  Ge  Ge21  1  0.829867  0.455982  0.544804  1
  Ge  Ge22  1  0.327488  0.044596  0.956560  1
  Ge  Ge23  1  0.807835  0.366687  0.249180  1
  Ge  Ge24  1  0.309124  0.132684  0.250461  1
  Ge  Ge25  1  0.692473  0.866204  0.750069  1
  Ge  Ge26  1  0.193763  0.633576  0.750363  1
  Ge  Ge27  1  0.037615  0.872338  0.250603  1
  Ge  Ge28  1  0.536213  0.630030  0.249085  1
  Ge  Ge29  1  0.462665  0.370512  0.750309  1
  Ge  Ge30  1  0.963271  0.129436  0.750139  1
  Mo  Mo31  1  0.335503  0.832325  0.127288  1
  Mo  Mo32  1  0.333839  0.009889  0.750184  1
  Mo  Mo33  1  0.666777  0.987094  0.249064  1
  Mo  Mo34  1  0.165291  0.513537  0.248859  1
  Mo  Mo35  1  0.835223  0.488150  0.750227  1
