# generated using pymatgen
data_PHWO5
_symmetry_space_group_name_H-M   'P 1'
_cell_length_a   5.36890171
_cell_length_b   7.69977587
_cell_length_c   5.42968058
_cell_angle_alpha   109.86757345
_cell_angle_beta   98.28439084
_cell_angle_gamma   105.36303123
_symmetry_Int_Tables_number   1
_chemical_formula_structural   PHWO5
_chemical_formula_sum   'P2 H2 W2 O10'
_cell_volume   196.65597493
_cell_formula_units_Z   2
loop_
 _symmetry_equiv_pos_site_id
 _symmetry_equiv_pos_as_xyz
  1  'x, y, z'
loop_
 _atom_site_type_symbol
 _atom_site_label
 _atom_site_symmetry_multiplicity
 _atom_site_fract_x
 _atom_site_fract_y
 _atom_site_fract_z
 _atom_site_occupancy
  P  P0  1  0.341761  0.224335  0.670177  1
  P  P1  1  0.658239  0.775665  0.329823  1
  H  H2  1  0.019321  0.329474  0.357109  1
  H  H3  1  0.980679  0.670526  0.642891  1
  W  W4  1  0.000000  0.500000  0.000000  1
  W  W5  1  0.000000  0.000000  0.000000  1
  O  O6  1  0.032526  0.723097  0.843326  1
  O  O7  1  0.163158  0.359846  0.702768  1
  O  O8  1  0.365837  0.642082  0.265166  1
  O  O9  1  0.256038  0.076581  0.375752  1
  O  O10  1  0.317089  0.122109  0.869865  1
  O  O11  1  0.682911  0.877891  0.130135  1
  O  O12  1  0.743962  0.923419  0.624248  1
  O  O13  1  0.634163  0.357918  0.734834  1
  O  O14  1  0.836842  0.640154  0.297232  1
  O  O15  1  0.967474  0.276903  0.156674  1
