# generated using pymatgen
data_Er12GaCo2Ni2Pd
_symmetry_space_group_name_H-M   'P 1'
_cell_length_a   8.19478920
_cell_length_b   8.19478980
_cell_length_c   8.19478909
_cell_angle_alpha   107.66843329
_cell_angle_beta   109.77792332
_cell_angle_gamma   110.98457396
_symmetry_Int_Tables_number   1
_chemical_formula_structural   Er12GaCo2Ni2Pd
_chemical_formula_sum   'Er12 Ga1 Co2 Ni2 Pd1'
_cell_volume   423.27275380
_cell_formula_units_Z   1
loop_
 _symmetry_equiv_pos_site_id
 _symmetry_equiv_pos_as_xyz
  1  'x, y, z'
loop_
 _atom_site_type_symbol
 _atom_site_label
 _atom_site_symmetry_multiplicity
 _atom_site_fract_x
 _atom_site_fract_y
 _atom_site_fract_z
 _atom_site_occupancy
  Er  Er0  1  0.696506  0.273251  0.969756  1
  Er  Er1  1  0.303494  0.726749  0.030244  1
  Er  Er2  1  0.696506  0.726749  0.423257  1
  Er  Er3  1  0.303494  0.273251  0.576743  1
  Er  Er4  1  0.802734  0.120278  0.317544  1
  Er  Er5  1  0.802734  0.485190  0.682456  1
  Er  Er6  1  0.197266  0.879722  0.682456  1
  Er  Er7  1  0.197266  0.514810  0.317544  1
  Er  Er8  1  0.603707  0.787967  0.815740  1
  Er  Er9  1  0.972226  0.787967  0.184260  1
  Er  Er10  1  0.027774  0.212033  0.815740  1
  Er  Er11  1  0.396293  0.212033  0.184260  1
  Ga  Ga12  1  0.500000  0.000000  0.500000  1
  Co  Co13  1  0.000000  0.115493  0.115493  1
  Co  Co14  1  0.000000  0.884507  0.884507  1
  Ni  Ni15  1  0.865524  0.500000  0.365524  1
  Ni  Ni16  1  0.134476  0.500000  0.634476  1
  Pd  Pd17  1  0.500000  0.500000  0.000000  1
