# generated using pymatgen
data_Cs2Sm10Os2I17
_symmetry_space_group_name_H-M   'P 1'
_cell_length_a   11.65031173
_cell_length_b   11.65031191
_cell_length_c   9.97363089
_cell_angle_alpha   86.52120391
_cell_angle_beta   93.47879787
_cell_angle_gamma   71.99074140
_symmetry_Int_Tables_number   1
_chemical_formula_structural   Cs2Sm10Os2I17
_chemical_formula_sum   'Cs2 Sm10 Os2 I17'
_cell_volume   1280.51536136
_cell_formula_units_Z   1
loop_
 _symmetry_equiv_pos_site_id
 _symmetry_equiv_pos_as_xyz
  1  'x, y, z'
loop_
 _atom_site_type_symbol
 _atom_site_label
 _atom_site_symmetry_multiplicity
 _atom_site_fract_x
 _atom_site_fract_y
 _atom_site_fract_z
 _atom_site_occupancy
  Cs  Cs0  1  0.827344  0.827344  0.000000  1
  Cs  Cs1  1  0.172657  0.172657  0.000000  1
  Sm  Sm2  1  0.705876  0.294124  0.184766  1
  Sm  Sm3  1  0.294124  0.705876  0.815235  1
  Sm  Sm4  1  0.562230  0.437770  0.681874  1
  Sm  Sm5  1  0.437771  0.562230  0.318125  1
  Sm  Sm6  1  0.174722  0.825278  0.446614  1
  Sm  Sm7  1  0.825279  0.174721  0.553386  1
  Sm  Sm8  1  0.493437  0.209924  0.427728  1
  Sm  Sm9  1  0.209924  0.493437  0.572273  1
  Sm  Sm10  1  0.506563  0.790076  0.572273  1
  Sm  Sm11  1  0.790076  0.506563  0.427728  1
  Os  Os12  1  0.361684  0.638316  0.568929  1
  Os  Os13  1  0.638317  0.361683  0.431071  1
  I  I14  1  0.211739  0.788261  0.134104  1
  I  I15  1  0.788259  0.211741  0.865895  1
  I  I16  1  0.548494  0.119933  0.140686  1
  I  I17  1  0.119934  0.548493  0.859315  1
  I  I18  1  0.451507  0.880066  0.859315  1
  I  I19  1  0.880067  0.451506  0.140686  1
  I  I20  1  0.312661  0.024468  0.422128  1
  I  I21  1  0.024468  0.312661  0.577873  1
  I  I22  1  0.687339  0.975532  0.577873  1
  I  I23  1  0.975531  0.687339  0.422128  1
  I  I24  1  0.399076  0.252583  0.723018  1
  I  I25  1  0.252583  0.399076  0.276982  1
  I  I26  1  0.600925  0.747417  0.276982  1
  I  I27  1  0.747418  0.600924  0.723018  1
  I  I28  1  0.064146  0.935854  0.715942  1
  I  I29  1  0.935854  0.064146  0.284058  1
  I  I30  1  0.500000  0.500000  0.000000  1
