# generated using pymatgen
data_Ti12CuTc6Ru5
_symmetry_space_group_name_H-M   'P 1'
_cell_length_a   4.36698800
_cell_length_b   6.20858100
_cell_length_c   13.12849000
_cell_angle_alpha   90.00000436
_cell_angle_beta   90.00013109
_cell_angle_gamma   90.00000000
_symmetry_Int_Tables_number   1
_chemical_formula_structural   Ti12CuTc6Ru5
_chemical_formula_sum   'Ti12 Cu1 Tc6 Ru5'
_cell_volume   355.95010692
_cell_formula_units_Z   1
loop_
 _symmetry_equiv_pos_site_id
 _symmetry_equiv_pos_as_xyz
  1  'x, y, z'
loop_
 _atom_site_type_symbol
 _atom_site_label
 _atom_site_symmetry_multiplicity
 _atom_site_fract_x
 _atom_site_fract_y
 _atom_site_fract_z
 _atom_site_occupancy
  Ti  Ti0  1  0.499990  0.243896  0.999998  1
  Ti  Ti1  1  0.499990  0.756103  0.999998  1
  Ti  Ti2  1  0.000041  0.246590  0.169367  1
  Ti  Ti3  1  0.000041  0.753410  0.169367  1
  Ti  Ti4  1  0.500047  0.250301  0.333501  1
  Ti  Ti5  1  0.500047  0.749699  0.333501  1
  Ti  Ti6  1  0.999998  0.249589  0.500002  1
  Ti  Ti7  1  0.999998  0.750412  0.500002  1
  Ti  Ti8  1  0.499940  0.250299  0.666501  1
  Ti  Ti9  1  0.499940  0.749701  0.666502  1
  Ti  Ti10  1  0.999929  0.246587  0.830631  1
  Ti  Ti11  1  0.999928  0.753412  0.830631  1
  Cu  Cu12  1  0.999997  0.500000  0.000008  1
  Tc  Tc13  1  0.999989  0.000000  0.000008  1
  Tc  Tc14  1  0.500051  0.500000  0.162971  1
  Tc  Tc15  1  0.000042  0.000000  0.333030  1
  Tc  Tc16  1  0.500004  0.500000  0.499994  1
  Tc  Tc17  1  0.999946  0.000000  0.666964  1
  Tc  Tc18  1  0.499922  0.500000  0.837030  1
  Ru  Ru19  1  0.500048  0.000000  0.166121  1
  Ru  Ru20  1  0.000029  0.500000  0.332151  1
  Ru  Ru21  1  0.499998  0.000000  0.500001  1
  Ru  Ru22  1  0.999960  0.500000  0.667846  1
  Ru  Ru23  1  0.499923  0.000000  0.833877  1
