# generated using pymatgen
data_Er2Sc2Al17SiIr6
_symmetry_space_group_name_H-M   'P 1'
_cell_length_a   7.50630900
_cell_length_b   7.50630836
_cell_length_c   9.37131000
_cell_angle_alpha   90.00000000
_cell_angle_beta   90.00000000
_cell_angle_gamma   119.68005857
_symmetry_Int_Tables_number   1
_chemical_formula_structural   Er2Sc2Al17SiIr6
_chemical_formula_sum   'Er2 Sc2 Al17 Si1 Ir6'
_cell_volume   458.74876420
_cell_formula_units_Z   1
loop_
 _symmetry_equiv_pos_site_id
 _symmetry_equiv_pos_as_xyz
  1  'x, y, z'
loop_
 _atom_site_type_symbol
 _atom_site_label
 _atom_site_symmetry_multiplicity
 _atom_site_fract_x
 _atom_site_fract_y
 _atom_site_fract_z
 _atom_site_occupancy
  Er  Er0  1  0.994077  0.678066  0.250000  1
  Er  Er1  1  0.678066  0.994077  0.250000  1
  Sc  Sc2  1  0.000980  0.328204  0.750000  1
  Sc  Sc3  1  0.328204  0.000980  0.750000  1
  Al  Al4  1  0.881069  0.881069  0.750000  1
  Al  Al5  1  0.002118  0.337828  0.073673  1
  Al  Al6  1  0.002082  0.665489  0.918770  1
  Al  Al7  1  0.002082  0.665489  0.581230  1
  Al  Al8  1  0.337828  0.002118  0.426327  1
  Al  Al9  1  0.002118  0.337828  0.426327  1
  Al  Al10  1  0.665489  0.002082  0.581230  1
  Al  Al11  1  0.665489  0.002082  0.918770  1
  Al  Al12  1  0.337828  0.002118  0.073673  1
  Al  Al13  1  0.328696  0.328696  0.565802  1
  Al  Al14  1  0.662473  0.662473  0.451522  1
  Al  Al15  1  0.662473  0.662473  0.048478  1
  Al  Al16  1  0.328696  0.328696  0.934198  1
  Al  Al17  1  0.336220  0.548779  0.250000  1
  Al  Al18  1  0.660790  0.445717  0.750000  1
  Al  Al19  1  0.548779  0.336220  0.250000  1
  Al  Al20  1  0.445717  0.660790  0.750000  1
  Si  Si21  1  0.133391  0.133391  0.250000  1
  Ir  Ir22  1  0.670415  0.326665  0.999119  1
  Ir  Ir23  1  0.326665  0.670415  0.999119  1
  Ir  Ir24  1  0.326665  0.670415  0.500881  1
  Ir  Ir25  1  0.670415  0.326665  0.500881  1
  Ir  Ir26  1  0.000588  0.000588  0.006361  1
  Ir  Ir27  1  0.000588  0.000588  0.493639  1
