# generated using pymatgen
data_Sr18CrFe2P13O56
_symmetry_space_group_name_H-M   'P 1'
_cell_length_a   9.10325998
_cell_length_b   9.11067072
_cell_length_c   18.24422002
_cell_angle_alpha   71.87664940
_cell_angle_beta   71.86480083
_cell_angle_gamma   72.50649391
_symmetry_Int_Tables_number   1
_chemical_formula_structural   Sr18CrFe2P13O56
_chemical_formula_sum   'Sr18 Cr1 Fe2 P13 O56'
_cell_volume   1331.37659248
_cell_formula_units_Z   1
loop_
 _symmetry_equiv_pos_site_id
 _symmetry_equiv_pos_as_xyz
  1  'x, y, z'
loop_
 _atom_site_type_symbol
 _atom_site_label
 _atom_site_symmetry_multiplicity
 _atom_site_fract_x
 _atom_site_fract_y
 _atom_site_fract_z
 _atom_site_occupancy
  Sr  Sr0  1  0.278684  0.836440  0.633426  1
  Sr  Sr1  1  0.162974  0.723725  0.863341  1
  Sr  Sr2  1  0.721843  0.162637  0.364857  1
  Sr  Sr3  1  0.831520  0.276399  0.135017  1
  Sr  Sr4  1  0.718767  0.713561  0.587757  1
  Sr  Sr5  1  0.288521  0.277369  0.909551  1
  Sr  Sr6  1  0.279231  0.285941  0.412348  1
  Sr  Sr7  1  0.710539  0.719836  0.088616  1
  Sr  Sr8  1  0.269471  0.845387  0.139411  1
  Sr  Sr9  1  0.155861  0.731153  0.360038  1
  Sr  Sr10  1  0.731864  0.155355  0.859744  1
  Sr  Sr11  1  0.841522  0.269891  0.639238  1
  Sr  Sr12  1  0.496402  0.042516  0.747035  1
  Sr  Sr13  1  0.963569  0.503014  0.749472  1
  Sr  Sr14  1  0.502799  0.962410  0.250266  1
  Sr  Sr15  1  0.040018  0.494240  0.251075  1
  Sr  Sr16  1  0.505494  0.504504  0.486181  1
  Sr  Sr17  1  0.509397  0.505287  0.984582  1
  Cr  Cr18  1  0.105231  0.586956  0.058178  1
  Fe  Fe19  1  0.999576  0.998977  0.499923  1
  Fe  Fe20  1  0.997485  0.001914  0.998924  1
  P  P21  1  0.407991  0.894998  0.441656  1
  P  P22  1  0.896528  0.408376  0.941682  1
  P  P23  1  0.593152  0.105300  0.557201  1
  P  P24  1  0.883147  0.894857  0.203701  1
  P  P25  1  0.104621  0.115828  0.296212  1
  P  P26  1  0.116774  0.106478  0.794125  1
  P  P27  1  0.895023  0.883375  0.703625  1
  P  P28  1  0.114872  0.593138  0.551387  1
  P  P29  1  0.406156  0.885893  0.947760  1
  P  P30  1  0.885907  0.406474  0.448384  1
  P  P31  1  0.591172  0.116574  0.051282  1
  P  P32  1  0.473009  0.527072  0.253285  1
  P  P33  1  0.528383  0.474534  0.751576  1
  O  O34  1  0.499134  0.787227  0.505023  1
  O  O35  1  0.227537  0.493622  0.986311  1
  O  O36  1  0.503477  0.212673  0.493076  1
  O  O37  1  0.789806  0.499372  0.005385  1
  O  O38  1  0.421764  0.522447  0.829423  1
  O  O39  1  0.472830  0.591828  0.677983  1
  O  O40  1  0.588344  0.471088  0.179510  1
  O  O41  1  0.522705  0.420765  0.331054  1
  O  O42  1  0.022612  0.762318  0.508988  1
  O  O43  1  0.237314  0.977596  0.989988  1
  O  O44  1  0.977339  0.237447  0.490585  1
  O  O45  1  0.760585  0.025908  0.008796  1
  O  O46  1  0.029594  0.490697  0.883865  1
  O  O47  1  0.508889  0.972966  0.614349  1
  O  O48  1  0.956221  0.503042  0.125055  1
  O  O49  1  0.490565  0.028135  0.384040  1
  O  O50  1  0.014372  0.497978  0.394817  1
  O  O51  1  0.500776  0.986928  0.105052  1
  O  O52  1  0.985723  0.502015  0.604791  1
  O  O53  1  0.498245  0.013500  0.893286  1
  O  O54  1  0.788362  0.011803  0.748223  1
  O  O55  1  0.988446  0.212192  0.749412  1
  O  O56  1  0.211435  0.987717  0.251538  1
  O  O57  1  0.012124  0.788109  0.247984  1
  O  O58  1  0.525170  0.297389  0.764230  1
  O  O59  1  0.708161  0.471021  0.735663  1
  O  O60  1  0.470242  0.707006  0.236355  1
  O  O61  1  0.295438  0.523193  0.268032  1
  O  O62  1  0.975357  0.980624  0.118683  1
  O  O63  1  0.018891  0.023364  0.381206  1
  O  O64  1  0.023853  0.022592  0.879152  1
  O  O65  1  0.980862  0.975577  0.618597  1
  O  O66  1  0.487807  0.774444  0.014775  1
  O  O67  1  0.224690  0.512452  0.483627  1
  O  O68  1  0.511119  0.224917  0.983183  1
  O  O69  1  0.773325  0.488255  0.515078  1
  O  O70  1  0.215221  0.208755  0.802401  1
  O  O71  1  0.793710  0.784699  0.694840  1
  O  O72  1  0.783748  0.794497  0.194810  1
  O  O73  1  0.206167  0.213964  0.305319  1
  O  O74  1  0.791951  0.390210  0.893730  1
  O  O75  1  0.614079  0.206576  0.605439  1
  O  O76  1  0.220501  0.601856  0.112047  1
  O  O77  1  0.389179  0.791535  0.393480  1
  O  O78  1  0.772434  0.027077  0.245468  1
  O  O79  1  0.971792  0.226099  0.255220  1
  O  O80  1  0.228133  0.972882  0.753669  1
  O  O81  1  0.027853  0.772728  0.744914  1
  O  O82  1  0.787158  0.388848  0.398122  1
  O  O83  1  0.608027  0.216782  0.100629  1
  O  O84  1  0.214507  0.611237  0.600696  1
  O  O85  1  0.387636  0.785560  0.898597  1
  O  O86  1  0.008403  0.772457  0.006768  1
  O  O87  1  0.239208  0.980156  0.487075  1
  O  O88  1  0.981033  0.239702  0.986986  1
  O  O89  1  0.761445  0.018563  0.511623  1
