# generated using pymatgen
data_MgTcSn4
_symmetry_space_group_name_H-M   'P 1'
_cell_length_a   7.43744065
_cell_length_b   7.43744094
_cell_length_c   7.43744057
_cell_angle_alpha   124.29515057
_cell_angle_beta   124.29516665
_cell_angle_gamma   82.70878711
_symmetry_Int_Tables_number   1
_chemical_formula_structural   MgTcSn4
_chemical_formula_sum   'Mg2 Tc2 Sn8'
_cell_volume   269.62392471
_cell_formula_units_Z   2
loop_
 _symmetry_equiv_pos_site_id
 _symmetry_equiv_pos_as_xyz
  1  'x, y, z'
loop_
 _atom_site_type_symbol
 _atom_site_label
 _atom_site_symmetry_multiplicity
 _atom_site_fract_x
 _atom_site_fract_y
 _atom_site_fract_z
 _atom_site_occupancy
  Mg  Mg0  1  0.500000  0.500000  0.000000  1
  Mg  Mg1  1  0.000000  0.000000  0.000000  1
  Tc  Tc2  1  0.750000  0.750000  0.000000  1
  Tc  Tc3  1  0.250000  0.250000  0.000000  1
  Sn  Sn4  1  0.702864  0.513447  0.500000  1
  Sn  Sn5  1  0.513447  0.013447  0.810583  1
  Sn  Sn6  1  0.202864  0.702864  0.189417  1
  Sn  Sn7  1  0.797136  0.297136  0.810583  1
  Sn  Sn8  1  0.486553  0.986553  0.189417  1
  Sn  Sn9  1  0.297136  0.486553  0.500000  1
  Sn  Sn10  1  0.986553  0.797136  0.500000  1
  Sn  Sn11  1  0.013447  0.202864  0.500000  1
