# generated using pymatgen
data_ThGe2(AsRh3)2
_symmetry_space_group_name_H-M   'P 1'
_cell_length_a   7.23181931
_cell_length_b   7.23181965
_cell_length_c   3.91568200
_cell_angle_alpha   90.00000000
_cell_angle_beta   90.00000000
_cell_angle_gamma   119.61228404
_symmetry_Int_Tables_number   1
_chemical_formula_structural   ThGe2(AsRh3)2
_chemical_formula_sum   'Th1 Ge2 As2 Rh6'
_cell_volume   178.03964277
_cell_formula_units_Z   1
loop_
 _symmetry_equiv_pos_site_id
 _symmetry_equiv_pos_as_xyz
  1  'x, y, z'
loop_
 _atom_site_type_symbol
 _atom_site_label
 _atom_site_symmetry_multiplicity
 _atom_site_fract_x
 _atom_site_fract_y
 _atom_site_fract_z
 _atom_site_occupancy
  Th  Th0  1  0.999188  0.000812  0.000000  1
  Ge  Ge1  1  0.802889  0.197111  0.500000  1
  Ge  Ge2  1  0.333590  0.666410  0.000000  1
  As  As3  1  0.389599  0.193439  0.500000  1
  As  As4  1  0.806561  0.610401  0.500000  1
  Rh  Rh5  1  0.198701  0.801299  0.500000  1
  Rh  Rh6  1  0.197495  0.395126  0.500000  1
  Rh  Rh7  1  0.533260  0.066633  0.000000  1
  Rh  Rh8  1  0.933367  0.466740  0.000000  1
  Rh  Rh9  1  0.533807  0.466193  0.000000  1
  Rh  Rh10  1  0.604874  0.802505  0.500000  1
