# generated using pymatgen
data_Ho5In2(HgRh)2
_symmetry_space_group_name_H-M   'P 1'
_cell_length_a   7.86416500
_cell_length_b   18.06452300
_cell_length_c   3.67307800
_cell_angle_alpha   90.00000000
_cell_angle_beta   90.00000000
_cell_angle_gamma   90.00000000
_symmetry_Int_Tables_number   1
_chemical_formula_structural   Ho5In2(HgRh)2
_chemical_formula_sum   'Ho10 In4 Hg4 Rh4'
_cell_volume   521.80623757
_cell_formula_units_Z   2
loop_
 _symmetry_equiv_pos_site_id
 _symmetry_equiv_pos_as_xyz
  1  'x, y, z'
loop_
 _atom_site_type_symbol
 _atom_site_label
 _atom_site_symmetry_multiplicity
 _atom_site_fract_x
 _atom_site_fract_y
 _atom_site_fract_z
 _atom_site_occupancy
  Ho  Ho0  1  0.500000  0.500000  0.000000  1
  Ho  Ho1  1  0.000000  0.000000  0.000000  1
  Ho  Ho2  1  0.754207  0.282727  0.000000  1
  Ho  Ho3  1  0.245793  0.717273  0.000000  1
  Ho  Ho4  1  0.745793  0.782727  0.000000  1
  Ho  Ho5  1  0.254207  0.217273  0.000000  1
  Ho  Ho6  1  0.612436  0.087339  0.000000  1
  Ho  Ho7  1  0.387564  0.912661  0.000000  1
  Ho  Ho8  1  0.887564  0.587339  0.000000  1
  Ho  Ho9  1  0.112436  0.412661  0.000000  1
  In  In10  1  0.573588  0.650367  0.500000  1
  In  In11  1  0.426412  0.349633  0.500000  1
  In  In12  1  0.926412  0.150367  0.500000  1
  In  In13  1  0.073588  0.849633  0.500000  1
  Hg  Hg14  1  0.710045  0.934960  0.500000  1
  Hg  Hg15  1  0.289955  0.065040  0.500000  1
  Hg  Hg16  1  0.789955  0.434960  0.500000  1
  Hg  Hg17  1  0.210045  0.565040  0.500000  1
  Rh  Rh18  1  0.545155  0.198267  0.500000  1
  Rh  Rh19  1  0.454845  0.801733  0.500000  1
  Rh  Rh20  1  0.954845  0.698267  0.500000  1
  Rh  Rh21  1  0.045155  0.301733  0.500000  1
