# generated using pymatgen
data_Ta7H16
_symmetry_space_group_name_H-M   'P 1'
_cell_length_a   6.32681567
_cell_length_b   6.32681564
_cell_length_c   6.32681500
_cell_angle_alpha   59.99999812
_cell_angle_beta   59.99999827
_cell_angle_gamma   59.99999265
_symmetry_Int_Tables_number   1
_chemical_formula_structural   Ta7H16
_chemical_formula_sum   'Ta7 H16'
_cell_volume   179.07726913
_cell_formula_units_Z   1
loop_
 _symmetry_equiv_pos_site_id
 _symmetry_equiv_pos_as_xyz
  1  'x, y, z'
loop_
 _atom_site_type_symbol
 _atom_site_label
 _atom_site_symmetry_multiplicity
 _atom_site_fract_x
 _atom_site_fract_y
 _atom_site_fract_z
 _atom_site_occupancy
  Ta  Ta0  1  0.000000  0.000000  0.500000  1
  Ta  Ta1  1  0.500000  0.000000  0.500000  1
  Ta  Ta2  1  0.000000  0.500000  0.500000  1
  Ta  Ta3  1  0.500000  0.500000  0.000000  1
  Ta  Ta4  1  0.000000  0.500000  0.000000  1
  Ta  Ta5  1  0.500000  0.000000  0.000000  1
  Ta  Ta6  1  0.000000  0.000000  0.000000  1
  H  H7  1  0.875322  0.875322  0.374033  1
  H  H8  1  0.875322  0.374033  0.875322  1
  H  H9  1  0.374033  0.875322  0.875322  1
  H  H10  1  0.875322  0.875322  0.875322  1
  H  H11  1  0.124678  0.124678  0.625967  1
  H  H12  1  0.124678  0.625967  0.124678  1
  H  H13  1  0.625967  0.124678  0.124678  1
  H  H14  1  0.124678  0.124678  0.124678  1
  H  H15  1  0.619648  0.619648  0.141057  1
  H  H16  1  0.619648  0.141057  0.619648  1
  H  H17  1  0.141057  0.619648  0.619648  1
  H  H18  1  0.619648  0.619648  0.619648  1
  H  H19  1  0.380352  0.380352  0.858943  1
  H  H20  1  0.380352  0.858943  0.380352  1
  H  H21  1  0.858943  0.380352  0.380352  1
  H  H22  1  0.380352  0.380352  0.380352  1
