# generated using pymatgen
data_K5BaVP4
_symmetry_space_group_name_H-M   'P 1'
_cell_length_a   10.10324797
_cell_length_b   10.10324742
_cell_length_c   7.92946110
_cell_angle_alpha   89.29626291
_cell_angle_beta   89.29626460
_cell_angle_gamma   120.58290345
_symmetry_Int_Tables_number   1
_chemical_formula_structural   K5BaVP4
_chemical_formula_sum   'K10 Ba2 V2 P8'
_cell_volume   696.59745342
_cell_formula_units_Z   2
loop_
 _symmetry_equiv_pos_site_id
 _symmetry_equiv_pos_as_xyz
  1  'x, y, z'
loop_
 _atom_site_type_symbol
 _atom_site_label
 _atom_site_symmetry_multiplicity
 _atom_site_fract_x
 _atom_site_fract_y
 _atom_site_fract_z
 _atom_site_occupancy
  K  K0  1  0.466764  0.525402  0.501567  1
  K  K1  1  0.058931  0.526400  0.500669  1
  K  K2  1  0.525402  0.466764  0.001567  1
  K  K3  1  0.526400  0.058931  0.000669  1
  K  K4  1  0.865263  0.143844  0.677073  1
  K  K5  1  0.290387  0.153006  0.698972  1
  K  K6  1  0.853892  0.713863  0.665354  1
  K  K7  1  0.143844  0.865263  0.177073  1
  K  K8  1  0.713863  0.853892  0.165354  1
  K  K9  1  0.153006  0.290387  0.198972  1
  Ba  Ba10  1  0.465933  0.935051  0.496646  1
  Ba  Ba11  1  0.935051  0.465933  0.996646  1
  V  V12  1  0.668685  0.333581  0.393540  1
  V  V13  1  0.333581  0.668685  0.893540  1
  P  P14  1  0.676208  0.332812  0.684664  1
  P  P15  1  0.332812  0.676208  0.184664  1
  P  P16  1  0.791433  0.205176  0.295346  1
  P  P17  1  0.413885  0.201458  0.313302  1
  P  P18  1  0.795434  0.582590  0.287156  1
  P  P19  1  0.205176  0.791433  0.795346  1
  P  P20  1  0.582590  0.795434  0.787156  1
  P  P21  1  0.201458  0.413885  0.813302  1
