# generated using pymatgen
data_Be2Nb6GaGe
_symmetry_space_group_name_H-M   'P 1'
_cell_length_a   6.73263945
_cell_length_b   6.75787346
_cell_length_c   3.45034300
_cell_angle_alpha   90.00000000
_cell_angle_beta   90.00000000
_cell_angle_gamma   90.09774322
_symmetry_Int_Tables_number   1
_chemical_formula_structural   Be2Nb6GaGe
_chemical_formula_sum   'Be2 Nb6 Ga1 Ge1'
_cell_volume   156.98460026
_cell_formula_units_Z   1
loop_
 _symmetry_equiv_pos_site_id
 _symmetry_equiv_pos_as_xyz
  1  'x, y, z'
loop_
 _atom_site_type_symbol
 _atom_site_label
 _atom_site_symmetry_multiplicity
 _atom_site_fract_x
 _atom_site_fract_y
 _atom_site_fract_z
 _atom_site_occupancy
  Be  Be0  1  0.620147  0.876446  0.000000  1
  Be  Be1  1  0.120453  0.622994  0.000000  1
  Nb  Nb2  1  0.995393  0.991269  0.000000  1
  Nb  Nb3  1  0.495316  0.508884  0.000000  1
  Nb  Nb4  1  0.679967  0.163420  0.500000  1
  Nb  Nb5  1  0.184502  0.334021  0.500000  1
  Nb  Nb6  1  0.819654  0.691325  0.500000  1
  Nb  Nb7  1  0.320697  0.811833  0.500000  1
  Ga  Ga8  1  0.882016  0.385704  0.000000  1
  Ge  Ge9  1  0.381853  0.114105  0.000000  1
