# generated using pymatgen
data_DyEr15(InNi)4
_symmetry_space_group_name_H-M   'P 1'
_cell_length_a   9.51545398
_cell_length_b   9.51545356
_cell_length_c   9.52486200
_cell_angle_alpha   59.96728689
_cell_angle_beta   59.96728837
_cell_angle_gamma   59.91612922
_symmetry_Int_Tables_number   1
_chemical_formula_structural   DyEr15(InNi)4
_chemical_formula_sum   'Dy1 Er15 In4 Ni4'
_cell_volume   609.13285639
_cell_formula_units_Z   1
loop_
 _symmetry_equiv_pos_site_id
 _symmetry_equiv_pos_as_xyz
  1  'x, y, z'
loop_
 _atom_site_type_symbol
 _atom_site_label
 _atom_site_symmetry_multiplicity
 _atom_site_fract_x
 _atom_site_fract_y
 _atom_site_fract_z
 _atom_site_occupancy
  Dy  Dy0  1  0.062130  0.062130  0.437870  1
  Er  Er1  1  0.652547  0.043974  0.651741  1
  Er  Er2  1  0.187959  0.811369  0.188395  1
  Er  Er3  1  0.438381  0.061780  0.438059  1
  Er  Er4  1  0.188548  0.188548  0.811452  1
  Er  Er5  1  0.652749  0.652749  0.652258  1
  Er  Er6  1  0.043974  0.652547  0.651741  1
  Er  Er7  1  0.438381  0.061780  0.061781  1
  Er  Er8  1  0.652749  0.652749  0.042245  1
  Er  Er9  1  0.187959  0.811369  0.812276  1
  Er  Er10  1  0.811369  0.187959  0.812276  1
  Er  Er11  1  0.811369  0.187959  0.188395  1
  Er  Er12  1  0.812174  0.812174  0.187826  1
  Er  Er13  1  0.061780  0.438381  0.438059  1
  Er  Er14  1  0.436996  0.436996  0.063004  1
  Er  Er15  1  0.061780  0.438381  0.061781  1
  In  In16  1  0.745919  0.418635  0.417723  1
  In  In17  1  0.417123  0.417123  0.748538  1
  In  In18  1  0.418635  0.745919  0.417723  1
  In  In19  1  0.417123  0.417123  0.417216  1
  Ni  Ni20  1  0.857693  0.857693  0.857563  1
  Ni  Ni21  1  0.426404  0.858571  0.857514  1
  Ni  Ni22  1  0.857693  0.857693  0.427054  1
  Ni  Ni23  1  0.858571  0.426404  0.857514  1
