# generated using pymatgen
data_Ca4HoSn3H
_symmetry_space_group_name_H-M   'P 1'
_cell_length_a   9.41970690
_cell_length_b   9.43480304
_cell_length_c   9.42890270
_cell_angle_alpha   129.10371303
_cell_angle_beta   129.14898989
_cell_angle_gamma   74.75162931
_symmetry_Int_Tables_number   1
_chemical_formula_structural   Ca4HoSn3H
_chemical_formula_sum   'Ca8 Ho2 Sn6 H2'
_cell_volume   491.40093909
_cell_formula_units_Z   2
loop_
 _symmetry_equiv_pos_site_id
 _symmetry_equiv_pos_as_xyz
  1  'x, y, z'
loop_
 _atom_site_type_symbol
 _atom_site_label
 _atom_site_symmetry_multiplicity
 _atom_site_fract_x
 _atom_site_fract_y
 _atom_site_fract_z
 _atom_site_occupancy
  Ca  Ca0  1  0.498403  0.500857  0.000413  1
  Ca  Ca1  1  0.185460  0.685216  0.173722  1
  Ca  Ca2  1  0.008876  0.186394  0.499815  1
  Ca  Ca3  1  0.685315  0.507915  0.498233  1
  Ca  Ca4  1  0.489824  0.989778  0.177260  1
  Ca  Ca5  1  0.812441  0.312359  0.822144  1
  Ca  Ca6  1  0.988915  0.813218  0.500001  1
  Ca  Ca7  1  0.312646  0.488669  0.499559  1
  Ho  Ho8  1  0.001276  0.997736  0.999894  1
  Ho  Ho9  1  0.515093  0.013077  0.824481  1
  Sn  Sn10  1  0.251451  0.241354  0.995509  1
  Sn  Sn11  1  0.747140  0.759171  0.994894  1
  Sn  Sn12  1  0.870702  0.362810  0.235184  1
  Sn  Sn13  1  0.122651  0.631407  0.755627  1
  Sn  Sn14  1  0.365836  0.123919  0.495981  1
  Sn  Sn15  1  0.631953  0.873777  0.511109  1
  H  H16  1  0.262281  0.762406  0.514251  1
  H  H17  1  0.749736  0.249936  0.501923  1
