# generated using pymatgen
data_Ca(GaCl4)2
_symmetry_space_group_name_H-M   'P 1'
_cell_length_a   7.30358000
_cell_length_b   7.39420915
_cell_length_c   13.58056975
_cell_angle_alpha   87.77222130
_cell_angle_beta   90.00000000
_cell_angle_gamma   90.00000000
_symmetry_Int_Tables_number   1
_chemical_formula_structural   Ca(GaCl4)2
_chemical_formula_sum   'Ca2 Ga4 Cl16'
_cell_volume   732.85345977
_cell_formula_units_Z   2
loop_
 _symmetry_equiv_pos_site_id
 _symmetry_equiv_pos_as_xyz
  1  'x, y, z'
loop_
 _atom_site_type_symbol
 _atom_site_label
 _atom_site_symmetry_multiplicity
 _atom_site_fract_x
 _atom_site_fract_y
 _atom_site_fract_z
 _atom_site_occupancy
  Ca  Ca0  1  0.743184  0.997601  0.504019  1
  Ca  Ca1  1  0.256816  0.997601  0.004019  1
  Ga  Ga2  1  0.925502  0.437294  0.541334  1
  Ga  Ga3  1  0.435476  0.852705  0.241695  1
  Ga  Ga4  1  0.564524  0.852705  0.741695  1
  Ga  Ga5  1  0.074498  0.437294  0.041334  1
  Cl  Cl6  1  0.927354  0.464366  0.176087  1
  Cl  Cl7  1  0.072646  0.464366  0.676087  1
  Cl  Cl8  1  0.635498  0.345297  0.558367  1
  Cl  Cl9  1  0.364502  0.345297  0.058367  1
  Cl  Cl10  1  0.929712  0.692144  0.446560  1
  Cl  Cl11  1  0.070288  0.692144  0.946560  1
  Cl  Cl12  1  0.436560  0.847581  0.591289  1
  Cl  Cl13  1  0.563440  0.847581  0.091289  1
  Cl  Cl14  1  0.041526  0.212979  0.453350  1
  Cl  Cl15  1  0.958474  0.212979  0.953350  1
  Cl  Cl16  1  0.153483  0.949746  0.202873  1
  Cl  Cl17  1  0.846517  0.949746  0.702873  1
  Cl  Cl18  1  0.438481  0.598920  0.322406  1
  Cl  Cl19  1  0.561519  0.598920  0.822406  1
  Cl  Cl20  1  0.580982  0.069968  0.321021  1
  Cl  Cl21  1  0.419018  0.069968  0.821021  1
