# generated using pymatgen
data_La6TbDySb20
_symmetry_space_group_name_H-M   'P 1'
_cell_length_a   4.32489700
_cell_length_b   13.65822835
_cell_length_c   15.27315906
_cell_angle_alpha   78.10196953
_cell_angle_beta   90.00000000
_cell_angle_gamma   90.00000000
_symmetry_Int_Tables_number   1
_chemical_formula_structural   La6TbDySb20
_chemical_formula_sum   'La6 Tb1 Dy1 Sb20'
_cell_volume   882.80945639
_cell_formula_units_Z   1
loop_
 _symmetry_equiv_pos_site_id
 _symmetry_equiv_pos_as_xyz
  1  'x, y, z'
loop_
 _atom_site_type_symbol
 _atom_site_label
 _atom_site_symmetry_multiplicity
 _atom_site_fract_x
 _atom_site_fract_y
 _atom_site_fract_z
 _atom_site_occupancy
  La  La0  1  0.750000  0.334385  0.142650  1
  La  La1  1  0.250000  0.947590  0.364323  1
  La  La2  1  0.250000  0.665587  0.857303  1
  La  La3  1  0.250000  0.666749  0.577689  1
  La  La4  1  0.750000  0.052405  0.635677  1
  La  La5  1  0.750000  0.333246  0.422358  1
  Tb  Tb6  1  0.750000  0.603444  0.227687  1
  Dy  Dy7  1  0.250000  0.396650  0.772328  1
  Sb  Sb8  1  0.750000  0.855480  0.817433  1
  Sb  Sb9  1  0.250000  0.862854  0.675715  1
  Sb  Sb10  1  0.250000  0.145089  0.474991  1
  Sb  Sb11  1  0.750000  0.287480  0.933285  1
  Sb  Sb12  1  0.250000  0.148638  0.781877  1
  Sb  Sb13  1  0.750000  0.575916  0.439512  1
  Sb  Sb14  1  0.750000  0.137144  0.324285  1
  Sb  Sb15  1  0.250000  0.703632  0.351799  1
  Sb  Sb16  1  0.750000  0.296402  0.648291  1
  Sb  Sb17  1  0.750000  0.851474  0.218121  1
  Sb  Sb18  1  0.250000  0.419794  0.971194  1
  Sb  Sb19  1  0.250000  0.424096  0.560619  1
  Sb  Sb20  1  0.750000  0.569966  0.738049  1
  Sb  Sb21  1  0.250000  0.429792  0.262000  1
  Sb  Sb22  1  0.750000  0.854913  0.525006  1
  Sb  Sb23  1  0.750000  0.035291  0.887305  1
  Sb  Sb24  1  0.250000  0.712550  0.066601  1
  Sb  Sb25  1  0.250000  0.964716  0.112700  1
  Sb  Sb26  1  0.250000  0.144508  0.182561  1
  Sb  Sb27  1  0.750000  0.580209  0.028643  1
