# generated using pymatgen
data_CeDy3Th4(ReC2)4
_symmetry_space_group_name_H-M   'P 1'
_cell_length_a   5.29590700
_cell_length_b   6.67208687
_cell_length_c   9.90339683
_cell_angle_alpha   90.08626132
_cell_angle_beta   90.00000000
_cell_angle_gamma   90.00000000
_symmetry_Int_Tables_number   1
_chemical_formula_structural   CeDy3Th4(ReC2)4
_chemical_formula_sum   'Ce1 Dy3 Th4 Re4 C8'
_cell_volume   349.93367022
_cell_formula_units_Z   1
loop_
 _symmetry_equiv_pos_site_id
 _symmetry_equiv_pos_as_xyz
  1  'x, y, z'
loop_
 _atom_site_type_symbol
 _atom_site_label
 _atom_site_symmetry_multiplicity
 _atom_site_fract_x
 _atom_site_fract_y
 _atom_site_fract_z
 _atom_site_occupancy
  Ce  Ce0  1  0.750000  0.683628  0.952921  1
  Dy  Dy1  1  0.250000  0.320786  0.052392  1
  Dy  Dy2  1  0.750000  0.177319  0.550766  1
  Dy  Dy3  1  0.250000  0.822627  0.448852  1
  Th  Th4  1  0.250000  0.972718  0.782375  1
  Th  Th5  1  0.750000  0.526834  0.283775  1
  Th  Th6  1  0.250000  0.471108  0.715839  1
  Th  Th7  1  0.750000  0.027757  0.215026  1
  Re  Re8  1  0.250000  0.770950  0.138636  1
  Re  Re9  1  0.750000  0.728853  0.635548  1
  Re  Re10  1  0.250000  0.270473  0.363270  1
  Re  Re11  1  0.750000  0.227898  0.862364  1
  C  C12  1  0.250000  0.170300  0.551384  1
  C  C13  1  0.750000  0.330956  0.051481  1
  C  C14  1  0.250000  0.668785  0.948795  1
  C  C15  1  0.750000  0.828010  0.447788  1
  C  C16  1  0.250000  0.537614  0.261831  1
  C  C17  1  0.750000  0.964242  0.757856  1
  C  C18  1  0.250000  0.037522  0.240049  1
  C  C19  1  0.750000  0.461619  0.739054  1
