# generated using pymatgen
data_Tb3In3CoAg2
_symmetry_space_group_name_H-M   'P 1'
_cell_length_a   7.99870400
_cell_length_b   7.99870599
_cell_length_c   3.68398500
_cell_angle_alpha   90.00000000
_cell_angle_beta   90.00000000
_cell_angle_gamma   120.00000833
_symmetry_Int_Tables_number   1
_chemical_formula_structural   Tb3In3CoAg2
_chemical_formula_sum   'Tb3 In3 Co1 Ag2'
_cell_volume   204.12105649
_cell_formula_units_Z   1
loop_
 _symmetry_equiv_pos_site_id
 _symmetry_equiv_pos_as_xyz
  1  'x, y, z'
loop_
 _atom_site_type_symbol
 _atom_site_label
 _atom_site_symmetry_multiplicity
 _atom_site_fract_x
 _atom_site_fract_y
 _atom_site_fract_z
 _atom_site_occupancy
  Tb  Tb0  1  0.422802  0.386222  0.000000  1
  Tb  Tb1  1  0.613778  0.036580  0.000000  1
  Tb  Tb2  1  0.963420  0.577198  0.000000  1
  In  In3  1  0.004690  0.277146  0.500000  1
  In  In4  1  0.722854  0.727544  0.500000  1
  In  In5  1  0.272456  0.995310  0.500000  1
  Co  Co6  1  0.666667  0.333333  0.500000  1
  Ag  Ag7  1  0.000000  0.000000  0.000000  1
  Ag  Ag8  1  0.333333  0.666667  0.500000  1
