# generated using pymatgen
data_RbSbTeO6
_symmetry_space_group_name_H-M   'P 1'
_cell_length_a   7.29476670
_cell_length_b   7.29476740
_cell_length_c   7.29476738
_cell_angle_alpha   120.33834701
_cell_angle_beta   119.78110799
_cell_angle_gamma   89.89725787
_symmetry_Int_Tables_number   1
_chemical_formula_structural   RbSbTeO6
_chemical_formula_sum   'Rb2 Sb2 Te2 O12'
_cell_volume   274.22903572
_cell_formula_units_Z   2
loop_
 _symmetry_equiv_pos_site_id
 _symmetry_equiv_pos_as_xyz
  1  'x, y, z'
loop_
 _atom_site_type_symbol
 _atom_site_label
 _atom_site_symmetry_multiplicity
 _atom_site_fract_x
 _atom_site_fract_y
 _atom_site_fract_z
 _atom_site_occupancy
  Rb  Rb0  1  0.373626  0.623626  0.750000  1
  Rb  Rb1  1  0.626374  0.376374  0.250000  1
  Sb  Sb2  1  0.000000  0.000000  0.500000  1
  Sb  Sb3  1  0.000000  0.500000  0.000000  1
  Te  Te4  1  0.000000  0.000000  0.000000  1
  Te  Te5  1  0.500000  0.000000  0.500000  1
  O  O6  1  0.321910  0.071910  0.250000  1
  O  O7  1  0.923811  0.673811  0.250000  1
  O  O8  1  0.329228  0.681422  0.256374  1
  O  O9  1  0.925048  0.072855  0.243626  1
  O  O10  1  0.329228  0.072855  0.647807  1
  O  O11  1  0.925048  0.681422  0.852193  1
  O  O12  1  0.678090  0.928090  0.750000  1
  O  O13  1  0.076189  0.326189  0.750000  1
  O  O14  1  0.670772  0.318578  0.743626  1
  O  O15  1  0.074952  0.927145  0.756374  1
  O  O16  1  0.670772  0.927145  0.352193  1
  O  O17  1  0.074952  0.318578  0.147807  1
