# generated using pymatgen
data_Ho16In4Ni3Pd
_symmetry_space_group_name_H-M   'P 1'
_cell_length_a   9.58765716
_cell_length_b   9.59405652
_cell_length_c   9.58765700
_cell_angle_alpha   60.02206616
_cell_angle_beta   60.00000401
_cell_angle_gamma   60.02206681
_symmetry_Int_Tables_number   1
_chemical_formula_structural   Ho16In4Ni3Pd
_chemical_formula_sum   'Ho16 In4 Ni3 Pd1'
_cell_volume   623.81676829
_cell_formula_units_Z   1
loop_
 _symmetry_equiv_pos_site_id
 _symmetry_equiv_pos_as_xyz
  1  'x, y, z'
loop_
 _atom_site_type_symbol
 _atom_site_label
 _atom_site_symmetry_multiplicity
 _atom_site_fract_x
 _atom_site_fract_y
 _atom_site_fract_z
 _atom_site_occupancy
  Ho  Ho0  1  0.188156  0.186049  0.812898  1
  Ho  Ho1  1  0.602367  0.591962  0.203306  1
  Ho  Ho2  1  0.438433  0.068220  0.438433  1
  Ho  Ho3  1  0.437338  0.438494  0.062083  1
  Ho  Ho4  1  0.812898  0.186049  0.812898  1
  Ho  Ho5  1  0.188244  0.812052  0.188244  1
  Ho  Ho6  1  0.438433  0.068220  0.054914  1
  Ho  Ho7  1  0.188244  0.812052  0.811461  1
  Ho  Ho8  1  0.062083  0.438494  0.062083  1
  Ho  Ho9  1  0.811461  0.812052  0.188244  1
  Ho  Ho10  1  0.203306  0.591962  0.602367  1
  Ho  Ho11  1  0.062083  0.438494  0.437338  1
  Ho  Ho12  1  0.054914  0.068220  0.438433  1
  Ho  Ho13  1  0.812898  0.186049  0.188156  1
  Ho  Ho14  1  0.597036  0.208891  0.597036  1
  Ho  Ho15  1  0.602367  0.591962  0.602367  1
  In  In16  1  0.832233  0.832868  0.832233  1
  In  In17  1  0.832233  0.832868  0.502666  1
  In  In18  1  0.502666  0.832868  0.832233  1
  In  In19  1  0.833007  0.500980  0.833007  1
  Ni  Ni20  1  0.392445  0.393105  0.392445  1
  Ni  Ni21  1  0.822005  0.393105  0.392445  1
  Ni  Ni22  1  0.392445  0.393105  0.822005  1
  Pd  Pd23  1  0.392706  0.821881  0.392706  1
