# generated using pymatgen
data_Ca6Si5HgRh12
_symmetry_space_group_name_H-M   'P 1'
_cell_length_a   5.66981600
_cell_length_b   5.66984401
_cell_length_c   15.27572400
_cell_angle_alpha   89.99993475
_cell_angle_beta   90.00033912
_cell_angle_gamma   119.99939258
_symmetry_Int_Tables_number   1
_chemical_formula_structural   Ca6Si5HgRh12
_chemical_formula_sum   'Ca6 Si5 Hg1 Rh12'
_cell_volume   425.28020486
_cell_formula_units_Z   1
loop_
 _symmetry_equiv_pos_site_id
 _symmetry_equiv_pos_as_xyz
  1  'x, y, z'
loop_
 _atom_site_type_symbol
 _atom_site_label
 _atom_site_symmetry_multiplicity
 _atom_site_fract_x
 _atom_site_fract_y
 _atom_site_fract_z
 _atom_site_occupancy
  Ca  Ca0  1  0.333319  0.666653  0.042036  1
  Ca  Ca1  1  0.333348  0.666677  0.252655  1
  Ca  Ca2  1  0.333355  0.666683  0.459694  1
  Ca  Ca3  1  0.666663  0.333328  0.540304  1
  Ca  Ca4  1  0.666663  0.333333  0.747349  1
  Ca  Ca5  1  0.666656  0.333326  0.957987  1
  Si  Si6  1  0.000013  0.000011  0.258213  1
  Si  Si7  1  0.666671  0.333342  0.259334  1
  Si  Si8  1  0.999984  0.999999  0.500008  1
  Si  Si9  1  0.000006  0.999998  0.741764  1
  Si  Si10  1  0.333322  0.666658  0.740658  1
  Hg  Hg11  1  0.999948  0.999991  0.999989  1
  Rh  Rh12  1  0.336123  0.168064  0.147664  1
  Rh  Rh13  1  0.831963  0.168074  0.147657  1
  Rh  Rh14  1  0.831956  0.663896  0.147655  1
  Rh  Rh15  1  0.330363  0.165197  0.373082  1
  Rh  Rh16  1  0.834839  0.165197  0.373083  1
  Rh  Rh17  1  0.834835  0.669653  0.373087  1
  Rh  Rh18  1  0.165155  0.330320  0.626919  1
  Rh  Rh19  1  0.165145  0.834816  0.626927  1
  Rh  Rh20  1  0.669659  0.834815  0.626923  1
  Rh  Rh21  1  0.168054  0.336092  0.852341  1
  Rh  Rh22  1  0.168050  0.831942  0.852341  1
  Rh  Rh23  1  0.663908  0.831943  0.852335  1
