# generated using pymatgen
data_GdNb(SnRu2)2
_symmetry_space_group_name_H-M   'P 1'
_cell_length_a   4.68528700
_cell_length_b   6.62793830
_cell_length_c   14.04746400
_cell_angle_alpha   89.98305661
_cell_angle_beta   90.00051361
_cell_angle_gamma   89.99763154
_symmetry_Int_Tables_number   1
_chemical_formula_structural   GdNb(SnRu2)2
_chemical_formula_sum   'Gd3 Nb3 Sn6 Ru12'
_cell_volume   436.22702165
_cell_formula_units_Z   3
loop_
 _symmetry_equiv_pos_site_id
 _symmetry_equiv_pos_as_xyz
  1  'x, y, z'
loop_
 _atom_site_type_symbol
 _atom_site_label
 _atom_site_symmetry_multiplicity
 _atom_site_fract_x
 _atom_site_fract_y
 _atom_site_fract_z
 _atom_site_occupancy
  Gd  Gd0  1  0.000004  0.999996  0.996420  1
  Gd  Gd1  1  0.500026  0.499967  0.166893  1
  Gd  Gd2  1  0.999944  0.999886  0.337218  1
  Nb  Nb3  1  0.500021  0.500078  0.502150  1
  Nb  Nb4  1  0.000023  0.999865  0.666599  1
  Nb  Nb5  1  0.499947  0.500184  0.831069  1
  Sn  Sn6  1  0.999978  0.500057  0.996759  1
  Sn  Sn7  1  0.499961  0.999880  0.166927  1
  Sn  Sn8  1  0.000006  0.500021  0.336709  1
  Sn  Sn9  1  0.500013  0.999979  0.505315  1
  Sn  Sn10  1  0.999984  0.500002  0.666707  1
  Sn  Sn11  1  0.500063  0.000095  0.827761  1
  Ru  Ru12  1  0.499982  0.265437  0.983188  1
  Ru  Ru13  1  0.499989  0.734505  0.983135  1
  Ru  Ru14  1  0.000004  0.248179  0.166949  1
  Ru  Ru15  1  0.999938  0.751730  0.166938  1
  Ru  Ru16  1  0.500024  0.265405  0.349965  1
  Ru  Ru17  1  0.500013  0.734646  0.349920  1
  Ru  Ru18  1  0.000043  0.257872  0.511537  1
  Ru  Ru19  1  0.000014  0.742004  0.511547  1
  Ru  Ru20  1  0.499994  0.246405  0.666426  1
  Ru  Ru21  1  0.499995  0.753812  0.666454  1
  Ru  Ru22  1  0.000043  0.257765  0.821710  1
  Ru  Ru23  1  0.999990  0.742234  0.821701  1
