# generated using pymatgen
data_Tb7Y3Cd3Os
_symmetry_space_group_name_H-M   'P 1'
_cell_length_a   9.64956200
_cell_length_b   9.64956215
_cell_length_c   9.92710500
_cell_angle_alpha   90.00000000
_cell_angle_beta   90.00000000
_cell_angle_gamma   119.99999949
_symmetry_Int_Tables_number   1
_chemical_formula_structural   Tb7Y3Cd3Os
_chemical_formula_sum   'Tb14 Y6 Cd6 Os2'
_cell_volume   800.51312686
_cell_formula_units_Z   2
loop_
 _symmetry_equiv_pos_site_id
 _symmetry_equiv_pos_as_xyz
  1  'x, y, z'
loop_
 _atom_site_type_symbol
 _atom_site_label
 _atom_site_symmetry_multiplicity
 _atom_site_fract_x
 _atom_site_fract_y
 _atom_site_fract_z
 _atom_site_occupancy
  Tb  Tb0  1  0.000000  0.000000  0.500000  1
  Tb  Tb1  1  0.000000  0.000000  0.000000  1
  Tb  Tb2  1  0.209681  0.790319  0.440230  1
  Tb  Tb3  1  0.209681  0.419362  0.440230  1
  Tb  Tb4  1  0.580638  0.790319  0.440230  1
  Tb  Tb5  1  0.790319  0.209681  0.559770  1
  Tb  Tb6  1  0.790319  0.580638  0.559770  1
  Tb  Tb7  1  0.419362  0.209681  0.559770  1
  Tb  Tb8  1  0.790319  0.209681  0.940230  1
  Tb  Tb9  1  0.790319  0.580638  0.940230  1
  Tb  Tb10  1  0.419362  0.209681  0.940230  1
  Tb  Tb11  1  0.209681  0.790319  0.059770  1
  Tb  Tb12  1  0.209681  0.419362  0.059770  1
  Tb  Tb13  1  0.580638  0.790319  0.059770  1
  Y  Y14  1  0.540312  0.459688  0.250000  1
  Y  Y15  1  0.540312  0.080625  0.250000  1
  Y  Y16  1  0.919375  0.459688  0.250000  1
  Y  Y17  1  0.459688  0.540312  0.750000  1
  Y  Y18  1  0.459688  0.919375  0.750000  1
  Y  Y19  1  0.080625  0.540312  0.750000  1
  Cd  Cd20  1  0.885426  0.114574  0.250000  1
  Cd  Cd21  1  0.885426  0.770854  0.250000  1
  Cd  Cd22  1  0.229146  0.114574  0.250000  1
  Cd  Cd23  1  0.114574  0.885426  0.750000  1
  Cd  Cd24  1  0.114574  0.229146  0.750000  1
  Cd  Cd25  1  0.770854  0.885426  0.750000  1
  Os  Os26  1  0.333333  0.666667  0.250000  1
  Os  Os27  1  0.666667  0.333333  0.750000  1
