# generated using pymatgen
data_Zr6Zn20Ni3As
_symmetry_space_group_name_H-M   'P 1'
_cell_length_a   8.74342828
_cell_length_b   8.74342833
_cell_length_c   8.67970621
_cell_angle_alpha   59.63335103
_cell_angle_beta   59.63334988
_cell_angle_gamma   59.58897995
_symmetry_Int_Tables_number   1
_chemical_formula_structural   Zr6Zn20Ni3As
_chemical_formula_sum   'Zr6 Zn20 Ni3 As1'
_cell_volume   465.12767262
_cell_formula_units_Z   1
loop_
 _symmetry_equiv_pos_site_id
 _symmetry_equiv_pos_as_xyz
  1  'x, y, z'
loop_
 _atom_site_type_symbol
 _atom_site_label
 _atom_site_symmetry_multiplicity
 _atom_site_fract_x
 _atom_site_fract_y
 _atom_site_fract_z
 _atom_site_occupancy
  Zr  Zr0  1  0.713008  0.284879  0.287534  1
  Zr  Zr1  1  0.286992  0.715121  0.712466  1
  Zr  Zr2  1  0.284879  0.713008  0.287534  1
  Zr  Zr3  1  0.715121  0.286992  0.712466  1
  Zr  Zr4  1  0.289394  0.289394  0.707686  1
  Zr  Zr5  1  0.710606  0.710606  0.292314  1
  Zn  Zn6  1  0.118344  0.118344  0.117850  1
  Zn  Zn7  1  0.881656  0.881656  0.882150  1
  Zn  Zn8  1  0.124901  0.124901  0.638355  1
  Zn  Zn9  1  0.114604  0.641067  0.129991  1
  Zn  Zn10  1  0.875099  0.875099  0.361645  1
  Zn  Zn11  1  0.885396  0.358933  0.870009  1
  Zn  Zn12  1  0.641067  0.114604  0.129991  1
  Zn  Zn13  1  0.358933  0.885396  0.870009  1
  Zn  Zn14  1  0.500000  0.000000  0.000000  1
  Zn  Zn15  1  0.000000  0.500000  0.000000  1
  Zn  Zn16  1  0.000000  0.000000  0.500000  1
  Zn  Zn17  1  0.500000  0.500000  0.000000  1
  Zn  Zn18  1  0.331475  0.331475  0.340743  1
  Zn  Zn19  1  0.668525  0.668525  0.659257  1
  Zn  Zn20  1  0.335590  0.335590  0.994117  1
  Zn  Zn21  1  0.338240  0.996065  0.339081  1
  Zn  Zn22  1  0.664410  0.664410  0.005883  1
  Zn  Zn23  1  0.661760  0.003935  0.660919  1
  Zn  Zn24  1  0.996065  0.338240  0.339081  1
  Zn  Zn25  1  0.003935  0.661760  0.660919  1
  Ni  Ni26  1  0.000000  0.500000  0.500000  1
  Ni  Ni27  1  0.500000  0.000000  0.500000  1
  Ni  Ni28  1  0.000000  0.000000  0.000000  1
  As  As29  1  0.500000  0.500000  0.500000  1
