# generated using pymatgen
data_TbHo5Al24Os5Pd3
_symmetry_space_group_name_H-M   'P 1'
_cell_length_a   8.84084933
_cell_length_b   8.84890059
_cell_length_c   9.54288806
_cell_angle_alpha   89.92272402
_cell_angle_beta   89.71841022
_cell_angle_gamma   119.53254486
_symmetry_Int_Tables_number   1
_chemical_formula_structural   TbHo5Al24Os5Pd3
_chemical_formula_sum   'Tb1 Ho5 Al24 Os5 Pd3'
_cell_volume   649.54751533
_cell_formula_units_Z   1
loop_
 _symmetry_equiv_pos_site_id
 _symmetry_equiv_pos_as_xyz
  1  'x, y, z'
loop_
 _atom_site_type_symbol
 _atom_site_label
 _atom_site_symmetry_multiplicity
 _atom_site_fract_x
 _atom_site_fract_y
 _atom_site_fract_z
 _atom_site_occupancy
  Tb  Tb0  1  0.186389  0.381619  0.252169  1
  Ho  Ho1  1  0.813505  0.617903  0.747690  1
  Ho  Ho2  1  0.615541  0.815859  0.253002  1
  Ho  Ho3  1  0.384573  0.184348  0.747025  1
  Ho  Ho4  1  0.195387  0.810027  0.251214  1
  Ho  Ho5  1  0.804658  0.190131  0.748768  1
  Al  Al6  1  0.336160  0.671194  0.028493  1
  Al  Al7  1  0.663965  0.329072  0.971332  1
  Al  Al8  1  0.669950  0.332292  0.525232  1
  Al  Al9  1  0.330165  0.667962  0.474914  1
  Al  Al10  1  0.157078  0.324348  0.578002  1
  Al  Al11  1  0.842942  0.675622  0.422198  1
  Al  Al12  1  0.675270  0.841812  0.577619  1
  Al  Al13  1  0.837208  0.677862  0.080563  1
  Al  Al14  1  0.324779  0.158086  0.422436  1
  Al  Al15  1  0.162790  0.322108  0.919299  1
  Al  Al16  1  0.164007  0.835122  0.575080  1
  Al  Al17  1  0.325135  0.158489  0.076519  1
  Al  Al18  1  0.835799  0.164730  0.424956  1
  Al  Al19  1  0.674906  0.841406  0.923422  1
  Al  Al20  1  0.831826  0.158899  0.077035  1
  Al  Al21  1  0.168056  0.841021  0.922927  1
  Al  Al22  1  0.561282  0.124719  0.249170  1
  Al  Al23  1  0.438697  0.875267  0.750834  1
  Al  Al24  1  0.874738  0.438481  0.252557  1
  Al  Al25  1  0.124951  0.561566  0.747449  1
  Al  Al26  1  0.562071  0.438672  0.249283  1
  Al  Al27  1  0.438224  0.561335  0.750699  1
  Al  Al28  1  0.998738  0.001566  0.250221  1
  Al  Al29  1  0.001132  0.998268  0.749776  1
  Os  Os30  1  0.500031  0.000054  0.999921  1
  Os  Os31  1  0.500072  0.000081  0.500095  1
  Os  Os32  1  0.999821  0.500063  0.500184  1
  Os  Os33  1  0.000001  0.999949  0.999920  1
  Os  Os34  1  0.999988  0.999943  0.500117  1
  Pd  Pd35  1  0.999940  0.500042  0.999886  1
  Pd  Pd36  1  0.500127  0.500045  0.999900  1
  Pd  Pd37  1  0.500096  0.500037  0.500092  1
