# generated using pymatgen
data_Nd5DyHo2(Si3Rh)4
_symmetry_space_group_name_H-M   'P 1'
_cell_length_a   8.23816504
_cell_length_b   8.23679003
_cell_length_c   8.17045500
_cell_angle_alpha   90.00000000
_cell_angle_beta   90.00000000
_cell_angle_gamma   119.99446963
_symmetry_Int_Tables_number   1
_chemical_formula_structural   Nd5DyHo2(Si3Rh)4
_chemical_formula_sum   'Nd5 Dy1 Ho2 Si12 Rh4'
_cell_volume   480.16395692
_cell_formula_units_Z   1
loop_
 _symmetry_equiv_pos_site_id
 _symmetry_equiv_pos_as_xyz
  1  'x, y, z'
loop_
 _atom_site_type_symbol
 _atom_site_label
 _atom_site_symmetry_multiplicity
 _atom_site_fract_x
 _atom_site_fract_y
 _atom_site_fract_z
 _atom_site_occupancy
  Nd  Nd0  1  0.000089  0.000044  0.250000  1
  Nd  Nd1  1  0.999961  0.999980  0.750000  1
  Nd  Nd2  1  0.504329  0.495647  0.250000  1
  Nd  Nd3  1  0.504329  0.008682  0.250000  1
  Nd  Nd4  1  0.991237  0.495619  0.250000  1
  Dy  Dy5  1  0.014635  0.507316  0.750000  1
  Ho  Ho6  1  0.492786  0.507275  0.750000  1
  Ho  Ho7  1  0.492786  0.985509  0.750000  1
  Si  Si8  1  0.166785  0.833475  0.506109  1
  Si  Si9  1  0.166785  0.333311  0.506109  1
  Si  Si10  1  0.666619  0.833310  0.506259  1
  Si  Si11  1  0.831644  0.168160  0.503401  1
  Si  Si12  1  0.831644  0.663483  0.503401  1
  Si  Si13  1  0.336539  0.168269  0.503460  1
  Si  Si14  1  0.831644  0.168160  0.996599  1
  Si  Si15  1  0.831644  0.663483  0.996599  1
  Si  Si16  1  0.336539  0.168269  0.996540  1
  Si  Si17  1  0.166785  0.833475  0.993891  1
  Si  Si18  1  0.166785  0.333311  0.993891  1
  Si  Si19  1  0.666619  0.833310  0.993741  1
  Rh  Rh20  1  0.333558  0.666780  0.492029  1
  Rh  Rh21  1  0.666351  0.333175  0.543226  1
  Rh  Rh22  1  0.666351  0.333175  0.956774  1
  Rh  Rh23  1  0.333558  0.666780  0.007971  1
