# generated using pymatgen
data_LaTbSm5CoI12
_symmetry_space_group_name_H-M   'P 1'
_cell_length_a   9.89652497
_cell_length_b   9.89160573
_cell_length_c   9.89821710
_cell_angle_alpha   106.40053012
_cell_angle_beta   106.44724152
_cell_angle_gamma   106.34460151
_symmetry_Int_Tables_number   1
_chemical_formula_structural   LaTbSm5CoI12
_chemical_formula_sum   'La1 Tb1 Sm5 Co1 I12'
_cell_volume   819.86209934
_cell_formula_units_Z   1
loop_
 _symmetry_equiv_pos_site_id
 _symmetry_equiv_pos_as_xyz
  1  'x, y, z'
loop_
 _atom_site_type_symbol
 _atom_site_label
 _atom_site_symmetry_multiplicity
 _atom_site_fract_x
 _atom_site_fract_y
 _atom_site_fract_z
 _atom_site_occupancy
  La  La0  1  0.995779  0.995631  0.995888  1
  Tb  Tb1  1  0.409006  0.214160  0.481022  1
  Sm  Sm2  1  0.517298  0.589849  0.788915  1
  Sm  Sm3  1  0.788900  0.516698  0.590967  1
  Sm  Sm4  1  0.590867  0.789447  0.517586  1
  Sm  Sm5  1  0.480546  0.406439  0.209611  1
  Sm  Sm6  1  0.209441  0.480258  0.407321  1
  Co  Co7  1  0.499438  0.499117  0.499416  1
  I  I8  1  0.274887  0.824398  0.426365  1
  I  I9  1  0.425393  0.272586  0.819651  1
  I  I10  1  0.822924  0.425938  0.274265  1
  I  I11  1  0.720624  0.175326  0.571665  1
  I  I12  1  0.572702  0.724120  0.176080  1
  I  I13  1  0.175869  0.572756  0.724385  1
  I  I14  1  0.045032  0.121053  0.348122  1
  I  I15  1  0.347122  0.042290  0.123579  1
  I  I16  1  0.120924  0.346787  0.041781  1
  I  I17  1  0.956005  0.876338  0.646286  1
  I  I18  1  0.646149  0.955919  0.876261  1
  I  I19  1  0.876462  0.646256  0.956200  1
