# generated using pymatgen
data_Ca2YbLuSb3
_symmetry_space_group_name_H-M   'P 1'
_cell_length_a   8.15609014
_cell_length_b   8.13751558
_cell_length_c   8.06975129
_cell_angle_alpha   109.45315568
_cell_angle_beta   109.54679484
_cell_angle_gamma   109.79779884
_symmetry_Int_Tables_number   1
_chemical_formula_structural   Ca2YbLuSb3
_chemical_formula_sum   'Ca4 Yb2 Lu2 Sb6'
_cell_volume   410.32986824
_cell_formula_units_Z   2
loop_
 _symmetry_equiv_pos_site_id
 _symmetry_equiv_pos_as_xyz
  1  'x, y, z'
loop_
 _atom_site_type_symbol
 _atom_site_label
 _atom_site_symmetry_multiplicity
 _atom_site_fract_x
 _atom_site_fract_y
 _atom_site_fract_z
 _atom_site_occupancy
  Ca  Ca0  1  0.003529  0.354693  0.499013  1
  Ca  Ca1  1  0.351338  0.494614  0.996487  1
  Ca  Ca2  1  0.004516  0.855681  0.500987  1
  Ca  Ca3  1  0.854851  0.498128  0.003513  1
  Yb  Yb4  1  0.499212  0.003740  0.857777  1
  Yb  Yb5  1  0.141434  0.145963  0.142223  1
  Lu  Lu6  1  0.498582  0.000031  0.353188  1
  Lu  Lu7  1  0.645394  0.646842  0.646812  1
  Sb  Sb8  1  0.861697  0.112251  0.736393  1
  Sb  Sb9  1  0.384787  0.253727  0.619204  1
  Sb  Sb10  1  0.122039  0.752127  0.880307  1
  Sb  Sb11  1  0.741732  0.871820  0.119693  1
  Sb  Sb12  1  0.265584  0.634524  0.380796  1
  Sb  Sb13  1  0.625304  0.375859  0.263607  1
