# generated using pymatgen
data_YbEr7(Sc3Pt4)4
_symmetry_space_group_name_H-M   'P 1'
_cell_length_a   7.22127472
_cell_length_b   7.26667365
_cell_length_c   14.20299290
_cell_angle_alpha   89.81909202
_cell_angle_beta   90.04486587
_cell_angle_gamma   90.06469640
_symmetry_Int_Tables_number   1
_chemical_formula_structural   YbEr7(Sc3Pt4)4
_chemical_formula_sum   'Yb1 Er7 Sc12 Pt16'
_cell_volume   745.29261883
_cell_formula_units_Z   1
loop_
 _symmetry_equiv_pos_site_id
 _symmetry_equiv_pos_as_xyz
  1  'x, y, z'
loop_
 _atom_site_type_symbol
 _atom_site_label
 _atom_site_symmetry_multiplicity
 _atom_site_fract_x
 _atom_site_fract_y
 _atom_site_fract_z
 _atom_site_occupancy
  Yb  Yb0  1  0.987529  0.825045  0.593019  1
  Er  Er1  1  0.487908  0.675617  0.593700  1
  Er  Er2  1  0.987877  0.824363  0.906169  1
  Er  Er3  1  0.511394  0.323701  0.093598  1
  Er  Er4  1  0.011634  0.176547  0.406031  1
  Er  Er5  1  0.510763  0.324650  0.407226  1
  Er  Er6  1  0.011228  0.176125  0.093607  1
  Er  Er7  1  0.488168  0.675166  0.905876  1
  Sc  Sc8  1  0.646399  0.166775  0.624427  1
  Sc  Sc9  1  0.145703  0.332312  0.875802  1
  Sc  Sc10  1  0.354503  0.831936  0.124246  1
  Sc  Sc11  1  0.854517  0.668188  0.376722  1
  Sc  Sc12  1  0.353756  0.831325  0.375792  1
  Sc  Sc13  1  0.854430  0.668063  0.124358  1
  Sc  Sc14  1  0.645391  0.168787  0.876164  1
  Sc  Sc15  1  0.145156  0.332722  0.624289  1
  Sc  Sc16  1  0.811449  0.504295  0.749672  1
  Sc  Sc17  1  0.310248  0.996170  0.749292  1
  Sc  Sc18  1  0.188577  0.496345  0.249955  1
  Sc  Sc19  1  0.689411  0.003867  0.250173  1
  Pt  Pt20  1  0.679418  0.960947  0.455234  1
  Pt  Pt21  1  0.183690  0.539760  0.041818  1
  Pt  Pt22  1  0.316238  0.039895  0.958429  1
  Pt  Pt23  1  0.814245  0.455784  0.541223  1
  Pt  Pt24  1  0.322151  0.044978  0.541817  1
  Pt  Pt25  1  0.816786  0.460490  0.958331  1
  Pt  Pt26  1  0.683701  0.959909  0.041165  1
  Pt  Pt27  1  0.184989  0.537035  0.457552  1
  Pt  Pt28  1  0.447403  0.377228  0.749367  1
  Pt  Pt29  1  0.946089  0.122933  0.751044  1
  Pt  Pt30  1  0.554188  0.621950  0.250187  1
  Pt  Pt31  1  0.053993  0.877841  0.250407  1
  Pt  Pt32  1  0.671317  0.857352  0.750857  1
  Pt  Pt33  1  0.174143  0.641483  0.751864  1
  Pt  Pt34  1  0.327809  0.143361  0.250303  1
  Pt  Pt35  1  0.827800  0.357054  0.250283  1
