# generated using pymatgen
data_CeDy(Al5Os)4
_symmetry_space_group_name_H-M   'P 1'
_cell_length_a   6.87792193
_cell_length_b   6.87792235
_cell_length_c   9.17073400
_cell_angle_alpha   90.00000000
_cell_angle_beta   90.00000000
_cell_angle_gamma   96.82306210
_symmetry_Int_Tables_number   1
_chemical_formula_structural   CeDy(Al5Os)4
_chemical_formula_sum   'Ce1 Dy1 Al20 Os4'
_cell_volume   430.75654961
_cell_formula_units_Z   1
loop_
 _symmetry_equiv_pos_site_id
 _symmetry_equiv_pos_as_xyz
  1  'x, y, z'
loop_
 _atom_site_type_symbol
 _atom_site_label
 _atom_site_symmetry_multiplicity
 _atom_site_fract_x
 _atom_site_fract_y
 _atom_site_fract_z
 _atom_site_occupancy
  Ce  Ce0  1  0.372492  0.627508  0.250000  1
  Dy  Dy1  1  0.630320  0.369680  0.750000  1
  Al  Al2  1  0.282258  0.018896  0.750000  1
  Al  Al3  1  0.017673  0.281719  0.250000  1
  Al  Al4  1  0.718281  0.982327  0.250000  1
  Al  Al5  1  0.981104  0.717742  0.750000  1
  Al  Al6  1  0.876027  0.123973  0.950699  1
  Al  Al7  1  0.122923  0.877077  0.045790  1
  Al  Al8  1  0.876027  0.123973  0.549301  1
  Al  Al9  1  0.122923  0.877077  0.454210  1
  Al  Al10  1  0.645462  0.917414  0.750000  1
  Al  Al11  1  0.913237  0.645718  0.250000  1
  Al  Al12  1  0.354282  0.086763  0.250000  1
  Al  Al13  1  0.082586  0.354538  0.750000  1
  Al  Al14  1  0.343612  0.656388  0.897356  1
  Al  Al15  1  0.657969  0.342031  0.101297  1
  Al  Al16  1  0.343612  0.656388  0.602644  1
  Al  Al17  1  0.657969  0.342031  0.398703  1
  Al  Al18  1  0.724682  0.724027  0.998552  1
  Al  Al19  1  0.724682  0.724027  0.501448  1
  Al  Al20  1  0.275973  0.275318  0.998552  1
  Al  Al21  1  0.275973  0.275318  0.501448  1
  Os  Os22  1  0.499473  0.999508  0.999868  1
  Os  Os23  1  0.000492  0.500527  0.999868  1
  Os  Os24  1  0.499473  0.999508  0.500132  1
  Os  Os25  1  0.000492  0.500527  0.500132  1
