# generated using pymatgen
data_Dy2Lu2B12MoRu
_symmetry_space_group_name_H-M   'P 1'
_cell_length_a   3.62290400
_cell_length_b   9.13803509
_cell_length_c   11.53591313
_cell_angle_alpha   89.76568927
_cell_angle_beta   90.00000000
_cell_angle_gamma   90.00000000
_symmetry_Int_Tables_number   1
_chemical_formula_structural   Dy2Lu2B12MoRu
_chemical_formula_sum   'Dy4 Lu4 B24 Mo2 Ru2'
_cell_volume   381.90732929
_cell_formula_units_Z   2
loop_
 _symmetry_equiv_pos_site_id
 _symmetry_equiv_pos_as_xyz
  1  'x, y, z'
loop_
 _atom_site_type_symbol
 _atom_site_label
 _atom_site_symmetry_multiplicity
 _atom_site_fract_x
 _atom_site_fract_y
 _atom_site_fract_z
 _atom_site_occupancy
  Dy  Dy0  1  0.000000  0.321592  0.414722  1
  Dy  Dy1  1  0.000000  0.678408  0.585278  1
  Dy  Dy2  1  0.000000  0.821690  0.085375  1
  Dy  Dy3  1  0.000000  0.178310  0.914625  1
  Lu  Lu4  1  0.000000  0.944834  0.370999  1
  Lu  Lu5  1  0.000000  0.055166  0.629001  1
  Lu  Lu6  1  0.000000  0.442138  0.128452  1
  Lu  Lu7  1  0.000000  0.557862  0.871548  1
  B  B8  1  0.500000  0.552259  0.433682  1
  B  B9  1  0.500000  0.447741  0.566318  1
  B  B10  1  0.500000  0.054666  0.067317  1
  B  B11  1  0.500000  0.945334  0.932683  1
  B  B12  1  0.500000  0.752284  0.420016  1
  B  B13  1  0.500000  0.247716  0.579984  1
  B  B14  1  0.500000  0.250062  0.081621  1
  B  B15  1  0.500000  0.749938  0.918379  1
  B  B16  1  0.500000  0.795828  0.263733  1
  B  B17  1  0.500000  0.204172  0.736267  1
  B  B18  1  0.500000  0.291206  0.234080  1
  B  B19  1  0.500000  0.708794  0.765920  1
  B  B20  1  0.500000  0.630648  0.181785  1
  B  B21  1  0.500000  0.369352  0.818215  1
  B  B22  1  0.500000  0.129818  0.314214  1
  B  B23  1  0.500000  0.870182  0.685786  1
  B  B24  1  0.500000  0.983379  0.212145  1
  B  B25  1  0.500000  0.016621  0.787855  1
  B  B26  1  0.500000  0.478416  0.286293  1
  B  B27  1  0.500000  0.521584  0.713707  1
  B  B28  1  0.500000  0.600241  0.027033  1
  B  B29  1  0.500000  0.399759  0.972967  1
  B  B30  1  0.500000  0.100256  0.471737  1
  B  B31  1  0.500000  0.899744  0.528263  1
  Mo  Mo32  1  0.000000  0.639899  0.318148  1
  Mo  Mo33  1  0.000000  0.360101  0.681852  1
  Ru  Ru34  1  0.000000  0.139106  0.179111  1
  Ru  Ru35  1  0.000000  0.860894  0.820889  1
