# generated using pymatgen
data_Ho7Er(InAu2)4
_symmetry_space_group_name_H-M   'P 1'
_cell_length_a   8.00385484
_cell_length_b   8.00385610
_cell_length_c   7.30395300
_cell_angle_alpha   90.00000000
_cell_angle_beta   90.00000000
_cell_angle_gamma   89.94337606
_symmetry_Int_Tables_number   1
_chemical_formula_structural   Ho7Er(InAu2)4
_chemical_formula_sum   'Ho7 Er1 In4 Au8'
_cell_volume   467.90343482
_cell_formula_units_Z   1
loop_
 _symmetry_equiv_pos_site_id
 _symmetry_equiv_pos_as_xyz
  1  'x, y, z'
loop_
 _atom_site_type_symbol
 _atom_site_label
 _atom_site_symmetry_multiplicity
 _atom_site_fract_x
 _atom_site_fract_y
 _atom_site_fract_z
 _atom_site_occupancy
  Ho  Ho0  1  0.841553  0.158447  0.500000  1
  Ho  Ho1  1  0.158186  0.841814  0.500000  1
  Ho  Ho2  1  0.341888  0.341551  0.000000  1
  Ho  Ho3  1  0.658449  0.658112  0.000000  1
  Ho  Ho4  1  0.681768  0.681468  0.500000  1
  Ho  Ho5  1  0.318532  0.318232  0.500000  1
  Ho  Ho6  1  0.181564  0.818436  0.000000  1
  Er  Er7  1  0.818588  0.181412  0.000000  1
  In  In8  1  0.499960  0.999977  0.249966  1
  In  In9  1  0.000023  0.500040  0.750034  1
  In  In10  1  0.499960  0.999977  0.750034  1
  In  In11  1  0.000023  0.500040  0.249966  1
  Au  Au12  1  0.629149  0.370851  0.272703  1
  Au  Au13  1  0.371429  0.628571  0.273807  1
  Au  Au14  1  0.128174  0.129000  0.774188  1
  Au  Au15  1  0.871000  0.871826  0.774188  1
  Au  Au16  1  0.371429  0.628571  0.726193  1
  Au  Au17  1  0.629149  0.370851  0.727297  1
  Au  Au18  1  0.871000  0.871826  0.225812  1
  Au  Au19  1  0.128174  0.129000  0.225812  1
