# generated using pymatgen
data_TcIr3Rh5
_symmetry_space_group_name_H-M   'P 1'
_cell_length_a   6.10845467
_cell_length_b   6.10845448
_cell_length_c   6.10321793
_cell_angle_alpha   95.69561205
_cell_angle_beta   95.69561514
_cell_angle_gamma   143.29110373
_symmetry_Int_Tables_number   1
_chemical_formula_structural   TcIr3Rh5
_chemical_formula_sum   'Tc1 Ir3 Rh5'
_cell_volume   129.18856379
_cell_formula_units_Z   1
loop_
 _symmetry_equiv_pos_site_id
 _symmetry_equiv_pos_as_xyz
  1  'x, y, z'
loop_
 _atom_site_type_symbol
 _atom_site_label
 _atom_site_symmetry_multiplicity
 _atom_site_fract_x
 _atom_site_fract_y
 _atom_site_fract_z
 _atom_site_occupancy
  Tc  Tc0  1  0.001752  0.001752  0.003504  1
  Ir  Ir1  1  0.664410  0.335788  0.000199  1
  Ir  Ir2  1  0.335788  0.664410  0.000199  1
  Ir  Ir3  1  0.662129  0.662129  0.324259  1
  Rh  Rh4  1  0.327910  0.999753  0.327662  1
  Rh  Rh5  1  0.999753  0.327910  0.327662  1
  Rh  Rh6  1  0.670504  0.002344  0.672848  1
  Rh  Rh7  1  0.002344  0.670504  0.672848  1
  Rh  Rh8  1  0.335410  0.335410  0.670819  1
