# generated using pymatgen
data_Nd9Gd11Sn16
_symmetry_space_group_name_H-M   'P 1'
_cell_length_a   8.09752504
_cell_length_b   8.35401143
_cell_length_c   15.71989300
_cell_angle_alpha   90.12802726
_cell_angle_beta   90.00570303
_cell_angle_gamma   90.05996463
_symmetry_Int_Tables_number   1
_chemical_formula_structural   Nd9Gd11Sn16
_chemical_formula_sum   'Nd9 Gd11 Sn16'
_cell_volume   1063.39747863
_cell_formula_units_Z   1
loop_
 _symmetry_equiv_pos_site_id
 _symmetry_equiv_pos_as_xyz
  1  'x, y, z'
loop_
 _atom_site_type_symbol
 _atom_site_label
 _atom_site_symmetry_multiplicity
 _atom_site_fract_x
 _atom_site_fract_y
 _atom_site_fract_z
 _atom_site_occupancy
  Nd  Nd0  1  0.847929  0.666918  0.877491  1
  Nd  Nd1  1  0.503933  0.320242  0.903402  1
  Nd  Nd2  1  0.002894  0.180124  0.594816  1
  Nd  Nd3  1  0.496284  0.679668  0.404362  1
  Nd  Nd4  1  0.997034  0.819627  0.097710  1
  Nd  Nd5  1  0.495331  0.679495  0.097038  1
  Nd  Nd6  1  0.995357  0.820668  0.404212  1
  Nd  Nd7  1  0.503965  0.321282  0.594946  1
  Nd  Nd8  1  0.003262  0.181532  0.903660  1
  Gd  Gd9  1  0.346874  0.833849  0.874806  1
  Gd  Gd10  1  0.847242  0.666127  0.623111  1
  Gd  Gd11  1  0.652967  0.166311  0.376050  1
  Gd  Gd12  1  0.152541  0.333570  0.124297  1
  Gd  Gd13  1  0.652734  0.166762  0.126227  1
  Gd  Gd14  1  0.152708  0.333140  0.376021  1
  Gd  Gd15  1  0.347988  0.834050  0.623024  1
  Gd  Gd16  1  0.177237  0.500964  0.749797  1
  Gd  Gd17  1  0.677524  0.999310  0.748813  1
  Gd  Gd18  1  0.821367  0.498670  0.250259  1
  Gd  Gd19  1  0.323077  0.000741  0.250188  1
  Sn  Sn20  1  0.314555  0.038716  0.040971  1
  Sn  Sn21  1  0.815425  0.461135  0.458826  1
  Sn  Sn22  1  0.685526  0.959951  0.539558  1
  Sn  Sn23  1  0.192591  0.539123  0.960040  1
  Sn  Sn24  1  0.682533  0.963070  0.961028  1
  Sn  Sn25  1  0.186216  0.539488  0.540072  1
  Sn  Sn26  1  0.313098  0.038945  0.458743  1
  Sn  Sn27  1  0.812414  0.458486  0.043014  1
  Sn  Sn28  1  0.543920  0.615741  0.748064  1
  Sn  Sn29  1  0.046441  0.885317  0.747861  1
  Sn  Sn30  1  0.454399  0.384481  0.251580  1
  Sn  Sn31  1  0.956113  0.115146  0.250622  1
  Sn  Sn32  1  0.306911  0.143903  0.748506  1
  Sn  Sn33  1  0.807913  0.355259  0.748121  1
  Sn  Sn34  1  0.691986  0.854549  0.251320  1
  Sn  Sn35  1  0.191710  0.643639  0.251450  1
