# generated using pymatgen
data_PrRe4Bi3F28
_symmetry_space_group_name_H-M   'P 1'
_cell_length_a   5.71613605
_cell_length_b   9.23918484
_cell_length_c   12.37836922
_cell_angle_alpha   61.98173304
_cell_angle_beta   90.09729418
_cell_angle_gamma   89.98567331
_symmetry_Int_Tables_number   1
_chemical_formula_structural   PrRe4Bi3F28
_chemical_formula_sum   'Pr1 Re4 Bi3 F28'
_cell_volume   577.11184835
_cell_formula_units_Z   1
loop_
 _symmetry_equiv_pos_site_id
 _symmetry_equiv_pos_as_xyz
  1  'x, y, z'
loop_
 _atom_site_type_symbol
 _atom_site_label
 _atom_site_symmetry_multiplicity
 _atom_site_fract_x
 _atom_site_fract_y
 _atom_site_fract_z
 _atom_site_occupancy
  Pr  Pr0  1  0.741931  0.809596  0.264327  1
  Re  Re1  1  0.758791  0.273313  0.957228  1
  Re  Re2  1  0.256257  0.727471  0.543022  1
  Re  Re3  1  0.243665  0.727265  0.039962  1
  Re  Re4  1  0.743339  0.271341  0.459382  1
  Bi  Bi5  1  0.760697  0.815147  0.762547  1
  Bi  Bi6  1  0.260492  0.184568  0.738059  1
  Bi  Bi7  1  0.237887  0.182999  0.237649  1
  F  F8  1  0.439886  0.708161  0.916167  1
  F  F9  1  0.939542  0.291379  0.583541  1
  F  F10  1  0.563131  0.291768  0.081457  1
  F  F11  1  0.059106  0.709305  0.418067  1
  F  F12  1  0.452061  0.278853  0.545140  1
  F  F13  1  0.950690  0.721348  0.954814  1
  F  F14  1  0.544192  0.719783  0.456008  1
  F  F15  1  0.050522  0.278862  0.043744  1
  F  F16  1  0.771932  0.514308  0.859540  1
  F  F17  1  0.267421  0.487064  0.640114  1
  F  F18  1  0.230553  0.487886  0.138036  1
  F  F19  1  0.731271  0.513391  0.361946  1
  F  F20  1  0.758825  0.030622  0.053590  1
  F  F21  1  0.259644  0.971270  0.446769  1
  F  F22  1  0.242578  0.971666  0.945074  1
  F  F23  1  0.741492  0.028113  0.554282  1
  F  F24  1  0.972637  0.731892  0.632998  1
  F  F25  1  0.475783  0.270275  0.865194  1
  F  F26  1  0.025761  0.269826  0.367856  1
  F  F27  1  0.523622  0.730342  0.133352  1
  F  F28  1  0.051962  0.744833  0.167255  1
  F  F29  1  0.553485  0.254460  0.331542  1
  F  F30  1  0.949031  0.254074  0.829659  1
  F  F31  1  0.446347  0.745916  0.670320  1
  F  F32  1  0.401083  0.970222  0.230033  1
  F  F33  1  0.913862  0.033503  0.270595  1
  F  F34  1  0.590431  0.029096  0.770625  1
  F  F35  1  0.090094  0.970080  0.730105  1
