# generated using pymatgen
data_La9Pr(Ga3Co2)2
_symmetry_space_group_name_H-M   'P 1'
_cell_length_a   7.79666595
_cell_length_b   7.75814186
_cell_length_c   10.65686600
_cell_angle_alpha   90.00000000
_cell_angle_beta   90.00000000
_cell_angle_gamma   129.33832687
_symmetry_Int_Tables_number   1
_chemical_formula_structural   La9Pr(Ga3Co2)2
_chemical_formula_sum   'La9 Pr1 Ga6 Co4'
_cell_volume   498.55089180
_cell_formula_units_Z   1
loop_
 _symmetry_equiv_pos_site_id
 _symmetry_equiv_pos_as_xyz
  1  'x, y, z'
loop_
 _atom_site_type_symbol
 _atom_site_label
 _atom_site_symmetry_multiplicity
 _atom_site_fract_x
 _atom_site_fract_y
 _atom_site_fract_z
 _atom_site_occupancy
  La  La0  1  0.876378  0.119672  0.001317  1
  La  La1  1  0.121676  0.878777  0.500685  1
  La  La2  1  0.121676  0.878777  0.999315  1
  La  La3  1  0.517655  0.935223  0.750000  1
  La  La4  1  0.876378  0.119672  0.498683  1
  La  La5  1  0.405255  0.405617  0.750000  1
  La  La6  1  0.934598  0.517444  0.750000  1
  La  La7  1  0.065786  0.483053  0.250000  1
  La  La8  1  0.594060  0.596637  0.250000  1
  Pr  Pr9  1  0.485983  0.070046  0.250000  1
  Ga  Ga10  1  0.897951  0.899998  0.750000  1
  Ga  Ga11  1  0.347719  0.649322  0.999834  1
  Ga  Ga12  1  0.347719  0.649322  0.500166  1
  Ga  Ga13  1  0.104731  0.100069  0.250000  1
  Ga  Ga14  1  0.650620  0.348484  0.000416  1
  Ga  Ga15  1  0.650620  0.348484  0.499584  1
  Co  Co16  1  0.665529  0.666687  0.566021  1
  Co  Co17  1  0.665529  0.666687  0.933979  1
  Co  Co18  1  0.335069  0.333014  0.065998  1
  Co  Co19  1  0.335069  0.333014  0.434002  1
