# generated using pymatgen
data_Nd3YScPt3O14
_symmetry_space_group_name_H-M   'P 1'
_cell_length_a   7.38759976
_cell_length_b   7.44417576
_cell_length_c   7.38760100
_cell_angle_alpha   60.25108922
_cell_angle_beta   59.99999894
_cell_angle_gamma   60.25109213
_symmetry_Int_Tables_number   1
_chemical_formula_structural   Nd3YScPt3O14
_chemical_formula_sum   'Nd3 Y1 Sc1 Pt3 O14'
_cell_volume   288.36747347
_cell_formula_units_Z   1
loop_
 _symmetry_equiv_pos_site_id
 _symmetry_equiv_pos_as_xyz
  1  'x, y, z'
loop_
 _atom_site_type_symbol
 _atom_site_label
 _atom_site_symmetry_multiplicity
 _atom_site_fract_x
 _atom_site_fract_y
 _atom_site_fract_z
 _atom_site_occupancy
  Nd  Nd0  1  0.625000  0.625000  0.125000  1
  Nd  Nd1  1  0.125000  0.625000  0.625000  1
  Nd  Nd2  1  0.625000  0.625000  0.625000  1
  Y  Y3  1  0.625000  0.125000  0.625000  1
  Sc  Sc4  1  0.125000  0.625000  0.125000  1
  Pt  Pt5  1  0.125000  0.125000  0.625000  1
  Pt  Pt6  1  0.625000  0.125000  0.125000  1
  Pt  Pt7  1  0.125000  0.125000  0.125000  1
  O  O8  1  0.505784  0.482649  0.505784  1
  O  O9  1  0.744216  0.767351  0.744216  1
  O  O10  1  0.457906  0.053457  0.457906  1
  O  O11  1  0.213750  0.794481  0.213750  1
  O  O12  1  0.471983  0.455519  0.036250  1
  O  O13  1  0.036250  0.455519  0.471983  1
  O  O14  1  0.457906  0.053457  0.030732  1
  O  O15  1  0.030732  0.053457  0.457906  1
  O  O16  1  0.036250  0.455519  0.036250  1
  O  O17  1  0.792094  0.196543  0.219268  1
  O  O18  1  0.213750  0.794481  0.778017  1
  O  O19  1  0.792094  0.196543  0.792094  1
  O  O20  1  0.219268  0.196543  0.792094  1
  O  O21  1  0.778017  0.794481  0.213750  1
