# generated using pymatgen
data_Ti8Cr3S16
_symmetry_space_group_name_H-M   'P 1'
_cell_length_a   8.89945214
_cell_length_b   8.89945150
_cell_length_c   5.88790000
_cell_angle_alpha   89.98601415
_cell_angle_beta   89.98601317
_cell_angle_gamma   99.37840519
_symmetry_Int_Tables_number   1
_chemical_formula_structural   Ti8Cr3S16
_chemical_formula_sum   'Ti8 Cr3 S16'
_cell_volume   460.09003796
_cell_formula_units_Z   1
loop_
 _symmetry_equiv_pos_site_id
 _symmetry_equiv_pos_as_xyz
  1  'x, y, z'
loop_
 _atom_site_type_symbol
 _atom_site_label
 _atom_site_symmetry_multiplicity
 _atom_site_fract_x
 _atom_site_fract_y
 _atom_site_fract_z
 _atom_site_occupancy
  Ti  Ti0  1  0.252227  0.252227  0.989303  1
  Ti  Ti1  1  0.372769  0.119569  0.502997  1
  Ti  Ti2  1  0.500000  0.000000  0.000000  1
  Ti  Ti3  1  0.627231  0.880431  0.497003  1
  Ti  Ti4  1  0.747773  0.747773  0.010697  1
  Ti  Ti5  1  0.880431  0.627231  0.497003  1
  Ti  Ti6  1  0.000000  0.500000  0.000000  1
  Ti  Ti7  1  0.119569  0.372769  0.502997  1
  Cr  Cr8  1  0.372906  0.627094  0.500000  1
  Cr  Cr9  1  0.627094  0.372906  0.500000  1
  Cr  Cr10  1  0.000000  0.000000  0.000000  1
  S  S11  1  0.246865  0.999547  0.163340  1
  S  S12  1  0.373082  0.871010  0.668341  1
  S  S13  1  0.496142  0.748546  0.171472  1
  S  S14  1  0.379818  0.379818  0.333205  1
  S  S15  1  0.620182  0.620182  0.666795  1
  S  S16  1  0.503858  0.251454  0.828528  1
  S  S17  1  0.748546  0.496142  0.171472  1
  S  S18  1  0.626918  0.128990  0.331659  1
  S  S19  1  0.871010  0.373082  0.668341  1
  S  S20  1  0.999547  0.246865  0.163340  1
  S  S21  1  0.753135  0.000453  0.836660  1
  S  S22  1  0.880108  0.880108  0.332110  1
  S  S23  1  0.119892  0.119892  0.667890  1
  S  S24  1  0.000453  0.753135  0.836660  1
  S  S25  1  0.128990  0.626918  0.331659  1
  S  S26  1  0.251454  0.503858  0.828528  1
