# generated using pymatgen
data_Eu(Zn5Ir)2
_symmetry_space_group_name_H-M   'P 1'
_cell_length_a   6.86630728
_cell_length_b   6.91531401
_cell_length_c   6.91531300
_cell_angle_alpha   98.09884290
_cell_angle_beta   98.50591587
_cell_angle_gamma   135.83521954
_symmetry_Int_Tables_number   1
_chemical_formula_structural   Eu(Zn5Ir)2
_chemical_formula_sum   'Eu1 Zn10 Ir2'
_cell_volume   211.22442179
_cell_formula_units_Z   1
loop_
 _symmetry_equiv_pos_site_id
 _symmetry_equiv_pos_as_xyz
  1  'x, y, z'
loop_
 _atom_site_type_symbol
 _atom_site_label
 _atom_site_symmetry_multiplicity
 _atom_site_fract_x
 _atom_site_fract_y
 _atom_site_fract_z
 _atom_site_occupancy
  Eu  Eu0  1  0.000000  0.000000  0.000000  1
  Zn  Zn1  1  0.275718  0.501713  0.774003  1
  Zn  Zn2  1  0.000000  0.000000  0.500000  1
  Zn  Zn3  1  0.000000  0.500000  0.000000  1
  Zn  Zn4  1  0.607573  0.962006  0.645566  1
  Zn  Zn5  1  0.000000  0.349333  0.349333  1
  Zn  Zn6  1  0.000000  0.650667  0.650667  1
  Zn  Zn7  1  0.392427  0.037994  0.354434  1
  Zn  Zn8  1  0.724282  0.498287  0.225997  1
  Zn  Zn9  1  0.500000  0.274049  0.774049  1
  Zn  Zn10  1  0.500000  0.725951  0.225951  1
  Ir  Ir11  1  0.500000  0.000000  0.000000  1
  Ir  Ir12  1  0.500000  0.500000  0.500000  1
