# generated using pymatgen
data_NdAsO
_symmetry_space_group_name_H-M   'P 1'
_cell_length_a   5.77876500
_cell_length_b   5.76214900
_cell_length_c   14.97772900
_cell_angle_alpha   90.00000000
_cell_angle_beta   90.00000000
_cell_angle_gamma   90.00000000
_symmetry_Int_Tables_number   1
_chemical_formula_structural   NdAsO
_chemical_formula_sum   'Nd8 As8 O8'
_cell_volume   498.72999239
_cell_formula_units_Z   8
loop_
 _symmetry_equiv_pos_site_id
 _symmetry_equiv_pos_as_xyz
  1  'x, y, z'
loop_
 _atom_site_type_symbol
 _atom_site_label
 _atom_site_symmetry_multiplicity
 _atom_site_fract_x
 _atom_site_fract_y
 _atom_site_fract_z
 _atom_site_occupancy
  Nd  Nd0  1  0.999401  0.250071  0.078513  1
  Nd  Nd1  1  0.000599  0.749929  0.921487  1
  Nd  Nd2  1  0.000599  0.749929  0.578513  1
  Nd  Nd3  1  0.499401  0.749929  0.421487  1
  Nd  Nd4  1  0.999401  0.250071  0.421487  1
  Nd  Nd5  1  0.500599  0.250071  0.578513  1
  Nd  Nd6  1  0.500599  0.250071  0.921487  1
  Nd  Nd7  1  0.499401  0.749929  0.078513  1
  As  As8  1  0.235491  0.979281  0.250000  1
  As  As9  1  0.764509  0.020719  0.750000  1
  As  As10  1  0.735491  0.020719  0.250000  1
  As  As11  1  0.264509  0.979281  0.750000  1
  As  As12  1  0.226367  0.533365  0.250000  1
  As  As13  1  0.773633  0.466635  0.750000  1
  As  As14  1  0.726367  0.466635  0.250000  1
  As  As15  1  0.273633  0.533365  0.750000  1
  O  O16  1  0.250000  0.999631  0.000000  1
  O  O17  1  0.750000  0.000369  0.000000  1
  O  O18  1  0.750000  0.000369  0.500000  1
  O  O19  1  0.250000  0.999631  0.500000  1
  O  O20  1  0.250000  0.499469  0.000000  1
  O  O21  1  0.750000  0.500531  0.000000  1
  O  O22  1  0.750000  0.500531  0.500000  1
  O  O23  1  0.250000  0.499469  0.500000  1
