# generated using pymatgen
data_Tm4Cu2IrAu
_symmetry_space_group_name_H-M   'P 1'
_cell_length_a   4.52001100
_cell_length_b   5.42364610
_cell_length_c   7.00715100
_cell_angle_alpha   89.55566018
_cell_angle_beta   90.00000000
_cell_angle_gamma   90.00000000
_symmetry_Int_Tables_number   1
_chemical_formula_structural   Tm4Cu2IrAu
_chemical_formula_sum   'Tm4 Cu2 Ir1 Au1'
_cell_volume   171.77472079
_cell_formula_units_Z   1
loop_
 _symmetry_equiv_pos_site_id
 _symmetry_equiv_pos_as_xyz
  1  'x, y, z'
loop_
 _atom_site_type_symbol
 _atom_site_label
 _atom_site_symmetry_multiplicity
 _atom_site_fract_x
 _atom_site_fract_y
 _atom_site_fract_z
 _atom_site_occupancy
  Tm  Tm0  1  0.250000  0.642660  0.197419  1
  Tm  Tm1  1  0.750000  0.367418  0.810631  1
  Tm  Tm2  1  0.750000  0.137485  0.323704  1
  Tm  Tm3  1  0.250000  0.852297  0.670476  1
  Cu  Cu4  1  0.750000  0.858614  0.961459  1
  Cu  Cu5  1  0.250000  0.357204  0.540004  1
  Ir  Ir6  1  0.750000  0.644407  0.465795  1
  Au  Au7  1  0.250000  0.139915  0.030512  1
