# generated using pymatgen
data_Y8Er2InSb5
_symmetry_space_group_name_H-M   'P 1'
_cell_length_a   6.40311002
_cell_length_b   8.97011867
_cell_length_c   8.97029562
_cell_angle_alpha   119.99935486
_cell_angle_beta   89.99572464
_cell_angle_gamma   90.00854909
_symmetry_Int_Tables_number   1
_chemical_formula_structural   Y8Er2InSb5
_chemical_formula_sum   'Y8 Er2 In1 Sb5'
_cell_volume   446.19978671
_cell_formula_units_Z   1
loop_
 _symmetry_equiv_pos_site_id
 _symmetry_equiv_pos_as_xyz
  1  'x, y, z'
loop_
 _atom_site_type_symbol
 _atom_site_label
 _atom_site_symmetry_multiplicity
 _atom_site_fract_x
 _atom_site_fract_y
 _atom_site_fract_z
 _atom_site_occupancy
  Y  Y0  1  0.000981  0.666135  0.331325  1
  Y  Y1  1  0.000981  0.334810  0.668675  1
  Y  Y2  1  0.749848  0.243935  0.000000  1
  Y  Y3  1  0.749763  0.753001  0.756975  1
  Y  Y4  1  0.749763  0.996025  0.243025  1
  Y  Y5  1  0.250425  0.756908  0.000000  1
  Y  Y6  1  0.250248  0.247411  0.245063  1
  Y  Y7  1  0.250248  0.002348  0.754937  1
  Er  Er8  1  0.499386  0.335477  0.668996  1
  Er  Er9  1  0.499386  0.666481  0.331004  1
  In  In10  1  0.747279  0.604580  0.000000  1
  Sb  Sb11  1  0.748384  0.389093  0.389858  1
  Sb  Sb12  1  0.748384  0.999234  0.610142  1
  Sb  Sb13  1  0.251771  0.392092  0.000000  1
  Sb  Sb14  1  0.251579  0.611231  0.609993  1
  Sb  Sb15  1  0.251579  0.001239  0.390007  1
