# generated using pymatgen
data_Dy10Y2Co5Pb
_symmetry_space_group_name_H-M   'P 1'
_cell_length_a   8.31396149
_cell_length_b   8.31396199
_cell_length_c   8.31396175
_cell_angle_alpha   107.06010832
_cell_angle_beta   110.68873918
_cell_angle_gamma   110.69138440
_symmetry_Int_Tables_number   1
_chemical_formula_structural   Dy10Y2Co5Pb
_chemical_formula_sum   'Dy10 Y2 Co5 Pb1'
_cell_volume   441.80236704
_cell_formula_units_Z   1
loop_
 _symmetry_equiv_pos_site_id
 _symmetry_equiv_pos_as_xyz
  1  'x, y, z'
loop_
 _atom_site_type_symbol
 _atom_site_label
 _atom_site_symmetry_multiplicity
 _atom_site_fract_x
 _atom_site_fract_y
 _atom_site_fract_z
 _atom_site_occupancy
  Dy  Dy0  1  0.892873  0.707652  0.185221  1
  Dy  Dy1  1  0.522432  0.707652  0.814779  1
  Dy  Dy2  1  0.307403  0.620734  0.313333  1
  Dy  Dy3  1  0.307403  0.994071  0.686667  1
  Dy  Dy4  1  0.692603  0.379876  0.687272  1
  Dy  Dy5  1  0.692603  0.005330  0.312728  1
  Dy  Dy6  1  0.192889  0.206091  0.399187  1
  Dy  Dy7  1  0.806904  0.793702  0.600813  1
  Dy  Dy8  1  0.192889  0.793702  0.986797  1
  Dy  Dy9  1  0.806904  0.206091  0.013203  1
  Y  Y10  1  0.478698  0.292458  0.186240  1
  Y  Y11  1  0.106218  0.292458  0.813760  1
  Co  Co12  1  0.501019  0.612948  0.111929  1
  Co  Co13  1  0.501019  0.389090  0.888071  1
  Co  Co14  1  0.378652  0.000030  0.378622  1
  Co  Co15  1  0.621409  0.000030  0.621378  1
  Co  Co16  1  0.998418  0.998418  0.000000  1
  Pb  Pb17  1  0.999667  0.499667  0.500000  1
