# generated using pymatgen
data_TbY6Er(CdPd)2
_symmetry_space_group_name_H-M   'P 1'
_cell_length_a   9.71291320
_cell_length_b   9.71291387
_cell_length_c   9.68114400
_cell_angle_alpha   60.10814130
_cell_angle_beta   60.10813904
_cell_angle_gamma   60.07789956
_symmetry_Int_Tables_number   1
_chemical_formula_structural   TbY6Er(CdPd)2
_chemical_formula_sum   'Tb2 Y12 Er2 Cd4 Pd4'
_cell_volume   647.25368186
_cell_formula_units_Z   2
loop_
 _symmetry_equiv_pos_site_id
 _symmetry_equiv_pos_as_xyz
  1  'x, y, z'
loop_
 _atom_site_type_symbol
 _atom_site_label
 _atom_site_symmetry_multiplicity
 _atom_site_fract_x
 _atom_site_fract_y
 _atom_site_fract_z
 _atom_site_occupancy
  Tb  Tb0  1  0.356427  0.935573  0.354000  1
  Tb  Tb1  1  0.935573  0.356427  0.354000  1
  Y  Y2  1  0.810571  0.189726  0.189985  1
  Y  Y3  1  0.189726  0.810571  0.809718  1
  Y  Y4  1  0.189726  0.810571  0.189985  1
  Y  Y5  1  0.810571  0.189726  0.809718  1
  Y  Y6  1  0.191222  0.191222  0.808778  1
  Y  Y7  1  0.811788  0.811788  0.188212  1
  Y  Y8  1  0.934958  0.564703  0.565268  1
  Y  Y9  1  0.564703  0.934958  0.935070  1
  Y  Y10  1  0.564703  0.934958  0.565268  1
  Y  Y11  1  0.934958  0.564703  0.935070  1
  Y  Y12  1  0.565363  0.565363  0.934637  1
  Y  Y13  1  0.935263  0.935263  0.564737  1
  Er  Er14  1  0.353651  0.353651  0.351514  1
  Er  Er15  1  0.353651  0.353651  0.941184  1
  Cd  Cd16  1  0.580953  0.580953  0.584243  1
  Cd  Cd17  1  0.580953  0.580953  0.253852  1
  Cd  Cd18  1  0.580149  0.253498  0.583177  1
  Cd  Cd19  1  0.253498  0.580149  0.583177  1
  Pd  Pd20  1  0.146039  0.146039  0.145006  1
  Pd  Pd21  1  0.146039  0.146039  0.562914  1
  Pd  Pd22  1  0.145959  0.563560  0.145241  1
  Pd  Pd23  1  0.563560  0.145959  0.145241  1
