# generated using pymatgen
data_HoHf3(NiPt3)3
_symmetry_space_group_name_H-M   'P 1'
_cell_length_a   5.65122400
_cell_length_b   5.64912961
_cell_length_c   9.16322300
_cell_angle_alpha   90.00000000
_cell_angle_beta   90.00000000
_cell_angle_gamma   120.01226494
_symmetry_Int_Tables_number   1
_chemical_formula_structural   HoHf3(NiPt3)3
_chemical_formula_sum   'Ho1 Hf3 Ni3 Pt9'
_cell_volume   253.30820692
_cell_formula_units_Z   1
loop_
 _symmetry_equiv_pos_site_id
 _symmetry_equiv_pos_as_xyz
  1  'x, y, z'
loop_
 _atom_site_type_symbol
 _atom_site_label
 _atom_site_symmetry_multiplicity
 _atom_site_fract_x
 _atom_site_fract_y
 _atom_site_fract_z
 _atom_site_occupancy
  Ho  Ho0  1  0.333250  0.666503  0.250000  1
  Hf  Hf1  1  0.999964  0.999929  0.500413  1
  Hf  Hf2  1  0.665520  0.331038  0.750000  1
  Hf  Hf3  1  0.999964  0.999929  0.999587  1
  Ni  Ni4  1  0.176160  0.352319  0.750000  1
  Ni  Ni5  1  0.502450  0.004899  0.506068  1
  Ni  Ni6  1  0.502450  0.004899  0.993932  1
  Pt  Pt7  1  0.996228  0.491959  0.990538  1
  Pt  Pt8  1  0.828625  0.657250  0.250000  1
  Pt  Pt9  1  0.340521  0.164214  0.250000  1
  Pt  Pt10  1  0.495731  0.491959  0.990538  1
  Pt  Pt11  1  0.823691  0.164214  0.250000  1
  Pt  Pt12  1  0.495731  0.491959  0.509462  1
  Pt  Pt13  1  0.179338  0.843486  0.750000  1
  Pt  Pt14  1  0.664149  0.843486  0.750000  1
  Pt  Pt15  1  0.996228  0.491959  0.509462  1
