# generated using pymatgen
data_LiAcZn10
_symmetry_space_group_name_H-M   'P 1'
_cell_length_a   8.39971147
_cell_length_b   8.39971145
_cell_length_c   8.39971009
_cell_angle_alpha   99.91086410
_cell_angle_beta   99.91084603
_cell_angle_gamma   130.97793725
_symmetry_Int_Tables_number   1
_chemical_formula_structural   LiAcZn10
_chemical_formula_sum   'Li2 Ac2 Zn20'
_cell_volume   407.10182458
_cell_formula_units_Z   2
loop_
 _symmetry_equiv_pos_site_id
 _symmetry_equiv_pos_as_xyz
  1  'x, y, z'
loop_
 _atom_site_type_symbol
 _atom_site_label
 _atom_site_symmetry_multiplicity
 _atom_site_fract_x
 _atom_site_fract_y
 _atom_site_fract_z
 _atom_site_occupancy
  Li  Li0  1  0.750000  0.250000  0.500000  1
  Li  Li1  1  0.500000  0.500000  0.000000  1
  Ac  Ac2  1  0.000000  0.000000  0.000000  1
  Ac  Ac3  1  0.250000  0.750000  0.500000  1
  Zn  Zn4  1  0.125000  0.375000  0.750000  1
  Zn  Zn5  1  0.625000  0.875000  0.250000  1
  Zn  Zn6  1  0.625000  0.375000  0.750000  1
  Zn  Zn7  1  0.625000  0.375000  0.250000  1
  Zn  Zn8  1  0.184228  0.513209  0.084588  1
  Zn  Zn9  1  0.184228  0.099640  0.671019  1
  Zn  Zn10  1  0.763209  0.934228  0.584588  1
  Zn  Zn11  1  0.763209  0.178622  0.828981  1
  Zn  Zn12  1  0.428622  0.513209  0.328981  1
  Zn  Zn13  1  0.428622  0.099640  0.915412  1
  Zn  Zn14  1  0.349640  0.934228  0.171019  1
  Zn  Zn15  1  0.349640  0.178622  0.415412  1
  Zn  Zn16  1  0.065772  0.236791  0.415412  1
  Zn  Zn17  1  0.065772  0.650360  0.828981  1
  Zn  Zn18  1  0.486791  0.815772  0.915412  1
  Zn  Zn19  1  0.486791  0.571378  0.671019  1
  Zn  Zn20  1  0.821378  0.236791  0.171019  1
  Zn  Zn21  1  0.821378  0.650360  0.584588  1
  Zn  Zn22  1  0.900360  0.815772  0.328981  1
  Zn  Zn23  1  0.900360  0.571378  0.084588  1
