# generated using pymatgen
data_NaDy(B2Rh3)2
_symmetry_space_group_name_H-M   'P 1'
_cell_length_a   2.90760600
_cell_length_b   5.62830700
_cell_length_c   9.71277700
_cell_angle_alpha   90.00000000
_cell_angle_beta   90.00000000
_cell_angle_gamma   90.00000000
_symmetry_Int_Tables_number   1
_chemical_formula_structural   NaDy(B2Rh3)2
_chemical_formula_sum   'Na1 Dy1 B4 Rh6'
_cell_volume   158.94861659
_cell_formula_units_Z   1
loop_
 _symmetry_equiv_pos_site_id
 _symmetry_equiv_pos_as_xyz
  1  'x, y, z'
loop_
 _atom_site_type_symbol
 _atom_site_label
 _atom_site_symmetry_multiplicity
 _atom_site_fract_x
 _atom_site_fract_y
 _atom_site_fract_z
 _atom_site_occupancy
  Na  Na0  1  0.000000  0.500667  0.500000  1
  Dy  Dy1  1  0.000000  0.999538  0.000000  1
  B  B2  1  0.000000  0.999705  0.335803  1
  B  B3  1  0.000000  0.499909  0.830689  1
  B  B4  1  0.000000  0.499909  0.169311  1
  B  B5  1  0.000000  0.999705  0.664197  1
  Rh  Rh6  1  0.500000  0.501517  0.000000  1
  Rh  Rh7  1  0.500000  0.002342  0.500000  1
  Rh  Rh8  1  0.500000  0.244822  0.243580  1
  Rh  Rh9  1  0.500000  0.753431  0.754729  1
  Rh  Rh10  1  0.500000  0.753431  0.245271  1
  Rh  Rh11  1  0.500000  0.244822  0.756420  1
