# generated using pymatgen
data_Co2AsO4F
_symmetry_space_group_name_H-M   'P 1'
_cell_length_a   7.43979160
_cell_length_b   7.43979121
_cell_length_c   10.05420418
_cell_angle_alpha   66.28236993
_cell_angle_beta   66.28237456
_cell_angle_gamma   52.98692246
_symmetry_Int_Tables_number   1
_chemical_formula_structural   Co2AsO4F
_chemical_formula_sum   'Co8 As4 O16 F4'
_cell_volume   396.96209883
_cell_formula_units_Z   4
loop_
 _symmetry_equiv_pos_site_id
 _symmetry_equiv_pos_as_xyz
  1  'x, y, z'
loop_
 _atom_site_type_symbol
 _atom_site_label
 _atom_site_symmetry_multiplicity
 _atom_site_fract_x
 _atom_site_fract_y
 _atom_site_fract_z
 _atom_site_occupancy
  Co  Co0  1  0.194235  0.684788  0.021318  1
  Co  Co1  1  0.352196  0.760158  0.489934  1
  Co  Co2  1  0.760158  0.352196  0.989934  1
  Co  Co3  1  0.684788  0.194235  0.521318  1
  Co  Co4  1  0.955236  0.746308  0.368478  1
  Co  Co5  1  0.269062  0.062377  0.124988  1
  Co  Co6  1  0.062377  0.269062  0.624988  1
  Co  Co7  1  0.746308  0.955236  0.868478  1
  As  As8  1  0.422948  0.223616  0.305788  1
  As  As9  1  0.777618  0.571433  0.192846  1
  As  As10  1  0.571433  0.777618  0.692846  1
  As  As11  1  0.223616  0.422948  0.805788  1
  O  O12  1  0.461206  0.382994  0.129162  1
  O  O13  1  0.620521  0.518581  0.367783  1
  O  O14  1  0.518581  0.620521  0.867783  1
  O  O15  1  0.382994  0.461206  0.629162  1
  O  O16  1  0.359791  0.036110  0.302757  1
  O  O17  1  0.959060  0.630299  0.206321  1
  O  O18  1  0.630299  0.959060  0.706321  1
  O  O19  1  0.036110  0.359791  0.802757  1
  O  O20  1  0.211866  0.402619  0.427449  1
  O  O21  1  0.610689  0.785906  0.066438  1
  O  O22  1  0.785906  0.610689  0.566438  1
  O  O23  1  0.402619  0.211866  0.927449  1
  O  O24  1  0.668076  0.074589  0.372924  1
  O  O25  1  0.934065  0.326514  0.120946  1
  O  O26  1  0.326514  0.934065  0.620946  1
  O  O27  1  0.074589  0.668076  0.872924  1
  F  F28  1  0.170169  0.840826  0.167251  1
  F  F29  1  0.840826  0.170169  0.667251  1
  F  F30  1  0.034094  0.900247  0.459519  1
  F  F31  1  0.900247  0.034094  0.959519  1
