# generated using pymatgen
data_RbFe4Cl11
_symmetry_space_group_name_H-M   'P 1'
_cell_length_a   7.09083400
_cell_length_b   6.51182000
_cell_length_c   17.56498000
_cell_angle_alpha   90.00000000
_cell_angle_beta   90.00000000
_cell_angle_gamma   90.00000000
_symmetry_Int_Tables_number   1
_chemical_formula_structural   RbFe4Cl11
_chemical_formula_sum   'Rb2 Fe8 Cl22'
_cell_volume   811.04950828
_cell_formula_units_Z   2
loop_
 _symmetry_equiv_pos_site_id
 _symmetry_equiv_pos_as_xyz
  1  'x, y, z'
loop_
 _atom_site_type_symbol
 _atom_site_label
 _atom_site_symmetry_multiplicity
 _atom_site_fract_x
 _atom_site_fract_y
 _atom_site_fract_z
 _atom_site_occupancy
  Rb  Rb0  1  0.500000  0.513714  0.750000  1
  Rb  Rb1  1  0.500000  0.486286  0.250000  1
  Fe  Fe2  1  0.000000  0.854383  0.330406  1
  Fe  Fe3  1  0.725238  0.000000  0.000000  1
  Fe  Fe4  1  0.274762  0.000000  0.000000  1
  Fe  Fe5  1  0.000000  0.854383  0.169594  1
  Fe  Fe6  1  0.000000  0.145617  0.669594  1
  Fe  Fe7  1  0.274762  0.000000  0.500000  1
  Fe  Fe8  1  0.725238  0.000000  0.500000  1
  Fe  Fe9  1  0.000000  0.145617  0.830406  1
  Cl  Cl10  1  0.500000  0.180411  0.074015  1
  Cl  Cl11  1  0.242696  0.715730  0.086576  1
  Cl  Cl12  1  0.763835  0.010007  0.250000  1
  Cl  Cl13  1  0.000000  0.851690  0.921193  1
  Cl  Cl14  1  0.000000  0.148310  0.078807  1
  Cl  Cl15  1  0.500000  0.819589  0.925985  1
  Cl  Cl16  1  0.763835  0.989993  0.750000  1
  Cl  Cl17  1  0.000000  0.851690  0.578807  1
  Cl  Cl18  1  0.757304  0.715730  0.086576  1
  Cl  Cl19  1  0.000000  0.552551  0.250000  1
  Cl  Cl20  1  0.000000  0.148310  0.421193  1
  Cl  Cl21  1  0.000000  0.447449  0.750000  1
  Cl  Cl22  1  0.236165  0.989993  0.750000  1
  Cl  Cl23  1  0.757304  0.715730  0.413424  1
  Cl  Cl24  1  0.757304  0.284270  0.586576  1
  Cl  Cl25  1  0.242696  0.284270  0.913424  1
  Cl  Cl26  1  0.757304  0.284270  0.913424  1
  Cl  Cl27  1  0.242696  0.715730  0.413424  1
  Cl  Cl28  1  0.500000  0.180411  0.425985  1
  Cl  Cl29  1  0.242696  0.284270  0.586576  1
  Cl  Cl30  1  0.236165  0.010007  0.250000  1
  Cl  Cl31  1  0.500000  0.819589  0.574015  1
