# generated using pymatgen
data_Tm5(CoTe)2
_symmetry_space_group_name_H-M   'P 1'
_cell_length_a   7.65051661
_cell_length_b   7.65051731
_cell_length_c   14.88732700
_cell_angle_alpha   90.00000000
_cell_angle_beta   90.00000000
_cell_angle_gamma   150.10044624
_symmetry_Int_Tables_number   1
_chemical_formula_structural   Tm5(CoTe)2
_chemical_formula_sum   'Tm10 Co4 Te4'
_cell_volume   434.35706676
_cell_formula_units_Z   2
loop_
 _symmetry_equiv_pos_site_id
 _symmetry_equiv_pos_as_xyz
  1  'x, y, z'
loop_
 _atom_site_type_symbol
 _atom_site_label
 _atom_site_symmetry_multiplicity
 _atom_site_fract_x
 _atom_site_fract_y
 _atom_site_fract_z
 _atom_site_occupancy
  Tm  Tm0  1  0.607386  0.392614  0.250000  1
  Tm  Tm1  1  0.740697  0.259303  0.632898  1
  Tm  Tm2  1  0.961483  0.038517  0.128247  1
  Tm  Tm3  1  0.038517  0.961483  0.871753  1
  Tm  Tm4  1  0.392614  0.607386  0.750000  1
  Tm  Tm5  1  0.961483  0.038517  0.371753  1
  Tm  Tm6  1  0.038517  0.961483  0.628247  1
  Tm  Tm7  1  0.259303  0.740697  0.132898  1
  Tm  Tm8  1  0.259303  0.740697  0.367102  1
  Tm  Tm9  1  0.740697  0.259303  0.867102  1
  Co  Co10  1  0.413319  0.586681  0.250000  1
  Co  Co11  1  0.586681  0.413319  0.750000  1
  Co  Co12  1  0.818249  0.181751  0.250000  1
  Co  Co13  1  0.181751  0.818249  0.750000  1
  Te  Te14  1  0.618667  0.381333  0.037837  1
  Te  Te15  1  0.618667  0.381333  0.462163  1
  Te  Te16  1  0.381333  0.618667  0.537837  1
  Te  Te17  1  0.381333  0.618667  0.962163  1
