# generated using pymatgen
data_NiHg5F18
_symmetry_space_group_name_H-M   'P 1'
_cell_length_a   8.15488757
_cell_length_b   8.19001812
_cell_length_c   8.35397200
_cell_angle_alpha   90.15972881
_cell_angle_beta   90.05596942
_cell_angle_gamma   119.20015821
_symmetry_Int_Tables_number   1
_chemical_formula_structural   NiHg5F18
_chemical_formula_sum   'Ni1 Hg5 F18'
_cell_volume   487.04312741
_cell_formula_units_Z   1
loop_
 _symmetry_equiv_pos_site_id
 _symmetry_equiv_pos_as_xyz
  1  'x, y, z'
loop_
 _atom_site_type_symbol
 _atom_site_label
 _atom_site_symmetry_multiplicity
 _atom_site_fract_x
 _atom_site_fract_y
 _atom_site_fract_z
 _atom_site_occupancy
  Ni  Ni0  1  0.500000  0.500000  0.000000  1
  Hg  Hg1  1  0.000000  0.500000  0.500000  1
  Hg  Hg2  1  0.000000  0.500000  0.000000  1
  Hg  Hg3  1  0.500000  0.000000  0.500000  1
  Hg  Hg4  1  0.500000  0.000000  0.000000  1
  Hg  Hg5  1  0.500000  0.500000  0.500000  1
  F  F6  1  0.741362  0.561762  0.044036  1
  F  F7  1  0.258638  0.438238  0.955964  1
  F  F8  1  0.218250  0.419391  0.536097  1
  F  F9  1  0.781750  0.580609  0.463903  1
  F  F10  1  0.576537  0.742519  0.954820  1
  F  F11  1  0.423463  0.257481  0.045180  1
  F  F12  1  0.423421  0.219588  0.463824  1
  F  F13  1  0.576579  0.780412  0.536176  1
  F  F14  1  0.780391  0.215833  0.546695  1
  F  F15  1  0.219609  0.784167  0.453305  1
  F  F16  1  0.222480  0.791614  0.050466  1
  F  F17  1  0.777520  0.208386  0.949534  1
  F  F18  1  0.987538  0.427646  0.240098  1
  F  F19  1  0.012462  0.572354  0.759902  1
  F  F20  1  0.425028  0.984455  0.763390  1
  F  F21  1  0.574972  0.015545  0.236610  1
  F  F22  1  0.532298  0.457255  0.792588  1
  F  F23  1  0.467702  0.542745  0.207412  1
