# generated using pymatgen
data_LuSc(ZnGa)2
_symmetry_space_group_name_H-M   'P 1'
_cell_length_a   4.35176400
_cell_length_b   4.35176385
_cell_length_c   6.87283800
_cell_angle_alpha   90.00000000
_cell_angle_beta   90.00000000
_cell_angle_gamma   120.00000115
_symmetry_Int_Tables_number   1
_chemical_formula_structural   LuSc(ZnGa)2
_chemical_formula_sum   'Lu1 Sc1 Zn2 Ga2'
_cell_volume   112.71906796
_cell_formula_units_Z   1
loop_
 _symmetry_equiv_pos_site_id
 _symmetry_equiv_pos_as_xyz
  1  'x, y, z'
loop_
 _atom_site_type_symbol
 _atom_site_label
 _atom_site_symmetry_multiplicity
 _atom_site_fract_x
 _atom_site_fract_y
 _atom_site_fract_z
 _atom_site_occupancy
  Lu  Lu0  1  0.000000  0.000000  0.999515  1
  Sc  Sc1  1  0.000000  0.000000  0.499804  1
  Zn  Zn2  1  0.666667  0.333333  0.220477  1
  Zn  Zn3  1  0.333333  0.666667  0.700931  1
  Ga  Ga4  1  0.666667  0.333333  0.774359  1
  Ga  Ga5  1  0.333333  0.666667  0.292514  1
