# generated using pymatgen
data_Tb3Ho4TmCdAgPt2
_symmetry_space_group_name_H-M   'P 1'
_cell_length_a   9.66269427
_cell_length_b   9.66269451
_cell_length_c   9.65808800
_cell_angle_alpha   60.01576889
_cell_angle_beta   60.01576807
_cell_angle_gamma   59.96845676
_symmetry_Int_Tables_number   1
_chemical_formula_structural   Tb3Ho4TmCdAgPt2
_chemical_formula_sum   'Tb6 Ho8 Tm2 Cd2 Ag2 Pt4'
_cell_volume   637.63541503
_cell_formula_units_Z   2
loop_
 _symmetry_equiv_pos_site_id
 _symmetry_equiv_pos_as_xyz
  1  'x, y, z'
loop_
 _atom_site_type_symbol
 _atom_site_label
 _atom_site_symmetry_multiplicity
 _atom_site_fract_x
 _atom_site_fract_y
 _atom_site_fract_z
 _atom_site_occupancy
  Tb  Tb0  1  0.933553  0.563617  0.564661  1
  Tb  Tb1  1  0.563617  0.933553  0.938168  1
  Tb  Tb2  1  0.563617  0.933553  0.564661  1
  Tb  Tb3  1  0.933553  0.563617  0.938168  1
  Tb  Tb4  1  0.563817  0.563817  0.936183  1
  Tb  Tb5  1  0.935754  0.935754  0.564246  1
  Ho  Ho6  1  0.352121  0.352121  0.351592  1
  Ho  Ho7  1  0.352121  0.352121  0.944166  1
  Ho  Ho8  1  0.354119  0.940908  0.352487  1
  Ho  Ho9  1  0.940908  0.354119  0.352487  1
  Ho  Ho10  1  0.811344  0.188630  0.189761  1
  Ho  Ho11  1  0.188630  0.811344  0.810265  1
  Ho  Ho12  1  0.188630  0.811344  0.189761  1
  Ho  Ho13  1  0.811344  0.188630  0.810265  1
  Tm  Tm14  1  0.189908  0.189908  0.810092  1
  Tm  Tm15  1  0.810650  0.810650  0.189350  1
  Cd  Cd16  1  0.581537  0.257604  0.580430  1
  Cd  Cd17  1  0.257604  0.581537  0.580430  1
  Ag  Ag18  1  0.583307  0.583307  0.582003  1
  Ag  Ag19  1  0.583307  0.583307  0.251384  1
  Pt  Pt20  1  0.143765  0.143765  0.142225  1
  Pt  Pt21  1  0.143765  0.143765  0.570248  1
  Pt  Pt22  1  0.141541  0.571494  0.143484  1
  Pt  Pt23  1  0.571494  0.141541  0.143484  1
