# generated using pymatgen
data_Y12Al4Si4PdRu7
_symmetry_space_group_name_H-M   'P 1'
_cell_length_a   5.61929389
_cell_length_b   7.74942332
_cell_length_c   13.50382150
_cell_angle_alpha   90.21332975
_cell_angle_beta   89.81735664
_cell_angle_gamma   89.83209732
_symmetry_Int_Tables_number   1
_chemical_formula_structural   Y12Al4Si4PdRu7
_chemical_formula_sum   'Y12 Al4 Si4 Pd1 Ru7'
_cell_volume   588.03167841
_cell_formula_units_Z   1
loop_
 _symmetry_equiv_pos_site_id
 _symmetry_equiv_pos_as_xyz
  1  'x, y, z'
loop_
 _atom_site_type_symbol
 _atom_site_label
 _atom_site_symmetry_multiplicity
 _atom_site_fract_x
 _atom_site_fract_y
 _atom_site_fract_z
 _atom_site_occupancy
  Y  Y0  1  0.146213  0.597104  0.101843  1
  Y  Y1  1  0.147666  0.900609  0.899208  1
  Y  Y2  1  0.854655  0.091996  0.398916  1
  Y  Y3  1  0.860073  0.396512  0.604875  1
  Y  Y4  1  0.854914  0.402167  0.898742  1
  Y  Y5  1  0.852211  0.100943  0.100806  1
  Y  Y6  1  0.145783  0.901417  0.600890  1
  Y  Y7  1  0.143535  0.608478  0.399471  1
  Y  Y8  1  0.367932  0.232632  0.249056  1
  Y  Y9  1  0.372797  0.261051  0.750791  1
  Y  Y10  1  0.629433  0.744417  0.244598  1
  Y  Y11  1  0.630064  0.761376  0.749878  1
  Al  Al12  1  0.380178  0.251733  0.001045  1
  Al  Al13  1  0.621391  0.753811  0.501871  1
  Al  Al14  1  0.619848  0.749493  0.999038  1
  Al  Al15  1  0.370996  0.247238  0.501406  1
  Si  Si16  1  0.867993  0.388605  0.250497  1
  Si  Si17  1  0.870131  0.106851  0.751302  1
  Si  Si18  1  0.131297  0.888219  0.248596  1
  Si  Si19  1  0.133313  0.607781  0.749228  1
  Pd  Pd20  1  0.644095  0.465248  0.406107  1
  Ru  Ru21  1  0.645289  0.469295  0.097376  1
  Ru  Ru22  1  0.648075  0.034268  0.904874  1
  Ru  Ru23  1  0.352202  0.964598  0.404154  1
  Ru  Ru24  1  0.351869  0.534115  0.592202  1
  Ru  Ru25  1  0.354490  0.533243  0.903486  1
  Ru  Ru26  1  0.352041  0.966708  0.094859  1
  Ru  Ru27  1  0.651513  0.040095  0.594883  1
