# generated using pymatgen
data_Nb4VGaSn2
_symmetry_space_group_name_H-M   'P 1'
_cell_length_a   7.93593663
_cell_length_b   7.93593657
_cell_length_c   7.93593629
_cell_angle_alpha   95.95716319
_cell_angle_beta   95.95716140
_cell_angle_gamma   142.41320223
_symmetry_Int_Tables_number   1
_chemical_formula_structural   Nb4VGaSn2
_chemical_formula_sum   'Nb8 V2 Ga2 Sn4'
_cell_volume   288.60502595
_cell_formula_units_Z   2
loop_
 _symmetry_equiv_pos_site_id
 _symmetry_equiv_pos_as_xyz
  1  'x, y, z'
loop_
 _atom_site_type_symbol
 _atom_site_label
 _atom_site_symmetry_multiplicity
 _atom_site_fract_x
 _atom_site_fract_y
 _atom_site_fract_z
 _atom_site_occupancy
  Nb  Nb0  1  0.782805  0.925724  0.708530  1
  Nb  Nb1  1  0.925724  0.217195  0.142919  1
  Nb  Nb2  1  0.074276  0.782805  0.857081  1
  Nb  Nb3  1  0.217195  0.074276  0.291470  1
  Nb  Nb4  1  0.574276  0.717195  0.291470  1
  Nb  Nb5  1  0.425724  0.282805  0.708530  1
  Nb  Nb6  1  0.282805  0.574276  0.857081  1
  Nb  Nb7  1  0.717195  0.425724  0.142919  1
  V  V8  1  0.250000  0.750000  0.500000  1
  V  V9  1  0.750000  0.250000  0.500000  1
  Ga  Ga10  1  0.750000  0.750000  0.000000  1
  Ga  Ga11  1  0.250000  0.250000  0.000000  1
  Sn  Sn12  1  0.338771  0.838771  0.177544  1
  Sn  Sn13  1  0.838771  0.661229  0.500000  1
  Sn  Sn14  1  0.161229  0.338771  0.500000  1
  Sn  Sn15  1  0.661229  0.161229  0.822456  1
