# generated using pymatgen
data_HoHf7(ZrSn3)2
_symmetry_space_group_name_H-M   'P 1'
_cell_length_a   8.56237319
_cell_length_b   8.56983146
_cell_length_c   5.78651400
_cell_angle_alpha   90.00000000
_cell_angle_beta   90.00000000
_cell_angle_gamma   121.01524211
_symmetry_Int_Tables_number   1
_chemical_formula_structural   HoHf7(ZrSn3)2
_chemical_formula_sum   'Ho1 Hf7 Zr2 Sn6'
_cell_volume   363.89793958
_cell_formula_units_Z   1
loop_
 _symmetry_equiv_pos_site_id
 _symmetry_equiv_pos_as_xyz
  1  'x, y, z'
loop_
 _atom_site_type_symbol
 _atom_site_label
 _atom_site_symmetry_multiplicity
 _atom_site_fract_x
 _atom_site_fract_y
 _atom_site_fract_z
 _atom_site_occupancy
  Ho  Ho0  1  0.768508  0.768124  0.750000  1
  Hf  Hf1  1  0.250440  0.001176  0.750000  1
  Hf  Hf2  1  0.001767  0.251416  0.750000  1
  Hf  Hf3  1  0.000617  0.750482  0.250000  1
  Hf  Hf4  1  0.665172  0.333573  0.000303  1
  Hf  Hf5  1  0.333464  0.665059  0.000288  1
  Hf  Hf6  1  0.333464  0.665059  0.499712  1
  Hf  Hf7  1  0.665172  0.333573  0.499697  1
  Zr  Zr8  1  0.234376  0.234154  0.250000  1
  Zr  Zr9  1  0.750835  0.000391  0.250000  1
  Sn  Sn10  1  0.390806  0.390857  0.750000  1
  Sn  Sn11  1  0.605833  0.003436  0.750000  1
  Sn  Sn12  1  0.003285  0.606015  0.750000  1
  Sn  Sn13  1  0.605913  0.605443  0.250000  1
  Sn  Sn14  1  0.391065  0.998829  0.250000  1
  Sn  Sn15  1  0.999282  0.392412  0.250000  1
