# generated using pymatgen
data_Pr2HoCd3(IrO7)2
_symmetry_space_group_name_H-M   'P 1'
_cell_length_a   6.46024958
_cell_length_b   6.61508569
_cell_length_c   7.64030100
_cell_angle_alpha   90.00000000
_cell_angle_beta   90.00000000
_cell_angle_gamma   112.21761926
_symmetry_Int_Tables_number   1
_chemical_formula_structural   Pr2HoCd3(IrO7)2
_chemical_formula_sum   'Pr2 Ho1 Cd3 Ir2 O14'
_cell_volume   302.26718455
_cell_formula_units_Z   1
loop_
 _symmetry_equiv_pos_site_id
 _symmetry_equiv_pos_as_xyz
  1  'x, y, z'
loop_
 _atom_site_type_symbol
 _atom_site_label
 _atom_site_symmetry_multiplicity
 _atom_site_fract_x
 _atom_site_fract_y
 _atom_site_fract_z
 _atom_site_occupancy
  Pr  Pr0  1  0.997066  0.999481  0.999770  1
  Pr  Pr1  1  0.997066  0.999481  0.500230  1
  Ho  Ho2  1  0.053881  0.511262  0.250000  1
  Cd  Cd3  1  0.485947  0.986743  0.750000  1
  Cd  Cd4  1  0.513918  0.023940  0.250000  1
  Cd  Cd5  1  0.970684  0.491741  0.750000  1
  Ir  Ir6  1  0.502347  0.499818  0.999021  1
  Ir  Ir7  1  0.502347  0.499818  0.500979  1
  O  O8  1  0.590273  0.514590  0.750000  1
  O  O9  1  0.407960  0.484538  0.250000  1
  O  O10  1  0.847820  0.132180  0.750000  1
  O  O11  1  0.155001  0.872922  0.250000  1
  O  O12  1  0.119977  0.849656  0.750000  1
  O  O13  1  0.873577  0.150655  0.250000  1
  O  O14  1  0.429787  0.191376  0.996995  1
  O  O15  1  0.566876  0.806831  0.499888  1
  O  O16  1  0.181135  0.427337  0.975986  1
  O  O17  1  0.813270  0.566043  0.451893  1
  O  O18  1  0.429787  0.191376  0.503005  1
  O  O19  1  0.566876  0.806831  0.000112  1
  O  O20  1  0.813270  0.566043  0.048107  1
  O  O21  1  0.181135  0.427337  0.524014  1
