# generated using pymatgen
data_Li3Tb8Pr8ScSi16
_symmetry_space_group_name_H-M   'P 1'
_cell_length_a   7.33105919
_cell_length_b   7.80808720
_cell_length_c   14.87897000
_cell_angle_alpha   90.00000000
_cell_angle_beta   90.00000000
_cell_angle_gamma   89.98132823
_symmetry_Int_Tables_number   1
_chemical_formula_structural   Li3Tb8Pr8ScSi16
_chemical_formula_sum   'Li3 Tb8 Pr8 Sc1 Si16'
_cell_volume   851.69525081
_cell_formula_units_Z   1
loop_
 _symmetry_equiv_pos_site_id
 _symmetry_equiv_pos_as_xyz
  1  'x, y, z'
loop_
 _atom_site_type_symbol
 _atom_site_label
 _atom_site_symmetry_multiplicity
 _atom_site_fract_x
 _atom_site_fract_y
 _atom_site_fract_z
 _atom_site_occupancy
  Li  Li0  1  0.653396  0.985368  0.750000  1
  Li  Li1  1  0.847287  0.485852  0.250000  1
  Li  Li2  1  0.346486  0.013016  0.250000  1
  Tb  Tb3  1  0.328107  0.176373  0.626453  1
  Tb  Tb4  1  0.675386  0.817440  0.373001  1
  Tb  Tb5  1  0.173797  0.680022  0.374529  1
  Tb  Tb6  1  0.818710  0.314010  0.873727  1
  Tb  Tb7  1  0.818710  0.314010  0.626273  1
  Tb  Tb8  1  0.328107  0.176373  0.873547  1
  Tb  Tb9  1  0.173797  0.680022  0.125471  1
  Tb  Tb10  1  0.675386  0.817440  0.126999  1
  Pr  Pr11  1  0.027053  0.187393  0.396699  1
  Pr  Pr12  1  0.527446  0.313629  0.395904  1
  Pr  Pr13  1  0.481132  0.687100  0.898656  1
  Pr  Pr14  1  0.481132  0.687100  0.601344  1
  Pr  Pr15  1  0.972513  0.821853  0.601254  1
  Pr  Pr16  1  0.972513  0.821853  0.898746  1
  Pr  Pr17  1  0.527446  0.313629  0.104096  1
  Pr  Pr18  1  0.027053  0.187393  0.103301  1
  Sc  Sc19  1  0.150848  0.508978  0.750000  1
  Si  Si20  1  0.266062  0.874333  0.750000  1
  Si  Si21  1  0.474218  0.593716  0.250000  1
  Si  Si22  1  0.028820  0.103584  0.750000  1
  Si  Si23  1  0.517042  0.409507  0.750000  1
  Si  Si24  1  0.145871  0.471401  0.541765  1
  Si  Si25  1  0.975716  0.905914  0.250000  1
  Si  Si26  1  0.732619  0.114606  0.250000  1
  Si  Si27  1  0.850186  0.534298  0.032364  1
  Si  Si28  1  0.350162  0.965394  0.035250  1
  Si  Si29  1  0.145871  0.471401  0.958235  1
  Si  Si30  1  0.647544  0.034863  0.532146  1
  Si  Si31  1  0.350162  0.965394  0.464750  1
  Si  Si32  1  0.850186  0.534298  0.467636  1
  Si  Si33  1  0.780756  0.612088  0.750000  1
  Si  Si34  1  0.230937  0.385481  0.250000  1
  Si  Si35  1  0.647544  0.034863  0.967854  1
