# generated using pymatgen
data_YHo3(InPd2)2
_symmetry_space_group_name_H-M   'P 1'
_cell_length_a   7.71691667
_cell_length_b   7.71691667
_cell_length_c   3.72898700
_cell_angle_alpha   90.00000000
_cell_angle_beta   90.00000000
_cell_angle_gamma   89.73474499
_symmetry_Int_Tables_number   1
_chemical_formula_structural   YHo3(InPd2)2
_chemical_formula_sum   'Y1 Ho3 In2 Pd4'
_cell_volume   222.06179034
_cell_formula_units_Z   1
loop_
 _symmetry_equiv_pos_site_id
 _symmetry_equiv_pos_as_xyz
  1  'x, y, z'
loop_
 _atom_site_type_symbol
 _atom_site_label
 _atom_site_symmetry_multiplicity
 _atom_site_fract_x
 _atom_site_fract_y
 _atom_site_fract_z
 _atom_site_occupancy
  Y  Y0  1  0.327371  0.827371  0.500000  1
  Ho  Ho1  1  0.827913  0.672053  0.500000  1
  Ho  Ho2  1  0.172053  0.327913  0.500000  1
  Ho  Ho3  1  0.672351  0.172351  0.500000  1
  In  In4  1  0.999972  0.000078  0.000000  1
  In  In5  1  0.500078  0.499972  0.000000  1
  Pd  Pd6  1  0.372421  0.129467  0.000000  1
  Pd  Pd7  1  0.871656  0.371656  0.000000  1
  Pd  Pd8  1  0.126719  0.626719  0.000000  1
  Pd  Pd9  1  0.629467  0.872421  0.000000  1
