# generated using pymatgen
data_NdThSnPd2
_symmetry_space_group_name_H-M   'P 1'
_cell_length_a   7.86456126
_cell_length_b   7.86456125
_cell_length_c   3.90713700
_cell_angle_alpha   90.00000000
_cell_angle_beta   90.00000000
_cell_angle_gamma   92.20600807
_symmetry_Int_Tables_number   1
_chemical_formula_structural   NdThSnPd2
_chemical_formula_sum   'Nd2 Th2 Sn2 Pd4'
_cell_volume   241.48249648
_cell_formula_units_Z   2
loop_
 _symmetry_equiv_pos_site_id
 _symmetry_equiv_pos_as_xyz
  1  'x, y, z'
loop_
 _atom_site_type_symbol
 _atom_site_label
 _atom_site_symmetry_multiplicity
 _atom_site_fract_x
 _atom_site_fract_y
 _atom_site_fract_z
 _atom_site_occupancy
  Nd  Nd0  1  0.175963  0.324037  0.500000  1
  Nd  Nd1  1  0.824037  0.675963  0.500000  1
  Th  Th2  1  0.676055  0.176055  0.500000  1
  Th  Th3  1  0.323945  0.823945  0.500000  1
  Sn  Sn4  1  0.000000  0.000000  0.000000  1
  Sn  Sn5  1  0.500000  0.500000  0.000000  1
  Pd  Pd6  1  0.131050  0.631050  0.000000  1
  Pd  Pd7  1  0.868950  0.368950  0.000000  1
  Pd  Pd8  1  0.623811  0.876189  0.000000  1
  Pd  Pd9  1  0.376189  0.123811  0.000000  1
