# generated using pymatgen
data_TbTm9(FeSb2)2
_symmetry_space_group_name_H-M   'P 1'
_cell_length_a   7.75470800
_cell_length_b   8.77029400
_cell_length_c   12.01670200
_cell_angle_alpha   90.00000000
_cell_angle_beta   90.00000000
_cell_angle_gamma   90.00000000
_symmetry_Int_Tables_number   1
_chemical_formula_structural   TbTm9(FeSb2)2
_chemical_formula_sum   'Tb2 Tm18 Fe4 Sb8'
_cell_volume   817.26874940
_cell_formula_units_Z   2
loop_
 _symmetry_equiv_pos_site_id
 _symmetry_equiv_pos_as_xyz
  1  'x, y, z'
loop_
 _atom_site_type_symbol
 _atom_site_label
 _atom_site_symmetry_multiplicity
 _atom_site_fract_x
 _atom_site_fract_y
 _atom_site_fract_z
 _atom_site_occupancy
  Tb  Tb0  1  0.377360  0.250000  0.692736  1
  Tb  Tb1  1  0.877360  0.750000  0.807264  1
  Tm  Tm2  1  0.155409  0.750000  0.204717  1
  Tm  Tm3  1  0.655409  0.250000  0.295283  1
  Tm  Tm4  1  0.844359  0.250000  0.795162  1
  Tm  Tm5  1  0.344359  0.750000  0.704838  1
  Tm  Tm6  1  0.447759  0.750000  0.996125  1
  Tm  Tm7  1  0.947759  0.250000  0.503875  1
  Tm  Tm8  1  0.550917  0.250000  0.004464  1
  Tm  Tm9  1  0.050917  0.750000  0.495536  1
  Tm  Tm10  1  0.622304  0.750000  0.307804  1
  Tm  Tm11  1  0.122304  0.250000  0.192196  1
  Tm  Tm12  1  0.824982  0.965980  0.064541  1
  Tm  Tm13  1  0.324982  0.034020  0.435459  1
  Tm  Tm14  1  0.176773  0.461715  0.936166  1
  Tm  Tm15  1  0.676773  0.538285  0.563834  1
  Tm  Tm16  1  0.176773  0.038285  0.936166  1
  Tm  Tm17  1  0.676773  0.961715  0.563834  1
  Tm  Tm18  1  0.824982  0.534020  0.064541  1
  Tm  Tm19  1  0.324982  0.465980  0.435459  1
  Fe  Fe20  1  0.427792  0.750000  0.488749  1
  Fe  Fe21  1  0.927792  0.250000  0.011251  1
  Fe  Fe22  1  0.571091  0.250000  0.509761  1
  Fe  Fe23  1  0.071091  0.750000  0.990239  1
  Sb  Sb24  1  0.929731  0.993369  0.328160  1
  Sb  Sb25  1  0.429731  0.006631  0.171840  1
  Sb  Sb26  1  0.070019  0.493156  0.671112  1
  Sb  Sb27  1  0.570019  0.506844  0.828888  1
  Sb  Sb28  1  0.070019  0.006844  0.671112  1
  Sb  Sb29  1  0.570019  0.993156  0.828888  1
  Sb  Sb30  1  0.929731  0.506631  0.328160  1
  Sb  Sb31  1  0.429731  0.493369  0.171840  1
