# generated using pymatgen
data_Rb6LiMn(V2Br9)2
_symmetry_space_group_name_H-M   'P 1'
_cell_length_a   13.22985700
_cell_length_b   13.22985703
_cell_length_c   6.37761400
_cell_angle_alpha   90.00000000
_cell_angle_beta   90.00000000
_cell_angle_gamma   119.99999809
_symmetry_Int_Tables_number   1
_chemical_formula_structural   Rb6LiMn(V2Br9)2
_chemical_formula_sum   'Rb6 Li1 Mn1 V4 Br18'
_cell_volume   966.71658959
_cell_formula_units_Z   1
loop_
 _symmetry_equiv_pos_site_id
 _symmetry_equiv_pos_as_xyz
  1  'x, y, z'
loop_
 _atom_site_type_symbol
 _atom_site_label
 _atom_site_symmetry_multiplicity
 _atom_site_fract_x
 _atom_site_fract_y
 _atom_site_fract_z
 _atom_site_occupancy
  Rb  Rb0  1  0.999837  0.309999  0.746965  1
  Rb  Rb1  1  0.309999  0.310162  0.253035  1
  Rb  Rb2  1  0.690001  0.689838  0.746965  1
  Rb  Rb3  1  0.000163  0.690001  0.253035  1
  Rb  Rb4  1  0.310162  0.000163  0.746965  1
  Rb  Rb5  1  0.689838  0.999837  0.253035  1
  Li  Li6  1  0.000000  0.000000  0.000000  1
  Mn  Mn7  1  0.000000  0.000000  0.500000  1
  V  V8  1  0.333333  0.666667  0.528301  1
  V  V9  1  0.666667  0.333333  0.471699  1
  V  V10  1  0.666667  0.333333  0.971796  1
  V  V11  1  0.333333  0.666667  0.028204  1
  Br  Br12  1  0.824227  0.489214  0.721317  1
  Br  Br13  1  0.334746  0.510653  0.778828  1
  Br  Br14  1  0.175907  0.665254  0.778828  1
  Br  Br15  1  0.824093  0.334746  0.221172  1
  Br  Br16  1  0.175773  0.510786  0.278683  1
  Br  Br17  1  0.166277  0.000182  0.256407  1
  Br  Br18  1  0.335012  0.824227  0.278683  1
  Br  Br19  1  0.489347  0.824093  0.778828  1
  Br  Br20  1  0.664988  0.175773  0.721317  1
  Br  Br21  1  0.665254  0.489347  0.221172  1
  Br  Br22  1  0.999818  0.166095  0.256407  1
  Br  Br23  1  0.166095  0.166277  0.743593  1
  Br  Br24  1  0.833723  0.999818  0.743593  1
  Br  Br25  1  0.000182  0.833905  0.743593  1
  Br  Br26  1  0.833905  0.833723  0.256407  1
  Br  Br27  1  0.510653  0.175907  0.221172  1
  Br  Br28  1  0.489214  0.664988  0.278683  1
  Br  Br29  1  0.510786  0.335012  0.721317  1
