# generated using pymatgen
data_Pr16Dy4Si15Se
_symmetry_space_group_name_H-M   'P 1'
_cell_length_a   7.86848159
_cell_length_b   7.82398924
_cell_length_c   15.38998175
_cell_angle_alpha   89.74717746
_cell_angle_beta   89.28271193
_cell_angle_gamma   89.96719339
_symmetry_Int_Tables_number   1
_chemical_formula_structural   Pr16Dy4Si15Se
_chemical_formula_sum   'Pr16 Dy4 Si15 Se1'
_cell_volume   947.36854885
_cell_formula_units_Z   1
loop_
 _symmetry_equiv_pos_site_id
 _symmetry_equiv_pos_as_xyz
  1  'x, y, z'
loop_
 _atom_site_type_symbol
 _atom_site_label
 _atom_site_symmetry_multiplicity
 _atom_site_fract_x
 _atom_site_fract_y
 _atom_site_fract_z
 _atom_site_occupancy
  Pr  Pr0  1  0.381961  0.010654  0.442122  1
  Pr  Pr1  1  0.488111  0.876697  0.695529  1
  Pr  Pr2  1  0.512398  0.119177  0.194021  1
  Pr  Pr3  1  0.879374  0.485569  0.304396  1
  Pr  Pr4  1  0.123095  0.512881  0.805932  1
  Pr  Pr5  1  0.626951  0.983491  0.946884  1
  Pr  Pr6  1  0.005596  0.381301  0.550357  1
  Pr  Pr7  1  0.987902  0.620483  0.055738  1
  Pr  Pr8  1  0.134014  0.983379  0.875240  1
  Pr  Pr9  1  0.523054  0.626076  0.128163  1
  Pr  Pr10  1  0.473255  0.372469  0.631236  1
  Pr  Pr11  1  0.628357  0.526342  0.873623  1
  Pr  Pr12  1  0.372861  0.473560  0.372625  1
  Pr  Pr13  1  0.875056  0.023604  0.378134  1
  Pr  Pr14  1  0.977437  0.126202  0.122637  1
  Pr  Pr15  1  0.021374  0.870732  0.620390  1
  Dy  Dy16  1  0.310344  0.308597  0.000012  1
  Dy  Dy17  1  0.189790  0.807979  0.249751  1
  Dy  Dy18  1  0.798037  0.191840  0.751460  1
  Dy  Dy19  1  0.688090  0.690889  0.498588  1
  Si  Si20  1  0.325782  0.689197  0.957583  1
  Si  Si21  1  0.669493  0.312884  0.459467  1
  Si  Si22  1  0.691369  0.329354  0.043367  1
  Si  Si23  1  0.312916  0.672261  0.542596  1
  Si  Si24  1  0.812537  0.827191  0.208581  1
  Si  Si25  1  0.172975  0.186601  0.291236  1
  Si  Si26  1  0.834592  0.812087  0.791377  1
  Si  Si27  1  0.284821  0.921437  0.062209  1
  Si  Si28  1  0.579212  0.783796  0.312639  1
  Si  Si29  1  0.447938  0.213336  0.824419  1
  Si  Si30  1  0.787460  0.578661  0.685941  1
  Si  Si31  1  0.213471  0.422326  0.187321  1
  Si  Si32  1  0.707345  0.076813  0.563178  1
  Si  Si33  1  0.924912  0.288279  0.937358  1
  Si  Si34  1  0.078569  0.712554  0.437109  1
  Se  Se35  1  0.159550  0.181303  0.698779  1
