# generated using pymatgen
data_Tb2Ho4TcRu
_symmetry_space_group_name_H-M   'P 1'
_cell_length_a   6.28996800
_cell_length_b   7.37051300
_cell_length_c   9.12145400
_cell_angle_alpha   90.00000000
_cell_angle_beta   90.00000000
_cell_angle_gamma   90.00000000
_symmetry_Int_Tables_number   1
_chemical_formula_structural   Tb2Ho4TcRu
_chemical_formula_sum   'Tb4 Ho8 Tc2 Ru2'
_cell_volume   422.87326099
_cell_formula_units_Z   2
loop_
 _symmetry_equiv_pos_site_id
 _symmetry_equiv_pos_as_xyz
  1  'x, y, z'
loop_
 _atom_site_type_symbol
 _atom_site_label
 _atom_site_symmetry_multiplicity
 _atom_site_fract_x
 _atom_site_fract_y
 _atom_site_fract_z
 _atom_site_occupancy
  Tb  Tb0  1  0.874640  0.540084  0.250000  1
  Tb  Tb1  1  0.625360  0.040084  0.250000  1
  Tb  Tb2  1  0.132031  0.456723  0.750000  1
  Tb  Tb3  1  0.367969  0.956722  0.750000  1
  Ho  Ho4  1  0.334155  0.675892  0.063727  1
  Ho  Ho5  1  0.165845  0.175892  0.436273  1
  Ho  Ho6  1  0.664174  0.324549  0.562732  1
  Ho  Ho7  1  0.835826  0.824549  0.937268  1
  Ho  Ho8  1  0.664174  0.324549  0.937268  1
  Ho  Ho9  1  0.835826  0.824549  0.562732  1
  Ho  Ho10  1  0.334155  0.675892  0.436273  1
  Ho  Ho11  1  0.165845  0.175892  0.063727  1
  Tc  Tc12  1  0.038367  0.885782  0.250000  1
  Tc  Tc13  1  0.461633  0.385782  0.250000  1
  Ru  Ru14  1  0.960260  0.116529  0.750000  1
  Ru  Ru15  1  0.539740  0.616529  0.750000  1
