# generated using pymatgen
data_HfZr(BeIr)2
_symmetry_space_group_name_H-M   'P 1'
_cell_length_a   3.77504500
_cell_length_b   6.34572600
_cell_length_c   7.43574200
_cell_angle_alpha   90.00000000
_cell_angle_beta   90.00000000
_cell_angle_gamma   90.00000000
_symmetry_Int_Tables_number   1
_chemical_formula_structural   HfZr(BeIr)2
_chemical_formula_sum   'Hf2 Zr2 Be4 Ir4'
_cell_volume   178.12618289
_cell_formula_units_Z   2
loop_
 _symmetry_equiv_pos_site_id
 _symmetry_equiv_pos_as_xyz
  1  'x, y, z'
loop_
 _atom_site_type_symbol
 _atom_site_label
 _atom_site_symmetry_multiplicity
 _atom_site_fract_x
 _atom_site_fract_y
 _atom_site_fract_z
 _atom_site_occupancy
  Hf  Hf0  1  0.250000  0.023149  0.312480  1
  Hf  Hf1  1  0.250000  0.523149  0.187520  1
  Zr  Zr2  1  0.750000  0.976300  0.684124  1
  Zr  Zr3  1  0.750000  0.476300  0.815876  1
  Be  Be4  1  0.250000  0.294041  0.613571  1
  Be  Be5  1  0.250000  0.794041  0.886429  1
  Be  Be6  1  0.750000  0.707162  0.383501  1
  Be  Be7  1  0.750000  0.207162  0.116499  1
  Ir  Ir8  1  0.250000  0.171867  0.937435  1
  Ir  Ir9  1  0.250000  0.671867  0.562565  1
  Ir  Ir10  1  0.750000  0.827481  0.067849  1
  Ir  Ir11  1  0.750000  0.327481  0.432151  1
