# generated using pymatgen
data_Ba2Sr3V3O12F
_symmetry_space_group_name_H-M   'P 1'
_cell_length_a   10.29061900
_cell_length_b   10.29061970
_cell_length_c   7.75073900
_cell_angle_alpha   90.00000000
_cell_angle_beta   90.00000000
_cell_angle_gamma   120.00000095
_symmetry_Int_Tables_number   1
_chemical_formula_structural   Ba2Sr3V3O12F
_chemical_formula_sum   'Ba4 Sr6 V6 O24 F2'
_cell_volume   710.81530167
_cell_formula_units_Z   2
loop_
 _symmetry_equiv_pos_site_id
 _symmetry_equiv_pos_as_xyz
  1  'x, y, z'
loop_
 _atom_site_type_symbol
 _atom_site_label
 _atom_site_symmetry_multiplicity
 _atom_site_fract_x
 _atom_site_fract_y
 _atom_site_fract_z
 _atom_site_occupancy
  Ba  Ba0  1  0.666667  0.333333  0.499353  1
  Ba  Ba1  1  0.333333  0.666667  0.999353  1
  Ba  Ba2  1  0.333333  0.666667  0.500647  1
  Ba  Ba3  1  0.666667  0.333333  0.000647  1
  Sr  Sr4  1  0.759961  0.753219  0.750000  1
  Sr  Sr5  1  0.246781  0.006741  0.750000  1
  Sr  Sr6  1  0.993259  0.240039  0.750000  1
  Sr  Sr7  1  0.240039  0.246781  0.250000  1
  Sr  Sr8  1  0.753219  0.993259  0.250000  1
  Sr  Sr9  1  0.006741  0.759961  0.250000  1
  V  V10  1  0.610416  0.973331  0.750000  1
  V  V11  1  0.026669  0.637084  0.750000  1
  V  V12  1  0.362916  0.389584  0.750000  1
  V  V13  1  0.389584  0.026669  0.250000  1
  V  V14  1  0.973331  0.362916  0.250000  1
  V  V15  1  0.637084  0.610416  0.250000  1
  O  O16  1  0.414359  0.890764  0.750000  1
  O  O17  1  0.109236  0.523596  0.750000  1
  O  O18  1  0.476404  0.585641  0.750000  1
  O  O19  1  0.585641  0.109236  0.250000  1
  O  O20  1  0.890764  0.476404  0.250000  1
  O  O21  1  0.523596  0.414359  0.250000  1
  O  O22  1  0.704238  0.169279  0.750000  1
  O  O23  1  0.830721  0.534959  0.750000  1
  O  O24  1  0.465041  0.295762  0.750000  1
  O  O25  1  0.295762  0.830721  0.250000  1
  O  O26  1  0.169279  0.465041  0.250000  1
  O  O27  1  0.534959  0.704238  0.250000  1
  O  O28  1  0.661495  0.907086  0.571150  1
  O  O29  1  0.092914  0.754408  0.571150  1
  O  O30  1  0.245592  0.338505  0.571150  1
  O  O31  1  0.338505  0.092914  0.071150  1
  O  O32  1  0.907086  0.245592  0.071150  1
  O  O33  1  0.754408  0.661495  0.071150  1
  O  O34  1  0.338505  0.092914  0.428850  1
  O  O35  1  0.907086  0.245592  0.428850  1
  O  O36  1  0.754408  0.661495  0.428850  1
  O  O37  1  0.661495  0.907086  0.928850  1
  O  O38  1  0.092914  0.754408  0.928850  1
  O  O39  1  0.245592  0.338505  0.928850  1
  F  F40  1  0.000000  0.000000  0.750000  1
  F  F41  1  0.000000  0.000000  0.250000  1
