# generated using pymatgen
data_Tm12TlGaFe2Tc
_symmetry_space_group_name_H-M   'P 1'
_cell_length_a   8.19940124
_cell_length_b   8.19854627
_cell_length_c   8.19940237
_cell_angle_alpha   108.49016284
_cell_angle_beta   109.70745728
_cell_angle_gamma   110.22511657
_symmetry_Int_Tables_number   1
_chemical_formula_structural   Tm12TlGaFe2Tc
_chemical_formula_sum   'Tm12 Tl1 Ga1 Fe2 Tc1'
_cell_volume   424.18191145
_cell_formula_units_Z   1
loop_
 _symmetry_equiv_pos_site_id
 _symmetry_equiv_pos_as_xyz
  1  'x, y, z'
loop_
 _atom_site_type_symbol
 _atom_site_label
 _atom_site_symmetry_multiplicity
 _atom_site_fract_x
 _atom_site_fract_y
 _atom_site_fract_z
 _atom_site_occupancy
  Tm  Tm0  1  0.191666  0.426749  0.235082  1
  Tm  Tm1  1  0.808334  0.573251  0.764918  1
  Tm  Tm2  1  0.191658  0.956583  0.764924  1
  Tm  Tm3  1  0.942993  0.191122  0.751868  1
  Tm  Tm4  1  0.808342  0.043417  0.235076  1
  Tm  Tm5  1  0.057007  0.808878  0.248132  1
  Tm  Tm6  1  0.439254  0.191122  0.248130  1
  Tm  Tm7  1  0.560746  0.808878  0.751870  1
  Tm  Tm8  1  0.308780  0.306281  0.615059  1
  Tm  Tm9  1  0.691220  0.693719  0.384941  1
  Tm  Tm10  1  0.691222  0.306281  0.997501  1
  Tm  Tm11  1  0.308778  0.693719  0.002499  1
  Tl  Tl12  1  0.000000  0.500000  0.500000  1
  Ga  Ga13  1  0.500000  0.000000  0.500000  1
  Fe  Fe14  1  0.383513  0.383456  0.999943  1
  Fe  Fe15  1  0.616487  0.616544  0.000057  1
  Tc  Tc16  1  0.000000  0.000000  0.000000  1
