# generated using pymatgen
data_Ti4H3C2
_symmetry_space_group_name_H-M   'P 1'
_cell_length_a   6.17157808
_cell_length_b   3.09204009
_cell_length_c   7.32629345
_cell_angle_alpha   90.05638212
_cell_angle_beta   128.81546786
_cell_angle_gamma   120.05093248
_symmetry_Int_Tables_number   1
_chemical_formula_structural   Ti4H3C2
_chemical_formula_sum   'Ti4 H3 C2'
_cell_volume   83.38285228
_cell_formula_units_Z   1
loop_
 _symmetry_equiv_pos_site_id
 _symmetry_equiv_pos_as_xyz
  1  'x, y, z'
loop_
 _atom_site_type_symbol
 _atom_site_label
 _atom_site_symmetry_multiplicity
 _atom_site_fract_x
 _atom_site_fract_y
 _atom_site_fract_z
 _atom_site_occupancy
  Ti  Ti0  1  0.703789  0.333583  0.894939  1
  Ti  Ti1  1  0.327713  0.458437  0.355217  1
  Ti  Ti2  1  0.197090  0.327633  0.887581  1
  Ti  Ti3  1  0.827979  0.459017  0.354854  1
  H  H4  1  0.817345  0.949881  0.511463  1
  H  H5  1  0.695395  0.822985  0.729343  1
  H  H6  1  0.216072  0.845771  0.730824  1
  C  C7  1  0.269152  0.899778  0.127492  1
  C  C8  1  0.765794  0.896373  0.125540  1
