# generated using pymatgen
data_BaHoAlZn3O7
_symmetry_space_group_name_H-M   'P 1'
_cell_length_a   6.36918600
_cell_length_b   6.36916805
_cell_length_c   10.30883500
_cell_angle_alpha   90.00002014
_cell_angle_beta   89.99994047
_cell_angle_gamma   120.00005101
_symmetry_Int_Tables_number   1
_chemical_formula_structural   BaHoAlZn3O7
_chemical_formula_sum   'Ba2 Ho2 Al2 Zn6 O14'
_cell_volume   362.16513304
_cell_formula_units_Z   2
loop_
 _symmetry_equiv_pos_site_id
 _symmetry_equiv_pos_as_xyz
  1  'x, y, z'
loop_
 _atom_site_type_symbol
 _atom_site_label
 _atom_site_symmetry_multiplicity
 _atom_site_fract_x
 _atom_site_fract_y
 _atom_site_fract_z
 _atom_site_occupancy
  Ba  Ba0  1  0.666677  0.333350  0.475807  1
  Ba  Ba1  1  0.333324  0.666652  0.975808  1
  Ho  Ho2  1  0.333333  0.666664  0.327509  1
  Ho  Ho3  1  0.666668  0.333337  0.827515  1
  Al  Al4  1  0.999998  0.999998  0.392055  1
  Al  Al5  1  0.000001  0.000002  0.892056  1
  Zn  Zn6  1  0.830354  0.169407  0.141274  1
  Zn  Zn7  1  0.339055  0.169636  0.141274  1
  Zn  Zn8  1  0.830588  0.660941  0.141275  1
  Zn  Zn9  1  0.169648  0.830594  0.641274  1
  Zn  Zn10  1  0.660946  0.830363  0.641275  1
  Zn  Zn11  1  0.169411  0.339056  0.641276  1
  O  O12  1  0.491363  0.982966  0.192093  1
  O  O13  1  0.491610  0.508628  0.192100  1
  O  O14  1  0.017021  0.508383  0.192099  1
  O  O15  1  0.999997  0.999999  0.217534  1
  O  O16  1  0.692074  0.845417  0.445989  1
  O  O17  1  0.154571  0.846645  0.445991  1
  O  O18  1  0.153346  0.307922  0.445992  1
  O  O19  1  0.508639  0.017035  0.692093  1
  O  O20  1  0.982979  0.491616  0.692098  1
  O  O21  1  0.508392  0.491369  0.692100  1
  O  O22  1  0.000003  0.000002  0.717535  1
  O  O23  1  0.845429  0.153355  0.945991  1
  O  O24  1  0.307927  0.154584  0.945992  1
  O  O25  1  0.846654  0.692076  0.945992  1
