# generated using pymatgen
data_Co20Tc2NiB6
_symmetry_space_group_name_H-M   'P 1'
_cell_length_a   7.39094377
_cell_length_b   7.39094366
_cell_length_c   7.39094300
_cell_angle_alpha   59.99999847
_cell_angle_beta   59.99999898
_cell_angle_gamma   59.99999622
_symmetry_Int_Tables_number   1
_chemical_formula_structural   Co20Tc2NiB6
_chemical_formula_sum   'Co20 Tc2 Ni1 B6'
_cell_volume   285.48587425
_cell_formula_units_Z   1
loop_
 _symmetry_equiv_pos_site_id
 _symmetry_equiv_pos_as_xyz
  1  'x, y, z'
loop_
 _atom_site_type_symbol
 _atom_site_label
 _atom_site_symmetry_multiplicity
 _atom_site_fract_x
 _atom_site_fract_y
 _atom_site_fract_z
 _atom_site_occupancy
  Co  Co0  1  0.618427  0.144719  0.618427  1
  Co  Co1  1  0.381573  0.381573  0.855281  1
  Co  Co2  1  0.855281  0.381573  0.381573  1
  Co  Co3  1  0.381573  0.381573  0.381573  1
  Co  Co4  1  0.144719  0.618427  0.618427  1
  Co  Co5  1  0.618427  0.618427  0.618427  1
  Co  Co6  1  0.618427  0.618427  0.144719  1
  Co  Co7  1  0.381573  0.855281  0.381573  1
  Co  Co8  1  0.659923  0.340077  0.000000  1
  Co  Co9  1  0.000000  0.340077  0.659923  1
  Co  Co10  1  0.659923  0.000000  0.000000  1
  Co  Co11  1  0.000000  0.000000  0.340077  1
  Co  Co12  1  0.000000  0.000000  0.659923  1
  Co  Co13  1  0.000000  0.340077  0.000000  1
  Co  Co14  1  0.659923  0.000000  0.340077  1
  Co  Co15  1  0.340077  0.000000  0.000000  1
  Co  Co16  1  0.000000  0.659923  0.000000  1
  Co  Co17  1  0.340077  0.000000  0.659923  1
  Co  Co18  1  0.000000  0.659923  0.340077  1
  Co  Co19  1  0.340077  0.659923  0.000000  1
  Tc  Tc20  1  0.750000  0.750000  0.750000  1
  Tc  Tc21  1  0.250000  0.250000  0.250000  1
  Ni  Ni22  1  0.000000  0.000000  0.000000  1
  B  B23  1  0.275535  0.275535  0.724465  1
  B  B24  1  0.275535  0.724465  0.724465  1
  B  B25  1  0.724465  0.275535  0.275535  1
  B  B26  1  0.275535  0.724465  0.275535  1
  B  B27  1  0.724465  0.275535  0.724465  1
  B  B28  1  0.724465  0.724465  0.275535  1
