# generated using pymatgen
data_Te7Ir
_symmetry_space_group_name_H-M   'P 1'
_cell_length_a   8.04252034
_cell_length_b   8.04252096
_cell_length_c   17.24448235
_cell_angle_alpha   84.61894677
_cell_angle_beta   84.61894638
_cell_angle_gamma   29.65068302
_symmetry_Int_Tables_number   1
_chemical_formula_structural   Te7Ir
_chemical_formula_sum   'Te14 Ir2'
_cell_volume   549.20282874
_cell_formula_units_Z   2
loop_
 _symmetry_equiv_pos_site_id
 _symmetry_equiv_pos_as_xyz
  1  'x, y, z'
loop_
 _atom_site_type_symbol
 _atom_site_label
 _atom_site_symmetry_multiplicity
 _atom_site_fract_x
 _atom_site_fract_y
 _atom_site_fract_z
 _atom_site_occupancy
  Te  Te0  1  0.270580  0.270580  0.387640  1
  Te  Te1  1  0.729420  0.729420  0.612360  1
  Te  Te2  1  0.943315  0.943315  0.267250  1
  Te  Te3  1  0.176081  0.176081  0.980733  1
  Te  Te4  1  0.423032  0.423032  0.098321  1
  Te  Te5  1  0.637831  0.637831  0.355968  1
  Te  Te6  1  0.056685  0.056685  0.732750  1
  Te  Te7  1  0.576968  0.576968  0.901679  1
  Te  Te8  1  0.823919  0.823919  0.019267  1
  Te  Te9  1  0.095646  0.095646  0.569544  1
  Te  Te10  1  0.904354  0.904354  0.430456  1
  Te  Te11  1  0.265229  0.265229  0.796799  1
  Te  Te12  1  0.734771  0.734771  0.203201  1
  Te  Te13  1  0.362169  0.362169  0.644032  1
  Ir  Ir14  1  0.660957  0.660957  0.763022  1
  Ir  Ir15  1  0.339043  0.339043  0.236978  1
