# generated using pymatgen
data_CsSc3Te5
_symmetry_space_group_name_H-M   'P 1'
_cell_length_a   4.20642500
_cell_length_b   12.99187700
_cell_length_c   22.72684200
_cell_angle_alpha   90.00000000
_cell_angle_beta   90.00000000
_cell_angle_gamma   90.00000000
_symmetry_Int_Tables_number   1
_chemical_formula_structural   CsSc3Te5
_chemical_formula_sum   'Cs4 Sc12 Te20'
_cell_volume   1242.00728398
_cell_formula_units_Z   4
loop_
 _symmetry_equiv_pos_site_id
 _symmetry_equiv_pos_as_xyz
  1  'x, y, z'
loop_
 _atom_site_type_symbol
 _atom_site_label
 _atom_site_symmetry_multiplicity
 _atom_site_fract_x
 _atom_site_fract_y
 _atom_site_fract_z
 _atom_site_occupancy
  Cs  Cs0  1  0.250000  0.356726  0.087668  1
  Cs  Cs1  1  0.750000  0.643274  0.912332  1
  Cs  Cs2  1  0.750000  0.856726  0.412332  1
  Cs  Cs3  1  0.250000  0.143274  0.587668  1
  Sc  Sc4  1  0.250000  0.454349  0.697329  1
  Sc  Sc5  1  0.750000  0.545651  0.302671  1
  Sc  Sc6  1  0.750000  0.954349  0.802671  1
  Sc  Sc7  1  0.250000  0.045651  0.197329  1
  Sc  Sc8  1  0.250000  0.793310  0.676043  1
  Sc  Sc9  1  0.750000  0.206690  0.323957  1
  Sc  Sc10  1  0.750000  0.293310  0.823957  1
  Sc  Sc11  1  0.250000  0.706690  0.176043  1
  Sc  Sc12  1  0.250000  0.393520  0.442693  1
  Sc  Sc13  1  0.750000  0.606480  0.557307  1
  Sc  Sc14  1  0.750000  0.893520  0.057307  1
  Sc  Sc15  1  0.250000  0.106480  0.942693  1
  Te  Te16  1  0.250000  0.446687  0.568245  1
  Te  Te17  1  0.750000  0.553313  0.431755  1
  Te  Te18  1  0.750000  0.946687  0.931755  1
  Te  Te19  1  0.250000  0.053313  0.068245  1
  Te  Te20  1  0.250000  0.764261  0.548506  1
  Te  Te21  1  0.750000  0.235739  0.451494  1
  Te  Te22  1  0.750000  0.264261  0.951494  1
  Te  Te23  1  0.250000  0.735739  0.048506  1
  Te  Te24  1  0.250000  0.802157  0.803628  1
  Te  Te25  1  0.750000  0.197843  0.196372  1
  Te  Te26  1  0.750000  0.302157  0.696372  1
  Te  Te27  1  0.250000  0.697843  0.303628  1
  Te  Te28  1  0.250000  0.447035  0.825686  1
  Te  Te29  1  0.750000  0.552965  0.174314  1
  Te  Te30  1  0.750000  0.947035  0.674314  1
  Te  Te31  1  0.250000  0.052965  0.325686  1
  Te  Te32  1  0.250000  0.376936  0.312042  1
  Te  Te33  1  0.750000  0.623064  0.687958  1
  Te  Te34  1  0.750000  0.876936  0.187958  1
  Te  Te35  1  0.250000  0.123064  0.812042  1
