# generated using pymatgen
data_Yb4Ga2CoRu5
_symmetry_space_group_name_H-M   'P 1'
_cell_length_a   5.29318000
_cell_length_b   5.28296233
_cell_length_c   8.77558000
_cell_angle_alpha   90.00000000
_cell_angle_beta   90.00000000
_cell_angle_gamma   121.30930549
_symmetry_Int_Tables_number   1
_chemical_formula_structural   Yb4Ga2CoRu5
_chemical_formula_sum   'Yb4 Ga2 Co1 Ru5'
_cell_volume   209.66129092
_cell_formula_units_Z   1
loop_
 _symmetry_equiv_pos_site_id
 _symmetry_equiv_pos_as_xyz
  1  'x, y, z'
loop_
 _atom_site_type_symbol
 _atom_site_label
 _atom_site_symmetry_multiplicity
 _atom_site_fract_x
 _atom_site_fract_y
 _atom_site_fract_z
 _atom_site_occupancy
  Yb  Yb0  1  0.330631  0.667444  0.437400  1
  Yb  Yb1  1  0.666828  0.332157  0.564952  1
  Yb  Yb2  1  0.666828  0.332157  0.935048  1
  Yb  Yb3  1  0.330631  0.667444  0.062600  1
  Ga  Ga4  1  0.180035  0.345955  0.750000  1
  Ga  Ga5  1  0.335957  0.170739  0.250000  1
  Co  Co6  1  0.187199  0.838800  0.750000  1
  Ru  Ru7  1  0.836842  0.664955  0.250000  1
  Ru  Ru8  1  0.676289  0.840954  0.750000  1
  Ru  Ru9  1  0.974952  0.978013  0.994368  1
  Ru  Ru10  1  0.838853  0.183370  0.250000  1
  Ru  Ru11  1  0.974952  0.978013  0.505632  1
