# generated using pymatgen
data_Tb5Dy(Si2Ni)2
_symmetry_space_group_name_H-M   'P 1'
_cell_length_a   4.13177500
_cell_length_b   11.30556900
_cell_length_c   11.32019000
_cell_angle_alpha   90.00000000
_cell_angle_beta   90.00000000
_cell_angle_gamma   90.00000000
_symmetry_Int_Tables_number   1
_chemical_formula_structural   Tb5Dy(Si2Ni)2
_chemical_formula_sum   'Tb10 Dy2 Si8 Ni4'
_cell_volume   528.78947775
_cell_formula_units_Z   2
loop_
 _symmetry_equiv_pos_site_id
 _symmetry_equiv_pos_as_xyz
  1  'x, y, z'
loop_
 _atom_site_type_symbol
 _atom_site_label
 _atom_site_symmetry_multiplicity
 _atom_site_fract_x
 _atom_site_fract_y
 _atom_site_fract_z
 _atom_site_occupancy
  Tb  Tb0  1  0.250000  0.059854  0.882217  1
  Tb  Tb1  1  0.250000  0.440146  0.382217  1
  Tb  Tb2  1  0.750000  0.940508  0.117675  1
  Tb  Tb3  1  0.750000  0.559492  0.617675  1
  Tb  Tb4  1  0.250000  0.125115  0.557614  1
  Tb  Tb5  1  0.250000  0.374885  0.057614  1
  Tb  Tb6  1  0.750000  0.875220  0.442318  1
  Tb  Tb7  1  0.750000  0.624780  0.942318  1
  Tb  Tb8  1  0.250000  0.803846  0.713984  1
  Tb  Tb9  1  0.250000  0.696154  0.213984  1
  Dy  Dy10  1  0.750000  0.195706  0.285510  1
  Dy  Dy11  1  0.750000  0.304294  0.785510  1
  Si  Si12  1  0.250000  0.813350  0.974651  1
  Si  Si13  1  0.250000  0.686650  0.474651  1
  Si  Si14  1  0.750000  0.186653  0.025369  1
  Si  Si15  1  0.750000  0.313347  0.525369  1
  Si  Si16  1  0.250000  0.493863  0.803239  1
  Si  Si17  1  0.250000  0.006137  0.303239  1
  Si  Si18  1  0.750000  0.505354  0.196777  1
  Si  Si19  1  0.750000  0.994646  0.696777  1
  Ni  Ni20  1  0.250000  0.365986  0.630285  1
  Ni  Ni21  1  0.250000  0.134014  0.130285  1
  Ni  Ni22  1  0.750000  0.633646  0.370360  1
  Ni  Ni23  1  0.750000  0.866354  0.870360  1
