# generated using pymatgen
data_Yb2Sm3Sb3O14
_symmetry_space_group_name_H-M   'P 1'
_cell_length_a   7.44417614
_cell_length_b   7.44417292
_cell_length_c   7.44417600
_cell_angle_alpha   119.14832836
_cell_angle_beta   60.85169509
_cell_angle_gamma   119.14833570
_symmetry_Int_Tables_number   1
_chemical_formula_structural   Yb2Sm3Sb3O14
_chemical_formula_sum   'Yb2 Sm3 Sb3 O14'
_cell_volume   297.30037571
_cell_formula_units_Z   1
loop_
 _symmetry_equiv_pos_site_id
 _symmetry_equiv_pos_as_xyz
  1  'x, y, z'
loop_
 _atom_site_type_symbol
 _atom_site_label
 _atom_site_symmetry_multiplicity
 _atom_site_fract_x
 _atom_site_fract_y
 _atom_site_fract_z
 _atom_site_occupancy
  Yb  Yb0  1  0.500000  0.500002  0.999999  1
  Yb  Yb1  1  0.000001  0.999999  0.500002  1
  Sm  Sm2  1  0.999998  0.499999  0.999997  1
  Sm  Sm3  1  0.500000  0.000000  0.000001  1
  Sm  Sm4  1  0.499997  0.499999  0.499999  1
  Sb  Sb5  1  0.500000  0.000000  0.499998  1
  Sb  Sb6  1  0.000002  0.499998  0.500003  1
  Sb  Sb7  1  0.999999  0.000001  0.000000  1
  O  O8  1  0.623237  0.376762  0.123237  1
  O  O9  1  0.376760  0.623239  0.876761  1
  O  O10  1  0.091211  0.318906  0.181095  1
  O  O11  1  0.681096  0.908791  0.181096  1
  O  O12  1  0.681094  0.318905  0.591211  1
  O  O13  1  0.908792  0.681095  0.818905  1
  O  O14  1  0.318905  0.091208  0.818905  1
  O  O15  1  0.318905  0.681095  0.408792  1
  O  O16  1  0.630936  0.902516  0.597484  1
  O  O17  1  0.097482  0.369066  0.597482  1
  O  O18  1  0.097484  0.902517  0.130937  1
  O  O19  1  0.369068  0.097483  0.402516  1
  O  O20  1  0.902515  0.630935  0.402515  1
  O  O21  1  0.902517  0.097484  0.869068  1
