# generated using pymatgen
data_Dy4Tm3Lu5Co5Bi
_symmetry_space_group_name_H-M   'P 1'
_cell_length_a   8.19513634
_cell_length_b   8.19513550
_cell_length_c   8.19009098
_cell_angle_alpha   111.28919285
_cell_angle_beta   110.60995869
_cell_angle_gamma   106.58039062
_symmetry_Int_Tables_number   1
_chemical_formula_structural   Dy4Tm3Lu5Co5Bi
_chemical_formula_sum   'Dy4 Tm3 Lu5 Co5 Bi1'
_cell_volume   422.46385025
_cell_formula_units_Z   1
loop_
 _symmetry_equiv_pos_site_id
 _symmetry_equiv_pos_as_xyz
  1  'x, y, z'
loop_
 _atom_site_type_symbol
 _atom_site_label
 _atom_site_symmetry_multiplicity
 _atom_site_fract_x
 _atom_site_fract_y
 _atom_site_fract_z
 _atom_site_occupancy
  Dy  Dy0  1  0.594336  0.790276  0.804751  1
  Dy  Dy1  1  0.406892  0.210518  0.195893  1
  Dy  Dy2  1  0.985375  0.789001  0.195893  1
  Dy  Dy3  1  0.014475  0.210415  0.804751  1
  Tm  Tm4  1  0.817464  0.712473  0.529937  1
  Tm  Tm5  1  0.181850  0.286943  0.468793  1
  Tm  Tm6  1  0.182616  0.712525  0.895141  1
  Lu  Lu7  1  0.817754  0.287286  0.105041  1
  Lu  Lu8  1  0.687017  0.376474  0.690070  1
  Lu  Lu9  1  0.312797  0.623175  0.310262  1
  Lu  Lu10  1  0.687087  0.997466  0.310262  1
  Lu  Lu11  1  0.313595  0.003051  0.690070  1
  Co  Co12  1  0.625007  0.000768  0.625775  1
  Co  Co13  1  0.375058  0.999844  0.374901  1
  Co  Co14  1  0.111512  0.611800  0.498818  1
  Co  Co15  1  0.887017  0.387306  0.498818  1
  Co  Co16  1  0.000362  0.000576  0.000938  1
  Bi  Bi17  1  0.499787  0.500104  0.999891  1
