# generated using pymatgen
data_DyTmHf2(Al3Rh)6
_symmetry_space_group_name_H-M   'P 1'
_cell_length_a   7.50172419
_cell_length_b   7.48721114
_cell_length_c   9.32033100
_cell_angle_alpha   90.00000000
_cell_angle_beta   90.00000000
_cell_angle_gamma   119.67150880
_symmetry_Int_Tables_number   1
_chemical_formula_structural   DyTmHf2(Al3Rh)6
_chemical_formula_sum   'Dy1 Tm1 Hf2 Al18 Rh6'
_cell_volume   454.85314424
_cell_formula_units_Z   1
loop_
 _symmetry_equiv_pos_site_id
 _symmetry_equiv_pos_as_xyz
  1  'x, y, z'
loop_
 _atom_site_type_symbol
 _atom_site_label
 _atom_site_symmetry_multiplicity
 _atom_site_fract_x
 _atom_site_fract_y
 _atom_site_fract_z
 _atom_site_occupancy
  Dy  Dy0  1  0.670590  0.993640  0.250000  1
  Tm  Tm1  1  0.329107  0.006281  0.750000  1
  Hf  Hf2  1  0.995147  0.671725  0.250000  1
  Hf  Hf3  1  0.005026  0.328296  0.750000  1
  Al  Al4  1  0.125620  0.123730  0.250000  1
  Al  Al5  1  0.875028  0.876469  0.750000  1
  Al  Al6  1  0.999416  0.337630  0.075484  1
  Al  Al7  1  0.001085  0.662825  0.923918  1
  Al  Al8  1  0.001085  0.662825  0.576082  1
  Al  Al9  1  0.331941  0.997740  0.421457  1
  Al  Al10  1  0.999416  0.337630  0.424516  1
  Al  Al11  1  0.667558  0.002301  0.579553  1
  Al  Al12  1  0.667558  0.002301  0.920447  1
  Al  Al13  1  0.331941  0.997740  0.078543  1
  Al  Al14  1  0.330825  0.333299  0.556922  1
  Al  Al15  1  0.669228  0.666297  0.443735  1
  Al  Al16  1  0.669228  0.666297  0.056265  1
  Al  Al17  1  0.330825  0.333299  0.943078  1
  Al  Al18  1  0.333988  0.548319  0.250000  1
  Al  Al19  1  0.665435  0.450986  0.750000  1
  Al  Al20  1  0.555663  0.343671  0.250000  1
  Al  Al21  1  0.444034  0.656564  0.750000  1
  Rh  Rh22  1  0.672876  0.327629  0.999158  1
  Rh  Rh23  1  0.326898  0.672351  0.000456  1
  Rh  Rh24  1  0.326898  0.672351  0.499544  1
  Rh  Rh25  1  0.672876  0.327629  0.500842  1
  Rh  Rh26  1  0.000355  0.000086  0.999723  1
  Rh  Rh27  1  0.000355  0.000086  0.500277  1
