# generated using pymatgen
data_Nd7Th(HgIr)2
_symmetry_space_group_name_H-M   'P 1'
_cell_length_a   9.94645504
_cell_length_b   9.94645531
_cell_length_c   9.97960700
_cell_angle_alpha   59.88968001
_cell_angle_beta   59.88967913
_cell_angle_gamma   60.06169365
_symmetry_Int_Tables_number   1
_chemical_formula_structural   Nd7Th(HgIr)2
_chemical_formula_sum   'Nd14 Th2 Hg4 Ir4'
_cell_volume   697.28496837
_cell_formula_units_Z   2
loop_
 _symmetry_equiv_pos_site_id
 _symmetry_equiv_pos_as_xyz
  1  'x, y, z'
loop_
 _atom_site_type_symbol
 _atom_site_label
 _atom_site_symmetry_multiplicity
 _atom_site_fract_x
 _atom_site_fract_y
 _atom_site_fract_z
 _atom_site_occupancy
  Nd  Nd0  1  0.600852  0.197394  0.600877  1
  Nd  Nd1  1  0.197394  0.600852  0.600877  1
  Nd  Nd2  1  0.060438  0.439745  0.441053  1
  Nd  Nd3  1  0.439745  0.060438  0.058764  1
  Nd  Nd4  1  0.439745  0.060438  0.441053  1
  Nd  Nd5  1  0.060438  0.439745  0.058764  1
  Nd  Nd6  1  0.440063  0.440063  0.059937  1
  Nd  Nd7  1  0.058423  0.058423  0.441577  1
  Nd  Nd8  1  0.191328  0.810712  0.812225  1
  Nd  Nd9  1  0.810712  0.191328  0.185735  1
  Nd  Nd10  1  0.810712  0.191328  0.812225  1
  Nd  Nd11  1  0.191328  0.810712  0.185735  1
  Nd  Nd12  1  0.811682  0.811682  0.188318  1
  Nd  Nd13  1  0.189113  0.189113  0.810887  1
  Th  Th14  1  0.596280  0.596280  0.597598  1
  Th  Th15  1  0.596280  0.596280  0.209842  1
  Hg  Hg16  1  0.833180  0.833180  0.835004  1
  Hg  Hg17  1  0.833180  0.833180  0.498635  1
  Hg  Hg18  1  0.833252  0.496541  0.835102  1
  Hg  Hg19  1  0.496541  0.833252  0.835102  1
  Ir  Ir20  1  0.396254  0.396254  0.388611  1
  Ir  Ir21  1  0.396254  0.396254  0.818881  1
  Ir  Ir22  1  0.400043  0.816760  0.391598  1
  Ir  Ir23  1  0.816760  0.400043  0.391598  1
