# generated using pymatgen
data_Er13Tm7(Ir5Au)2
_symmetry_space_group_name_H-M   'P 1'
_cell_length_a   10.92341191
_cell_length_b   10.87036001
_cell_length_c   6.28521782
_cell_angle_alpha   90.00224505
_cell_angle_beta   89.82181369
_cell_angle_gamma   90.00430395
_symmetry_Int_Tables_number   1
_chemical_formula_structural   Er13Tm7(Ir5Au)2
_chemical_formula_sum   'Er13 Tm7 Ir10 Au2'
_cell_volume   746.31207731
_cell_formula_units_Z   1
loop_
 _symmetry_equiv_pos_site_id
 _symmetry_equiv_pos_as_xyz
  1  'x, y, z'
loop_
 _atom_site_type_symbol
 _atom_site_label
 _atom_site_symmetry_multiplicity
 _atom_site_fract_x
 _atom_site_fract_y
 _atom_site_fract_z
 _atom_site_occupancy
  Er  Er0  1  0.291527  0.088066  0.371412  1
  Er  Er1  1  0.291522  0.911914  0.871415  1
  Er  Er2  1  0.698474  0.091963  0.866129  1
  Er  Er3  1  0.698347  0.908148  0.366197  1
  Er  Er4  1  0.577767  0.789053  0.876381  1
  Er  Er5  1  0.577767  0.210969  0.376409  1
  Er  Er6  1  0.408883  0.790312  0.376155  1
  Er  Er7  1  0.408849  0.209712  0.876066  1
  Er  Er8  1  0.209787  0.411770  0.622097  1
  Er  Er9  1  0.209840  0.588123  0.122109  1
  Er  Er10  1  0.789725  0.419590  0.123698  1
  Er  Er11  1  0.789693  0.580102  0.623760  1
  Er  Er12  1  0.917918  0.705768  0.138548  1
  Tm  Tm13  1  0.917889  0.294583  0.638154  1
  Tm  Tm14  1  0.095674  0.703352  0.623759  1
  Tm  Tm15  1  0.095576  0.296643  0.123690  1
  Tm  Tm16  1  0.008957  0.998172  0.500438  1
  Tm  Tm17  1  0.008978  0.002021  0.000326  1
  Tm  Tm18  1  0.499851  0.498574  0.000691  1
  Tm  Tm19  1  0.499879  0.501372  0.500743  1
  Ir  Ir20  1  0.153042  0.154125  0.750605  1
  Ir  Ir21  1  0.153282  0.846077  0.250763  1
  Ir  Ir22  1  0.655932  0.346551  0.747836  1
  Ir  Ir23  1  0.655537  0.653349  0.248069  1
  Ir  Ir24  1  0.347515  0.346493  0.251632  1
  Ir  Ir25  1  0.347513  0.653507  0.751697  1
  Ir  Ir26  1  0.499090  0.999692  0.121364  1
  Ir  Ir27  1  0.499103  0.000323  0.621349  1
  Ir  Ir28  1  0.000451  0.500506  0.878246  1
  Ir  Ir29  1  0.000458  0.498945  0.378748  1
  Au  Au30  1  0.845662  0.154756  0.251109  1
  Au  Au31  1  0.845511  0.845468  0.750402  1
