# generated using pymatgen
data_Rb7NaLi4(InAs2)4
_symmetry_space_group_name_H-M   'P 1'
_cell_length_a   10.54409525
_cell_length_b   10.54409668
_cell_length_c   6.53494093
_cell_angle_alpha   89.86971722
_cell_angle_beta   90.13028357
_cell_angle_gamma   103.36279649
_symmetry_Int_Tables_number   1
_chemical_formula_structural   Rb7NaLi4(InAs2)4
_chemical_formula_sum   'Rb7 Na1 Li4 In4 As8'
_cell_volume   706.86816029
_cell_formula_units_Z   1
loop_
 _symmetry_equiv_pos_site_id
 _symmetry_equiv_pos_as_xyz
  1  'x, y, z'
loop_
 _atom_site_type_symbol
 _atom_site_label
 _atom_site_symmetry_multiplicity
 _atom_site_fract_x
 _atom_site_fract_y
 _atom_site_fract_z
 _atom_site_occupancy
  Rb  Rb0  1  0.568868  0.921243  0.749960  1
  Rb  Rb1  1  0.929319  0.575039  0.250947  1
  Rb  Rb2  1  0.424961  0.070681  0.250947  1
  Rb  Rb3  1  0.078757  0.431132  0.749960  1
  Rb  Rb4  1  0.672383  0.327617  0.773295  1
  Rb  Rb5  1  0.828569  0.171431  0.272555  1
  Rb  Rb6  1  0.324725  0.675275  0.227347  1
  Na  Na7  1  0.139559  0.860441  0.729002  1
  Li  Li8  1  0.620559  0.619104  0.002750  1
  Li  Li9  1  0.880967  0.877772  0.498510  1
  Li  Li10  1  0.380896  0.379441  0.002750  1
  Li  Li11  1  0.122228  0.119033  0.498510  1
  In  In12  1  0.869252  0.867005  0.001633  1
  In  In13  1  0.634756  0.630332  0.499661  1
  In  In14  1  0.132995  0.130748  0.001633  1
  In  In15  1  0.369668  0.365244  0.499661  1
  As  As16  1  0.342421  0.145641  0.747882  1
  As  As17  1  0.155635  0.343867  0.250052  1
  As  As18  1  0.656133  0.844365  0.250052  1
  As  As19  1  0.854359  0.657579  0.747882  1
  As  As20  1  0.910021  0.089979  0.768645  1
  As  As21  1  0.594083  0.405917  0.270300  1
  As  As22  1  0.097111  0.902889  0.225494  1
  As  As23  1  0.411773  0.588227  0.730569  1
