# generated using pymatgen
data_HoTa5(SiTc)6
_symmetry_space_group_name_H-M   'P 1'
_cell_length_a   7.61839116
_cell_length_b   7.57642880
_cell_length_c   7.61839201
_cell_angle_alpha   127.00572540
_cell_angle_beta   124.93912211
_cell_angle_gamma   80.08227358
_symmetry_Int_Tables_number   1
_chemical_formula_structural   HoTa5(SiTc)6
_chemical_formula_sum   'Ho1 Ta5 Si6 Tc6'
_cell_volume   277.69793292
_cell_formula_units_Z   1
loop_
 _symmetry_equiv_pos_site_id
 _symmetry_equiv_pos_as_xyz
  1  'x, y, z'
loop_
 _atom_site_type_symbol
 _atom_site_label
 _atom_site_symmetry_multiplicity
 _atom_site_fract_x
 _atom_site_fract_y
 _atom_site_fract_z
 _atom_site_occupancy
  Ho  Ho0  1  0.535552  0.063007  0.027456  1
  Ta  Ta1  1  0.462518  0.494178  0.531661  1
  Ta  Ta2  1  0.944100  0.484421  0.040320  1
  Ta  Ta3  1  0.053630  0.102861  0.549230  1
  Ta  Ta4  1  0.744426  0.903482  0.659056  1
  Ta  Ta5  1  0.252971  0.912067  0.159097  1
  Si  Si6  1  0.733975  0.481054  0.247078  1
  Si  Si7  1  0.277907  0.546200  0.768293  1
  Si  Si8  1  0.319931  0.821132  0.476457  1
  Si  Si9  1  0.674189  0.161831  0.507515  1
  Si  Si10  1  0.844675  0.821132  0.001201  1
  Si  Si11  1  0.154316  0.161831  0.987642  1
  Tc  Tc12  1  0.485638  0.247415  0.730853  1
  Tc  Tc13  1  0.016562  0.247415  0.261778  1
  Tc  Tc14  1  0.086697  0.749356  0.585207  1
  Tc  Tc15  1  0.900596  0.497730  0.649562  1
  Tc  Tc16  1  0.664148  0.749356  0.162658  1
  Tc  Tc17  1  0.348169  0.497730  0.097134  1
