# generated using pymatgen
data_Y20Ir3Pd2Rh7
_symmetry_space_group_name_H-M   'P 1'
_cell_length_a   10.99441807
_cell_length_b   10.99441824
_cell_length_c   6.37589500
_cell_angle_alpha   90.00623799
_cell_angle_beta   90.00623799
_cell_angle_gamma   89.76922963
_symmetry_Int_Tables_number   1
_chemical_formula_structural   Y20Ir3Pd2Rh7
_chemical_formula_sum   'Y20 Ir3 Pd2 Rh7'
_cell_volume   770.69426942
_cell_formula_units_Z   1
loop_
 _symmetry_equiv_pos_site_id
 _symmetry_equiv_pos_as_xyz
  1  'x, y, z'
loop_
 _atom_site_type_symbol
 _atom_site_label
 _atom_site_symmetry_multiplicity
 _atom_site_fract_x
 _atom_site_fract_y
 _atom_site_fract_z
 _atom_site_occupancy
  Y  Y0  1  0.291805  0.093704  0.380027  1
  Y  Y1  1  0.294458  0.910431  0.872883  1
  Y  Y2  1  0.705754  0.087433  0.872736  1
  Y  Y3  1  0.707613  0.906086  0.379829  1
  Y  Y4  1  0.588590  0.789339  0.880981  1
  Y  Y5  1  0.583698  0.210030  0.379759  1
  Y  Y6  1  0.415719  0.789195  0.380891  1
  Y  Y7  1  0.409368  0.209655  0.881140  1
  Y  Y8  1  0.210661  0.411410  0.619019  1
  Y  Y9  1  0.210805  0.584281  0.119109  1
  Y  Y10  1  0.789970  0.416302  0.120241  1
  Y  Y11  1  0.790345  0.590632  0.618860  1
  Y  Y12  1  0.906296  0.708195  0.119973  1
  Y  Y13  1  0.912567  0.294246  0.627264  1
  Y  Y14  1  0.089569  0.705542  0.627117  1
  Y  Y15  1  0.093914  0.292387  0.120171  1
  Y  Y16  1  0.999671  0.999901  0.501502  1
  Y  Y17  1  0.000099  0.000329  0.998498  1
  Y  Y18  1  0.499787  0.499879  0.998951  1
  Y  Y19  1  0.500121  0.500213  0.501049  1
  Ir  Ir20  1  0.654452  0.653580  0.249746  1
  Ir  Ir21  1  0.346420  0.345548  0.250254  1
  Ir  Ir22  1  0.344024  0.655976  0.750000  1
  Pd  Pd23  1  0.844320  0.155680  0.250000  1
  Pd  Pd24  1  0.155031  0.844969  0.250000  1
  Rh  Rh25  1  0.847315  0.847856  0.750298  1
  Rh  Rh26  1  0.152144  0.152685  0.749702  1
  Rh  Rh27  1  0.656161  0.343839  0.750000  1
  Rh  Rh28  1  0.500164  0.000438  0.126627  1
  Rh  Rh29  1  0.500245  0.000651  0.625203  1
  Rh  Rh30  1  0.999349  0.499755  0.874797  1
  Rh  Rh31  1  0.999562  0.499836  0.373373  1
