# generated using pymatgen
data_Lu5Mg(NbRu2)6
_symmetry_space_group_name_H-M   'P 1'
_cell_length_a   4.56357900
_cell_length_b   6.43834100
_cell_length_c   13.75579000
_cell_angle_alpha   90.00000000
_cell_angle_beta   89.99998328
_cell_angle_gamma   90.00000000
_symmetry_Int_Tables_number   1
_chemical_formula_structural   Lu5Mg(NbRu2)6
_chemical_formula_sum   'Lu5 Mg1 Nb6 Ru12'
_cell_volume   404.17094058
_cell_formula_units_Z   1
loop_
 _symmetry_equiv_pos_site_id
 _symmetry_equiv_pos_as_xyz
  1  'x, y, z'
loop_
 _atom_site_type_symbol
 _atom_site_label
 _atom_site_symmetry_multiplicity
 _atom_site_fract_x
 _atom_site_fract_y
 _atom_site_fract_z
 _atom_site_occupancy
  Lu  Lu0  1  0.999992  0.499999  0.998885  1
  Lu  Lu1  1  0.500004  0.000000  0.164670  1
  Lu  Lu2  1  0.999987  0.499999  0.333336  1
  Lu  Lu3  1  0.500001  0.000000  0.501999  1
  Lu  Lu4  1  0.000001  0.499999  0.667778  1
  Mg  Mg5  1  0.500027  0.000000  0.833330  1
  Nb  Nb6  1  0.000002  0.000000  0.992550  1
  Nb  Nb7  1  0.499993  0.499999  0.165875  1
  Nb  Nb8  1  0.000003  0.000000  0.333335  1
  Nb  Nb9  1  0.499986  0.499999  0.500792  1
  Nb  Nb10  1  0.000000  0.000000  0.674112  1
  Nb  Nb11  1  0.500014  0.499999  0.833332  1
  Ru  Ru12  1  0.499989  0.249002  0.998226  1
  Ru  Ru13  1  0.499989  0.750998  0.998226  1
  Ru  Ru14  1  0.999997  0.250002  0.166149  1
  Ru  Ru15  1  0.999997  0.749998  0.166149  1
  Ru  Ru16  1  0.499998  0.249090  0.333332  1
  Ru  Ru17  1  0.499998  0.750910  0.333332  1
  Ru  Ru18  1  0.000001  0.249996  0.500522  1
  Ru  Ru19  1  0.000001  0.750004  0.500522  1
  Ru  Ru20  1  0.500001  0.249003  0.668441  1
  Ru  Ru21  1  0.500001  0.750997  0.668441  1
  Ru  Ru22  1  0.000005  0.246598  0.833331  1
  Ru  Ru23  1  0.000005  0.753402  0.833331  1
