# generated using pymatgen
data_Pr3Cd3Ag2Pt
_symmetry_space_group_name_H-M   'P 1'
_cell_length_a   8.11850900
_cell_length_b   8.11850959
_cell_length_c   3.94099600
_cell_angle_alpha   90.00000000
_cell_angle_beta   90.00000000
_cell_angle_gamma   119.99999354
_symmetry_Int_Tables_number   1
_chemical_formula_structural   Pr3Cd3Ag2Pt
_chemical_formula_sum   'Pr3 Cd3 Ag2 Pt1'
_cell_volume   224.95167864
_cell_formula_units_Z   1
loop_
 _symmetry_equiv_pos_site_id
 _symmetry_equiv_pos_as_xyz
  1  'x, y, z'
loop_
 _atom_site_type_symbol
 _atom_site_label
 _atom_site_symmetry_multiplicity
 _atom_site_fract_x
 _atom_site_fract_y
 _atom_site_fract_z
 _atom_site_occupancy
  Pr  Pr0  1  0.580213  0.979194  0.000000  1
  Pr  Pr1  1  0.020806  0.601019  0.000000  1
  Pr  Pr2  1  0.398981  0.419787  0.000000  1
  Cd  Cd3  1  0.262560  0.004902  0.500000  1
  Cd  Cd4  1  0.995098  0.257658  0.500000  1
  Cd  Cd5  1  0.742342  0.737440  0.500000  1
  Ag  Ag6  1  0.666667  0.333333  0.500000  1
  Ag  Ag7  1  0.000000  0.000000  0.000000  1
  Pt  Pt8  1  0.333333  0.666667  0.500000  1
