# generated using pymatgen
data_Ca2Sc3Si12Ir19
_symmetry_space_group_name_H-M   'P 1'
_cell_length_a   12.77513600
_cell_length_b   12.77513623
_cell_length_c   3.95905200
_cell_angle_alpha   90.00000000
_cell_angle_beta   90.00000000
_cell_angle_gamma   120.00000459
_symmetry_Int_Tables_number   1
_chemical_formula_structural   Ca2Sc3Si12Ir19
_chemical_formula_sum   'Ca2 Sc3 Si12 Ir19'
_cell_volume   559.56802483
_cell_formula_units_Z   1
loop_
 _symmetry_equiv_pos_site_id
 _symmetry_equiv_pos_as_xyz
  1  'x, y, z'
loop_
 _atom_site_type_symbol
 _atom_site_label
 _atom_site_symmetry_multiplicity
 _atom_site_fract_x
 _atom_site_fract_y
 _atom_site_fract_z
 _atom_site_occupancy
  Ca  Ca0  1  0.333333  0.666667  0.000000  1
  Ca  Ca1  1  0.666667  0.333333  0.000000  1
  Sc  Sc2  1  0.817952  0.000000  0.500000  1
  Sc  Sc3  1  0.000000  0.817952  0.500000  1
  Sc  Sc4  1  0.182048  0.182048  0.500000  1
  Si  Si5  1  0.178756  0.000000  0.000000  1
  Si  Si6  1  0.000000  0.178756  0.000000  1
  Si  Si7  1  0.821244  0.821244  0.000000  1
  Si  Si8  1  0.166306  0.479898  0.500000  1
  Si  Si9  1  0.520102  0.686407  0.500000  1
  Si  Si10  1  0.313593  0.833694  0.500000  1
  Si  Si11  1  0.686407  0.520102  0.500000  1
  Si  Si12  1  0.833694  0.313593  0.500000  1
  Si  Si13  1  0.479898  0.166306  0.500000  1
  Si  Si14  1  0.633113  0.000000  0.000000  1
  Si  Si15  1  0.000000  0.633113  0.000000  1
  Si  Si16  1  0.366887  0.366887  0.000000  1
  Ir  Ir17  1  0.446747  0.000000  0.000000  1
  Ir  Ir18  1  0.000000  0.446747  0.000000  1
  Ir  Ir19  1  0.553253  0.553253  0.000000  1
  Ir  Ir20  1  0.359211  0.485493  0.500000  1
  Ir  Ir21  1  0.514507  0.873718  0.500000  1
  Ir  Ir22  1  0.126282  0.640789  0.500000  1
  Ir  Ir23  1  0.873718  0.514507  0.500000  1
  Ir  Ir24  1  0.640789  0.126282  0.500000  1
  Ir  Ir25  1  0.485493  0.359211  0.500000  1
  Ir  Ir26  1  0.182106  0.372701  0.000000  1
  Ir  Ir27  1  0.627299  0.809406  0.000000  1
  Ir  Ir28  1  0.190594  0.817894  0.000000  1
  Ir  Ir29  1  0.809406  0.627299  0.000000  1
  Ir  Ir30  1  0.817894  0.190594  0.000000  1
  Ir  Ir31  1  0.372701  0.182106  0.000000  1
  Ir  Ir32  1  0.279759  0.000000  0.500000  1
  Ir  Ir33  1  0.000000  0.279759  0.500000  1
  Ir  Ir34  1  0.720241  0.720241  0.500000  1
  Ir  Ir35  1  0.000000  0.000000  0.000000  1
