# generated using pymatgen
data_Dy12InCo2Si2Hg
_symmetry_space_group_name_H-M   'P 1'
_cell_length_a   8.47796547
_cell_length_b   8.47782161
_cell_length_c   8.47796474
_cell_angle_alpha   113.74648469
_cell_angle_beta   110.28246149
_cell_angle_gamma   104.51728865
_symmetry_Int_Tables_number   1
_chemical_formula_structural   Dy12InCo2Si2Hg
_chemical_formula_sum   'Dy12 In1 Co2 Si2 Hg1'
_cell_volume   466.00609504
_cell_formula_units_Z   1
loop_
 _symmetry_equiv_pos_site_id
 _symmetry_equiv_pos_as_xyz
  1  'x, y, z'
loop_
 _atom_site_type_symbol
 _atom_site_label
 _atom_site_symmetry_multiplicity
 _atom_site_fract_x
 _atom_site_fract_y
 _atom_site_fract_z
 _atom_site_occupancy
  Dy  Dy0  1  0.436013  0.236812  0.199195  1
  Dy  Dy1  1  0.563987  0.763188  0.800805  1
  Dy  Dy2  1  0.037618  0.236812  0.800799  1
  Dy  Dy3  1  0.962382  0.763188  0.199201  1
  Dy  Dy4  1  0.187101  0.288619  0.475719  1
  Dy  Dy5  1  0.812899  0.711381  0.524281  1
  Dy  Dy6  1  0.187101  0.711381  0.898482  1
  Dy  Dy7  1  0.812899  0.288619  0.101518  1
  Dy  Dy8  1  0.305322  0.616817  0.311496  1
  Dy  Dy9  1  0.694678  0.383183  0.688504  1
  Dy  Dy10  1  0.305338  0.993844  0.688507  1
  Dy  Dy11  1  0.694662  0.006156  0.311493  1
  In  In12  1  0.500000  0.500000  0.000000  1
  Co  Co13  1  0.107776  0.607792  0.500016  1
  Co  Co14  1  0.892224  0.392208  0.499984  1
  Si  Si15  1  0.364974  0.000000  0.364974  1
  Si  Si16  1  0.635026  0.000000  0.635026  1
  Hg  Hg17  1  0.000000  0.000000  0.000000  1
