# generated using pymatgen
data_Nd4Cu2Sb8Pd
_symmetry_space_group_name_H-M   'P 1'
_cell_length_a   10.90641480
_cell_length_b   10.90641539
_cell_length_c   10.90641441
_cell_angle_alpha   146.70847606
_cell_angle_beta   146.77270293
_cell_angle_gamma   47.74805612
_symmetry_Int_Tables_number   1
_chemical_formula_structural   Nd4Cu2Sb8Pd
_chemical_formula_sum   'Nd4 Cu2 Sb8 Pd1'
_cell_volume   388.64574365
_cell_formula_units_Z   1
loop_
 _symmetry_equiv_pos_site_id
 _symmetry_equiv_pos_as_xyz
  1  'x, y, z'
loop_
 _atom_site_type_symbol
 _atom_site_label
 _atom_site_symmetry_multiplicity
 _atom_site_fract_x
 _atom_site_fract_y
 _atom_site_fract_z
 _atom_site_occupancy
  Nd  Nd0  1  0.632730  0.630291  0.502550  1
  Nd  Nd1  1  0.127740  0.130179  0.497450  1
  Nd  Nd2  1  0.367270  0.869821  0.997561  1
  Nd  Nd3  1  0.872260  0.369709  0.002439  1
  Cu  Cu4  1  0.000000  0.000000  0.000000  1
  Cu  Cu5  1  0.500000  0.000000  0.500000  1
  Sb  Sb6  1  0.331584  0.322512  0.508685  1
  Sb  Sb7  1  0.813827  0.822897  0.491315  1
  Sb  Sb8  1  0.668416  0.177103  0.990930  1
  Sb  Sb9  1  0.186173  0.677488  0.009070  1
  Sb  Sb10  1  0.249787  0.249787  0.000000  1
  Sb  Sb11  1  0.750213  0.750213  0.000000  1
  Sb  Sb12  1  0.749862  0.249862  0.500000  1
  Sb  Sb13  1  0.250138  0.750138  0.500000  1
  Pd  Pd14  1  0.000000  0.500000  0.500000  1
