# generated using pymatgen
data_Tb6Co13Ni3(P6Ru)2
_symmetry_space_group_name_H-M   'P 1'
_cell_length_a   3.74183300
_cell_length_b   10.51892507
_cell_length_c   12.29838037
_cell_angle_alpha   89.92849665
_cell_angle_beta   90.00000000
_cell_angle_gamma   90.00000000
_symmetry_Int_Tables_number   1
_chemical_formula_structural   Tb6Co13Ni3(P6Ru)2
_chemical_formula_sum   'Tb6 Co13 Ni3 P12 Ru2'
_cell_volume   484.06462396
_cell_formula_units_Z   1
loop_
 _symmetry_equiv_pos_site_id
 _symmetry_equiv_pos_as_xyz
  1  'x, y, z'
loop_
 _atom_site_type_symbol
 _atom_site_label
 _atom_site_symmetry_multiplicity
 _atom_site_fract_x
 _atom_site_fract_y
 _atom_site_fract_z
 _atom_site_occupancy
  Tb  Tb0  1  0.000000  0.499892  0.522673  1
  Tb  Tb1  1  0.500000  0.999979  0.477245  1
  Tb  Tb2  1  0.500000  0.815048  0.205876  1
  Tb  Tb3  1  0.500000  0.184599  0.206509  1
  Tb  Tb4  1  0.000000  0.685211  0.794085  1
  Tb  Tb5  1  0.000000  0.315096  0.793032  1
  Co  Co6  1  0.000000  0.499130  0.986005  1
  Co  Co7  1  0.500000  0.999844  0.014621  1
  Co  Co8  1  0.500000  0.667887  0.991657  1
  Co  Co9  1  0.000000  0.168393  0.009806  1
  Co  Co10  1  0.000000  0.832807  0.009137  1
  Co  Co11  1  0.500000  0.299065  0.430843  1
  Co  Co12  1  0.500000  0.700963  0.430555  1
  Co  Co13  1  0.000000  0.200663  0.569530  1
  Co  Co14  1  0.000000  0.799208  0.569505  1
  Co  Co15  1  0.500000  0.879608  0.709610  1
  Co  Co16  1  0.500000  0.120175  0.708369  1
  Co  Co17  1  0.000000  0.620665  0.290209  1
  Co  Co18  1  0.000000  0.379852  0.292115  1
  Ni  Ni19  1  0.500000  0.500095  0.702396  1
  Ni  Ni20  1  0.000000  0.000113  0.296971  1
  Ni  Ni21  1  0.500000  0.330978  0.989190  1
  P  P22  1  0.500000  0.502017  0.881635  1
  P  P23  1  0.000000  0.000337  0.117088  1
  P  P24  1  0.500000  0.500542  0.348608  1
  P  P25  1  0.000000  0.999707  0.651432  1
  P  P26  1  0.500000  0.309856  0.614714  1
  P  P27  1  0.500000  0.690808  0.614994  1
  P  P28  1  0.000000  0.190441  0.385216  1
  P  P29  1  0.000000  0.809120  0.384744  1
  P  P30  1  0.500000  0.846705  0.894939  1
  P  P31  1  0.500000  0.150330  0.892593  1
  P  P32  1  0.000000  0.652836  0.105116  1
  P  P33  1  0.000000  0.348485  0.108624  1
  Ru  Ru34  1  0.500000  0.498439  0.158319  1
  Ru  Ru35  1  0.000000  0.001110  0.842040  1
