# generated using pymatgen
data_Y6ScCo17(Si2P)4
_symmetry_space_group_name_H-M   'P 1'
_cell_length_a   3.77054700
_cell_length_b   10.73216600
_cell_length_c   12.40818400
_cell_angle_alpha   90.00000000
_cell_angle_beta   90.00000000
_cell_angle_gamma   90.00000000
_symmetry_Int_Tables_number   1
_chemical_formula_structural   Y6ScCo17(Si2P)4
_chemical_formula_sum   'Y6 Sc1 Co17 Si8 P4'
_cell_volume   502.11126516
_cell_formula_units_Z   1
loop_
 _symmetry_equiv_pos_site_id
 _symmetry_equiv_pos_as_xyz
  1  'x, y, z'
loop_
 _atom_site_type_symbol
 _atom_site_label
 _atom_site_symmetry_multiplicity
 _atom_site_fract_x
 _atom_site_fract_y
 _atom_site_fract_z
 _atom_site_occupancy
  Y  Y0  1  0.000000  0.500000  0.529390  1
  Y  Y1  1  0.500000  0.000000  0.473289  1
  Y  Y2  1  0.500000  0.819688  0.208251  1
  Y  Y3  1  0.500000  0.180312  0.208251  1
  Y  Y4  1  0.000000  0.684064  0.794712  1
  Y  Y5  1  0.000000  0.315936  0.794712  1
  Sc  Sc6  1  0.500000  0.500000  0.148251  1
  Co  Co7  1  0.000000  0.000000  0.845753  1
  Co  Co8  1  0.500000  0.500000  0.700443  1
  Co  Co9  1  0.000000  0.000000  0.304480  1
  Co  Co10  1  0.000000  0.500000  0.988117  1
  Co  Co11  1  0.500000  0.000000  0.017469  1
  Co  Co12  1  0.500000  0.325066  0.994341  1
  Co  Co13  1  0.500000  0.674934  0.994341  1
  Co  Co14  1  0.000000  0.164194  0.003161  1
  Co  Co15  1  0.000000  0.835806  0.003161  1
  Co  Co16  1  0.500000  0.291998  0.431018  1
  Co  Co17  1  0.500000  0.708002  0.431018  1
  Co  Co18  1  0.000000  0.197963  0.566784  1
  Co  Co19  1  0.000000  0.802037  0.566784  1
  Co  Co20  1  0.500000  0.883363  0.705700  1
  Co  Co21  1  0.500000  0.116637  0.705700  1
  Co  Co22  1  0.000000  0.622788  0.293930  1
  Co  Co23  1  0.000000  0.377212  0.293930  1
  Si  Si24  1  0.500000  0.500000  0.885904  1
  Si  Si25  1  0.000000  0.000000  0.118190  1
  Si  Si26  1  0.500000  0.500000  0.354125  1
  Si  Si27  1  0.000000  0.000000  0.658929  1
  Si  Si28  1  0.500000  0.304361  0.615386  1
  Si  Si29  1  0.500000  0.695639  0.615386  1
  Si  Si30  1  0.500000  0.856834  0.890094  1
  Si  Si31  1  0.500000  0.143166  0.890094  1
  P  P32  1  0.000000  0.193459  0.385270  1
  P  P33  1  0.000000  0.806541  0.385270  1
  P  P34  1  0.000000  0.663986  0.099182  1
  P  P35  1  0.000000  0.336014  0.099182  1
