# generated using pymatgen
data_Y3Zn3Hg2Ir
_symmetry_space_group_name_H-M   'P 1'
_cell_length_a   7.77036000
_cell_length_b   7.77036717
_cell_length_c   3.76136100
_cell_angle_alpha   90.00000000
_cell_angle_beta   90.00000000
_cell_angle_gamma   120.00018972
_symmetry_Int_Tables_number   1
_chemical_formula_structural   Y3Zn3Hg2Ir
_chemical_formula_sum   'Y3 Zn3 Hg2 Ir1'
_cell_volume   196.67877719
_cell_formula_units_Z   1
loop_
 _symmetry_equiv_pos_site_id
 _symmetry_equiv_pos_as_xyz
  1  'x, y, z'
loop_
 _atom_site_type_symbol
 _atom_site_label
 _atom_site_symmetry_multiplicity
 _atom_site_fract_x
 _atom_site_fract_y
 _atom_site_fract_z
 _atom_site_occupancy
  Y  Y0  1  0.579519  0.609643  0.000000  1
  Y  Y1  1  0.390357  0.969875  0.000000  1
  Y  Y2  1  0.030125  0.420482  0.000000  1
  Zn  Zn3  1  0.274664  0.284004  0.500000  1
  Zn  Zn4  1  0.715996  0.990659  0.500000  1
  Zn  Zn5  1  0.009340  0.725338  0.500000  1
  Hg  Hg6  1  0.000000  0.000000  0.000000  1
  Hg  Hg7  1  0.666666  0.333333  0.500000  1
  Ir  Ir8  1  0.333334  0.666667  0.500000  1
