# generated using pymatgen
data_La17Pr3Si15Bi
_symmetry_space_group_name_H-M   'P 1'
_cell_length_a   8.09860609
_cell_length_b   8.03979030
_cell_length_c   15.55718600
_cell_angle_alpha   89.88839852
_cell_angle_beta   89.12559517
_cell_angle_gamma   89.74911760
_symmetry_Int_Tables_number   1
_chemical_formula_structural   La17Pr3Si15Bi
_chemical_formula_sum   'La17 Pr3 Si15 Bi1'
_cell_volume   1012.81595060
_cell_formula_units_Z   1
loop_
 _symmetry_equiv_pos_site_id
 _symmetry_equiv_pos_as_xyz
  1  'x, y, z'
loop_
 _atom_site_type_symbol
 _atom_site_label
 _atom_site_symmetry_multiplicity
 _atom_site_fract_x
 _atom_site_fract_y
 _atom_site_fract_z
 _atom_site_occupancy
  La  La0  1  0.311533  0.311459  0.001596  1
  La  La1  1  0.190890  0.807162  0.249377  1
  La  La2  1  0.794884  0.190245  0.754238  1
  La  La3  1  0.683346  0.687492  0.493611  1
  La  La4  1  0.376994  0.009639  0.446450  1
  La  La5  1  0.498549  0.874117  0.698053  1
  La  La6  1  0.509151  0.120482  0.197231  1
  La  La7  1  0.875421  0.487894  0.298832  1
  La  La8  1  0.120665  0.516835  0.806216  1
  La  La9  1  0.629160  0.986072  0.952850  1
  La  La10  1  0.995993  0.385581  0.542237  1
  La  La11  1  0.991364  0.620938  0.055086  1
  La  La12  1  0.133689  0.985910  0.878477  1
  La  La13  1  0.517451  0.628858  0.127508  1
  La  La14  1  0.495244  0.382579  0.627479  1
  La  La15  1  0.633055  0.521627  0.878067  1
  La  La16  1  0.369548  0.480291  0.373082  1
  Pr  Pr17  1  0.871376  0.017789  0.375438  1
  Pr  Pr18  1  0.983882  0.127780  0.125781  1
  Pr  Pr19  1  0.004259  0.854298  0.618964  1
  Si  Si20  1  0.331744  0.698401  0.953594  1
  Si  Si21  1  0.663061  0.299446  0.450868  1
  Si  Si22  1  0.703658  0.333398  0.051616  1
  Si  Si23  1  0.300424  0.670021  0.547035  1
  Si  Si24  1  0.802861  0.834457  0.201843  1
  Si  Si25  1  0.164225  0.196431  0.298848  1
  Si  Si26  1  0.840729  0.803708  0.797584  1
  Si  Si27  1  0.288162  0.923276  0.059498  1
  Si  Si28  1  0.579258  0.791955  0.308099  1
  Si  Si29  1  0.440149  0.208954  0.820616  1
  Si  Si30  1  0.793064  0.577512  0.692132  1
  Si  Si31  1  0.208040  0.419714  0.191821  1
  Si  Si32  1  0.705835  0.076644  0.558664  1
  Si  Si33  1  0.925715  0.289277  0.943239  1
  Si  Si34  1  0.077307  0.715247  0.439040  1
  Bi  Bi35  1  0.189314  0.164504  0.684931  1
