# generated using pymatgen
data_Sc6Si6Tc5Ru
_symmetry_space_group_name_H-M   'P 1'
_cell_length_a   7.76185947
_cell_length_b   7.74789191
_cell_length_c   7.76197644
_cell_angle_alpha   126.56825080
_cell_angle_beta   127.98363376
_cell_angle_gamma   77.84820871
_symmetry_Int_Tables_number   1
_chemical_formula_structural   Sc6Si6Tc5Ru
_chemical_formula_sum   'Sc6 Si6 Tc5 Ru1'
_cell_volume   286.35991095
_cell_formula_units_Z   1
loop_
 _symmetry_equiv_pos_site_id
 _symmetry_equiv_pos_as_xyz
  1  'x, y, z'
loop_
 _atom_site_type_symbol
 _atom_site_label
 _atom_site_symmetry_multiplicity
 _atom_site_fract_x
 _atom_site_fract_y
 _atom_site_fract_z
 _atom_site_occupancy
  Sc  Sc0  1  0.249078  0.891338  0.141872  1
  Sc  Sc1  1  0.947507  0.495188  0.047248  1
  Sc  Sc2  1  0.051970  0.102041  0.549360  1
  Sc  Sc3  1  0.447612  0.495189  0.547977  1
  Sc  Sc4  1  0.749925  0.891814  0.642279  1
  Sc  Sc5  1  0.552981  0.102831  0.050579  1
  Si  Si6  1  0.751479  0.497290  0.247730  1
  Si  Si7  1  0.167031  0.164283  0.998030  1
  Si  Si8  1  0.665616  0.163396  0.496989  1
  Si  Si9  1  0.334573  0.830859  0.497312  1
  Si  Si10  1  0.249213  0.496844  0.745737  1
  Si  Si11  1  0.833056  0.830347  0.996260  1
  Tc  Tc12  1  0.499144  0.237548  0.738496  1
  Tc  Tc13  1  0.000449  0.238367  0.237879  1
  Tc  Tc14  1  0.870557  0.496868  0.626010  1
  Tc  Tc15  1  0.629908  0.756290  0.125967  1
  Tc  Tc16  1  0.370623  0.496875  0.126557  1
  Ru  Ru17  1  0.129281  0.754841  0.625929  1
