# generated using pymatgen
data_Eu2SnSb3Rh4
_symmetry_space_group_name_H-M   'P 1'
_cell_length_a   4.56764400
_cell_length_b   4.56764400
_cell_length_c   10.70033800
_cell_angle_alpha   90.00000000
_cell_angle_beta   90.00000000
_cell_angle_gamma   90.00000000
_symmetry_Int_Tables_number   1
_chemical_formula_structural   Eu2SnSb3Rh4
_chemical_formula_sum   'Eu2 Sn1 Sb3 Rh4'
_cell_volume   223.24512912
_cell_formula_units_Z   1
loop_
 _symmetry_equiv_pos_site_id
 _symmetry_equiv_pos_as_xyz
  1  'x, y, z'
loop_
 _atom_site_type_symbol
 _atom_site_label
 _atom_site_symmetry_multiplicity
 _atom_site_fract_x
 _atom_site_fract_y
 _atom_site_fract_z
 _atom_site_occupancy
  Eu  Eu0  1  0.000000  0.500001  0.249558  1
  Eu  Eu1  1  0.500001  0.000000  0.750442  1
  Sn  Sn2  1  0.000000  0.000000  0.500000  1
  Sb  Sb3  1  0.500001  0.000000  0.128679  1
  Sb  Sb4  1  0.500001  0.500001  0.500000  1
  Sb  Sb5  1  0.000000  0.500001  0.871321  1
  Rh  Rh6  1  0.000000  0.000000  0.000000  1
  Rh  Rh7  1  0.500001  0.500001  0.000000  1
  Rh  Rh8  1  0.500001  0.000000  0.371373  1
  Rh  Rh9  1  0.000000  0.500001  0.628627  1
