# generated using pymatgen
data_Sm4SeBr6
_symmetry_space_group_name_H-M   'P 1'
_cell_length_a   4.12422000
_cell_length_b   13.42660300
_cell_length_c   14.21801600
_cell_angle_alpha   90.00000000
_cell_angle_beta   90.00000000
_cell_angle_gamma   90.00000000
_symmetry_Int_Tables_number   1
_chemical_formula_structural   Sm4SeBr6
_chemical_formula_sum   'Sm8 Se2 Br12'
_cell_volume   787.31218042
_cell_formula_units_Z   2
loop_
 _symmetry_equiv_pos_site_id
 _symmetry_equiv_pos_as_xyz
  1  'x, y, z'
loop_
 _atom_site_type_symbol
 _atom_site_label
 _atom_site_symmetry_multiplicity
 _atom_site_fract_x
 _atom_site_fract_y
 _atom_site_fract_z
 _atom_site_occupancy
  Sm  Sm0  1  0.500000  0.119232  0.340547  1
  Sm  Sm1  1  0.500000  0.880768  0.659453  1
  Sm  Sm2  1  0.500000  0.619232  0.159453  1
  Sm  Sm3  1  0.500000  0.380768  0.840547  1
  Sm  Sm4  1  0.000000  0.117154  0.577982  1
  Sm  Sm5  1  0.000000  0.882846  0.422018  1
  Sm  Sm6  1  0.000000  0.617154  0.922018  1
  Sm  Sm7  1  0.000000  0.382846  0.077982  1
  Se  Se8  1  0.500000  0.000000  0.500000  1
  Se  Se9  1  0.500000  0.500000  0.000000  1
  Br  Br10  1  0.500000  0.245174  0.161744  1
  Br  Br11  1  0.500000  0.754826  0.838256  1
  Br  Br12  1  0.500000  0.745174  0.338256  1
  Br  Br13  1  0.500000  0.254826  0.661744  1
  Br  Br14  1  0.000000  0.256900  0.413557  1
  Br  Br15  1  0.000000  0.743100  0.586443  1
  Br  Br16  1  0.000000  0.756900  0.086443  1
  Br  Br17  1  0.000000  0.243100  0.913557  1
  Br  Br18  1  0.000000  0.999822  0.242288  1
  Br  Br19  1  0.000000  0.000178  0.757712  1
  Br  Br20  1  0.000000  0.499822  0.257712  1
  Br  Br21  1  0.000000  0.500178  0.742288  1
