# generated using pymatgen
data_Gd2AgO5
_symmetry_space_group_name_H-M   'P 1'
_cell_length_a   8.58655900
_cell_length_b   8.58655900
_cell_length_c   5.81622500
_cell_angle_alpha   90.00000000
_cell_angle_beta   90.00000000
_cell_angle_gamma   90.00000000
_symmetry_Int_Tables_number   1
_chemical_formula_structural   Gd2AgO5
_chemical_formula_sum   'Gd8 Ag4 O20'
_cell_volume   428.82442662
_cell_formula_units_Z   4
loop_
 _symmetry_equiv_pos_site_id
 _symmetry_equiv_pos_as_xyz
  1  'x, y, z'
loop_
 _atom_site_type_symbol
 _atom_site_label
 _atom_site_symmetry_multiplicity
 _atom_site_fract_x
 _atom_site_fract_y
 _atom_site_fract_z
 _atom_site_occupancy
  Gd  Gd0  1  0.349740  0.349784  0.249799  1
  Gd  Gd1  1  0.849784  0.150260  0.249799  1
  Gd  Gd2  1  0.150216  0.849740  0.249799  1
  Gd  Gd3  1  0.650260  0.650216  0.249799  1
  Gd  Gd4  1  0.849740  0.849784  0.750201  1
  Gd  Gd5  1  0.349784  0.650260  0.750201  1
  Gd  Gd6  1  0.650216  0.349740  0.750201  1
  Gd  Gd7  1  0.150260  0.150216  0.750201  1
  Ag  Ag8  1  0.000000  0.500000  0.091345  1
  Ag  Ag9  1  0.500000  0.000000  0.908655  1
  Ag  Ag10  1  0.000000  0.500000  0.591256  1
  Ag  Ag11  1  0.500000  0.000000  0.408744  1
  O  O12  1  0.000000  0.000000  0.000000  1
  O  O13  1  0.500000  0.500000  0.000000  1
  O  O14  1  0.000000  0.000000  0.500000  1
  O  O15  1  0.500000  0.500000  0.500000  1
  O  O16  1  0.284155  0.907445  0.895490  1
  O  O17  1  0.407445  0.215845  0.895490  1
  O  O18  1  0.592555  0.784155  0.895490  1
  O  O19  1  0.715845  0.092555  0.895490  1
  O  O20  1  0.215845  0.592555  0.104510  1
  O  O21  1  0.092555  0.284155  0.104510  1
  O  O22  1  0.907445  0.715845  0.104510  1
  O  O23  1  0.784155  0.407445  0.104510  1
  O  O24  1  0.907578  0.284037  0.604426  1
  O  O25  1  0.784037  0.592422  0.604426  1
  O  O26  1  0.215963  0.407578  0.604426  1
  O  O27  1  0.092422  0.715963  0.604426  1
  O  O28  1  0.592422  0.215963  0.395574  1
  O  O29  1  0.715963  0.907578  0.395574  1
  O  O30  1  0.284037  0.092422  0.395574  1
  O  O31  1  0.407578  0.784037  0.395574  1
