# generated using pymatgen
data_ErPa2Sb4Pt3
_symmetry_space_group_name_H-M   'P 1'
_cell_length_a   8.44771650
_cell_length_b   8.44771717
_cell_length_c   8.44771746
_cell_angle_alpha   109.67281985
_cell_angle_beta   109.67282549
_cell_angle_gamma   109.06876878
_symmetry_Int_Tables_number   1
_chemical_formula_structural   ErPa2Sb4Pt3
_chemical_formula_sum   'Er2 Pa4 Sb8 Pt6'
_cell_volume   464.06637900
_cell_formula_units_Z   2
loop_
 _symmetry_equiv_pos_site_id
 _symmetry_equiv_pos_as_xyz
  1  'x, y, z'
loop_
 _atom_site_type_symbol
 _atom_site_label
 _atom_site_symmetry_multiplicity
 _atom_site_fract_x
 _atom_site_fract_y
 _atom_site_fract_z
 _atom_site_occupancy
  Er  Er0  1  0.125000  0.875000  0.250000  1
  Er  Er1  1  0.375000  0.625000  0.750000  1
  Pa  Pa2  1  0.875564  0.250000  0.125564  1
  Pa  Pa3  1  0.624436  0.750000  0.374436  1
  Pa  Pa4  1  0.250000  0.124436  0.874436  1
  Pa  Pa5  1  0.750000  0.375564  0.625564  1
  Sb  Sb6  1  0.676078  0.501080  0.998775  1
  Sb  Sb7  1  0.497695  0.998920  0.674998  1
  Sb  Sb8  1  0.002305  0.677303  0.501225  1
  Sb  Sb9  1  0.823922  0.822697  0.825002  1
  Sb  Sb10  1  0.498920  0.997695  0.174998  1
  Sb  Sb11  1  0.177303  0.502305  0.001225  1
  Sb  Sb12  1  0.001080  0.176078  0.498775  1
  Sb  Sb13  1  0.322697  0.323922  0.325002  1
  Pt  Pt14  1  0.375959  0.250000  0.625959  1
  Pt  Pt15  1  0.124041  0.750000  0.874041  1
  Pt  Pt16  1  0.250000  0.624041  0.374041  1
  Pt  Pt17  1  0.750000  0.875959  0.125959  1
  Pt  Pt18  1  0.625000  0.375000  0.250000  1
  Pt  Pt19  1  0.875000  0.125000  0.750000  1
