# generated using pymatgen
data_PrNd9PdRu3
_symmetry_space_group_name_H-M   'P 1'
_cell_length_a   8.99937214
_cell_length_b   9.03918384
_cell_length_c   7.38659668
_cell_angle_alpha   83.47707401
_cell_angle_beta   83.44865901
_cell_angle_gamma   42.98999634
_symmetry_Int_Tables_number   1
_chemical_formula_structural   PrNd9PdRu3
_chemical_formula_sum   'Pr1 Nd9 Pd1 Ru3'
_cell_volume   406.64194068
_cell_formula_units_Z   1
loop_
 _symmetry_equiv_pos_site_id
 _symmetry_equiv_pos_as_xyz
  1  'x, y, z'
loop_
 _atom_site_type_symbol
 _atom_site_label
 _atom_site_symmetry_multiplicity
 _atom_site_fract_x
 _atom_site_fract_y
 _atom_site_fract_z
 _atom_site_occupancy
  Pr  Pr0  1  0.011925  0.803261  0.926146  1
  Nd  Nd1  1  0.201423  0.987930  0.585658  1
  Nd  Nd2  1  0.986071  0.198980  0.086382  1
  Nd  Nd3  1  0.787077  0.028164  0.410910  1
  Nd  Nd4  1  0.365684  0.196981  0.817129  1
  Nd  Nd5  1  0.785430  0.640503  0.686297  1
  Nd  Nd6  1  0.645907  0.787622  0.188403  1
  Nd  Nd7  1  0.209751  0.350589  0.308927  1
  Nd  Nd8  1  0.575446  0.425405  0.751241  1
  Nd  Nd9  1  0.428200  0.578591  0.242765  1
  Pd  Pd10  1  0.184886  0.595039  0.570951  1
  Ru  Ru11  1  0.403290  0.822827  0.923051  1
  Ru  Ru12  1  0.821418  0.400455  0.427857  1
  Ru  Ru13  1  0.593494  0.183655  0.074282  1
