# generated using pymatgen
data_La2Ge2Os2C
_symmetry_space_group_name_H-M   'P 1'
_cell_length_a   6.09476706
_cell_length_b   6.09476680
_cell_length_c   7.23360705
_cell_angle_alpha   125.11990858
_cell_angle_beta   125.11990731
_cell_angle_gamma   40.89283353
_symmetry_Int_Tables_number   1
_chemical_formula_structural   La2Ge2Os2C
_chemical_formula_sum   'La2 Ge2 Os2 C1'
_cell_volume   138.84621845
_cell_formula_units_Z   1
loop_
 _symmetry_equiv_pos_site_id
 _symmetry_equiv_pos_as_xyz
  1  'x, y, z'
loop_
 _atom_site_type_symbol
 _atom_site_label
 _atom_site_symmetry_multiplicity
 _atom_site_fract_x
 _atom_site_fract_y
 _atom_site_fract_z
 _atom_site_occupancy
  La  La0  1  0.559593  0.559593  0.297829  1
  La  La1  1  0.440408  0.440408  0.702170  1
  Ge  Ge2  1  0.831215  0.831215  0.282555  1
  Ge  Ge3  1  0.168785  0.168785  0.717446  1
  Os  Os4  1  0.195175  0.195175  0.089508  1
  Os  Os5  1  0.804825  0.804825  0.910491  1
  C  C6  1  0.000000  0.000000  0.000000  1
