# generated using pymatgen
data_Tm2Co2Hg
_symmetry_space_group_name_H-M   'P 1'
_cell_length_a   7.12600627
_cell_length_b   7.12600676
_cell_length_c   3.81261800
_cell_angle_alpha   90.00000000
_cell_angle_beta   90.00000000
_cell_angle_gamma   149.40874553
_symmetry_Int_Tables_number   1
_chemical_formula_structural   Tm2Co2Hg
_chemical_formula_sum   'Tm2 Co2 Hg1'
_cell_volume   98.52733417
_cell_formula_units_Z   1
loop_
 _symmetry_equiv_pos_site_id
 _symmetry_equiv_pos_as_xyz
  1  'x, y, z'
loop_
 _atom_site_type_symbol
 _atom_site_label
 _atom_site_symmetry_multiplicity
 _atom_site_fract_x
 _atom_site_fract_y
 _atom_site_fract_z
 _atom_site_occupancy
  Tm  Tm0  1  0.638513  0.361489  0.500000  1
  Tm  Tm1  1  0.361489  0.638513  0.500000  1
  Co  Co2  1  0.794492  0.205510  0.000000  1
  Co  Co3  1  0.205510  0.794492  0.000000  1
  Hg  Hg4  1  0.000000  0.000000  0.000000  1
