# generated using pymatgen
data_CePr3(I3N)2
_symmetry_space_group_name_H-M   'P 1'
_cell_length_a   10.64714433
_cell_length_b   10.64714474
_cell_length_c   13.01511600
_cell_angle_alpha   126.04012217
_cell_angle_beta   126.04012378
_cell_angle_gamma   22.67840292
_symmetry_Int_Tables_number   1
_chemical_formula_structural   CePr3(I3N)2
_chemical_formula_sum   'Ce1 Pr3 I6 N2'
_cell_volume   455.05932115
_cell_formula_units_Z   1
loop_
 _symmetry_equiv_pos_site_id
 _symmetry_equiv_pos_as_xyz
  1  'x, y, z'
loop_
 _atom_site_type_symbol
 _atom_site_label
 _atom_site_symmetry_multiplicity
 _atom_site_fract_x
 _atom_site_fract_y
 _atom_site_fract_z
 _atom_site_occupancy
  Ce  Ce0  1  0.564831  0.564831  0.965146  1
  Pr  Pr1  1  0.430299  0.430299  0.037594  1
  Pr  Pr2  1  0.132057  0.132057  0.272884  1
  Pr  Pr3  1  0.869621  0.869621  0.726541  1
  I  I4  1  0.213553  0.213553  0.124038  1
  I  I5  1  0.968388  0.968388  0.256227  1
  I  I6  1  0.330970  0.330970  0.494991  1
  I  I7  1  0.669945  0.669945  0.503931  1
  I  I8  1  0.033238  0.033238  0.748581  1
  I  I9  1  0.783888  0.783888  0.871913  1
  N  N10  1  0.571085  0.571085  0.142539  1
  N  N11  1  0.432124  0.432124  0.855612  1
