# generated using pymatgen
data_Dy4Y2C2Br7
_symmetry_space_group_name_H-M   'P 1'
_cell_length_a   10.44843905
_cell_length_b   10.44843809
_cell_length_c   11.86878200
_cell_angle_alpha   57.47031831
_cell_angle_beta   57.47032167
_cell_angle_gamma   20.85509029
_symmetry_Int_Tables_number   1
_chemical_formula_structural   Dy4Y2C2Br7
_chemical_formula_sum   'Dy4 Y2 C2 Br7'
_cell_volume   386.22394507
_cell_formula_units_Z   1
loop_
 _symmetry_equiv_pos_site_id
 _symmetry_equiv_pos_as_xyz
  1  'x, y, z'
loop_
 _atom_site_type_symbol
 _atom_site_label
 _atom_site_symmetry_multiplicity
 _atom_site_fract_x
 _atom_site_fract_y
 _atom_site_fract_z
 _atom_site_occupancy
  Dy  Dy0  1  0.229632  0.229632  0.837998  1
  Dy  Dy1  1  0.313612  0.313612  0.364528  1
  Dy  Dy2  1  0.131304  0.131304  0.442381  1
  Dy  Dy3  1  0.868999  0.868999  0.557913  1
  Y  Y4  1  0.686467  0.686467  0.635482  1
  Y  Y5  1  0.770059  0.770059  0.162350  1
  C  C6  1  0.280295  0.280295  0.606780  1
  C  C7  1  0.720257  0.720257  0.394350  1
  Br  Br8  1  0.163113  0.163113  0.163363  1
  Br  Br9  1  0.836345  0.836345  0.836128  1
  Br  Br10  1  0.056843  0.056843  0.722160  1
  Br  Br11  1  0.943073  0.943073  0.278401  1
  Br  Br12  1  0.499984  0.499984  0.500193  1
  Br  Br13  1  0.391271  0.391271  0.063998  1
  Br  Br14  1  0.608745  0.608745  0.933978  1
