# generated using pymatgen
data_Gd2In4Te2WO18
_symmetry_space_group_name_H-M   'P 1'
_cell_length_a   9.08990207
_cell_length_b   9.08990464
_cell_length_c   5.08015545
_cell_angle_alpha   89.73033119
_cell_angle_beta   90.26964424
_cell_angle_gamma   119.76911554
_symmetry_Int_Tables_number   1
_chemical_formula_structural   Gd2In4Te2WO18
_chemical_formula_sum   'Gd2 In4 Te2 W1 O18'
_cell_volume   364.35559958
_cell_formula_units_Z   1
loop_
 _symmetry_equiv_pos_site_id
 _symmetry_equiv_pos_as_xyz
  1  'x, y, z'
loop_
 _atom_site_type_symbol
 _atom_site_label
 _atom_site_symmetry_multiplicity
 _atom_site_fract_x
 _atom_site_fract_y
 _atom_site_fract_z
 _atom_site_occupancy
  Gd  Gd0  1  0.623841  0.002346  0.000435  1
  Gd  Gd1  1  0.002347  0.623842  0.999564  1
  In  In2  1  0.370347  0.370347  0.000000  1
  In  In3  1  0.290360  0.999547  0.502221  1
  In  In4  1  0.999547  0.290360  0.497779  1
  In  In5  1  0.708414  0.708415  0.500000  1
  Te  Te6  1  0.334157  0.662302  0.504353  1
  Te  Te7  1  0.662302  0.334157  0.495646  1
  W  W8  1  0.001384  0.001385  0.000000  1
  O  O9  1  0.089109  0.886013  0.782760  1
  O  O10  1  0.119320  0.209284  0.788217  1
  O  O11  1  0.800983  0.916193  0.778636  1
  O  O12  1  0.209284  0.119321  0.211783  1
  O  O13  1  0.916194  0.800983  0.221365  1
  O  O14  1  0.886012  0.089109  0.217241  1
  O  O15  1  0.461347  0.587716  0.730788  1
  O  O16  1  0.401980  0.860802  0.725178  1
  O  O17  1  0.129655  0.534944  0.710068  1
  O  O18  1  0.860803  0.401981  0.274821  1
  O  O19  1  0.534944  0.129655  0.289931  1
  O  O20  1  0.587715  0.461347  0.269213  1
  O  O21  1  0.230648  0.765153  0.284928  1
  O  O22  1  0.237174  0.459968  0.276269  1
  O  O23  1  0.541420  0.775591  0.296464  1
  O  O24  1  0.459968  0.237174  0.723731  1
  O  O25  1  0.775591  0.541420  0.703536  1
  O  O26  1  0.765152  0.230647  0.715071  1
