# generated using pymatgen
data_Dy4YBi2Te
_symmetry_space_group_name_H-M   'P 1'
_cell_length_a   8.18309000
_cell_length_b   9.48182700
_cell_length_c   11.93245100
_cell_angle_alpha   90.00000000
_cell_angle_beta   90.00000000
_cell_angle_gamma   90.00000000
_symmetry_Int_Tables_number   1
_chemical_formula_structural   Dy4YBi2Te
_chemical_formula_sum   'Dy16 Y4 Bi8 Te4'
_cell_volume   925.84655407
_cell_formula_units_Z   4
loop_
 _symmetry_equiv_pos_site_id
 _symmetry_equiv_pos_as_xyz
  1  'x, y, z'
loop_
 _atom_site_type_symbol
 _atom_site_label
 _atom_site_symmetry_multiplicity
 _atom_site_fract_x
 _atom_site_fract_y
 _atom_site_fract_z
 _atom_site_occupancy
  Dy  Dy0  1  0.353578  0.750000  0.213281  1
  Dy  Dy1  1  0.853578  0.750000  0.286719  1
  Dy  Dy2  1  0.646422  0.250000  0.786719  1
  Dy  Dy3  1  0.146422  0.250000  0.713281  1
  Dy  Dy4  1  0.689928  0.562041  0.057358  1
  Dy  Dy5  1  0.189928  0.937959  0.442642  1
  Dy  Dy6  1  0.310072  0.062041  0.942642  1
  Dy  Dy7  1  0.810072  0.437959  0.557358  1
  Dy  Dy8  1  0.310072  0.437959  0.942642  1
  Dy  Dy9  1  0.810072  0.062041  0.557358  1
  Dy  Dy10  1  0.689928  0.937959  0.057358  1
  Dy  Dy11  1  0.189928  0.562041  0.442642  1
  Dy  Dy12  1  0.476448  0.250000  0.488645  1
  Dy  Dy13  1  0.976448  0.250000  0.011355  1
  Dy  Dy14  1  0.523552  0.750000  0.511355  1
  Dy  Dy15  1  0.023552  0.750000  0.988645  1
  Y  Y16  1  0.318305  0.250000  0.218205  1
  Y  Y17  1  0.818305  0.250000  0.281795  1
  Y  Y18  1  0.681695  0.750000  0.781795  1
  Y  Y19  1  0.181695  0.750000  0.718205  1
  Bi  Bi20  1  0.568383  0.995339  0.325417  1
  Bi  Bi21  1  0.068383  0.504661  0.174583  1
  Bi  Bi22  1  0.431617  0.495339  0.674583  1
  Bi  Bi23  1  0.931617  0.004661  0.825417  1
  Bi  Bi24  1  0.431617  0.004661  0.674583  1
  Bi  Bi25  1  0.931617  0.495339  0.825417  1
  Bi  Bi26  1  0.568383  0.504661  0.325417  1
  Bi  Bi27  1  0.068383  0.995339  0.174583  1
  Te  Te28  1  0.407662  0.750000  0.957975  1
  Te  Te29  1  0.907662  0.750000  0.542025  1
  Te  Te30  1  0.592338  0.250000  0.042025  1
  Te  Te31  1  0.092338  0.250000  0.457975  1
