# generated using pymatgen
data_TmSc6(NiSe)2
_symmetry_space_group_name_H-M   'P 1'
_cell_length_a   8.64916791
_cell_length_b   8.64594210
_cell_length_c   8.64594300
_cell_angle_alpha   155.63274248
_cell_angle_beta   67.01840124
_cell_angle_gamma   118.65161727
_symmetry_Int_Tables_number   1
_chemical_formula_structural   TmSc6(NiSe)2
_chemical_formula_sum   'Tm1 Sc6 Ni2 Se2'
_cell_volume   232.16575502
_cell_formula_units_Z   1
loop_
 _symmetry_equiv_pos_site_id
 _symmetry_equiv_pos_as_xyz
  1  'x, y, z'
loop_
 _atom_site_type_symbol
 _atom_site_label
 _atom_site_symmetry_multiplicity
 _atom_site_fract_x
 _atom_site_fract_y
 _atom_site_fract_z
 _atom_site_occupancy
  Tm  Tm0  1  0.609297  0.735250  0.874046  1
  Sc  Sc1  1  0.323684  0.323662  0.000021  1
  Sc  Sc2  1  0.862058  0.735565  0.126493  1
  Sc  Sc3  1  0.252597  0.936763  0.315834  1
  Sc  Sc4  1  0.946631  0.586945  0.359687  1
  Sc  Sc5  1  0.224946  0.584526  0.640420  1
  Sc  Sc6  1  0.628998  0.945058  0.683939  1
  Ni  Ni7  1  0.481476  0.247335  0.234142  1
  Ni  Ni8  1  0.007956  0.247276  0.760681  1
  Se  Se9  1  0.990373  0.988367  0.002006  1
  Se  Se10  1  0.577335  0.074604  0.502731  1
