# generated using pymatgen
data_TmLu2TcB7
_symmetry_space_group_name_H-M   'P 1'
_cell_length_a   7.91488700
_cell_length_b   7.91488790
_cell_length_c   9.23791500
_cell_angle_alpha   90.00000000
_cell_angle_beta   90.00000000
_cell_angle_gamma   154.57713147
_symmetry_Int_Tables_number   1
_chemical_formula_structural   TmLu2TcB7
_chemical_formula_sum   'Tm2 Lu4 Tc2 B14'
_cell_volume   248.43909310
_cell_formula_units_Z   2
loop_
 _symmetry_equiv_pos_site_id
 _symmetry_equiv_pos_as_xyz
  1  'x, y, z'
loop_
 _atom_site_type_symbol
 _atom_site_label
 _atom_site_symmetry_multiplicity
 _atom_site_fract_x
 _atom_site_fract_y
 _atom_site_fract_z
 _atom_site_occupancy
  Tm  Tm0  1  0.243461  0.756539  0.250000  1
  Tm  Tm1  1  0.756539  0.243461  0.750000  1
  Lu  Lu2  1  0.894750  0.105250  0.058682  1
  Lu  Lu3  1  0.105250  0.894750  0.558682  1
  Lu  Lu4  1  0.105250  0.894750  0.941318  1
  Lu  Lu5  1  0.894750  0.105250  0.441318  1
  Tc  Tc6  1  0.051823  0.948177  0.250000  1
  Tc  Tc7  1  0.948177  0.051823  0.750000  1
  B  B8  1  0.452910  0.547090  0.250000  1
  B  B9  1  0.547090  0.452910  0.750000  1
  B  B10  1  0.727544  0.272456  0.033498  1
  B  B11  1  0.272456  0.727544  0.533498  1
  B  B12  1  0.272456  0.727544  0.966502  1
  B  B13  1  0.727544  0.272456  0.466502  1
  B  B14  1  0.632165  0.367835  0.349496  1
  B  B15  1  0.367835  0.632165  0.849496  1
  B  B16  1  0.367835  0.632165  0.650504  1
  B  B17  1  0.632165  0.367835  0.150504  1
  B  B18  1  0.519453  0.480547  0.405246  1
  B  B19  1  0.480547  0.519453  0.905246  1
  B  B20  1  0.480547  0.519453  0.594754  1
  B  B21  1  0.519453  0.480547  0.094754  1
