# generated using pymatgen
data_Sc4MnInPt10
_symmetry_space_group_name_H-M   'P 1'
_cell_length_a   4.10962300
_cell_length_b   5.68172749
_cell_length_c   11.35561357
_cell_angle_alpha   86.66785445
_cell_angle_beta   90.00000000
_cell_angle_gamma   90.00000000
_symmetry_Int_Tables_number   1
_chemical_formula_structural   Sc4MnInPt10
_chemical_formula_sum   'Sc4 Mn1 In1 Pt10'
_cell_volume   264.70255466
_cell_formula_units_Z   1
loop_
 _symmetry_equiv_pos_site_id
 _symmetry_equiv_pos_as_xyz
  1  'x, y, z'
loop_
 _atom_site_type_symbol
 _atom_site_label
 _atom_site_symmetry_multiplicity
 _atom_site_fract_x
 _atom_site_fract_y
 _atom_site_fract_z
 _atom_site_occupancy
  Sc  Sc0  1  0.500000  0.734150  0.368508  1
  Sc  Sc1  1  0.500000  0.720556  0.858688  1
  Sc  Sc2  1  0.500000  0.279444  0.141312  1
  Sc  Sc3  1  0.500000  0.265850  0.631492  1
  Mn  Mn4  1  0.000000  0.000000  0.500000  1
  In  In5  1  0.000000  0.000000  0.000000  1
  Pt  Pt6  1  0.000000  0.006278  0.255527  1
  Pt  Pt7  1  0.000000  0.993722  0.744473  1
  Pt  Pt8  1  0.000000  0.500000  0.000000  1
  Pt  Pt9  1  0.000000  0.500000  0.500000  1
  Pt  Pt10  1  0.000000  0.507988  0.250230  1
  Pt  Pt11  1  0.000000  0.492012  0.749770  1
  Pt  Pt12  1  0.500000  0.233668  0.386414  1
  Pt  Pt13  1  0.500000  0.232578  0.880421  1
  Pt  Pt14  1  0.500000  0.767422  0.119579  1
  Pt  Pt15  1  0.500000  0.766332  0.613586  1
