# generated using pymatgen
data_TeAuCl8
_symmetry_space_group_name_H-M   'P 1'
_cell_length_a   7.81716303
_cell_length_b   8.89108201
_cell_length_c   10.31805464
_cell_angle_alpha   87.51965187
_cell_angle_beta   70.75457619
_cell_angle_gamma   82.50522709
_symmetry_Int_Tables_number   1
_chemical_formula_structural   TeAuCl8
_chemical_formula_sum   'Te2 Au2 Cl16'
_cell_volume   671.27492986
_cell_formula_units_Z   2
loop_
 _symmetry_equiv_pos_site_id
 _symmetry_equiv_pos_as_xyz
  1  'x, y, z'
loop_
 _atom_site_type_symbol
 _atom_site_label
 _atom_site_symmetry_multiplicity
 _atom_site_fract_x
 _atom_site_fract_y
 _atom_site_fract_z
 _atom_site_occupancy
  Te  Te0  1  0.626250  0.252323  0.722005  1
  Te  Te1  1  0.373750  0.747677  0.277995  1
  Au  Au2  1  0.005770  0.110063  0.312810  1
  Au  Au3  1  0.994230  0.889937  0.687190  1
  Cl  Cl4  1  0.284751  0.069524  0.357395  1
  Cl  Cl5  1  0.715249  0.930476  0.642605  1
  Cl  Cl6  1  0.919004  0.319353  0.458926  1
  Cl  Cl7  1  0.080996  0.680647  0.541074  1
  Cl  Cl8  1  0.086635  0.897357  0.171433  1
  Cl  Cl9  1  0.913365  0.102643  0.828567  1
  Cl  Cl10  1  0.742020  0.161579  0.257456  1
  Cl  Cl11  1  0.257980  0.838421  0.742544  1
  Cl  Cl12  1  0.397282  0.310013  0.619657  1
  Cl  Cl13  1  0.602718  0.689987  0.380343  1
  Cl  Cl14  1  0.641744  0.502360  0.781933  1
  Cl  Cl15  1  0.358256  0.497640  0.218067  1
  Cl  Cl16  1  0.418211  0.196356  0.936729  1
  Cl  Cl17  1  0.581789  0.803644  0.063271  1
  Cl  Cl18  1  0.931854  0.419700  0.060136  1
  Cl  Cl19  1  0.068146  0.580300  0.939864  1
