# generated using pymatgen
data_Nd8Si15Pt
_symmetry_space_group_name_H-M   'P 1'
_cell_length_a   8.22636400
_cell_length_b   8.22636382
_cell_length_c   8.44830900
_cell_angle_alpha   90.00000000
_cell_angle_beta   90.00000000
_cell_angle_gamma   120.00000071
_symmetry_Int_Tables_number   1
_chemical_formula_structural   Nd8Si15Pt
_chemical_formula_sum   'Nd8 Si15 Pt1'
_cell_volume   495.12659412
_cell_formula_units_Z   1
loop_
 _symmetry_equiv_pos_site_id
 _symmetry_equiv_pos_as_xyz
  1  'x, y, z'
loop_
 _atom_site_type_symbol
 _atom_site_label
 _atom_site_symmetry_multiplicity
 _atom_site_fract_x
 _atom_site_fract_y
 _atom_site_fract_z
 _atom_site_occupancy
  Nd  Nd0  1  0.000000  0.000000  0.748807  1
  Nd  Nd1  1  0.000000  0.000000  0.251351  1
  Nd  Nd2  1  0.497943  0.502057  0.744721  1
  Nd  Nd3  1  0.497943  0.995886  0.744721  1
  Nd  Nd4  1  0.004114  0.502057  0.744721  1
  Nd  Nd5  1  0.498782  0.501218  0.255302  1
  Nd  Nd6  1  0.002439  0.501218  0.255302  1
  Nd  Nd7  1  0.498782  0.997561  0.255302  1
  Si  Si8  1  0.832001  0.167999  0.000921  1
  Si  Si9  1  0.832001  0.664002  0.000921  1
  Si  Si10  1  0.335998  0.167999  0.000921  1
  Si  Si11  1  0.833624  0.166376  0.499729  1
  Si  Si12  1  0.833624  0.667250  0.499729  1
  Si  Si13  1  0.332750  0.166376  0.499729  1
  Si  Si14  1  0.166992  0.833008  0.500497  1
  Si  Si15  1  0.666017  0.833008  0.500497  1
  Si  Si16  1  0.166992  0.333983  0.500497  1
  Si  Si17  1  0.164756  0.835244  0.998774  1
  Si  Si18  1  0.670487  0.835244  0.998774  1
  Si  Si19  1  0.164756  0.329513  0.998774  1
  Si  Si20  1  0.666667  0.333333  0.501405  1
  Si  Si21  1  0.333333  0.666667  0.497722  1
  Si  Si22  1  0.333333  0.666667  0.003329  1
  Pt  Pt23  1  0.666667  0.333333  0.997554  1
