# generated using pymatgen
data_Zn22CoNiRh
_symmetry_space_group_name_H-M   'P 1'
_cell_length_a   7.72476146
_cell_length_b   7.72476374
_cell_length_c   7.72357160
_cell_angle_alpha   71.95528564
_cell_angle_beta   71.95528797
_cell_angle_gamma   57.69771799
_symmetry_Int_Tables_number   1
_chemical_formula_structural   Zn22CoNiRh
_chemical_formula_sum   'Zn22 Co1 Ni1 Rh1'
_cell_volume   364.38133861
_cell_formula_units_Z   1
loop_
 _symmetry_equiv_pos_site_id
 _symmetry_equiv_pos_as_xyz
  1  'x, y, z'
loop_
 _atom_site_type_symbol
 _atom_site_label
 _atom_site_symmetry_multiplicity
 _atom_site_fract_x
 _atom_site_fract_y
 _atom_site_fract_z
 _atom_site_occupancy
  Zn  Zn0  1  0.350777  0.735856  0.308112  1
  Zn  Zn1  1  0.650457  0.263625  0.690906  1
  Zn  Zn2  1  0.263625  0.650457  0.690906  1
  Zn  Zn3  1  0.735856  0.350777  0.308112  1
  Zn  Zn4  1  0.675548  0.325413  0.000386  1
  Zn  Zn5  1  0.325413  0.675548  0.000386  1
  Zn  Zn6  1  0.827125  0.827125  0.788587  1
  Zn  Zn7  1  0.171856  0.171856  0.211542  1
  Zn  Zn8  1  0.976519  0.976519  0.173770  1
  Zn  Zn9  1  0.022762  0.022762  0.827461  1
  Zn  Zn10  1  0.352038  0.352038  0.272274  1
  Zn  Zn11  1  0.648060  0.648060  0.728504  1
  Zn  Zn12  1  0.686530  0.686530  0.373711  1
  Zn  Zn13  1  0.313179  0.313179  0.625517  1
  Zn  Zn14  1  0.658260  0.025669  0.461667  1
  Zn  Zn15  1  0.340391  0.975936  0.538974  1
  Zn  Zn16  1  0.975936  0.340391  0.538974  1
  Zn  Zn17  1  0.025669  0.658260  0.461667  1
  Zn  Zn18  1  0.617206  0.998001  0.098112  1
  Zn  Zn19  1  0.383945  0.000719  0.901653  1
  Zn  Zn20  1  0.000719  0.383945  0.901653  1
  Zn  Zn21  1  0.998001  0.617206  0.098112  1
  Co  Co22  1  0.658141  0.658141  0.053263  1
  Ni  Ni23  1  0.342211  0.342211  0.945844  1
  Rh  Rh24  1  0.999774  0.999774  0.499910  1
