# generated using pymatgen
data_Ac2LaCoNiSn7
_symmetry_space_group_name_H-M   'P 1'
_cell_length_a   14.13419514
_cell_length_b   14.13419712
_cell_length_c   4.65248400
_cell_angle_alpha   90.00000000
_cell_angle_beta   90.00000000
_cell_angle_gamma   160.26678542
_symmetry_Int_Tables_number   1
_chemical_formula_structural   Ac2LaCoNiSn7
_chemical_formula_sum   'Ac2 La1 Co1 Ni1 Sn7'
_cell_volume   313.82118787
_cell_formula_units_Z   1
loop_
 _symmetry_equiv_pos_site_id
 _symmetry_equiv_pos_as_xyz
  1  'x, y, z'
loop_
 _atom_site_type_symbol
 _atom_site_label
 _atom_site_symmetry_multiplicity
 _atom_site_fract_x
 _atom_site_fract_y
 _atom_site_fract_z
 _atom_site_occupancy
  Ac  Ac0  1  0.184512  0.815488  0.000000  1
  Ac  Ac1  1  0.815970  0.184030  0.000000  1
  La  La2  1  0.499722  0.500278  0.500000  1
  Co  Co3  1  0.373668  0.626332  0.500000  1
  Ni  Ni4  1  0.626947  0.373053  0.500000  1
  Sn  Sn5  1  0.719181  0.280819  0.500000  1
  Sn  Sn6  1  0.281770  0.718230  0.500000  1
  Sn  Sn7  1  0.587144  0.412856  0.000000  1
  Sn  Sn8  1  0.999716  0.000284  0.000000  1
  Sn  Sn9  1  0.412586  0.587414  0.000000  1
  Sn  Sn10  1  0.911788  0.088212  0.500000  1
  Sn  Sn11  1  0.086997  0.913003  0.500000  1
