# generated using pymatgen
data_TmLu5(Si3Ru2)2
_symmetry_space_group_name_H-M   'P 1'
_cell_length_a   5.64281702
_cell_length_b   5.64281637
_cell_length_c   13.56289600
_cell_angle_alpha   90.00000000
_cell_angle_beta   90.00000000
_cell_angle_gamma   136.95119133
_symmetry_Int_Tables_number   1
_chemical_formula_structural   TmLu5(Si3Ru2)2
_chemical_formula_sum   'Tm1 Lu5 Si6 Ru4'
_cell_volume   294.79766927
_cell_formula_units_Z   1
loop_
 _symmetry_equiv_pos_site_id
 _symmetry_equiv_pos_as_xyz
  1  'x, y, z'
loop_
 _atom_site_type_symbol
 _atom_site_label
 _atom_site_symmetry_multiplicity
 _atom_site_fract_x
 _atom_site_fract_y
 _atom_site_fract_z
 _atom_site_occupancy
  Tm  Tm0  1  0.643531  0.356469  0.250000  1
  Lu  Lu1  1  0.924351  0.075649  0.385709  1
  Lu  Lu2  1  0.075635  0.924365  0.614359  1
  Lu  Lu3  1  0.924351  0.075649  0.114291  1
  Lu  Lu4  1  0.075635  0.924365  0.885641  1
  Lu  Lu5  1  0.356050  0.643950  0.750000  1
  Si  Si6  1  0.614626  0.385374  0.461790  1
  Si  Si7  1  0.385329  0.614671  0.538478  1
  Si  Si8  1  0.614626  0.385374  0.038210  1
  Si  Si9  1  0.385329  0.614671  0.961522  1
  Si  Si10  1  0.333500  0.666500  0.250000  1
  Si  Si11  1  0.666881  0.333119  0.750000  1
  Ru  Ru12  1  0.787571  0.212429  0.917854  1
  Ru  Ru13  1  0.212506  0.787494  0.081811  1
  Ru  Ru14  1  0.787571  0.212429  0.582146  1
  Ru  Ru15  1  0.212506  0.787494  0.418189  1
