# generated using pymatgen
data_Ba6Co4SbO15
_symmetry_space_group_name_H-M   'P 1'
_cell_length_a   7.25958161
_cell_length_b   7.25958140
_cell_length_c   7.25958000
_cell_angle_alpha   87.87706468
_cell_angle_beta   87.87707264
_cell_angle_gamma   87.87706485
_symmetry_Int_Tables_number   1
_chemical_formula_structural   Ba6Co4SbO15
_chemical_formula_sum   'Ba6 Co4 Sb1 O15'
_cell_volume   381.82209549
_cell_formula_units_Z   1
loop_
 _symmetry_equiv_pos_site_id
 _symmetry_equiv_pos_as_xyz
  1  'x, y, z'
loop_
 _atom_site_type_symbol
 _atom_site_label
 _atom_site_symmetry_multiplicity
 _atom_site_fract_x
 _atom_site_fract_y
 _atom_site_fract_z
 _atom_site_occupancy
  Ba  Ba0  1  0.500000  0.865796  0.134204  1
  Ba  Ba1  1  0.134204  0.500000  0.865796  1
  Ba  Ba2  1  0.865796  0.134204  0.500000  1
  Ba  Ba3  1  0.000000  0.673735  0.326265  1
  Ba  Ba4  1  0.326265  0.000000  0.673735  1
  Ba  Ba5  1  0.673735  0.326265  0.000000  1
  Co  Co6  1  0.711360  0.711360  0.711360  1
  Co  Co7  1  0.288640  0.288640  0.288640  1
  Co  Co8  1  0.907752  0.907752  0.907752  1
  Co  Co9  1  0.092248  0.092248  0.092248  1
  Sb  Sb10  1  0.500000  0.500000  0.500000  1
  O  O11  1  0.375761  0.541874  0.250514  1
  O  O12  1  0.250514  0.375761  0.541874  1
  O  O13  1  0.541874  0.250514  0.375761  1
  O  O14  1  0.624239  0.749486  0.458126  1
  O  O15  1  0.458126  0.624239  0.749486  1
  O  O16  1  0.749486  0.458126  0.624239  1
  O  O17  1  0.199571  0.037502  0.330684  1
  O  O18  1  0.330684  0.199571  0.037502  1
  O  O19  1  0.037502  0.330684  0.199571  1
  O  O20  1  0.800429  0.669316  0.962498  1
  O  O21  1  0.962498  0.800429  0.669316  1
  O  O22  1  0.148115  0.851885  0.000000  1
  O  O23  1  0.851885  0.000000  0.148115  1
  O  O24  1  0.000000  0.148115  0.851885  1
  O  O25  1  0.669316  0.962498  0.800429  1
