# generated using pymatgen
data_Ho8Lu12Bi11Sb
_symmetry_space_group_name_H-M   'P 1'
_cell_length_a   8.12305643
_cell_length_b   9.37605300
_cell_length_c   11.82963700
_cell_angle_alpha   90.00000000
_cell_angle_beta   89.96604457
_cell_angle_gamma   90.00000000
_symmetry_Int_Tables_number   1
_chemical_formula_structural   Ho8Lu12Bi11Sb
_chemical_formula_sum   'Ho8 Lu12 Bi11 Sb1'
_cell_volume   900.97111053
_cell_formula_units_Z   1
loop_
 _symmetry_equiv_pos_site_id
 _symmetry_equiv_pos_as_xyz
  1  'x, y, z'
loop_
 _atom_site_type_symbol
 _atom_site_label
 _atom_site_symmetry_multiplicity
 _atom_site_fract_x
 _atom_site_fract_y
 _atom_site_fract_z
 _atom_site_occupancy
  Ho  Ho0  1  0.354794  0.250000  0.285806  1
  Ho  Ho1  1  0.646405  0.750000  0.717104  1
  Ho  Ho2  1  0.146294  0.750000  0.782086  1
  Ho  Ho3  1  0.853861  0.250000  0.217551  1
  Ho  Ho4  1  0.188986  0.250000  0.779831  1
  Ho  Ho5  1  0.812864  0.750000  0.218046  1
  Ho  Ho6  1  0.313120  0.750000  0.282213  1
  Ho  Ho7  1  0.682015  0.250000  0.715126  1
  Lu  Lu8  1  0.026738  0.250000  0.511003  1
  Lu  Lu9  1  0.977762  0.750000  0.489671  1
  Lu  Lu10  1  0.476495  0.750000  0.011331  1
  Lu  Lu11  1  0.524106  0.250000  0.988651  1
  Lu  Lu12  1  0.192856  0.066578  0.059411  1
  Lu  Lu13  1  0.807282  0.933836  0.940860  1
  Lu  Lu14  1  0.308769  0.937571  0.558726  1
  Lu  Lu15  1  0.807282  0.566164  0.940860  1
  Lu  Lu16  1  0.689641  0.068776  0.442604  1
  Lu  Lu17  1  0.192856  0.433422  0.059411  1
  Lu  Lu18  1  0.689641  0.431224  0.442604  1
  Lu  Lu19  1  0.308769  0.562429  0.558726  1
  Bi  Bi20  1  0.596803  0.750000  0.456898  1
  Bi  Bi21  1  0.096082  0.750000  0.042650  1
  Bi  Bi22  1  0.904920  0.250000  0.956173  1
  Bi  Bi23  1  0.065850  0.003744  0.326990  1
  Bi  Bi24  1  0.933428  0.996718  0.673227  1
  Bi  Bi25  1  0.433828  0.995807  0.826810  1
  Bi  Bi26  1  0.933428  0.503282  0.673227  1
  Bi  Bi27  1  0.566150  0.004179  0.173399  1
  Bi  Bi28  1  0.065850  0.496256  0.326990  1
  Bi  Bi29  1  0.566150  0.495821  0.173399  1
  Bi  Bi30  1  0.433828  0.504193  0.826810  1
  Sb  Sb31  1  0.403151  0.250000  0.541806  1
