# generated using pymatgen
data_CaTm(NiAs)2
_symmetry_space_group_name_H-M   'P 1'
_cell_length_a   4.02524500
_cell_length_b   4.02524438
_cell_length_c   16.07180400
_cell_angle_alpha   90.00000000
_cell_angle_beta   90.00000000
_cell_angle_gamma   119.99999687
_symmetry_Int_Tables_number   1
_chemical_formula_structural   CaTm(NiAs)2
_chemical_formula_sum   'Ca2 Tm2 Ni4 As4'
_cell_volume   225.51729019
_cell_formula_units_Z   2
loop_
 _symmetry_equiv_pos_site_id
 _symmetry_equiv_pos_as_xyz
  1  'x, y, z'
loop_
 _atom_site_type_symbol
 _atom_site_label
 _atom_site_symmetry_multiplicity
 _atom_site_fract_x
 _atom_site_fract_y
 _atom_site_fract_z
 _atom_site_occupancy
  Ca  Ca0  1  0.000000  0.000000  0.000000  1
  Ca  Ca1  1  0.000000  0.000000  0.500000  1
  Tm  Tm2  1  0.000000  0.000000  0.250000  1
  Tm  Tm3  1  0.000000  0.000000  0.750000  1
  Ni  Ni4  1  0.333333  0.666667  0.138623  1
  Ni  Ni5  1  0.666667  0.333333  0.861377  1
  Ni  Ni6  1  0.666667  0.333333  0.638623  1
  Ni  Ni7  1  0.333333  0.666667  0.361377  1
  As  As8  1  0.333333  0.666667  0.626916  1
  As  As9  1  0.666667  0.333333  0.373084  1
  As  As10  1  0.666667  0.333333  0.126916  1
  As  As11  1  0.333333  0.666667  0.873084  1
