# generated using pymatgen
data_DyTm9Si5Sb
_symmetry_space_group_name_H-M   'P 1'
_cell_length_a   8.43416536
_cell_length_b   8.43416387
_cell_length_c   6.24529800
_cell_angle_alpha   90.00000000
_cell_angle_beta   90.00000000
_cell_angle_gamma   120.23974802
_symmetry_Int_Tables_number   1
_chemical_formula_structural   DyTm9Si5Sb
_chemical_formula_sum   'Dy1 Tm9 Si5 Sb1'
_cell_volume   383.80768967
_cell_formula_units_Z   1
loop_
 _symmetry_equiv_pos_site_id
 _symmetry_equiv_pos_as_xyz
  1  'x, y, z'
loop_
 _atom_site_type_symbol
 _atom_site_label
 _atom_site_symmetry_multiplicity
 _atom_site_fract_x
 _atom_site_fract_y
 _atom_site_fract_z
 _atom_site_occupancy
  Dy  Dy0  1  0.240550  0.240550  0.750000  1
  Tm  Tm1  1  0.674808  0.331482  0.503618  1
  Tm  Tm2  1  0.331482  0.674808  0.503618  1
  Tm  Tm3  1  0.331482  0.674808  0.996382  1
  Tm  Tm4  1  0.674808  0.331482  0.996382  1
  Tm  Tm5  1  0.766013  0.766013  0.250000  1
  Tm  Tm6  1  0.239768  0.987148  0.250000  1
  Tm  Tm7  1  0.987148  0.239768  0.250000  1
  Tm  Tm8  1  0.755885  0.999197  0.750000  1
  Tm  Tm9  1  0.999197  0.755885  0.750000  1
  Si  Si10  1  0.604343  0.998950  0.250000  1
  Si  Si11  1  0.998950  0.604343  0.250000  1
  Si  Si12  1  0.607210  0.607210  0.750000  1
  Si  Si13  1  0.393783  0.001887  0.750000  1
  Si  Si14  1  0.001887  0.393783  0.750000  1
  Sb  Sb15  1  0.392684  0.392684  0.250000  1
