# generated using pymatgen
data_Sc6Co3Sn6HgIrPt
_symmetry_space_group_name_H-M   'P 1'
_cell_length_a   7.52235500
_cell_length_b   7.52235553
_cell_length_c   6.93578200
_cell_angle_alpha   90.00000000
_cell_angle_beta   90.00000000
_cell_angle_gamma   119.99998449
_symmetry_Int_Tables_number   1
_chemical_formula_structural   Sc6Co3Sn6HgIrPt
_chemical_formula_sum   'Sc6 Co3 Sn6 Hg1 Ir1 Pt1'
_cell_volume   339.88642117
_cell_formula_units_Z   1
loop_
 _symmetry_equiv_pos_site_id
 _symmetry_equiv_pos_as_xyz
  1  'x, y, z'
loop_
 _atom_site_type_symbol
 _atom_site_label
 _atom_site_symmetry_multiplicity
 _atom_site_fract_x
 _atom_site_fract_y
 _atom_site_fract_z
 _atom_site_occupancy
  Sc  Sc0  1  0.381224  0.975235  0.259034  1
  Sc  Sc1  1  0.594011  0.618776  0.259034  1
  Sc  Sc2  1  0.024765  0.405989  0.259034  1
  Sc  Sc3  1  0.379853  0.972953  0.740987  1
  Sc  Sc4  1  0.593100  0.620147  0.740987  1
  Sc  Sc5  1  0.027047  0.406900  0.740987  1
  Co  Co6  1  0.000000  0.000000  0.727378  1
  Co  Co7  1  0.000000  0.000000  0.273286  1
  Co  Co8  1  0.333333  0.666667  0.498501  1
  Sn  Sn9  1  0.247001  0.249772  0.000438  1
  Sn  Sn10  1  0.002770  0.752999  0.000438  1
  Sn  Sn11  1  0.996106  0.723957  0.500093  1
  Sn  Sn12  1  0.727851  0.003894  0.500093  1
  Sn  Sn13  1  0.276043  0.272149  0.500093  1
  Sn  Sn14  1  0.750228  0.997230  0.000438  1
  Hg  Hg15  1  0.666667  0.333333  0.995403  1
  Ir  Ir16  1  0.333333  0.666667  0.001564  1
  Pt  Pt17  1  0.666667  0.333333  0.502213  1
