# generated using pymatgen
data_Zr5CuBi2Pb
_symmetry_space_group_name_H-M   'P 1'
_cell_length_a   8.82652909
_cell_length_b   8.82652988
_cell_length_c   5.93445400
_cell_angle_alpha   90.00000000
_cell_angle_beta   90.00000000
_cell_angle_gamma   119.98401225
_symmetry_Int_Tables_number   1
_chemical_formula_structural   Zr5CuBi2Pb
_chemical_formula_sum   'Zr10 Cu2 Bi4 Pb2'
_cell_volume   400.46198482
_cell_formula_units_Z   2
loop_
 _symmetry_equiv_pos_site_id
 _symmetry_equiv_pos_as_xyz
  1  'x, y, z'
loop_
 _atom_site_type_symbol
 _atom_site_label
 _atom_site_symmetry_multiplicity
 _atom_site_fract_x
 _atom_site_fract_y
 _atom_site_fract_z
 _atom_site_occupancy
  Zr  Zr0  1  0.666576  0.333049  0.500883  1
  Zr  Zr1  1  0.333049  0.666576  0.500883  1
  Zr  Zr2  1  0.333049  0.666576  0.999117  1
  Zr  Zr3  1  0.666576  0.333049  0.999117  1
  Zr  Zr4  1  0.740840  0.740840  0.250000  1
  Zr  Zr5  1  0.258378  0.999933  0.250000  1
  Zr  Zr6  1  0.999933  0.258378  0.250000  1
  Zr  Zr7  1  0.258456  0.258456  0.750000  1
  Zr  Zr8  1  0.741779  0.001641  0.750000  1
  Zr  Zr9  1  0.001641  0.741779  0.750000  1
  Cu  Cu10  1  0.000398  0.000398  0.501060  1
  Cu  Cu11  1  0.000398  0.000398  0.998940  1
  Bi  Bi12  1  0.386121  0.386121  0.250000  1
  Bi  Bi13  1  0.612660  0.000156  0.250000  1
  Bi  Bi14  1  0.000156  0.612660  0.250000  1
  Bi  Bi15  1  0.613742  0.613742  0.750000  1
  Pb  Pb16  1  0.386178  0.000069  0.750000  1
  Pb  Pb17  1  0.000069  0.386178  0.750000  1
