# generated using pymatgen
data_Sr2Pr2Pt6O18F
_symmetry_space_group_name_H-M   'P 1'
_cell_length_a   7.96676970
_cell_length_b   7.96676928
_cell_length_c   7.98396997
_cell_angle_alpha   109.50849849
_cell_angle_beta   109.61717819
_cell_angle_gamma   109.20041049
_symmetry_Int_Tables_number   1
_chemical_formula_structural   Sr2Pr2Pt6O18F
_chemical_formula_sum   'Sr2 Pr2 Pt6 O18 F1'
_cell_volume   390.50389193
_cell_formula_units_Z   1
loop_
 _symmetry_equiv_pos_site_id
 _symmetry_equiv_pos_as_xyz
  1  'x, y, z'
loop_
 _atom_site_type_symbol
 _atom_site_label
 _atom_site_symmetry_multiplicity
 _atom_site_fract_x
 _atom_site_fract_y
 _atom_site_fract_z
 _atom_site_occupancy
  Sr  Sr0  1  0.000531  0.337684  0.999769  1
  Sr  Sr1  1  0.337915  0.000763  0.000231  1
  Pr  Pr2  1  0.998404  0.999191  0.345277  1
  Pr  Pr3  1  0.653914  0.653127  0.654723  1
  Pt  Pt4  1  0.499876  0.658809  0.158475  1
  Pt  Pt5  1  0.342827  0.842827  0.500000  1
  Pt  Pt6  1  0.842374  0.502165  0.341899  1
  Pt  Pt7  1  0.500334  0.341401  0.841525  1
  Pt  Pt8  1  0.160266  0.500475  0.658101  1
  Pt  Pt9  1  0.660127  0.160127  0.500000  1
  O  O10  1  0.651814  0.960339  0.261360  1
  O  O11  1  0.390898  0.739611  0.698576  1
  O  O12  1  0.687566  0.303103  0.042214  1
  O  O13  1  0.698979  0.390454  0.738640  1
  O  O14  1  0.041034  0.692322  0.301424  1
  O  O15  1  0.260890  0.645353  0.957786  1
  O  O16  1  0.290374  0.040882  0.676954  1
  O  O17  1  0.962031  0.252269  0.637783  1
  O  O18  1  0.748276  0.710621  0.393223  1
  O  O19  1  0.363928  0.613420  0.323046  1
  O  O20  1  0.614486  0.324248  0.362217  1
  O  O21  1  0.317398  0.355053  0.606777  1
  O  O22  1  0.657298  0.657298  0.000000  1
  O  O23  1  0.654961  0.998548  0.652922  1
  O  O24  1  0.000108  0.343755  0.346431  1
  O  O25  1  0.345626  0.002039  0.347078  1
  O  O26  1  0.997324  0.653677  0.653569  1
  O  O27  1  0.348521  0.348521  0.000000  1
  F  F28  1  0.971918  0.971918  0.000000  1
