# generated using pymatgen
data_Tm16Al4IrPd3
_symmetry_space_group_name_H-M   'P 1'
_cell_length_a   9.37628835
_cell_length_b   9.41875782
_cell_length_c   9.37628700
_cell_angle_alpha   60.14904700
_cell_angle_beta   60.00000122
_cell_angle_gamma   60.14904255
_symmetry_Int_Tables_number   1
_chemical_formula_structural   Tm16Al4IrPd3
_chemical_formula_sum   'Tm16 Al4 Ir1 Pd3'
_cell_volume   586.83391035
_cell_formula_units_Z   1
loop_
 _symmetry_equiv_pos_site_id
 _symmetry_equiv_pos_as_xyz
  1  'x, y, z'
loop_
 _atom_site_type_symbol
 _atom_site_label
 _atom_site_symmetry_multiplicity
 _atom_site_fract_x
 _atom_site_fract_y
 _atom_site_fract_z
 _atom_site_occupancy
  Tm  Tm0  1  0.108126  0.675623  0.108126  1
  Tm  Tm1  1  0.941769  0.944441  0.556895  1
  Tm  Tm2  1  0.941603  0.555182  0.941603  1
  Tm  Tm3  1  0.314904  0.686240  0.314904  1
  Tm  Tm4  1  0.941603  0.555182  0.561611  1
  Tm  Tm5  1  0.311172  0.317725  0.685551  1
  Tm  Tm6  1  0.103295  0.108412  0.103295  1
  Tm  Tm7  1  0.561611  0.555182  0.941603  1
  Tm  Tm8  1  0.103295  0.108412  0.684999  1
  Tm  Tm9  1  0.685551  0.317725  0.685551  1
  Tm  Tm10  1  0.683953  0.686240  0.314904  1
  Tm  Tm11  1  0.685551  0.317725  0.311172  1
  Tm  Tm12  1  0.314904  0.686240  0.683953  1
  Tm  Tm13  1  0.556895  0.944441  0.556895  1
  Tm  Tm14  1  0.684999  0.108412  0.103295  1
  Tm  Tm15  1  0.556895  0.944441  0.941769  1
  Al  Al16  1  0.329137  0.326861  0.329137  1
  Al  Al17  1  0.014865  0.326861  0.329137  1
  Al  Al18  1  0.328367  0.014898  0.328367  1
  Al  Al19  1  0.329137  0.326861  0.014865  1
  Ir  Ir20  1  0.893833  0.318503  0.893833  1
  Pd  Pd21  1  0.896490  0.891464  0.896490  1
  Pd  Pd22  1  0.896490  0.891464  0.315555  1
  Pd  Pd23  1  0.315555  0.891464  0.896490  1
