# generated using pymatgen
data_Dy9Sc(Ga2Pb)2
_symmetry_space_group_name_H-M   'P 1'
_cell_length_a   8.71646598
_cell_length_b   8.71652181
_cell_length_c   8.71647600
_cell_angle_alpha   125.25093662
_cell_angle_beta   125.25039106
_cell_angle_gamma   81.12295996
_symmetry_Int_Tables_number   1
_chemical_formula_structural   Dy9Sc(Ga2Pb)2
_chemical_formula_sum   'Dy9 Sc1 Ga4 Pb2'
_cell_volume   425.48399161
_cell_formula_units_Z   1
loop_
 _symmetry_equiv_pos_site_id
 _symmetry_equiv_pos_as_xyz
  1  'x, y, z'
loop_
 _atom_site_type_symbol
 _atom_site_label
 _atom_site_symmetry_multiplicity
 _atom_site_fract_x
 _atom_site_fract_y
 _atom_site_fract_z
 _atom_site_occupancy
  Dy  Dy0  1  0.000000  0.000000  0.000000  1
  Dy  Dy1  1  0.299353  0.794881  0.810517  1
  Dy  Dy2  1  0.794877  0.984369  0.495539  1
  Dy  Dy3  1  0.488815  0.299323  0.504449  1
  Dy  Dy4  1  0.205123  0.015631  0.504461  1
  Dy  Dy5  1  0.511185  0.700677  0.495551  1
  Dy  Dy6  1  0.015641  0.511190  0.810509  1
  Dy  Dy7  1  0.700647  0.205119  0.189483  1
  Dy  Dy8  1  0.984359  0.488810  0.189491  1
  Sc  Sc9  1  0.500000  0.500000  0.000000  1
  Ga  Ga10  1  0.356866  0.850963  0.207825  1
  Ga  Ga11  1  0.850963  0.643138  0.494096  1
  Ga  Ga12  1  0.149037  0.356862  0.505904  1
  Ga  Ga13  1  0.643134  0.149037  0.792175  1
  Pb  Pb14  1  0.747302  0.746911  0.999799  1
  Pb  Pb15  1  0.252698  0.253089  0.000201  1
