# generated using pymatgen
data_Tb12Co4SnIr
_symmetry_space_group_name_H-M   'P 1'
_cell_length_a   8.32856364
_cell_length_b   8.32856294
_cell_length_c   8.32856344
_cell_angle_alpha   111.57853148
_cell_angle_beta   110.11336773
_cell_angle_gamma   106.75889738
_symmetry_Int_Tables_number   1
_chemical_formula_structural   Tb12Co4SnIr
_chemical_formula_sum   'Tb12 Co4 Sn1 Ir1'
_cell_volume   443.90242741
_cell_formula_units_Z   1
loop_
 _symmetry_equiv_pos_site_id
 _symmetry_equiv_pos_as_xyz
  1  'x, y, z'
loop_
 _atom_site_type_symbol
 _atom_site_label
 _atom_site_symmetry_multiplicity
 _atom_site_fract_x
 _atom_site_fract_y
 _atom_site_fract_z
 _atom_site_occupancy
  Tb  Tb0  1  0.410277  0.218603  0.191675  1
  Tb  Tb1  1  0.589723  0.781397  0.808325  1
  Tb  Tb2  1  0.026928  0.218603  0.808325  1
  Tb  Tb3  1  0.973072  0.781397  0.191675  1
  Tb  Tb4  1  0.180998  0.286042  0.467040  1
  Tb  Tb5  1  0.819002  0.713958  0.532960  1
  Tb  Tb6  1  0.180998  0.713958  0.894955  1
  Tb  Tb7  1  0.819002  0.286042  0.105045  1
  Tb  Tb8  1  0.321912  0.633313  0.311402  1
  Tb  Tb9  1  0.678088  0.366687  0.688598  1
  Tb  Tb10  1  0.321912  0.010509  0.688598  1
  Tb  Tb11  1  0.678088  0.989491  0.311402  1
  Co  Co12  1  0.357752  0.000000  0.357752  1
  Co  Co13  1  0.642248  0.000000  0.642248  1
  Co  Co14  1  0.112968  0.612968  0.500000  1
  Co  Co15  1  0.887032  0.387032  0.500000  1
  Sn  Sn16  1  0.500000  0.500000  0.000000  1
  Ir  Ir17  1  0.000000  0.000000  0.000000  1
