# generated using pymatgen
data_Tb10Co3SiTe4
_symmetry_space_group_name_H-M   'P 1'
_cell_length_a   7.79786100
_cell_length_b   7.79786018
_cell_length_c   15.09160100
_cell_angle_alpha   90.00000000
_cell_angle_beta   90.00000000
_cell_angle_gamma   150.48807966
_symmetry_Int_Tables_number   1
_chemical_formula_structural   Tb10Co3SiTe4
_chemical_formula_sum   'Tb10 Co3 Si1 Te4'
_cell_volume   452.04818931
_cell_formula_units_Z   1
loop_
 _symmetry_equiv_pos_site_id
 _symmetry_equiv_pos_as_xyz
  1  'x, y, z'
loop_
 _atom_site_type_symbol
 _atom_site_label
 _atom_site_symmetry_multiplicity
 _atom_site_fract_x
 _atom_site_fract_y
 _atom_site_fract_z
 _atom_site_occupancy
  Tb  Tb0  1  0.961175  0.038825  0.373617  1
  Tb  Tb1  1  0.037165  0.962835  0.617653  1
  Tb  Tb2  1  0.037165  0.962835  0.882347  1
  Tb  Tb3  1  0.961175  0.038825  0.126383  1
  Tb  Tb4  1  0.742597  0.257403  0.632748  1
  Tb  Tb5  1  0.259022  0.740978  0.369115  1
  Tb  Tb6  1  0.259022  0.740978  0.130885  1
  Tb  Tb7  1  0.742597  0.257403  0.867252  1
  Tb  Tb8  1  0.392195  0.607805  0.750000  1
  Tb  Tb9  1  0.606701  0.393299  0.250000  1
  Co  Co10  1  0.818481  0.181519  0.250000  1
  Co  Co11  1  0.181474  0.818526  0.750000  1
  Co  Co12  1  0.411085  0.588915  0.250000  1
  Si  Si13  1  0.587944  0.412056  0.750000  1
  Te  Te14  1  0.617164  0.382836  0.036626  1
  Te  Te15  1  0.383937  0.616063  0.961007  1
  Te  Te16  1  0.383937  0.616063  0.538993  1
  Te  Te17  1  0.617164  0.382836  0.463374  1
