# generated using pymatgen
data_Tb5SmCoBr10
_symmetry_space_group_name_H-M   'P 1'
_cell_length_a   7.39448149
_cell_length_b   9.14280329
_cell_length_c   9.30316115
_cell_angle_alpha   108.36638627
_cell_angle_beta   97.11247546
_cell_angle_gamma   105.10283675
_symmetry_Int_Tables_number   1
_chemical_formula_structural   Tb5SmCoBr10
_chemical_formula_sum   'Tb5 Sm1 Co1 Br10'
_cell_volume   561.55542564
_cell_formula_units_Z   1
loop_
 _symmetry_equiv_pos_site_id
 _symmetry_equiv_pos_as_xyz
  1  'x, y, z'
loop_
 _atom_site_type_symbol
 _atom_site_label
 _atom_site_symmetry_multiplicity
 _atom_site_fract_x
 _atom_site_fract_y
 _atom_site_fract_z
 _atom_site_occupancy
  Tb  Tb0  1  0.970163  0.283598  0.588024  1
  Tb  Tb1  1  0.877744  0.954323  0.744247  1
  Tb  Tb2  1  0.123058  0.045782  0.256006  1
  Tb  Tb3  1  0.357972  0.134618  0.678505  1
  Tb  Tb4  1  0.642079  0.867210  0.321817  1
  Sm  Sm5  1  0.029989  0.712178  0.410917  1
  Co  Co6  1  0.000454  0.999621  0.500016  1
  Br  Br7  1  0.456375  0.822995  0.585078  1
  Br  Br8  1  0.547846  0.179611  0.417734  1
  Br  Br9  1  0.912689  0.629564  0.675481  1
  Br  Br10  1  0.085493  0.367096  0.328766  1
  Br  Br11  1  0.251847  0.085228  0.956795  1
  Br  Br12  1  0.748581  0.915303  0.043088  1
  Br  Br13  1  0.350639  0.454390  0.771424  1
  Br  Br14  1  0.641170  0.545311  0.225969  1
  Br  Br15  1  0.788211  0.257830  0.845407  1
  Br  Br16  1  0.215690  0.745341  0.150726  1
