# generated using pymatgen
data_YbPr3(Si5Pt3)2
_symmetry_space_group_name_H-M   'P 1'
_cell_length_a   8.26263366
_cell_length_b   8.28870531
_cell_length_c   8.28870515
_cell_angle_alpha   136.79896825
_cell_angle_beta   105.24725818
_cell_angle_gamma   90.51073428
_symmetry_Int_Tables_number   1
_chemical_formula_structural   YbPr3(Si5Pt3)2
_chemical_formula_sum   'Yb1 Pr3 Si10 Pt6'
_cell_volume   357.20702494
_cell_formula_units_Z   1
loop_
 _symmetry_equiv_pos_site_id
 _symmetry_equiv_pos_as_xyz
  1  'x, y, z'
loop_
 _atom_site_type_symbol
 _atom_site_label
 _atom_site_symmetry_multiplicity
 _atom_site_fract_x
 _atom_site_fract_y
 _atom_site_fract_z
 _atom_site_occupancy
  Yb  Yb0  1  0.861960  0.628128  0.233832  1
  Pr  Pr1  1  0.138898  0.371739  0.767159  1
  Pr  Pr2  1  0.394835  0.127755  0.267080  1
  Pr  Pr3  1  0.605731  0.872317  0.733415  1
  Si  Si4  1  0.501074  0.749317  0.250451  1
  Si  Si5  1  0.501074  0.250623  0.751757  1
  Si  Si6  1  0.228262  0.979488  0.748989  1
  Si  Si7  1  0.771748  0.521507  0.752196  1
  Si  Si8  1  0.771748  0.019552  0.250241  1
  Si  Si9  1  0.228262  0.479273  0.248774  1
  Si  Si10  1  0.034319  0.885891  0.148427  1
  Si  Si11  1  0.962492  0.112579  0.849913  1
  Si  Si12  1  0.739148  0.388885  0.350264  1
  Si  Si13  1  0.261777  0.612533  0.649245  1
  Pt  Pt14  1  0.000125  0.750003  0.748917  1
  Pt  Pt15  1  0.000125  0.251208  0.250122  1
  Pt  Pt16  1  0.249554  0.861608  0.387947  1
  Pt  Pt17  1  0.747135  0.136251  0.610883  1
  Pt  Pt18  1  0.475903  0.365104  0.110799  1
  Pt  Pt19  1  0.525829  0.636240  0.889589  1
