# generated using pymatgen
data_Dy2Lu3In(GaNi2)6
_symmetry_space_group_name_H-M   'P 1'
_cell_length_a   5.14460000
_cell_length_b   5.14459925
_cell_length_c   15.70503700
_cell_angle_alpha   90.00000000
_cell_angle_beta   90.00000000
_cell_angle_gamma   119.99999198
_symmetry_Int_Tables_number   1
_chemical_formula_structural   Dy2Lu3In(GaNi2)6
_chemical_formula_sum   'Dy2 Lu3 In1 Ga6 Ni12'
_cell_volume   359.97537591
_cell_formula_units_Z   1
loop_
 _symmetry_equiv_pos_site_id
 _symmetry_equiv_pos_as_xyz
  1  'x, y, z'
loop_
 _atom_site_type_symbol
 _atom_site_label
 _atom_site_symmetry_multiplicity
 _atom_site_fract_x
 _atom_site_fract_y
 _atom_site_fract_z
 _atom_site_occupancy
  Dy  Dy0  1  0.333333  0.666667  0.735014  1
  Dy  Dy1  1  0.666667  0.333333  0.252684  1
  Lu  Lu2  1  0.666667  0.333333  0.464225  1
  Lu  Lu3  1  0.666667  0.333333  0.042764  1
  Lu  Lu4  1  0.333333  0.666667  0.954148  1
  In  In5  1  0.333333  0.666667  0.537573  1
  Ga  Ga6  1  0.000000  0.000000  0.252660  1
  Ga  Ga7  1  0.000000  0.000000  0.751809  1
  Ga  Ga8  1  0.333333  0.666667  0.250104  1
  Ga  Ga9  1  0.666667  0.333333  0.751030  1
  Ga  Ga10  1  0.000000  0.000000  0.000183  1
  Ga  Ga11  1  0.000000  0.000000  0.499674  1
  Ni  Ni12  1  0.167761  0.335522  0.125889  1
  Ni  Ni13  1  0.830819  0.661637  0.875900  1
  Ni  Ni14  1  0.664478  0.832239  0.125889  1
  Ni  Ni15  1  0.832304  0.664609  0.624259  1
  Ni  Ni16  1  0.338363  0.169181  0.875900  1
  Ni  Ni17  1  0.169641  0.339281  0.376662  1
  Ni  Ni18  1  0.167761  0.832239  0.125889  1
  Ni  Ni19  1  0.335391  0.167696  0.624259  1
  Ni  Ni20  1  0.830819  0.169181  0.875900  1
  Ni  Ni21  1  0.660719  0.830359  0.376662  1
  Ni  Ni22  1  0.832304  0.167696  0.624259  1
  Ni  Ni23  1  0.169641  0.830359  0.376662  1
