# generated using pymatgen
data_ZrBr16
_symmetry_space_group_name_H-M   'P 1'
_cell_length_a   9.73930523
_cell_length_b   11.27139901
_cell_length_c   9.05808338
_cell_angle_alpha   107.01552908
_cell_angle_beta   102.89273622
_cell_angle_gamma   68.43387307
_symmetry_Int_Tables_number   1
_chemical_formula_structural   ZrBr16
_chemical_formula_sum   'Zr1 Br16'
_cell_volume   876.76710879
_cell_formula_units_Z   1
loop_
 _symmetry_equiv_pos_site_id
 _symmetry_equiv_pos_as_xyz
  1  'x, y, z'
loop_
 _atom_site_type_symbol
 _atom_site_label
 _atom_site_symmetry_multiplicity
 _atom_site_fract_x
 _atom_site_fract_y
 _atom_site_fract_z
 _atom_site_occupancy
  Zr  Zr0  1  0.000000  0.000000  0.000000  1
  Br  Br1  1  0.892219  0.183203  0.832024  1
  Br  Br2  1  0.107781  0.816797  0.167976  1
  Br  Br3  1  0.048479  0.825127  0.720685  1
  Br  Br4  1  0.951521  0.174873  0.279315  1
  Br  Br5  1  0.342178  0.255301  0.229718  1
  Br  Br6  1  0.657822  0.744699  0.770282  1
  Br  Br7  1  0.097370  0.267346  0.793601  1
  Br  Br8  1  0.902630  0.732654  0.206399  1
  Br  Br9  1  0.730605  0.996843  0.961698  1
  Br  Br10  1  0.269395  0.003157  0.038302  1
  Br  Br11  1  0.170050  0.583460  0.747915  1
  Br  Br12  1  0.829950  0.416540  0.252085  1
  Br  Br13  1  0.410872  0.443921  0.367830  1
  Br  Br14  1  0.589128  0.556079  0.632170  1
  Br  Br15  1  0.705097  0.653256  0.239456  1
  Br  Br16  1  0.294903  0.346744  0.760544  1
