# generated using pymatgen
data_HoTm7In3Tc
_symmetry_space_group_name_H-M   'P 1'
_cell_length_a   10.27707540
_cell_length_b   10.27707536
_cell_length_c   6.98220250
_cell_angle_alpha   89.92557553
_cell_angle_beta   90.07442650
_cell_angle_gamma   120.02619745
_symmetry_Int_Tables_number   1
_chemical_formula_structural   HoTm7In3Tc
_chemical_formula_sum   'Ho2 Tm14 In6 Tc2'
_cell_volume   638.47950429
_cell_formula_units_Z   2
loop_
 _symmetry_equiv_pos_site_id
 _symmetry_equiv_pos_as_xyz
  1  'x, y, z'
loop_
 _atom_site_type_symbol
 _atom_site_label
 _atom_site_symmetry_multiplicity
 _atom_site_fract_x
 _atom_site_fract_y
 _atom_site_fract_z
 _atom_site_occupancy
  Ho  Ho0  1  0.530924  0.062036  0.517498  1
  Ho  Ho1  1  0.937964  0.469076  0.517498  1
  Tm  Tm2  1  0.531144  0.468856  0.518006  1
  Tm  Tm3  1  0.468157  0.936479  0.018030  1
  Tm  Tm4  1  0.063521  0.531843  0.018030  1
  Tm  Tm5  1  0.468277  0.531723  0.018655  1
  Tm  Tm6  1  0.177666  0.354723  0.720674  1
  Tm  Tm7  1  0.645277  0.822334  0.720674  1
  Tm  Tm8  1  0.177147  0.822853  0.720854  1
  Tm  Tm9  1  0.822578  0.645686  0.219691  1
  Tm  Tm10  1  0.354314  0.177422  0.219691  1
  Tm  Tm11  1  0.823059  0.176941  0.219355  1
  Tm  Tm12  1  0.666460  0.333540  0.893264  1
  Tm  Tm13  1  0.333592  0.666408  0.391521  1
  Tm  Tm14  1  0.000088  0.999912  0.497285  1
  Tm  Tm15  1  0.000036  0.999964  0.997095  1
  In  In16  1  0.836395  0.673241  0.761506  1
  In  In17  1  0.326759  0.163605  0.761506  1
  In  In18  1  0.836736  0.163264  0.762065  1
  In  In19  1  0.163760  0.327233  0.261026  1
  In  In20  1  0.672767  0.836240  0.261026  1
  In  In21  1  0.163613  0.836387  0.261397  1
  Tc  Tc22  1  0.666554  0.333446  0.291288  1
  Tc  Tc23  1  0.333213  0.666787  0.790369  1
