# generated using pymatgen
data_Sr2Tb2YbPt4
_symmetry_space_group_name_H-M   'P 1'
_cell_length_a   7.76197800
_cell_length_b   7.85822200
_cell_length_c   14.91070400
_cell_angle_alpha   90.00000000
_cell_angle_beta   90.00000000
_cell_angle_gamma   90.00000000
_symmetry_Int_Tables_number   1
_chemical_formula_structural   Sr2Tb2YbPt4
_chemical_formula_sum   'Sr8 Tb8 Yb4 Pt16'
_cell_volume   909.48355381
_cell_formula_units_Z   4
loop_
 _symmetry_equiv_pos_site_id
 _symmetry_equiv_pos_as_xyz
  1  'x, y, z'
loop_
 _atom_site_type_symbol
 _atom_site_label
 _atom_site_symmetry_multiplicity
 _atom_site_fract_x
 _atom_site_fract_y
 _atom_site_fract_z
 _atom_site_occupancy
  Sr  Sr0  1  0.498470  0.323088  0.903306  1
  Sr  Sr1  1  0.998470  0.176912  0.596694  1
  Sr  Sr2  1  0.501530  0.676912  0.403306  1
  Sr  Sr3  1  0.001530  0.823088  0.096694  1
  Sr  Sr4  1  0.501530  0.676912  0.096694  1
  Sr  Sr5  1  0.001530  0.823088  0.403306  1
  Sr  Sr6  1  0.498470  0.323088  0.596694  1
  Sr  Sr7  1  0.998470  0.176912  0.903306  1
  Tb  Tb8  1  0.340548  0.833661  0.875732  1
  Tb  Tb9  1  0.840548  0.666339  0.624268  1
  Tb  Tb10  1  0.659452  0.166339  0.375733  1
  Tb  Tb11  1  0.159452  0.333661  0.124267  1
  Tb  Tb12  1  0.659452  0.166339  0.124267  1
  Tb  Tb13  1  0.159452  0.333661  0.375733  1
  Tb  Tb14  1  0.340548  0.833661  0.624268  1
  Tb  Tb15  1  0.840548  0.666339  0.875732  1
  Yb  Yb16  1  0.178013  0.490787  0.750000  1
  Yb  Yb17  1  0.678013  0.009213  0.750000  1
  Yb  Yb18  1  0.821987  0.509213  0.250000  1
  Yb  Yb19  1  0.321987  0.990787  0.250000  1
  Pt  Pt20  1  0.335053  0.045856  0.044151  1
  Pt  Pt21  1  0.835053  0.454144  0.455849  1
  Pt  Pt22  1  0.664947  0.954144  0.544151  1
  Pt  Pt23  1  0.164947  0.545856  0.955849  1
  Pt  Pt24  1  0.664947  0.954144  0.955849  1
  Pt  Pt25  1  0.164947  0.545856  0.544151  1
  Pt  Pt26  1  0.335053  0.045856  0.455849  1
  Pt  Pt27  1  0.835053  0.454144  0.044151  1
  Pt  Pt28  1  0.543329  0.636682  0.750000  1
  Pt  Pt29  1  0.043329  0.863318  0.750000  1
  Pt  Pt30  1  0.456671  0.363318  0.250000  1
  Pt  Pt31  1  0.956671  0.136682  0.250000  1
  Pt  Pt32  1  0.305510  0.116884  0.750000  1
  Pt  Pt33  1  0.805510  0.383116  0.750000  1
  Pt  Pt34  1  0.694490  0.883116  0.250000  1
  Pt  Pt35  1  0.194490  0.616884  0.250000  1
