# generated using pymatgen
data_Nd16Ga5Co2Hg
_symmetry_space_group_name_H-M   'P 1'
_cell_length_a   10.47849800
_cell_length_b   10.49795680
_cell_length_c   7.11050401
_cell_angle_alpha   89.99251058
_cell_angle_beta   90.00000000
_cell_angle_gamma   119.93870930
_symmetry_Int_Tables_number   1
_chemical_formula_structural   Nd16Ga5Co2Hg
_chemical_formula_sum   'Nd16 Ga5 Co2 Hg1'
_cell_volume   677.80180399
_cell_formula_units_Z   1
loop_
 _symmetry_equiv_pos_site_id
 _symmetry_equiv_pos_as_xyz
  1  'x, y, z'
loop_
 _atom_site_type_symbol
 _atom_site_label
 _atom_site_symmetry_multiplicity
 _atom_site_fract_x
 _atom_site_fract_y
 _atom_site_fract_z
 _atom_site_occupancy
  Nd  Nd0  1  0.828337  0.656674  0.489682  1
  Nd  Nd1  1  0.341416  0.170031  0.490358  1
  Nd  Nd2  1  0.828615  0.170031  0.490358  1
  Nd  Nd3  1  0.170985  0.341971  0.988899  1
  Nd  Nd4  1  0.657619  0.831856  0.989180  1
  Nd  Nd5  1  0.174238  0.831856  0.989180  1
  Nd  Nd6  1  0.664708  0.329415  0.176693  1
  Nd  Nd7  1  0.333087  0.666174  0.675570  1
  Nd  Nd8  1  0.538452  0.076902  0.790465  1
  Nd  Nd9  1  0.924626  0.460067  0.788810  1
  Nd  Nd10  1  0.535443  0.460067  0.788810  1
  Nd  Nd11  1  0.461678  0.923356  0.292013  1
  Nd  Nd12  1  0.077962  0.538798  0.289942  1
  Nd  Nd13  1  0.460836  0.538798  0.289942  1
  Nd  Nd14  1  0.000926  0.001852  0.774803  1
  Nd  Nd15  1  0.003328  0.006656  0.278319  1
  Ga  Ga16  1  0.328025  0.164459  0.038306  1
  Ga  Ga17  1  0.836436  0.164459  0.038306  1
  Ga  Ga18  1  0.163872  0.327745  0.539930  1
  Ga  Ga19  1  0.672366  0.836089  0.538580  1
  Ga  Ga20  1  0.163722  0.836089  0.538580  1
  Co  Co21  1  0.666034  0.332066  0.553939  1
  Co  Co22  1  0.333874  0.667748  0.054588  1
  Hg  Hg23  1  0.833419  0.666836  0.040985  1
