# generated using pymatgen
data_HoLu2(InAu)3
_symmetry_space_group_name_H-M   'P 1'
_cell_length_a   7.71007800
_cell_length_b   7.74133916
_cell_length_c   3.93468600
_cell_angle_alpha   90.00000000
_cell_angle_beta   90.00000000
_cell_angle_gamma   119.86649820
_symmetry_Int_Tables_number   1
_chemical_formula_structural   HoLu2(InAu)3
_chemical_formula_sum   'Ho1 Lu2 In3 Au3'
_cell_volume   203.65648487
_cell_formula_units_Z   1
loop_
 _symmetry_equiv_pos_site_id
 _symmetry_equiv_pos_as_xyz
  1  'x, y, z'
loop_
 _atom_site_type_symbol
 _atom_site_label
 _atom_site_symmetry_multiplicity
 _atom_site_fract_x
 _atom_site_fract_y
 _atom_site_fract_z
 _atom_site_occupancy
  Ho  Ho0  1  0.403081  0.000000  0.500000  1
  Lu  Lu1  1  0.000104  0.402854  0.500000  1
  Lu  Lu2  1  0.597250  0.597146  0.500000  1
  In  In3  1  0.737493  0.000000  0.000000  1
  In  In4  1  0.999216  0.736514  0.000000  1
  In  In5  1  0.262702  0.263486  0.000000  1
  Au  Au6  1  0.332713  0.664185  0.000000  1
  Au  Au7  1  0.668529  0.335815  0.000000  1
  Au  Au8  1  0.998913  0.000000  0.500000  1
