# generated using pymatgen
data_Tb4Ga5Rh9
_symmetry_space_group_name_H-M   'P 1'
_cell_length_a   12.12309595
_cell_length_b   12.12309547
_cell_length_c   12.12309479
_cell_angle_alpha   26.69345603
_cell_angle_beta   26.69345987
_cell_angle_gamma   26.69345717
_symmetry_Int_Tables_number   1
_chemical_formula_structural   Tb4Ga5Rh9
_chemical_formula_sum   'Tb4 Ga5 Rh9'
_cell_volume   317.00182905
_cell_formula_units_Z   1
loop_
 _symmetry_equiv_pos_site_id
 _symmetry_equiv_pos_as_xyz
  1  'x, y, z'
loop_
 _atom_site_type_symbol
 _atom_site_label
 _atom_site_symmetry_multiplicity
 _atom_site_fract_x
 _atom_site_fract_y
 _atom_site_fract_z
 _atom_site_occupancy
  Tb  Tb0  1  0.951222  0.951222  0.951222  1
  Tb  Tb1  1  0.853244  0.853244  0.853244  1
  Tb  Tb2  1  0.146756  0.146756  0.146756  1
  Tb  Tb3  1  0.048778  0.048778  0.048778  1
  Ga  Ga4  1  0.277926  0.277926  0.277926  1
  Ga  Ga5  1  0.500000  0.500000  0.500000  1
  Ga  Ga6  1  0.389567  0.389567  0.389567  1
  Ga  Ga7  1  0.722074  0.722074  0.722074  1
  Ga  Ga8  1  0.610433  0.610433  0.610433  1
  Rh  Rh9  1  0.614156  0.614156  0.105143  1
  Rh  Rh10  1  0.894857  0.385844  0.385844  1
  Rh  Rh11  1  0.500000  0.000000  0.500000  1
  Rh  Rh12  1  0.385844  0.894857  0.385844  1
  Rh  Rh13  1  0.500000  0.500000  0.000000  1
  Rh  Rh14  1  0.105143  0.614156  0.614156  1
  Rh  Rh15  1  0.000000  0.500000  0.500000  1
  Rh  Rh16  1  0.385844  0.385844  0.894857  1
  Rh  Rh17  1  0.614156  0.105143  0.614156  1
