# generated using pymatgen
data_La20MnBi8Ru3
_symmetry_space_group_name_H-M   'P 1'
_cell_length_a   8.55816812
_cell_length_b   9.28417100
_cell_length_c   13.04959017
_cell_angle_alpha   90.00000000
_cell_angle_beta   89.82324432
_cell_angle_gamma   90.00000000
_symmetry_Int_Tables_number   1
_chemical_formula_structural   La20MnBi8Ru3
_chemical_formula_sum   'La20 Mn1 Bi8 Ru3'
_cell_volume   1036.85672931
_cell_formula_units_Z   1
loop_
 _symmetry_equiv_pos_site_id
 _symmetry_equiv_pos_as_xyz
  1  'x, y, z'
loop_
 _atom_site_type_symbol
 _atom_site_label
 _atom_site_symmetry_multiplicity
 _atom_site_fract_x
 _atom_site_fract_y
 _atom_site_fract_z
 _atom_site_occupancy
  La  La0  1  0.352337  0.750000  0.696521  1
  La  La1  1  0.646353  0.250000  0.299703  1
  La  La2  1  0.854745  0.250000  0.800162  1
  La  La3  1  0.148095  0.750000  0.201864  1
  La  La4  1  0.878186  0.750000  0.805670  1
  La  La5  1  0.119705  0.250000  0.193922  1
  La  La6  1  0.383210  0.250000  0.691078  1
  La  La7  1  0.619904  0.750000  0.306003  1
  La  La8  1  0.680802  0.538630  0.564110  1
  La  La9  1  0.324182  0.479837  0.438965  1
  La  La10  1  0.180317  0.467197  0.935335  1
  La  La11  1  0.324182  0.020163  0.438965  1
  La  La12  1  0.820280  0.535611  0.065751  1
  La  La13  1  0.680802  0.961370  0.564110  1
  La  La14  1  0.820280  0.964389  0.065751  1
  La  La15  1  0.180317  0.032803  0.935335  1
  La  La16  1  0.049572  0.750000  0.496995  1
  La  La17  1  0.941097  0.250000  0.504351  1
  La  La18  1  0.556175  0.250000  0.004014  1
  La  La19  1  0.445028  0.750000  0.994297  1
  Mn  Mn20  1  0.414103  0.750000  0.486491  1
  Bi  Bi21  1  0.574668  0.505246  0.826728  1
  Bi  Bi22  1  0.424051  0.493951  0.172192  1
  Bi  Bi23  1  0.076819  0.492881  0.672165  1
  Bi  Bi24  1  0.424051  0.006049  0.172192  1
  Bi  Bi25  1  0.925032  0.505796  0.327635  1
  Bi  Bi26  1  0.574668  0.994754  0.826728  1
  Bi  Bi27  1  0.925032  0.994204  0.327635  1
  Bi  Bi28  1  0.076819  0.007119  0.672165  1
  Ru  Ru29  1  0.076129  0.750000  0.987688  1
  Ru  Ru30  1  0.921618  0.250000  0.012811  1
  Ru  Ru31  1  0.581439  0.250000  0.512668  1
