# generated using pymatgen
data_UCo21ReB6
_symmetry_space_group_name_H-M   'P 1'
_cell_length_a   7.44007000
_cell_length_b   7.44007004
_cell_length_c   7.44007000
_cell_angle_alpha   119.99999984
_cell_angle_beta   90.00000000
_cell_angle_gamma   119.99999984
_symmetry_Int_Tables_number   1
_chemical_formula_structural   UCo21ReB6
_chemical_formula_sum   'U1 Co21 Re1 B6'
_cell_volume   291.21656253
_cell_formula_units_Z   1
loop_
 _symmetry_equiv_pos_site_id
 _symmetry_equiv_pos_as_xyz
  1  'x, y, z'
loop_
 _atom_site_type_symbol
 _atom_site_label
 _atom_site_symmetry_multiplicity
 _atom_site_fract_x
 _atom_site_fract_y
 _atom_site_fract_z
 _atom_site_occupancy
  U  U0  1  0.250000  0.499999  0.749999  1
  Co  Co1  1  0.000000  0.000000  0.000000  1
  Co  Co2  1  0.339646  0.004423  0.002212  1
  Co  Co3  1  0.664776  0.004423  0.002212  1
  Co  Co4  1  0.997788  0.337434  0.002212  1
  Co  Co5  1  0.339646  0.337434  0.002212  1
  Co  Co6  1  0.997788  0.662564  0.002212  1
  Co  Co7  1  0.664776  0.662564  0.002212  1
  Co  Co8  1  0.384623  0.769243  0.153865  1
  Co  Co9  1  0.997788  0.995577  0.335222  1
  Co  Co10  1  0.997788  0.337434  0.335222  1
  Co  Co11  1  0.339646  0.337434  0.335222  1
  Co  Co12  1  0.619835  0.239670  0.380166  1
  Co  Co13  1  0.140496  0.760330  0.380166  1
  Co  Co14  1  0.619835  0.760330  0.380166  1
  Co  Co15  1  0.384623  0.230757  0.615378  1
  Co  Co16  1  0.846135  0.230757  0.615378  1
  Co  Co17  1  0.384623  0.769243  0.615378  1
  Co  Co18  1  0.997788  0.995577  0.660352  1
  Co  Co19  1  0.997788  0.662564  0.660352  1
  Co  Co20  1  0.664776  0.662564  0.660352  1
  Co  Co21  1  0.619835  0.239670  0.859504  1
  Re  Re22  1  0.749999  0.499999  0.250000  1
  B  B23  1  0.274633  0.000000  0.274633  1
  B  B24  1  0.274633  0.549265  0.274633  1
  B  B25  1  0.725367  0.000000  0.274633  1
  B  B26  1  0.274633  0.000000  0.725367  1
  B  B27  1  0.725367  0.000000  0.725367  1
  B  B28  1  0.725367  0.450736  0.725367  1
