# generated using pymatgen
data_LiPr17(HoIr6)2
_symmetry_space_group_name_H-M   'P 1'
_cell_length_a   11.29469500
_cell_length_b   11.29469500
_cell_length_c   6.48334300
_cell_angle_alpha   90.00000000
_cell_angle_beta   90.00000000
_cell_angle_gamma   90.00000000
_symmetry_Int_Tables_number   1
_chemical_formula_structural   LiPr17(HoIr6)2
_chemical_formula_sum   'Li1 Pr17 Ho2 Ir12'
_cell_volume   827.08094269
_cell_formula_units_Z   1
loop_
 _symmetry_equiv_pos_site_id
 _symmetry_equiv_pos_as_xyz
  1  'x, y, z'
loop_
 _atom_site_type_symbol
 _atom_site_label
 _atom_site_symmetry_multiplicity
 _atom_site_fract_x
 _atom_site_fract_y
 _atom_site_fract_z
 _atom_site_occupancy
  Li  Li0  1  0.000000  0.000000  0.500000  1
  Pr  Pr1  1  0.276849  0.083362  0.385529  1
  Pr  Pr2  1  0.292372  0.910995  0.883676  1
  Pr  Pr3  1  0.707628  0.089005  0.883676  1
  Pr  Pr4  1  0.723151  0.916638  0.385529  1
  Pr  Pr5  1  0.590702  0.789333  0.884791  1
  Pr  Pr6  1  0.584569  0.209986  0.381597  1
  Pr  Pr7  1  0.415431  0.790014  0.381597  1
  Pr  Pr8  1  0.409298  0.210667  0.884791  1
  Pr  Pr9  1  0.209986  0.415431  0.618403  1
  Pr  Pr10  1  0.210667  0.590702  0.115209  1
  Pr  Pr11  1  0.789333  0.409298  0.115209  1
  Pr  Pr12  1  0.790014  0.584569  0.618403  1
  Pr  Pr13  1  0.910995  0.707628  0.116324  1
  Pr  Pr14  1  0.916638  0.276849  0.614471  1
  Pr  Pr15  1  0.083362  0.723151  0.614471  1
  Pr  Pr16  1  0.089005  0.292372  0.116324  1
  Pr  Pr17  1  0.000000  0.000000  0.000000  1
  Ho  Ho18  1  0.500000  0.500000  0.000000  1
  Ho  Ho19  1  0.500000  0.500000  0.500000  1
  Ir  Ir20  1  0.846052  0.156275  0.242041  1
  Ir  Ir21  1  0.843725  0.846052  0.757959  1
  Ir  Ir22  1  0.156275  0.153948  0.757959  1
  Ir  Ir23  1  0.153948  0.843725  0.242041  1
  Ir  Ir24  1  0.648025  0.351373  0.746949  1
  Ir  Ir25  1  0.648627  0.648025  0.253051  1
  Ir  Ir26  1  0.351373  0.351975  0.253051  1
  Ir  Ir27  1  0.351975  0.648627  0.746949  1
  Ir  Ir28  1  0.500000  0.000000  0.120201  1
  Ir  Ir29  1  0.500000  0.000000  0.610031  1
  Ir  Ir30  1  0.000000  0.500000  0.879799  1
  Ir  Ir31  1  0.000000  0.500000  0.389969  1
