# generated using pymatgen
data_Dy7Ho3(Hg2Pd)4
_symmetry_space_group_name_H-M   'P 1'
_cell_length_a   3.66021300
_cell_length_b   7.98782933
_cell_length_c   18.14791100
_cell_angle_alpha   90.03310287
_cell_angle_beta   90.00000000
_cell_angle_gamma   90.00000000
_symmetry_Int_Tables_number   1
_chemical_formula_structural   Dy7Ho3(Hg2Pd)4
_chemical_formula_sum   'Dy7 Ho3 Hg8 Pd4'
_cell_volume   530.59323035
_cell_formula_units_Z   1
loop_
 _symmetry_equiv_pos_site_id
 _symmetry_equiv_pos_as_xyz
  1  'x, y, z'
loop_
 _atom_site_type_symbol
 _atom_site_label
 _atom_site_symmetry_multiplicity
 _atom_site_fract_x
 _atom_site_fract_y
 _atom_site_fract_z
 _atom_site_occupancy
  Dy  Dy0  1  0.000000  0.500076  0.500033  1
  Dy  Dy1  1  0.000000  0.000222  0.999858  1
  Dy  Dy2  1  0.000000  0.734021  0.285002  1
  Dy  Dy3  1  0.000000  0.265997  0.715133  1
  Dy  Dy4  1  0.000000  0.765824  0.784614  1
  Dy  Dy5  1  0.000000  0.234069  0.215372  1
  Dy  Dy6  1  0.000000  0.613908  0.084316  1
  Ho  Ho7  1  0.000000  0.386318  0.915121  1
  Ho  Ho8  1  0.000000  0.886497  0.584701  1
  Ho  Ho9  1  0.000000  0.113414  0.415436  1
  Hg  Hg10  1  0.500000  0.710829  0.935170  1
  Hg  Hg11  1  0.500000  0.288560  0.064332  1
  Hg  Hg12  1  0.500000  0.789524  0.435921  1
  Hg  Hg13  1  0.500000  0.210548  0.564200  1
  Hg  Hg14  1  0.500000  0.583182  0.647675  1
  Hg  Hg15  1  0.500000  0.416652  0.352610  1
  Hg  Hg16  1  0.500000  0.917667  0.147905  1
  Hg  Hg17  1  0.500000  0.083360  0.852198  1
  Pd  Pd18  1  0.500000  0.523352  0.196209  1
  Pd  Pd19  1  0.500000  0.475967  0.804120  1
  Pd  Pd20  1  0.500000  0.976221  0.695812  1
  Pd  Pd21  1  0.500000  0.023790  0.304257  1
