# generated using pymatgen
data_GdEr2Ni2Sn3Ir
_symmetry_space_group_name_H-M   'P 1'
_cell_length_a   7.45994601
_cell_length_b   7.45999096
_cell_length_c   3.77098200
_cell_angle_alpha   90.00000000
_cell_angle_beta   90.00000000
_cell_angle_gamma   120.00451886
_symmetry_Int_Tables_number   1
_chemical_formula_structural   GdEr2Ni2Sn3Ir
_chemical_formula_sum   'Gd1 Er2 Ni2 Sn3 Ir1'
_cell_volume   181.73530288
_cell_formula_units_Z   1
loop_
 _symmetry_equiv_pos_site_id
 _symmetry_equiv_pos_as_xyz
  1  'x, y, z'
loop_
 _atom_site_type_symbol
 _atom_site_label
 _atom_site_symmetry_multiplicity
 _atom_site_fract_x
 _atom_site_fract_y
 _atom_site_fract_z
 _atom_site_occupancy
  Gd  Gd0  1  0.404407  0.407012  0.500000  1
  Er  Er1  1  0.593009  0.997370  0.500000  1
  Er  Er2  1  0.002643  0.595654  0.500000  1
  Ni  Ni3  1  0.666690  0.333318  0.000000  1
  Ni  Ni4  1  0.999950  0.999945  0.500000  1
  Sn  Sn5  1  0.745198  0.739569  0.000000  1
  Sn  Sn6  1  0.260461  0.005595  0.000000  1
  Sn  Sn7  1  0.994323  0.254820  0.000000  1
  Ir  Ir8  1  0.333318  0.666717  0.000000  1
