# generated using pymatgen
data_Np3Ni8Ir
_symmetry_space_group_name_H-M   'P 1'
_cell_length_a   4.89151744
_cell_length_b   4.89151690
_cell_length_c   8.71485315
_cell_angle_alpha   73.70144225
_cell_angle_beta   73.70144527
_cell_angle_gamma   60.00000840
_symmetry_Int_Tables_number   1
_chemical_formula_structural   Np3Ni8Ir
_chemical_formula_sum   'Np3 Ni8 Ir1'
_cell_volume   170.83864338
_cell_formula_units_Z   1
loop_
 _symmetry_equiv_pos_site_id
 _symmetry_equiv_pos_as_xyz
  1  'x, y, z'
loop_
 _atom_site_type_symbol
 _atom_site_label
 _atom_site_symmetry_multiplicity
 _atom_site_fract_x
 _atom_site_fract_y
 _atom_site_fract_z
 _atom_site_occupancy
  Np  Np0  1  0.143483  0.143483  0.569550  1
  Np  Np1  1  0.856517  0.856517  0.430450  1
  Np  Np2  1  0.000000  0.000000  0.000000  1
  Ni  Ni3  1  0.077853  0.581746  0.758655  1
  Ni  Ni4  1  0.581746  0.581746  0.758655  1
  Ni  Ni5  1  0.581746  0.077853  0.758655  1
  Ni  Ni6  1  0.922147  0.418254  0.241345  1
  Ni  Ni7  1  0.418254  0.418254  0.241345  1
  Ni  Ni8  1  0.418254  0.922147  0.241345  1
  Ni  Ni9  1  0.333201  0.333201  0.000398  1
  Ni  Ni10  1  0.666799  0.666799  0.999602  1
  Ir  Ir11  1  0.500000  0.500000  0.500000  1
