# generated using pymatgen
data_La6Sn2BRh12C
_symmetry_space_group_name_H-M   'P 1'
_cell_length_a   5.95688200
_cell_length_b   5.95688138
_cell_length_c   13.98299800
_cell_angle_alpha   90.00000000
_cell_angle_beta   90.00000000
_cell_angle_gamma   119.99999234
_symmetry_Int_Tables_number   1
_chemical_formula_structural   La6Sn2BRh12C
_chemical_formula_sum   'La6 Sn2 B1 Rh12 C1'
_cell_volume   429.70351868
_cell_formula_units_Z   1
loop_
 _symmetry_equiv_pos_site_id
 _symmetry_equiv_pos_as_xyz
  1  'x, y, z'
loop_
 _atom_site_type_symbol
 _atom_site_label
 _atom_site_symmetry_multiplicity
 _atom_site_fract_x
 _atom_site_fract_y
 _atom_site_fract_z
 _atom_site_occupancy
  La  La0  1  0.000000  0.000000  0.752420  1
  La  La1  1  0.000000  0.000000  0.247580  1
  La  La2  1  0.333333  0.666667  0.403476  1
  La  La3  1  0.666667  0.333333  0.906597  1
  La  La4  1  0.666667  0.333333  0.596524  1
  La  La5  1  0.333333  0.666667  0.093403  1
  Sn  Sn6  1  0.333333  0.666667  0.748300  1
  Sn  Sn7  1  0.666667  0.333333  0.251700  1
  B  B8  1  0.000000  0.000000  0.000000  1
  Rh  Rh9  1  0.337431  0.168716  0.416222  1
  Rh  Rh10  1  0.831284  0.168716  0.416222  1
  Rh  Rh11  1  0.831284  0.662569  0.416222  1
  Rh  Rh12  1  0.171281  0.342562  0.913865  1
  Rh  Rh13  1  0.662569  0.831284  0.583778  1
  Rh  Rh14  1  0.657438  0.828719  0.913865  1
  Rh  Rh15  1  0.342562  0.171281  0.086135  1
  Rh  Rh16  1  0.168716  0.337431  0.583778  1
  Rh  Rh17  1  0.168716  0.831284  0.583778  1
  Rh  Rh18  1  0.828719  0.171281  0.086135  1
  Rh  Rh19  1  0.828719  0.657438  0.086135  1
  Rh  Rh20  1  0.171281  0.828719  0.913865  1
  C  C21  1  0.000000  0.000000  0.500000  1
