# generated using pymatgen
data_Dy4Tm4Ti11Si16Hg
_symmetry_space_group_name_H-M   'P 1'
_cell_length_a   7.07309637
_cell_length_b   7.07297749
_cell_length_c   12.90898726
_cell_angle_alpha   89.89303585
_cell_angle_beta   90.09148861
_cell_angle_gamma   89.63868580
_symmetry_Int_Tables_number   1
_chemical_formula_structural   Dy4Tm4Ti11Si16Hg
_chemical_formula_sum   'Dy4 Tm4 Ti11 Si16 Hg1'
_cell_volume   645.79409434
_cell_formula_units_Z   1
loop_
 _symmetry_equiv_pos_site_id
 _symmetry_equiv_pos_as_xyz
  1  'x, y, z'
loop_
 _atom_site_type_symbol
 _atom_site_label
 _atom_site_symmetry_multiplicity
 _atom_site_fract_x
 _atom_site_fract_y
 _atom_site_fract_z
 _atom_site_occupancy
  Dy  Dy0  1  0.842701  0.498570  0.284940  1
  Dy  Dy1  1  0.502541  0.160273  0.215794  1
  Dy  Dy2  1  0.498419  0.842275  0.715183  1
  Dy  Dy3  1  0.342596  0.999578  0.468791  1
  Tm  Tm4  1  0.998594  0.659133  0.032773  1
  Tm  Tm5  1  0.999306  0.342976  0.531782  1
  Tm  Tm6  1  0.659144  0.998432  0.966768  1
  Tm  Tm7  1  0.159870  0.501460  0.784161  1
  Ti  Ti8  1  0.349128  0.503716  0.376726  1
  Ti  Ti9  1  0.852927  0.990986  0.377096  1
  Ti  Ti10  1  0.008513  0.149998  0.125042  1
  Ti  Ti11  1  0.991417  0.852952  0.623350  1
  Ti  Ti12  1  0.503939  0.350108  0.623876  1
  Ti  Ti13  1  0.149773  0.008617  0.874591  1
  Ti  Ti14  1  0.826748  0.173861  0.750861  1
  Ti  Ti15  1  0.173200  0.826323  0.249196  1
  Ti  Ti16  1  0.327046  0.327453  0.999649  1
  Ti  Ti17  1  0.493337  0.649051  0.123717  1
  Ti  Ti18  1  0.648652  0.493689  0.875698  1
  Si  Si19  1  0.066280  0.712743  0.432724  1
  Si  Si20  1  0.952781  0.291761  0.935841  1
  Si  Si21  1  0.715000  0.067945  0.567542  1
  Si  Si22  1  0.208400  0.454571  0.184885  1
  Si  Si23  1  0.796044  0.540897  0.694612  1
  Si  Si24  1  0.453353  0.209232  0.815155  1
  Si  Si25  1  0.541458  0.793940  0.305326  1
  Si  Si26  1  0.290982  0.951838  0.063549  1
  Si  Si27  1  0.799055  0.867522  0.183199  1
  Si  Si28  1  0.273470  0.624593  0.573593  1
  Si  Si29  1  0.706589  0.368602  0.066642  1
  Si  Si30  1  0.626888  0.275748  0.427609  1
  Si  Si31  1  0.367597  0.705691  0.932061  1
  Si  Si32  1  0.132365  0.201676  0.317089  1
  Si  Si33  1  0.200793  0.134472  0.683083  1
  Si  Si34  1  0.868577  0.797716  0.817085  1
  Hg  Hg35  1  0.672519  0.671602  0.500011  1
