# generated using pymatgen
data_Ho2Tm(In2Ru)2
_symmetry_space_group_name_H-M   'P 1'
_cell_length_a   8.02904313
_cell_length_b   8.02042255
_cell_length_c   3.60574700
_cell_angle_alpha   90.00000000
_cell_angle_beta   90.00000000
_cell_angle_gamma   119.97467461
_symmetry_Int_Tables_number   1
_chemical_formula_structural   Ho2Tm(In2Ru)2
_chemical_formula_sum   'Ho2 Tm1 In4 Ru2'
_cell_volume   201.13965293
_cell_formula_units_Z   1
loop_
 _symmetry_equiv_pos_site_id
 _symmetry_equiv_pos_as_xyz
  1  'x, y, z'
loop_
 _atom_site_type_symbol
 _atom_site_label
 _atom_site_symmetry_multiplicity
 _atom_site_fract_x
 _atom_site_fract_y
 _atom_site_fract_z
 _atom_site_occupancy
  Ho  Ho0  1  0.293021  0.254743  0.500000  1
  Ho  Ho1  1  0.745087  0.038094  0.500000  1
  Tm  Tm2  1  0.962675  0.708088  0.500000  1
  In  In3  1  0.065229  0.402483  0.000000  1
  In  In4  1  0.598280  0.663129  0.000000  1
  In  In5  1  0.335954  0.934088  0.000000  1
  In  In6  1  0.667140  0.334118  0.000000  1
  Ru  Ru7  1  0.332859  0.666590  0.500000  1
  Ru  Ru8  1  0.999756  0.998666  0.000000  1
