# generated using pymatgen
data_Pr4TlI6
_symmetry_space_group_name_H-M   'P 1'
_cell_length_a   4.48589300
_cell_length_b   14.83509900
_cell_length_c   15.66060800
_cell_angle_alpha   90.00000000
_cell_angle_beta   90.00000000
_cell_angle_gamma   90.00000000
_symmetry_Int_Tables_number   1
_chemical_formula_structural   Pr4TlI6
_chemical_formula_sum   'Pr8 Tl2 I12'
_cell_volume   1042.19258303
_cell_formula_units_Z   2
loop_
 _symmetry_equiv_pos_site_id
 _symmetry_equiv_pos_as_xyz
  1  'x, y, z'
loop_
 _atom_site_type_symbol
 _atom_site_label
 _atom_site_symmetry_multiplicity
 _atom_site_fract_x
 _atom_site_fract_y
 _atom_site_fract_z
 _atom_site_occupancy
  Pr  Pr0  1  0.500000  0.119514  0.339256  1
  Pr  Pr1  1  0.500000  0.880486  0.660744  1
  Pr  Pr2  1  0.500000  0.619514  0.160744  1
  Pr  Pr3  1  0.500000  0.380486  0.839256  1
  Pr  Pr4  1  0.000000  0.121120  0.580867  1
  Pr  Pr5  1  0.000000  0.878880  0.419133  1
  Pr  Pr6  1  0.000000  0.621120  0.919133  1
  Pr  Pr7  1  0.000000  0.378880  0.080867  1
  Tl  Tl8  1  0.500000  0.000000  0.500000  1
  Tl  Tl9  1  0.500000  0.500000  0.000000  1
  I  I10  1  0.500000  0.243773  0.162163  1
  I  I11  1  0.500000  0.756227  0.837837  1
  I  I12  1  0.500000  0.743773  0.337837  1
  I  I13  1  0.500000  0.256227  0.662163  1
  I  I14  1  0.000000  0.255477  0.412982  1
  I  I15  1  0.000000  0.744523  0.587018  1
  I  I16  1  0.000000  0.755477  0.087018  1
  I  I17  1  0.000000  0.244523  0.912982  1
  I  I18  1  0.000000  0.000065  0.243472  1
  I  I19  1  0.000000  0.999935  0.756528  1
  I  I20  1  0.000000  0.500065  0.256528  1
  I  I21  1  0.000000  0.499935  0.743472  1
