# generated using pymatgen
data_Tb2Y2Al18ZnOs4Pd
_symmetry_space_group_name_H-M   'P 1'
_cell_length_a   7.60075600
_cell_length_b   7.60367722
_cell_length_c   9.55748300
_cell_angle_alpha   90.00000000
_cell_angle_beta   90.00000000
_cell_angle_gamma   119.78697915
_symmetry_Int_Tables_number   1
_chemical_formula_structural   Tb2Y2Al18ZnOs4Pd
_chemical_formula_sum   'Tb2 Y2 Al18 Zn1 Os4 Pd1'
_cell_volume   479.38325836
_cell_formula_units_Z   1
loop_
 _symmetry_equiv_pos_site_id
 _symmetry_equiv_pos_as_xyz
  1  'x, y, z'
loop_
 _atom_site_type_symbol
 _atom_site_label
 _atom_site_symmetry_multiplicity
 _atom_site_fract_x
 _atom_site_fract_y
 _atom_site_fract_z
 _atom_site_occupancy
  Tb  Tb0  1  0.996922  0.671784  0.249018  1
  Tb  Tb1  1  0.003078  0.328216  0.750982  1
  Y  Y2  1  0.671492  0.996847  0.248932  1
  Y  Y3  1  0.328508  0.003153  0.751068  1
  Al  Al4  1  0.134401  0.134372  0.253512  1
  Al  Al5  1  0.865599  0.865628  0.746488  1
  Al  Al6  1  0.002225  0.344612  0.075895  1
  Al  Al7  1  0.997775  0.655388  0.924105  1
  Al  Al8  1  0.998643  0.659775  0.572297  1
  Al  Al9  1  0.340516  0.001333  0.427836  1
  Al  Al10  1  0.001357  0.340225  0.427703  1
  Al  Al11  1  0.659484  0.998667  0.572164  1
  Al  Al12  1  0.655345  0.997807  0.924215  1
  Al  Al13  1  0.344655  0.002193  0.075785  1
  Al  Al14  1  0.339140  0.339106  0.549318  1
  Al  Al15  1  0.660860  0.660894  0.450682  1
  Al  Al16  1  0.656958  0.657034  0.051707  1
  Al  Al17  1  0.343042  0.342966  0.948293  1
  Al  Al18  1  0.336887  0.550455  0.250090  1
  Al  Al19  1  0.663113  0.449545  0.749910  1
  Al  Al20  1  0.550421  0.336930  0.250126  1
  Al  Al21  1  0.449579  0.663070  0.749874  1
  Zn  Zn22  1  0.000000  0.000000  0.000000  1
  Os  Os23  1  0.671887  0.328048  0.000032  1
  Os  Os24  1  0.328113  0.671952  0.999968  1
  Os  Os25  1  0.328134  0.671853  0.500024  1
  Os  Os26  1  0.671866  0.328147  0.499976  1
  Pd  Pd27  1  0.000000  0.000000  0.500000  1
