# generated using pymatgen
data_Li3Tm4Co12Ni5P12
_symmetry_space_group_name_H-M   'P 1'
_cell_length_a   3.67624500
_cell_length_b   10.23109456
_cell_length_c   11.93316548
_cell_angle_alpha   90.33320521
_cell_angle_beta   90.00000000
_cell_angle_gamma   90.00000000
_symmetry_Int_Tables_number   1
_chemical_formula_structural   Li3Tm4Co12Ni5P12
_chemical_formula_sum   'Li3 Tm4 Co12 Ni5 P12'
_cell_volume   448.82275225
_cell_formula_units_Z   1
loop_
 _symmetry_equiv_pos_site_id
 _symmetry_equiv_pos_as_xyz
  1  'x, y, z'
loop_
 _atom_site_type_symbol
 _atom_site_label
 _atom_site_symmetry_multiplicity
 _atom_site_fract_x
 _atom_site_fract_y
 _atom_site_fract_z
 _atom_site_occupancy
  Li  Li0  1  0.250000  0.702070  0.991755  1
  Li  Li1  1  0.250000  0.797479  0.491999  1
  Li  Li2  1  0.750000  0.296990  0.007393  1
  Tm  Tm3  1  0.250000  0.578927  0.705444  1
  Tm  Tm4  1  0.250000  0.920738  0.204954  1
  Tm  Tm5  1  0.750000  0.419978  0.293862  1
  Tm  Tm6  1  0.750000  0.078535  0.795342  1
  Co  Co7  1  0.250000  0.220493  0.176642  1
  Co  Co8  1  0.250000  0.275691  0.671830  1
  Co  Co9  1  0.750000  0.780172  0.826623  1
  Co  Co10  1  0.750000  0.719791  0.327133  1
  Co  Co11  1  0.250000  0.880534  0.698649  1
  Co  Co12  1  0.250000  0.620848  0.198714  1
  Co  Co13  1  0.750000  0.119382  0.303542  1
  Co  Co14  1  0.750000  0.377824  0.797864  1
  Co  Co15  1  0.250000  0.464764  0.931664  1
  Co  Co16  1  0.250000  0.035344  0.432992  1
  Co  Co17  1  0.750000  0.533573  0.066618  1
  Co  Co18  1  0.750000  0.966543  0.566654  1
  Ni  Ni19  1  0.750000  0.211636  0.509086  1
  Ni  Ni20  1  0.250000  0.407425  0.483629  1
  Ni  Ni21  1  0.250000  0.093288  0.985175  1
  Ni  Ni22  1  0.750000  0.592367  0.515334  1
  Ni  Ni23  1  0.750000  0.908124  0.016628  1
  P  P24  1  0.250000  0.422375  0.114621  1
  P  P25  1  0.250000  0.075878  0.613253  1
  P  P26  1  0.750000  0.576526  0.884459  1
  P  P27  1  0.750000  0.922376  0.384965  1
  P  P28  1  0.250000  0.269579  0.857840  1
  P  P29  1  0.250000  0.230749  0.362977  1
  P  P30  1  0.750000  0.728882  0.141543  1
  P  P31  1  0.750000  0.771257  0.641575  1
  P  P32  1  0.250000  0.602642  0.386821  1
  P  P33  1  0.250000  0.896164  0.887999  1
  P  P34  1  0.750000  0.395633  0.609885  1
  P  P35  1  0.750000  0.105426  0.114536  1
