# generated using pymatgen
data_YbPr16Hg3Ru4
_symmetry_space_group_name_H-M   'P 1'
_cell_length_a   10.04813649
_cell_length_b   10.04813711
_cell_length_c   10.05319981
_cell_angle_alpha   60.01665624
_cell_angle_beta   60.01665296
_cell_angle_gamma   59.99999207
_symmetry_Int_Tables_number   1
_chemical_formula_structural   YbPr16Hg3Ru4
_chemical_formula_sum   'Yb1 Pr16 Hg3 Ru4'
_cell_volume   717.90941569
_cell_formula_units_Z   1
loop_
 _symmetry_equiv_pos_site_id
 _symmetry_equiv_pos_as_xyz
  1  'x, y, z'
loop_
 _atom_site_type_symbol
 _atom_site_label
 _atom_site_symmetry_multiplicity
 _atom_site_fract_x
 _atom_site_fract_y
 _atom_site_fract_z
 _atom_site_occupancy
  Yb  Yb0  1  0.439325  0.439325  0.682026  1
  Pr  Pr1  1  0.059088  0.438765  0.443059  1
  Pr  Pr2  1  0.192296  0.806042  0.195619  1
  Pr  Pr3  1  0.656253  0.656253  0.656227  1
  Pr  Pr4  1  0.437376  0.437376  0.064102  1
  Pr  Pr5  1  0.061146  0.437376  0.064102  1
  Pr  Pr6  1  0.437376  0.061146  0.064102  1
  Pr  Pr7  1  0.059088  0.059088  0.443059  1
  Pr  Pr8  1  0.650727  0.650727  0.047820  1
  Pr  Pr9  1  0.656253  0.031267  0.656227  1
  Pr  Pr10  1  0.183603  0.816003  0.816791  1
  Pr  Pr11  1  0.438765  0.059088  0.443059  1
  Pr  Pr12  1  0.183603  0.183603  0.816791  1
  Pr  Pr13  1  0.031267  0.656253  0.656227  1
  Pr  Pr14  1  0.806042  0.806042  0.195619  1
  Pr  Pr15  1  0.806042  0.192296  0.195619  1
  Pr  Pr16  1  0.816003  0.183603  0.816791  1
  Hg  Hg17  1  0.412380  0.412380  0.409287  1
  Hg  Hg18  1  0.412380  0.765954  0.409287  1
  Hg  Hg19  1  0.765954  0.412380  0.409287  1
  Ru  Ru20  1  0.860741  0.860741  0.865004  1
  Ru  Ru21  1  0.413514  0.860741  0.865004  1
  Ru  Ru22  1  0.860741  0.413514  0.865004  1
  Ru  Ru23  1  0.860036  0.860036  0.419893  1
