# generated using pymatgen
data_Nd3In3Pd2Pt
_symmetry_space_group_name_H-M   'P 1'
_cell_length_a   7.84939500
_cell_length_b   7.84939571
_cell_length_c   3.97961200
_cell_angle_alpha   90.00000000
_cell_angle_beta   90.00000000
_cell_angle_gamma   120.00000124
_symmetry_Int_Tables_number   1
_chemical_formula_structural   Nd3In3Pd2Pt
_chemical_formula_sum   'Nd3 In3 Pd2 Pt1'
_cell_volume   212.34584413
_cell_formula_units_Z   1
loop_
 _symmetry_equiv_pos_site_id
 _symmetry_equiv_pos_as_xyz
  1  'x, y, z'
loop_
 _atom_site_type_symbol
 _atom_site_label
 _atom_site_symmetry_multiplicity
 _atom_site_fract_x
 _atom_site_fract_y
 _atom_site_fract_z
 _atom_site_occupancy
  Nd  Nd0  1  0.003691  0.590365  0.000000  1
  Nd  Nd1  1  0.409635  0.413326  0.000000  1
  Nd  Nd2  1  0.586674  0.996309  0.000000  1
  In  In3  1  0.746576  0.745701  0.500000  1
  In  In4  1  0.999125  0.253424  0.500000  1
  In  In5  1  0.254299  0.000875  0.500000  1
  Pd  Pd6  1  0.000000  0.000000  0.000000  1
  Pd  Pd7  1  0.666667  0.333333  0.500000  1
  Pt  Pt8  1  0.333333  0.666667  0.500000  1
