# generated using pymatgen
data_La2B6Ir8Rh
_symmetry_space_group_name_H-M   'P 1'
_cell_length_a   5.72161102
_cell_length_b   5.72149664
_cell_length_c   8.63723000
_cell_angle_alpha   89.99514031
_cell_angle_beta   90.00512805
_cell_angle_gamma   119.99666398
_symmetry_Int_Tables_number   1
_chemical_formula_structural   La2B6Ir8Rh
_chemical_formula_sum   'La2 B6 Ir8 Rh1'
_cell_volume   244.87682678
_cell_formula_units_Z   1
loop_
 _symmetry_equiv_pos_site_id
 _symmetry_equiv_pos_as_xyz
  1  'x, y, z'
loop_
 _atom_site_type_symbol
 _atom_site_label
 _atom_site_symmetry_multiplicity
 _atom_site_fract_x
 _atom_site_fract_y
 _atom_site_fract_z
 _atom_site_occupancy
  La  La0  1  0.999978  0.999991  0.295311  1
  La  La1  1  0.999990  0.999989  0.705618  1
  B  B2  1  0.333094  0.666885  0.000271  1
  B  B3  1  0.666881  0.333114  0.000281  1
  B  B4  1  0.333471  0.666520  0.332447  1
  B  B5  1  0.666511  0.333490  0.332453  1
  B  B6  1  0.666996  0.332997  0.667241  1
  B  B7  1  0.333014  0.666997  0.667234  1
  Ir  Ir8  1  0.499997  0.000000  0.162703  1
  Ir  Ir9  1  0.499991  0.500006  0.162239  1
  Ir  Ir10  1  0.000000  0.500009  0.162701  1
  Ir  Ir11  1  0.499986  0.999995  0.836905  1
  Ir  Ir12  1  0.999985  0.500019  0.836891  1
  Ir  Ir13  1  0.500024  0.000009  0.500137  1
  Ir  Ir14  1  0.499986  0.499981  0.500711  1
  Ir  Ir15  1  0.000009  0.500001  0.500124  1
  Rh  Rh16  1  0.499985  0.499995  0.836734  1
