# generated using pymatgen
data_Tb7Pr(Si3Pd)4
_symmetry_space_group_name_H-M   'P 1'
_cell_length_a   8.19362000
_cell_length_b   8.19361994
_cell_length_c   8.21004700
_cell_angle_alpha   90.00000000
_cell_angle_beta   90.00000000
_cell_angle_gamma   120.00000024
_symmetry_Int_Tables_number   1
_chemical_formula_structural   Tb7Pr(Si3Pd)4
_chemical_formula_sum   'Tb7 Pr1 Si12 Pd4'
_cell_volume   477.34008702
_cell_formula_units_Z   1
loop_
 _symmetry_equiv_pos_site_id
 _symmetry_equiv_pos_as_xyz
  1  'x, y, z'
loop_
 _atom_site_type_symbol
 _atom_site_label
 _atom_site_symmetry_multiplicity
 _atom_site_fract_x
 _atom_site_fract_y
 _atom_site_fract_z
 _atom_site_occupancy
  Tb  Tb0  1  0.499430  0.500570  0.750000  1
  Tb  Tb1  1  0.500592  0.499408  0.250000  1
  Tb  Tb2  1  0.001139  0.500570  0.750000  1
  Tb  Tb3  1  0.998816  0.499408  0.250000  1
  Tb  Tb4  1  0.499430  0.998861  0.750000  1
  Tb  Tb5  1  0.500592  0.001184  0.250000  1
  Tb  Tb6  1  0.000000  0.000000  0.750000  1
  Pr  Pr7  1  0.000000  0.000000  0.250000  1
  Si  Si8  1  0.833838  0.166162  0.996362  1
  Si  Si9  1  0.166144  0.833856  0.996603  1
  Si  Si10  1  0.332324  0.166162  0.996362  1
  Si  Si11  1  0.166144  0.833856  0.503397  1
  Si  Si12  1  0.667712  0.833856  0.996603  1
  Si  Si13  1  0.833838  0.166162  0.503638  1
  Si  Si14  1  0.833838  0.667676  0.996362  1
  Si  Si15  1  0.667712  0.833856  0.503397  1
  Si  Si16  1  0.166144  0.332288  0.996603  1
  Si  Si17  1  0.332324  0.166162  0.503638  1
  Si  Si18  1  0.166144  0.332288  0.503397  1
  Si  Si19  1  0.833838  0.667676  0.503638  1
  Pd  Pd20  1  0.666667  0.333333  0.998918  1
  Pd  Pd21  1  0.333333  0.666667  0.001771  1
  Pd  Pd22  1  0.333333  0.666667  0.498229  1
  Pd  Pd23  1  0.666667  0.333333  0.501082  1
