# generated using pymatgen
data_LaGd5PdI10
_symmetry_space_group_name_H-M   'P 1'
_cell_length_a   7.77153714
_cell_length_b   9.75319366
_cell_length_c   9.79444100
_cell_angle_alpha   107.81664409
_cell_angle_beta   97.31168204
_cell_angle_gamma   105.19101765
_symmetry_Int_Tables_number   1
_chemical_formula_structural   LaGd5PdI10
_chemical_formula_sum   'La1 Gd5 Pd1 I10'
_cell_volume   664.47754009
_cell_formula_units_Z   1
loop_
 _symmetry_equiv_pos_site_id
 _symmetry_equiv_pos_as_xyz
  1  'x, y, z'
loop_
 _atom_site_type_symbol
 _atom_site_label
 _atom_site_symmetry_multiplicity
 _atom_site_fract_x
 _atom_site_fract_y
 _atom_site_fract_z
 _atom_site_occupancy
  La  La0  1  0.364390  0.135546  0.178059  1
  Gd  Gd1  1  0.643448  0.868230  0.826784  1
  Gd  Gd2  1  0.876832  0.956711  0.244858  1
  Gd  Gd3  1  0.116678  0.039858  0.753856  1
  Gd  Gd4  1  0.027149  0.702952  0.907498  1
  Gd  Gd5  1  0.967844  0.294772  0.089180  1
  Pd  Pd6  1  0.999596  0.999357  0.000540  1
  I  I7  1  0.911448  0.627182  0.180479  1
  I  I8  1  0.088846  0.372459  0.819054  1
  I  I9  1  0.259091  0.085512  0.470659  1
  I  I10  1  0.734068  0.911853  0.533590  1
  I  I11  1  0.451484  0.806889  0.086124  1
  I  I12  1  0.549727  0.185253  0.903259  1
  I  I13  1  0.357727  0.472296  0.278138  1
  I  I14  1  0.636536  0.536564  0.721299  1
  I  I15  1  0.800337  0.269528  0.361740  1
  I  I16  1  0.214801  0.735038  0.644882  1
