# generated using pymatgen
data_Pr5In4IrPt
_symmetry_space_group_name_H-M   'P 1'
_cell_length_a   3.82526500
_cell_length_b   8.36345842
_cell_length_c   18.77634992
_cell_angle_alpha   90.03611772
_cell_angle_beta   90.00000000
_cell_angle_gamma   90.00000000
_symmetry_Int_Tables_number   1
_chemical_formula_structural   Pr5In4IrPt
_chemical_formula_sum   'Pr10 In8 Ir2 Pt2'
_cell_volume   600.70121858
_cell_formula_units_Z   2
loop_
 _symmetry_equiv_pos_site_id
 _symmetry_equiv_pos_as_xyz
  1  'x, y, z'
loop_
 _atom_site_type_symbol
 _atom_site_label
 _atom_site_symmetry_multiplicity
 _atom_site_fract_x
 _atom_site_fract_y
 _atom_site_fract_z
 _atom_site_occupancy
  Pr  Pr0  1  0.000000  0.117634  0.413986  1
  Pr  Pr1  1  0.000000  0.882366  0.586014  1
  Pr  Pr2  1  0.000000  0.385569  0.911958  1
  Pr  Pr3  1  0.000000  0.614431  0.088042  1
  Pr  Pr4  1  0.000000  0.248736  0.220712  1
  Pr  Pr5  1  0.000000  0.751264  0.779288  1
  Pr  Pr6  1  0.000000  0.267166  0.721206  1
  Pr  Pr7  1  0.000000  0.732834  0.278794  1
  Pr  Pr8  1  0.000000  0.000000  0.000000  1
  Pr  Pr9  1  0.000000  0.500000  0.500000  1
  In  In10  1  0.500000  0.429669  0.350009  1
  In  In11  1  0.500000  0.570331  0.649991  1
  In  In12  1  0.500000  0.070314  0.850247  1
  In  In13  1  0.500000  0.929686  0.149753  1
  In  In14  1  0.500000  0.291225  0.069962  1
  In  In15  1  0.500000  0.708775  0.930038  1
  In  In16  1  0.500000  0.208600  0.568616  1
  In  In17  1  0.500000  0.791400  0.431384  1
  Ir  Ir18  1  0.500000  0.488351  0.804105  1
  Ir  Ir19  1  0.500000  0.511649  0.195895  1
  Pt  Pt20  1  0.500000  0.013341  0.302748  1
  Pt  Pt21  1  0.500000  0.986659  0.697252  1
