# generated using pymatgen
data_Y2ErIn5
_symmetry_space_group_name_H-M   'P 1'
_cell_length_a   6.51319700
_cell_length_b   10.44425400
_cell_length_c   12.25713200
_cell_angle_alpha   90.00000000
_cell_angle_beta   90.00000000
_cell_angle_gamma   90.00000000
_symmetry_Int_Tables_number   1
_chemical_formula_structural   Y2ErIn5
_chemical_formula_sum   'Y8 Er4 In20'
_cell_volume   833.79733455
_cell_formula_units_Z   4
loop_
 _symmetry_equiv_pos_site_id
 _symmetry_equiv_pos_as_xyz
  1  'x, y, z'
loop_
 _atom_site_type_symbol
 _atom_site_label
 _atom_site_symmetry_multiplicity
 _atom_site_fract_x
 _atom_site_fract_y
 _atom_site_fract_z
 _atom_site_occupancy
  Y  Y0  1  0.890481  0.493673  0.142338  1
  Y  Y1  1  0.609519  0.006327  0.642338  1
  Y  Y2  1  0.109519  0.993673  0.857662  1
  Y  Y3  1  0.390481  0.506327  0.357662  1
  Y  Y4  1  0.109519  0.506327  0.857662  1
  Y  Y5  1  0.390481  0.993673  0.357662  1
  Y  Y6  1  0.890481  0.006327  0.142338  1
  Y  Y7  1  0.609519  0.493673  0.642338  1
  Er  Er8  1  0.349788  0.750000  0.056198  1
  Er  Er9  1  0.150212  0.750000  0.556198  1
  Er  Er10  1  0.650212  0.250000  0.943802  1
  Er  Er11  1  0.849788  0.250000  0.443802  1
  In  In12  1  0.616138  0.750000  0.504722  1
  In  In13  1  0.883862  0.750000  0.004722  1
  In  In14  1  0.383862  0.250000  0.495278  1
  In  In15  1  0.116138  0.250000  0.995278  1
  In  In16  1  0.649752  0.750000  0.245910  1
  In  In17  1  0.850248  0.750000  0.745910  1
  In  In18  1  0.350248  0.250000  0.754090  1
  In  In19  1  0.149752  0.250000  0.254090  1
  In  In20  1  0.126300  0.750000  0.285432  1
  In  In21  1  0.373700  0.750000  0.785432  1
  In  In22  1  0.873700  0.250000  0.714568  1
  In  In23  1  0.626300  0.250000  0.214568  1
  In  In24  1  0.875527  0.543644  0.401869  1
  In  In25  1  0.624473  0.956356  0.901869  1
  In  In26  1  0.124473  0.043644  0.598131  1
  In  In27  1  0.375527  0.456356  0.098131  1
  In  In28  1  0.124473  0.456356  0.598131  1
  In  In29  1  0.375527  0.043644  0.098131  1
  In  In30  1  0.875527  0.956356  0.401869  1
  In  In31  1  0.624473  0.543644  0.901869  1
