# generated using pymatgen
data_Sc4Nb3SnRu8
_symmetry_space_group_name_H-M   'P 1'
_cell_length_a   6.38391400
_cell_length_b   4.52893700
_cell_length_c   9.05783400
_cell_angle_alpha   90.00002530
_cell_angle_beta   90.00025849
_cell_angle_gamma   89.99994777
_symmetry_Int_Tables_number   1
_chemical_formula_structural   Sc4Nb3SnRu8
_chemical_formula_sum   'Sc4 Nb3 Sn1 Ru8'
_cell_volume   261.88321539
_cell_formula_units_Z   1
loop_
 _symmetry_equiv_pos_site_id
 _symmetry_equiv_pos_as_xyz
  1  'x, y, z'
loop_
 _atom_site_type_symbol
 _atom_site_label
 _atom_site_symmetry_multiplicity
 _atom_site_fract_x
 _atom_site_fract_y
 _atom_site_fract_z
 _atom_site_occupancy
  Sc  Sc0  1  0.750015  0.249996  0.125005  1
  Sc  Sc1  1  0.250011  0.750013  0.370356  1
  Sc  Sc2  1  0.749986  0.249994  0.625055  1
  Sc  Sc3  1  0.249976  0.750003  0.879632  1
  Nb  Nb4  1  0.750014  0.749999  0.375243  1
  Nb  Nb5  1  0.249991  0.250000  0.625022  1
  Nb  Nb6  1  0.749977  0.750001  0.874773  1
  Sn  Sn7  1  0.250024  0.249996  0.124938  1
  Ru  Ru8  1  0.508995  0.749999  0.124915  1
  Ru  Ru9  1  0.991038  0.750003  0.124928  1
  Ru  Ru10  1  0.503280  0.250001  0.380092  1
  Ru  Ru11  1  0.996757  0.249999  0.380094  1
  Ru  Ru12  1  0.001530  0.750000  0.625043  1
  Ru  Ru13  1  0.498443  0.750000  0.625042  1
  Ru  Ru14  1  0.996855  0.250003  0.869932  1
  Ru  Ru15  1  0.503108  0.250002  0.869933  1
