# generated using pymatgen
data_La14Pr2Cd4TcPt3
_symmetry_space_group_name_H-M   'P 1'
_cell_length_a   10.22090084
_cell_length_b   10.22090091
_cell_length_c   10.22607000
_cell_angle_alpha   59.41374130
_cell_angle_beta   59.41373811
_cell_angle_gamma   59.40367268
_symmetry_Int_Tables_number   1
_chemical_formula_structural   La14Pr2Cd4TcPt3
_chemical_formula_sum   'La14 Pr2 Cd4 Tc1 Pt3'
_cell_volume   745.25664921
_cell_formula_units_Z   1
loop_
 _symmetry_equiv_pos_site_id
 _symmetry_equiv_pos_as_xyz
  1  'x, y, z'
loop_
 _atom_site_type_symbol
 _atom_site_label
 _atom_site_symmetry_multiplicity
 _atom_site_fract_x
 _atom_site_fract_y
 _atom_site_fract_z
 _atom_site_occupancy
  La  La0  1  0.351441  0.351441  0.350450  1
  La  La1  1  0.346068  0.346068  0.956854  1
  La  La2  1  0.345643  0.956882  0.345824  1
  La  La3  1  0.956882  0.345643  0.345824  1
  La  La4  1  0.817458  0.188542  0.188331  1
  La  La5  1  0.191301  0.806053  0.806147  1
  La  La6  1  0.188542  0.817458  0.188331  1
  La  La7  1  0.806053  0.191301  0.806147  1
  La  La8  1  0.188321  0.188321  0.817634  1
  La  La9  1  0.806315  0.806315  0.191185  1
  La  La10  1  0.935979  0.564164  0.564359  1
  La  La11  1  0.554335  0.938973  0.938799  1
  La  La12  1  0.564164  0.935979  0.564359  1
  La  La13  1  0.938973  0.554335  0.938799  1
  Pr  Pr14  1  0.563354  0.563354  0.937291  1
  Pr  Pr15  1  0.938995  0.938995  0.555127  1
  Cd  Cd16  1  0.579273  0.579273  0.579698  1
  Cd  Cd17  1  0.579887  0.579887  0.259099  1
  Cd  Cd18  1  0.580598  0.259149  0.579737  1
  Cd  Cd19  1  0.259149  0.580598  0.579737  1
  Tc  Tc20  1  0.141716  0.141716  0.141052  1
  Pt  Pt21  1  0.145046  0.145046  0.575234  1
  Pt  Pt22  1  0.145142  0.575363  0.144989  1
  Pt  Pt23  1  0.575363  0.145142  0.144989  1
