# generated using pymatgen
data_CaPr8YGa6
_symmetry_space_group_name_H-M   'P 1'
_cell_length_a   7.91630400
_cell_length_b   7.91630400
_cell_length_c   14.65336900
_cell_angle_alpha   90.00000000
_cell_angle_beta   90.00000000
_cell_angle_gamma   90.00000000
_symmetry_Int_Tables_number   1
_chemical_formula_structural   CaPr8YGa6
_chemical_formula_sum   'Ca2 Pr16 Y2 Ga12'
_cell_volume   918.29540920
_cell_formula_units_Z   2
loop_
 _symmetry_equiv_pos_site_id
 _symmetry_equiv_pos_as_xyz
  1  'x, y, z'
loop_
 _atom_site_type_symbol
 _atom_site_label
 _atom_site_symmetry_multiplicity
 _atom_site_fract_x
 _atom_site_fract_y
 _atom_site_fract_z
 _atom_site_occupancy
  Ca  Ca0  1  0.500000  0.000000  0.763452  1
  Ca  Ca1  1  0.000000  0.500000  0.236548  1
  Pr  Pr2  1  0.834256  0.818193  0.896948  1
  Pr  Pr3  1  0.179674  0.162536  0.601817  1
  Pr  Pr4  1  0.837464  0.179674  0.398183  1
  Pr  Pr5  1  0.162536  0.820326  0.398183  1
  Pr  Pr6  1  0.320326  0.337464  0.398183  1
  Pr  Pr7  1  0.818193  0.165744  0.103052  1
  Pr  Pr8  1  0.318193  0.665744  0.896948  1
  Pr  Pr9  1  0.181807  0.834256  0.103052  1
  Pr  Pr10  1  0.337464  0.679674  0.601817  1
  Pr  Pr11  1  0.665744  0.681807  0.103052  1
  Pr  Pr12  1  0.662536  0.320326  0.601817  1
  Pr  Pr13  1  0.820326  0.837464  0.601817  1
  Pr  Pr14  1  0.681807  0.334256  0.896948  1
  Pr  Pr15  1  0.165744  0.181807  0.896948  1
  Pr  Pr16  1  0.679674  0.662536  0.398183  1
  Pr  Pr17  1  0.334256  0.318193  0.103052  1
  Y  Y18  1  0.000000  0.500000  0.728040  1
  Y  Y19  1  0.500000  0.000000  0.271960  1
  Ga  Ga20  1  0.614236  0.375953  0.250051  1
  Ga  Ga21  1  0.385764  0.624047  0.250051  1
  Ga  Ga22  1  0.000000  0.500000  0.005901  1
  Ga  Ga23  1  0.500000  0.000000  0.994099  1
  Ga  Ga24  1  0.124047  0.114236  0.250051  1
  Ga  Ga25  1  0.375953  0.385764  0.749949  1
  Ga  Ga26  1  0.500000  0.000000  0.489867  1
  Ga  Ga27  1  0.000000  0.500000  0.510133  1
  Ga  Ga28  1  0.114236  0.875953  0.749949  1
  Ga  Ga29  1  0.875953  0.885764  0.250051  1
  Ga  Ga30  1  0.624047  0.614236  0.749949  1
  Ga  Ga31  1  0.885764  0.124047  0.749949  1
