# generated using pymatgen
data_TbDy3Pa4(ReB6)4
_symmetry_space_group_name_H-M   'P 1'
_cell_length_a   3.71596500
_cell_length_b   9.20813219
_cell_length_c   11.53212124
_cell_angle_alpha   90.02355630
_cell_angle_beta   90.00000000
_cell_angle_gamma   90.00000000
_symmetry_Int_Tables_number   1
_chemical_formula_structural   TbDy3Pa4(ReB6)4
_chemical_formula_sum   'Tb1 Dy3 Pa4 Re4 B24'
_cell_volume   394.59567729
_cell_formula_units_Z   1
loop_
 _symmetry_equiv_pos_site_id
 _symmetry_equiv_pos_as_xyz
  1  'x, y, z'
loop_
 _atom_site_type_symbol
 _atom_site_label
 _atom_site_symmetry_multiplicity
 _atom_site_fract_x
 _atom_site_fract_y
 _atom_site_fract_z
 _atom_site_occupancy
  Tb  Tb0  1  0.000000  0.945991  0.375565  1
  Dy  Dy1  1  0.000000  0.054021  0.624743  1
  Dy  Dy2  1  0.000000  0.445886  0.124581  1
  Dy  Dy3  1  0.000000  0.554097  0.875305  1
  Pa  Pa4  1  0.000000  0.324673  0.412803  1
  Pa  Pa5  1  0.000000  0.675396  0.587533  1
  Pa  Pa6  1  0.000000  0.824267  0.087231  1
  Pa  Pa7  1  0.000000  0.175778  0.912798  1
  Re  Re8  1  0.000000  0.638532  0.321901  1
  Re  Re9  1  0.000000  0.360908  0.677818  1
  Re  Re10  1  0.000000  0.139374  0.177637  1
  Re  Re11  1  0.000000  0.860679  0.822235  1
  B  B12  1  0.500000  0.552239  0.433091  1
  B  B13  1  0.500000  0.447643  0.566956  1
  B  B14  1  0.500000  0.052703  0.066727  1
  B  B15  1  0.500000  0.947534  0.933116  1
  B  B16  1  0.500000  0.746588  0.420794  1
  B  B17  1  0.500000  0.253103  0.579353  1
  B  B18  1  0.500000  0.247420  0.079160  1
  B  B19  1  0.500000  0.752725  0.920773  1
  B  B20  1  0.500000  0.793781  0.266842  1
  B  B21  1  0.500000  0.205921  0.733082  1
  B  B22  1  0.500000  0.294369  0.232810  1
  B  B23  1  0.500000  0.705779  0.767163  1
  B  B24  1  0.500000  0.634925  0.185887  1
  B  B25  1  0.500000  0.364967  0.814017  1
  B  B26  1  0.500000  0.135600  0.313747  1
  B  B27  1  0.500000  0.864692  0.686243  1
  B  B28  1  0.500000  0.983887  0.213565  1
  B  B29  1  0.500000  0.016376  0.786221  1
  B  B30  1  0.500000  0.483494  0.286077  1
  B  B31  1  0.500000  0.516488  0.713870  1
  B  B32  1  0.500000  0.617410  0.032490  1
  B  B33  1  0.500000  0.382609  0.967388  1
  B  B34  1  0.500000  0.119361  0.467214  1
  B  B35  1  0.500000  0.880783  0.533265  1
