# generated using pymatgen
data_DyHoEr4(SbO7)2
_symmetry_space_group_name_H-M   'P 1'
_cell_length_a   6.43165711
_cell_length_b   6.43165804
_cell_length_c   7.47860100
_cell_angle_alpha   90.01069899
_cell_angle_beta   89.98930101
_cell_angle_gamma   109.30708531
_symmetry_Int_Tables_number   1
_chemical_formula_structural   DyHoEr4(SbO7)2
_chemical_formula_sum   'Dy1 Ho1 Er4 Sb2 O14'
_cell_volume   291.96297480
_cell_formula_units_Z   1
loop_
 _symmetry_equiv_pos_site_id
 _symmetry_equiv_pos_as_xyz
  1  'x, y, z'
loop_
 _atom_site_type_symbol
 _atom_site_label
 _atom_site_symmetry_multiplicity
 _atom_site_fract_x
 _atom_site_fract_y
 _atom_site_fract_z
 _atom_site_occupancy
  Dy  Dy0  1  0.500000  0.500000  0.000000  1
  Ho  Ho1  1  0.500000  0.500000  0.500000  1
  Er  Er2  1  0.531486  0.000670  0.749478  1
  Er  Er3  1  0.000670  0.531486  0.250522  1
  Er  Er4  1  0.468514  0.999330  0.250522  1
  Er  Er5  1  0.999330  0.468514  0.749478  1
  Sb  Sb6  1  0.000000  0.000000  0.500000  1
  Sb  Sb7  1  0.000000  0.000000  0.000000  1
  O  O8  1  0.676443  0.927279  0.469769  1
  O  O9  1  0.927279  0.676443  0.530231  1
  O  O10  1  0.676224  0.927545  0.030265  1
  O  O11  1  0.927545  0.676224  0.969735  1
  O  O12  1  0.323557  0.072721  0.530231  1
  O  O13  1  0.072721  0.323557  0.469769  1
  O  O14  1  0.323776  0.072455  0.969735  1
  O  O15  1  0.072455  0.323776  0.030265  1
  O  O16  1  0.928065  0.071935  0.750022  1
  O  O17  1  0.071935  0.928065  0.249978  1
  O  O18  1  0.368433  0.631567  0.748512  1
  O  O19  1  0.631567  0.368433  0.251488  1
  O  O20  1  0.638443  0.361557  0.748635  1
  O  O21  1  0.361557  0.638443  0.251365  1
