# generated using pymatgen
data_Nd2Sm3Pb3Cl
_symmetry_space_group_name_H-M   'P 1'
_cell_length_a   9.46581324
_cell_length_b   9.46581205
_cell_length_c   6.78045100
_cell_angle_alpha   90.00000000
_cell_angle_beta   90.00000000
_cell_angle_gamma   119.97405712
_symmetry_Int_Tables_number   1
_chemical_formula_structural   Nd2Sm3Pb3Cl
_chemical_formula_sum   'Nd4 Sm6 Pb6 Cl2'
_cell_volume   526.28197426
_cell_formula_units_Z   2
loop_
 _symmetry_equiv_pos_site_id
 _symmetry_equiv_pos_as_xyz
  1  'x, y, z'
loop_
 _atom_site_type_symbol
 _atom_site_label
 _atom_site_symmetry_multiplicity
 _atom_site_fract_x
 _atom_site_fract_y
 _atom_site_fract_z
 _atom_site_occupancy
  Nd  Nd0  1  0.259376  0.000070  0.250000  1
  Nd  Nd1  1  0.740624  0.999930  0.750000  1
  Nd  Nd2  1  0.000070  0.259376  0.250000  1
  Nd  Nd3  1  0.999930  0.740624  0.750000  1
  Sm  Sm4  1  0.333482  0.666518  0.000000  1
  Sm  Sm5  1  0.666518  0.333482  0.000000  1
  Sm  Sm6  1  0.666518  0.333482  0.500000  1
  Sm  Sm7  1  0.333482  0.666518  0.500000  1
  Sm  Sm8  1  0.740673  0.740673  0.250000  1
  Sm  Sm9  1  0.259327  0.259327  0.750000  1
  Pb  Pb10  1  0.610527  0.999503  0.250000  1
  Pb  Pb11  1  0.389473  0.000497  0.750000  1
  Pb  Pb12  1  0.999503  0.610527  0.250000  1
  Pb  Pb13  1  0.000497  0.389473  0.750000  1
  Pb  Pb14  1  0.390354  0.390354  0.250000  1
  Pb  Pb15  1  0.609646  0.609646  0.750000  1
  Cl  Cl16  1  0.000000  0.000000  0.000000  1
  Cl  Cl17  1  0.000000  0.000000  0.500000  1
