# generated using pymatgen
data_YbCd3(BrO3)8
_symmetry_space_group_name_H-M   'P 1'
_cell_length_a   5.78480621
_cell_length_b   11.17595686
_cell_length_c   11.26838816
_cell_angle_alpha   119.45886095
_cell_angle_beta   90.02560622
_cell_angle_gamma   90.10350848
_symmetry_Int_Tables_number   1
_chemical_formula_structural   YbCd3(BrO3)8
_chemical_formula_sum   'Yb1 Cd3 Br8 O24'
_cell_volume   634.31818549
_cell_formula_units_Z   1
loop_
 _symmetry_equiv_pos_site_id
 _symmetry_equiv_pos_as_xyz
  1  'x, y, z'
loop_
 _atom_site_type_symbol
 _atom_site_label
 _atom_site_symmetry_multiplicity
 _atom_site_fract_x
 _atom_site_fract_y
 _atom_site_fract_z
 _atom_site_occupancy
  Yb  Yb0  1  0.141950  0.765070  0.508703  1
  Cd  Cd1  1  0.646356  0.234187  0.491156  1
  Cd  Cd2  1  0.141345  0.265216  0.007164  1
  Cd  Cd3  1  0.642708  0.734676  0.992919  1
  Br  Br4  1  0.269473  0.414671  0.348462  1
  Br  Br5  1  0.768316  0.581519  0.651198  1
  Br  Br6  1  0.265600  0.919807  0.854155  1
  Br  Br7  1  0.765443  0.082538  0.149040  1
  Br  Br8  1  0.781286  0.087160  0.689662  1
  Br  Br9  1  0.283971  0.914640  0.307971  1
  Br  Br10  1  0.281918  0.412342  0.808492  1
  Br  Br11  1  0.782527  0.585325  0.189561  1
  O  O12  1  0.420516  0.892337  0.965152  1
  O  O13  1  0.916890  0.108121  0.035657  1
  O  O14  1  0.368469  0.808635  0.697952  1
  O  O15  1  0.876804  0.195691  0.303858  1
  O  O16  1  0.377524  0.304863  0.192046  1
  O  O17  1  0.874610  0.692462  0.808115  1
  O  O18  1  0.913615  0.223579  0.819334  1
  O  O19  1  0.418645  0.777098  0.180554  1
  O  O20  1  0.924354  0.946901  0.667955  1
  O  O21  1  0.424921  0.055760  0.327183  1
  O  O22  1  0.367893  0.073456  0.879880  1
  O  O23  1  0.866961  0.929054  0.123442  1
  O  O24  1  0.413683  0.275792  0.678729  1
  O  O25  1  0.916021  0.717778  0.321633  1
  O  O26  1  0.356895  0.402059  0.948865  1
  O  O27  1  0.861406  0.598989  0.051803  1
  O  O28  1  0.423491  0.553183  0.827306  1
  O  O29  1  0.920942  0.443657  0.170117  1
  O  O30  1  0.360759  0.570460  0.378106  1
  O  O31  1  0.871846  0.427235  0.621551  1
  O  O32  1  0.429240  0.389535  0.459411  1
  O  O33  1  0.924928  0.615566  0.546073  1
  O  O34  1  0.857077  0.097951  0.549569  1
  O  O35  1  0.351216  0.902693  0.447222  1
