# generated using pymatgen
data_La5NdBi2(SeO5)4
_symmetry_space_group_name_H-M   'P 1'
_cell_length_a   8.87171946
_cell_length_b   8.86742795
_cell_length_c   11.32974335
_cell_angle_alpha   90.16255590
_cell_angle_beta   89.75877413
_cell_angle_gamma   142.27005837
_symmetry_Int_Tables_number   1
_chemical_formula_structural   La5NdBi2(SeO5)4
_chemical_formula_sum   'La5 Nd1 Bi2 Se4 O20'
_cell_volume   545.41955058
_cell_formula_units_Z   1
loop_
 _symmetry_equiv_pos_site_id
 _symmetry_equiv_pos_as_xyz
  1  'x, y, z'
loop_
 _atom_site_type_symbol
 _atom_site_label
 _atom_site_symmetry_multiplicity
 _atom_site_fract_x
 _atom_site_fract_y
 _atom_site_fract_z
 _atom_site_occupancy
  La  La0  1  0.256602  0.757226  0.386476  1
  La  La1  1  0.243415  0.750364  0.880329  1
  La  La2  1  0.750728  0.243006  0.118243  1
  La  La3  1  0.898164  0.073194  0.378277  1
  La  La4  1  0.072921  0.897727  0.623215  1
  Nd  Nd5  1  0.755688  0.256021  0.611758  1
  Bi  Bi6  1  0.405202  0.573219  0.599638  1
  Bi  Bi7  1  0.573995  0.407036  0.401865  1
  Se  Se8  1  0.393809  0.572478  0.128897  1
  Se  Se9  1  0.572603  0.391800  0.870331  1
  Se  Se10  1  0.876481  0.065780  0.863104  1
  Se  Se11  1  0.065316  0.877845  0.135297  1
  O  O12  1  0.144295  0.441903  0.213714  1
  O  O13  1  0.448741  0.147350  0.783304  1
  O  O14  1  0.648302  0.984045  0.785699  1
  O  O15  1  0.972094  0.640917  0.210293  1
  O  O16  1  0.577440  0.903755  0.509145  1
  O  O17  1  0.902396  0.576567  0.492827  1
  O  O18  1  0.084199  0.412924  0.497799  1
  O  O19  1  0.416575  0.088172  0.505747  1
  O  O20  1  0.086558  0.638723  0.710270  1
  O  O21  1  0.645322  0.092694  0.290887  1
  O  O22  1  0.490363  0.812286  0.055568  1
  O  O23  1  0.813128  0.491211  0.944097  1
  O  O24  1  0.174425  0.072657  0.248524  1
  O  O25  1  0.075876  0.174686  0.752566  1
  O  O26  1  0.717236  0.611848  0.765381  1
  O  O27  1  0.609971  0.717586  0.235931  1
  O  O28  1  0.253737  0.254155  0.500313  1
  O  O29  1  0.733743  0.733875  0.500494  1
  O  O30  1  0.328378  0.015211  0.062741  1
  O  O31  1  0.017338  0.328780  0.937269  1
