# generated using pymatgen
data_PrEr11Tc4
_symmetry_space_group_name_H-M   'P 1'
_cell_length_a   6.25960261
_cell_length_b   7.38894005
_cell_length_c   9.09749900
_cell_angle_alpha   90.00000000
_cell_angle_beta   90.00000000
_cell_angle_gamma   90.18896362
_symmetry_Int_Tables_number   1
_chemical_formula_structural   PrEr11Tc4
_chemical_formula_sum   'Pr1 Er11 Tc4'
_cell_volume   420.77367437
_cell_formula_units_Z   1
loop_
 _symmetry_equiv_pos_site_id
 _symmetry_equiv_pos_as_xyz
  1  'x, y, z'
loop_
 _atom_site_type_symbol
 _atom_site_label
 _atom_site_symmetry_multiplicity
 _atom_site_fract_x
 _atom_site_fract_y
 _atom_site_fract_z
 _atom_site_occupancy
  Pr  Pr0  1  0.374032  0.957919  0.750000  1
  Er  Er1  1  0.340915  0.673530  0.063930  1
  Er  Er2  1  0.157802  0.178076  0.435827  1
  Er  Er3  1  0.661014  0.324225  0.561401  1
  Er  Er4  1  0.842523  0.823453  0.939077  1
  Er  Er5  1  0.661014  0.324225  0.938599  1
  Er  Er6  1  0.842523  0.823453  0.560923  1
  Er  Er7  1  0.340915  0.673530  0.436070  1
  Er  Er8  1  0.157802  0.178076  0.064173  1
  Er  Er9  1  0.871025  0.543253  0.250000  1
  Er  Er10  1  0.626889  0.041200  0.250000  1
  Er  Er11  1  0.126575  0.458247  0.750000  1
  Tc  Tc12  1  0.041499  0.886839  0.250000  1
  Tc  Tc13  1  0.458417  0.385881  0.250000  1
  Tc  Tc14  1  0.956418  0.115809  0.750000  1
  Tc  Tc15  1  0.540635  0.612283  0.750000  1
