# generated using pymatgen
data_Pr2AlGa4Pt3
_symmetry_space_group_name_H-M   'P 1'
_cell_length_a   8.65335159
_cell_length_b   8.65335153
_cell_length_c   8.65334959
_cell_angle_alpha   138.90642903
_cell_angle_beta   106.11137617
_cell_angle_gamma   88.21537215
_symmetry_Int_Tables_number   1
_chemical_formula_structural   Pr2AlGa4Pt3
_chemical_formula_sum   'Pr4 Al2 Ga8 Pt6'
_cell_volume   392.58365659
_cell_formula_units_Z   2
loop_
 _symmetry_equiv_pos_site_id
 _symmetry_equiv_pos_as_xyz
  1  'x, y, z'
loop_
 _atom_site_type_symbol
 _atom_site_label
 _atom_site_symmetry_multiplicity
 _atom_site_fract_x
 _atom_site_fract_y
 _atom_site_fract_z
 _atom_site_occupancy
  Pr  Pr0  1  0.865566  0.631580  0.233985  1
  Pr  Pr1  1  0.134434  0.368420  0.766015  1
  Pr  Pr2  1  0.397595  0.131580  0.266015  1
  Pr  Pr3  1  0.602405  0.868420  0.733985  1
  Al  Al4  1  0.500000  0.750000  0.250000  1
  Al  Al5  1  0.500000  0.250000  0.750000  1
  Ga  Ga6  1  0.225714  0.975714  0.750000  1
  Ga  Ga7  1  0.774286  0.524286  0.750000  1
  Ga  Ga8  1  0.774286  0.024286  0.250000  1
  Ga  Ga9  1  0.225714  0.475714  0.250000  1
  Ga  Ga10  1  0.046652  0.894361  0.152291  1
  Ga  Ga11  1  0.953348  0.105639  0.847709  1
  Ga  Ga12  1  0.742069  0.394361  0.347709  1
  Ga  Ga13  1  0.257931  0.605639  0.652291  1
  Pt  Pt14  1  0.000000  0.750000  0.750000  1
  Pt  Pt15  1  0.000000  0.250000  0.250000  1
  Pt  Pt16  1  0.254103  0.864833  0.389272  1
  Pt  Pt17  1  0.745897  0.135167  0.610728  1
  Pt  Pt18  1  0.475562  0.364833  0.110728  1
  Pt  Pt19  1  0.524438  0.635167  0.889272  1
