# generated using pymatgen
data_Y7LuAlPd24
_symmetry_space_group_name_H-M   'P 1'
_cell_length_a   8.36658816
_cell_length_b   8.36658832
_cell_length_c   8.36658900
_cell_angle_alpha   90.01114196
_cell_angle_beta   89.98885803
_cell_angle_gamma   89.98885335
_symmetry_Int_Tables_number   1
_chemical_formula_structural   Y7LuAlPd24
_chemical_formula_sum   'Y7 Lu1 Al1 Pd24'
_cell_volume   585.65951286
_cell_formula_units_Z   1
loop_
 _symmetry_equiv_pos_site_id
 _symmetry_equiv_pos_as_xyz
  1  'x, y, z'
loop_
 _atom_site_type_symbol
 _atom_site_label
 _atom_site_symmetry_multiplicity
 _atom_site_fract_x
 _atom_site_fract_y
 _atom_site_fract_z
 _atom_site_occupancy
  Y  Y0  1  0.251141  0.251586  0.251586  1
  Y  Y1  1  0.748617  0.748423  0.748423  1
  Y  Y2  1  0.748414  0.748859  0.251586  1
  Y  Y3  1  0.748414  0.251586  0.748859  1
  Y  Y4  1  0.251577  0.251383  0.748423  1
  Y  Y5  1  0.251577  0.748423  0.251383  1
  Y  Y6  1  0.251536  0.748464  0.748464  1
  Lu  Lu7  1  0.748221  0.251779  0.251779  1
  Al  Al8  1  0.000358  0.999642  0.999642  1
  Pd  Pd9  1  0.259609  0.499713  0.999998  1
  Pd  Pd10  1  0.740331  0.498768  0.001871  1
  Pd  Pd11  1  0.998129  0.259669  0.498768  1
  Pd  Pd12  1  0.501232  0.259669  0.001871  1
  Pd  Pd13  1  0.000002  0.740391  0.499713  1
  Pd  Pd14  1  0.500287  0.740391  0.999998  1
  Pd  Pd15  1  0.501232  0.001871  0.259669  1
  Pd  Pd16  1  0.259609  0.999998  0.499713  1
  Pd  Pd17  1  0.500287  0.999998  0.740391  1
  Pd  Pd18  1  0.740331  0.001871  0.498768  1
  Pd  Pd19  1  0.998129  0.498768  0.259669  1
  Pd  Pd20  1  0.000002  0.499713  0.740391  1
  Pd  Pd21  1  0.252463  0.499841  0.499841  1
  Pd  Pd22  1  0.747281  0.498670  0.498670  1
  Pd  Pd23  1  0.501330  0.252719  0.498670  1
  Pd  Pd24  1  0.500159  0.747537  0.499841  1
  Pd  Pd25  1  0.501330  0.498670  0.252719  1
  Pd  Pd26  1  0.500159  0.499841  0.747537  1
  Pd  Pd27  1  0.289692  0.000046  0.000046  1
  Pd  Pd28  1  0.711258  0.001309  0.001309  1
  Pd  Pd29  1  0.998691  0.288742  0.001309  1
  Pd  Pd30  1  0.999954  0.710308  0.000046  1
  Pd  Pd31  1  0.998691  0.001309  0.288742  1
  Pd  Pd32  1  0.999954  0.000046  0.710308  1
