# generated using pymatgen
data_La2Dy3Rh2
_symmetry_space_group_name_H-M   'P 1'
_cell_length_a   6.54221128
_cell_length_b   7.21109454
_cell_length_c   8.96590290
_cell_angle_alpha   96.70679940
_cell_angle_beta   111.39763816
_cell_angle_gamma   89.99998882
_symmetry_Int_Tables_number   1
_chemical_formula_structural   La2Dy3Rh2
_chemical_formula_sum   'La4 Dy6 Rh4'
_cell_volume   390.71383936
_cell_formula_units_Z   2
loop_
 _symmetry_equiv_pos_site_id
 _symmetry_equiv_pos_as_xyz
  1  'x, y, z'
loop_
 _atom_site_type_symbol
 _atom_site_label
 _atom_site_symmetry_multiplicity
 _atom_site_fract_x
 _atom_site_fract_y
 _atom_site_fract_z
 _atom_site_occupancy
  La  La0  1  0.784669  0.082584  0.805531  1
  La  La1  1  0.979139  0.417416  0.194469  1
  La  La2  1  0.215331  0.917416  0.194469  1
  La  La3  1  0.020861  0.582584  0.805531  1
  Dy  Dy4  1  0.208919  0.184869  0.567231  1
  Dy  Dy5  1  0.641687  0.315131  0.432769  1
  Dy  Dy6  1  0.791081  0.815131  0.432769  1
  Dy  Dy7  1  0.358313  0.684869  0.567231  1
  Dy  Dy8  1  0.427295  0.250000  0.000000  1
  Dy  Dy9  1  0.572705  0.750000  0.000000  1
  Rh  Rh10  1  0.589327  0.423478  0.773550  1
  Rh  Rh11  1  0.815775  0.076522  0.226450  1
  Rh  Rh12  1  0.410673  0.576522  0.226450  1
  Rh  Rh13  1  0.184225  0.923478  0.773550  1
