# generated using pymatgen
data_ReRu6W
_symmetry_space_group_name_H-M   'P 1'
_cell_length_a   5.50566400
_cell_length_b   5.50566410
_cell_length_c   4.35547900
_cell_angle_alpha   90.00000000
_cell_angle_beta   90.00000000
_cell_angle_gamma   119.99999942
_symmetry_Int_Tables_number   1
_chemical_formula_structural   ReRu6W
_chemical_formula_sum   'Re1 Ru6 W1'
_cell_volume   114.33678424
_cell_formula_units_Z   1
loop_
 _symmetry_equiv_pos_site_id
 _symmetry_equiv_pos_as_xyz
  1  'x, y, z'
loop_
 _atom_site_type_symbol
 _atom_site_label
 _atom_site_symmetry_multiplicity
 _atom_site_fract_x
 _atom_site_fract_y
 _atom_site_fract_z
 _atom_site_occupancy
  Re  Re0  1  0.666667  0.333333  0.250000  1
  Ru  Ru1  1  0.166337  0.332674  0.250000  1
  Ru  Ru2  1  0.667326  0.833663  0.250000  1
  Ru  Ru3  1  0.166337  0.833663  0.250000  1
  Ru  Ru4  1  0.832068  0.664137  0.750000  1
  Ru  Ru5  1  0.335863  0.167932  0.750000  1
  Ru  Ru6  1  0.832068  0.167932  0.750000  1
  W  W7  1  0.333333  0.666667  0.750000  1
