# generated using pymatgen
data_Pm2Sn3
_symmetry_space_group_name_H-M   'P 1'
_cell_length_a   6.16712294
_cell_length_b   6.20681300
_cell_length_c   6.16693558
_cell_angle_alpha   109.27421750
_cell_angle_beta   137.45835674
_cell_angle_gamma   86.07230239
_symmetry_Int_Tables_number   1
_chemical_formula_structural   Pm2Sn3
_chemical_formula_sum   'Pm2 Sn3'
_cell_volume   144.90509992
_cell_formula_units_Z   1
loop_
 _symmetry_equiv_pos_site_id
 _symmetry_equiv_pos_as_xyz
  1  'x, y, z'
loop_
 _atom_site_type_symbol
 _atom_site_label
 _atom_site_symmetry_multiplicity
 _atom_site_fract_x
 _atom_site_fract_y
 _atom_site_fract_z
 _atom_site_occupancy
  Pm  Pm0  1  0.982418  0.198405  0.577208  1
  Pm  Pm1  1  0.535348  0.741697  0.569066  1
  Sn  Sn2  1  0.759429  0.472909  0.076034  1
  Sn  Sn3  1  0.255581  0.168719  0.276370  1
  Sn  Sn4  1  0.262348  0.772615  0.871472  1
