# generated using pymatgen
data_Lu3Si3Tc2
_symmetry_space_group_name_H-M   'P 1'
_cell_length_a   5.62813000
_cell_length_b   5.62812944
_cell_length_c   13.75521400
_cell_angle_alpha   90.00000000
_cell_angle_beta   90.00000000
_cell_angle_gamma   136.54455558
_symmetry_Int_Tables_number   1
_chemical_formula_structural   Lu3Si3Tc2
_chemical_formula_sum   'Lu6 Si6 Tc4'
_cell_volume   299.67573985
_cell_formula_units_Z   2
loop_
 _symmetry_equiv_pos_site_id
 _symmetry_equiv_pos_as_xyz
  1  'x, y, z'
loop_
 _atom_site_type_symbol
 _atom_site_label
 _atom_site_symmetry_multiplicity
 _atom_site_fract_x
 _atom_site_fract_y
 _atom_site_fract_z
 _atom_site_occupancy
  Lu  Lu0  1  0.636342  0.363658  0.250000  1
  Lu  Lu1  1  0.363658  0.636342  0.750000  1
  Lu  Lu2  1  0.923345  0.076655  0.113815  1
  Lu  Lu3  1  0.076655  0.923345  0.886185  1
  Lu  Lu4  1  0.076655  0.923345  0.613815  1
  Lu  Lu5  1  0.923345  0.076655  0.386185  1
  Si  Si6  1  0.325682  0.674318  0.250000  1
  Si  Si7  1  0.674318  0.325682  0.750000  1
  Si  Si8  1  0.613974  0.386026  0.039792  1
  Si  Si9  1  0.386026  0.613974  0.960208  1
  Si  Si10  1  0.386026  0.613974  0.539792  1
  Si  Si11  1  0.613974  0.386026  0.460208  1
  Tc  Tc12  1  0.784933  0.215067  0.583288  1
  Tc  Tc13  1  0.215067  0.784933  0.416712  1
  Tc  Tc14  1  0.215067  0.784933  0.083288  1
  Tc  Tc15  1  0.784933  0.215067  0.916712  1
