# generated using pymatgen
data_Nd3PaIn2Ir3
_symmetry_space_group_name_H-M   'P 1'
_cell_length_a   7.44321800
_cell_length_b   7.59314754
_cell_length_c   4.34986000
_cell_angle_alpha   90.00000000
_cell_angle_beta   90.00000000
_cell_angle_gamma   119.34895848
_symmetry_Int_Tables_number   1
_chemical_formula_structural   Nd3PaIn2Ir3
_chemical_formula_sum   'Nd3 Pa1 In2 Ir3'
_cell_volume   214.28924845
_cell_formula_units_Z   1
loop_
 _symmetry_equiv_pos_site_id
 _symmetry_equiv_pos_as_xyz
  1  'x, y, z'
loop_
 _atom_site_type_symbol
 _atom_site_label
 _atom_site_symmetry_multiplicity
 _atom_site_fract_x
 _atom_site_fract_y
 _atom_site_fract_z
 _atom_site_occupancy
  Nd  Nd0  1  0.621438  0.000000  0.500000  1
  Nd  Nd1  1  0.406890  0.432642  0.500000  1
  Nd  Nd2  1  0.974249  0.567358  0.500000  1
  Pa  Pa3  1  0.265173  0.000000  0.000000  1
  In  In4  1  0.748722  0.747441  0.000000  1
  In  In5  1  0.001281  0.252559  0.000000  1
  Ir  Ir6  1  0.023746  0.000000  0.500000  1
  Ir  Ir7  1  0.322066  0.685629  0.000000  1
  Ir  Ir8  1  0.636438  0.314371  0.000000  1
