# generated using pymatgen
data_La19YbSn9Bi7
_symmetry_space_group_name_H-M   'P 1'
_cell_length_a   8.61178096
_cell_length_b   8.67223462
_cell_length_c   16.59258500
_cell_angle_alpha   90.03818074
_cell_angle_beta   89.68522954
_cell_angle_gamma   89.87203953
_symmetry_Int_Tables_number   1
_chemical_formula_structural   La19YbSn9Bi7
_chemical_formula_sum   'La19 Yb1 Sn9 Bi7'
_cell_volume   1239.16833777
_cell_formula_units_Z   1
loop_
 _symmetry_equiv_pos_site_id
 _symmetry_equiv_pos_as_xyz
  1  'x, y, z'
loop_
 _atom_site_type_symbol
 _atom_site_label
 _atom_site_symmetry_multiplicity
 _atom_site_fract_x
 _atom_site_fract_y
 _atom_site_fract_z
 _atom_site_occupancy
  La  La0  1  0.400125  0.834559  0.882165  1
  La  La1  1  0.901239  0.665102  0.617920  1
  La  La2  1  0.596673  0.164297  0.381748  1
  La  La3  1  0.097702  0.334437  0.118301  1
  La  La4  1  0.600516  0.167569  0.118038  1
  La  La5  1  0.098363  0.332911  0.381545  1
  La  La6  1  0.400727  0.834986  0.618280  1
  La  La7  1  0.896453  0.662221  0.883194  1
  La  La8  1  0.559142  0.328948  0.891407  1
  La  La9  1  0.060528  0.173165  0.612218  1
  La  La10  1  0.439803  0.672658  0.387781  1
  La  La11  1  0.946118  0.822668  0.110153  1
  La  La12  1  0.447733  0.671749  0.109838  1
  La  La13  1  0.943001  0.827910  0.388074  1
  La  La14  1  0.560198  0.328263  0.611451  1
  La  La15  1  0.053266  0.177173  0.890721  1
  La  La16  1  0.228248  0.497147  0.750766  1
  La  La17  1  0.727794  0.002800  0.751001  1
  La  La18  1  0.770940  0.501764  0.245115  1
  Yb  Yb19  1  0.268553  0.999014  0.248739  1
  Sn  Sn20  1  0.763760  0.483608  0.044889  1
  Sn  Sn21  1  0.600135  0.625061  0.749553  1
  Sn  Sn22  1  0.100507  0.875555  0.750682  1
  Sn  Sn23  1  0.397538  0.377048  0.250707  1
  Sn  Sn24  1  0.898320  0.123304  0.250512  1
  Sn  Sn25  1  0.358114  0.134136  0.750855  1
  Sn  Sn26  1  0.858546  0.365524  0.749942  1
  Sn  Sn27  1  0.643577  0.866810  0.250176  1
  Sn  Sn28  1  0.143354  0.633601  0.250172  1
  Bi  Bi29  1  0.264475  0.015436  0.045779  1
  Bi  Bi30  1  0.760855  0.488256  0.452961  1
  Bi  Bi31  1  0.739746  0.988543  0.546171  1
  Bi  Bi32  1  0.235795  0.515772  0.955368  1
  Bi  Bi33  1  0.736965  0.984485  0.955017  1
  Bi  Bi34  1  0.238827  0.511752  0.545700  1
  Bi  Bi35  1  0.262361  0.011765  0.453061  1
