# generated using pymatgen
data_NaCr(CO3)2
_symmetry_space_group_name_H-M   'P 1'
_cell_length_a   4.78326426
_cell_length_b   6.08439893
_cell_length_c   8.28353079
_cell_angle_alpha   76.87651359
_cell_angle_beta   89.99703751
_cell_angle_gamma   113.14272217
_symmetry_Int_Tables_number   1
_chemical_formula_structural   NaCr(CO3)2
_chemical_formula_sum   'Na2 Cr2 C4 O12'
_cell_volume   214.81277209
_cell_formula_units_Z   2
loop_
 _symmetry_equiv_pos_site_id
 _symmetry_equiv_pos_as_xyz
  1  'x, y, z'
loop_
 _atom_site_type_symbol
 _atom_site_label
 _atom_site_symmetry_multiplicity
 _atom_site_fract_x
 _atom_site_fract_y
 _atom_site_fract_z
 _atom_site_occupancy
  Na  Na0  1  0.999942  0.999891  0.000039  1
  Na  Na1  1  0.499934  0.999872  0.500035  1
  Cr  Cr2  1  0.750445  0.500004  0.750122  1
  Cr  Cr3  1  0.249709  0.499769  0.249978  1
  C  C4  1  0.855412  0.710791  0.381428  1
  C  C5  1  0.355461  0.710875  0.881491  1
  C  C6  1  0.644585  0.289161  0.118490  1
  C  C7  1  0.144547  0.289269  0.618564  1
  O  O8  1  0.911325  0.284230  0.136856  1
  O  O9  1  0.411513  0.284394  0.636907  1
  O  O10  1  0.466125  0.715704  0.024138  1
  O  O11  1  0.966226  0.715850  0.524058  1
  O  O12  1  0.018947  0.715819  0.254690  1
  O  O13  1  0.519165  0.716080  0.754706  1
  O  O14  1  0.480946  0.284079  0.245213  1
  O  O15  1  0.981162  0.284321  0.745240  1
  O  O16  1  0.033703  0.284102  0.475992  1
  O  O17  1  0.533807  0.284248  0.975897  1
  O  O18  1  0.588472  0.715725  0.363047  1
  O  O19  1  0.088574  0.715816  0.863108  1
