# generated using pymatgen
data_Tm4B16Ir3Rh
_symmetry_space_group_name_H-M   'P 1'
_cell_length_a   3.55087400
_cell_length_b   5.93976426
_cell_length_c   11.51837450
_cell_angle_alpha   89.96625580
_cell_angle_beta   90.00000000
_cell_angle_gamma   90.00000000
_symmetry_Int_Tables_number   1
_chemical_formula_structural   Tm4B16Ir3Rh
_chemical_formula_sum   'Tm4 B16 Ir3 Rh1'
_cell_volume   242.93807733
_cell_formula_units_Z   1
loop_
 _symmetry_equiv_pos_site_id
 _symmetry_equiv_pos_as_xyz
  1  'x, y, z'
loop_
 _atom_site_type_symbol
 _atom_site_label
 _atom_site_symmetry_multiplicity
 _atom_site_fract_x
 _atom_site_fract_y
 _atom_site_fract_z
 _atom_site_occupancy
  Tm  Tm0  1  0.000000  0.132321  0.648674  1
  Tm  Tm1  1  0.000000  0.867634  0.350696  1
  Tm  Tm2  1  0.000000  0.631965  0.852153  1
  Tm  Tm3  1  0.000000  0.367980  0.148188  1
  B  B4  1  0.500000  0.793247  0.688150  1
  B  B5  1  0.500000  0.206845  0.311772  1
  B  B6  1  0.500000  0.292361  0.812124  1
  B  B7  1  0.500000  0.707824  0.187845  1
  B  B8  1  0.500000  0.864521  0.529511  1
  B  B9  1  0.500000  0.135525  0.470172  1
  B  B10  1  0.500000  0.364640  0.970231  1
  B  B11  1  0.500000  0.635711  0.029761  1
  B  B12  1  0.500000  0.022109  0.193349  1
  B  B13  1  0.500000  0.978080  0.806469  1
  B  B14  1  0.500000  0.523778  0.306513  1
  B  B15  1  0.500000  0.476696  0.693216  1
  B  B16  1  0.500000  0.112790  0.046820  1
  B  B17  1  0.500000  0.887323  0.952604  1
  B  B18  1  0.500000  0.612702  0.452762  1
  B  B19  1  0.500000  0.387344  0.547119  1
  Ir  Ir20  1  0.000000  0.645397  0.597217  1
  Ir  Ir21  1  0.000000  0.355224  0.403538  1
  Ir  Ir22  1  0.000000  0.142191  0.904090  1
  Rh  Rh23  1  0.000000  0.855792  0.097029  1
