# generated using pymatgen
data_KRb3Ba4Fe8(PO4)12
_symmetry_space_group_name_H-M   'P 1'
_cell_length_a   10.02330100
_cell_length_b   10.02330100
_cell_length_c   10.02330100
_cell_angle_alpha   90.00000000
_cell_angle_beta   90.00000000
_cell_angle_gamma   90.00000000
_symmetry_Int_Tables_number   1
_chemical_formula_structural   KRb3Ba4Fe8(PO4)12
_chemical_formula_sum   'K1 Rb3 Ba4 Fe8 P12 O48'
_cell_volume   1007.00660075
_cell_formula_units_Z   1
loop_
 _symmetry_equiv_pos_site_id
 _symmetry_equiv_pos_as_xyz
  1  'x, y, z'
loop_
 _atom_site_type_symbol
 _atom_site_label
 _atom_site_symmetry_multiplicity
 _atom_site_fract_x
 _atom_site_fract_y
 _atom_site_fract_z
 _atom_site_occupancy
  K  K0  1  0.800296  0.199704  0.699704  1
  Rb  Rb1  1  0.202714  0.702825  0.797229  1
  Rb  Rb2  1  0.297175  0.297229  0.297286  1
  Rb  Rb3  1  0.702771  0.797286  0.202825  1
  Ba  Ba4  1  0.067680  0.067934  0.067809  1
  Ba  Ba5  1  0.432191  0.932320  0.567934  1
  Ba  Ba6  1  0.568178  0.431822  0.931822  1
  Ba  Ba7  1  0.932066  0.567809  0.432320  1
  Fe  Fe8  1  0.085523  0.914477  0.414477  1
  Fe  Fe9  1  0.147731  0.351617  0.647894  1
  Fe  Fe10  1  0.352020  0.647980  0.147980  1
  Fe  Fe11  1  0.414586  0.085677  0.914337  1
  Fe  Fe12  1  0.585663  0.585414  0.585677  1
  Fe  Fe13  1  0.648383  0.147894  0.352269  1
  Fe  Fe14  1  0.852106  0.852269  0.851617  1
  Fe  Fe15  1  0.914323  0.414337  0.085414  1
  P  P16  1  0.040094  0.727228  0.127704  1
  P  P17  1  0.126716  0.040289  0.727038  1
  P  P18  1  0.227173  0.372239  0.959850  1
  P  P19  1  0.272772  0.627704  0.459906  1
  P  P20  1  0.372296  0.959906  0.227228  1
  P  P21  1  0.460730  0.272748  0.628157  1
  P  P22  1  0.540150  0.772827  0.872239  1
  P  P23  1  0.627761  0.459850  0.272827  1
  P  P24  1  0.727252  0.128157  0.039270  1
  P  P25  1  0.772962  0.873284  0.540289  1
  P  P26  1  0.871843  0.539270  0.772748  1
  P  P27  1  0.959711  0.227038  0.373284  1
  O  O28  1  0.999645  0.080777  0.347309  1
  O  O29  1  0.015692  0.801111  0.262061  1
  O  O30  1  0.023553  0.951599  0.799881  1
  O  O31  1  0.048401  0.299881  0.476447  1
  O  O32  1  0.078282  0.186586  0.738217  1
  O  O33  1  0.080831  0.346984  0.000118  1
  O  O34  1  0.152691  0.000355  0.580777  1
  O  O35  1  0.187038  0.739234  0.081860  1
  O  O36  1  0.198889  0.762061  0.484308  1
  O  O37  1  0.200179  0.523298  0.547430  1
  O  O38  1  0.237939  0.984308  0.301111  1
  O  O39  1  0.238793  0.417737  0.812794  1
  O  O40  1  0.260766  0.581860  0.312962  1
  O  O41  1  0.261295  0.017586  0.800988  1
  O  O42  1  0.299688  0.476760  0.047143  1
  O  O43  1  0.301068  0.237966  0.984199  1
  O  O44  1  0.313662  0.260149  0.582561  1
  O  O45  1  0.347058  0.999769  0.080805  1
  O  O46  1  0.419195  0.652942  0.499769  1
  O  O47  1  0.418140  0.812962  0.239234  1
  O  O48  1  0.452857  0.700312  0.976760  1
  O  O49  1  0.476702  0.047430  0.299821  1
  O  O50  1  0.485735  0.199136  0.762571  1
  O  O51  1  0.499882  0.919169  0.846984  1
  O  O52  1  0.499396  0.419510  0.652956  1
  O  O53  1  0.515801  0.698932  0.737966  1
  O  O54  1  0.523240  0.547143  0.200312  1
  O  O55  1  0.548985  0.200384  0.524292  1
  O  O56  1  0.582263  0.312794  0.261207  1
  O  O57  1  0.580490  0.152956  0.000604  1
  O  O58  1  0.653016  0.500118  0.419169  1
  O  O59  1  0.687206  0.761207  0.917737  1
  O  O60  1  0.699012  0.738705  0.517586  1
  O  O61  1  0.700119  0.976447  0.451599  1
  O  O62  1  0.737429  0.514265  0.699136  1
  O  O63  1  0.739851  0.082561  0.186338  1
  O  O64  1  0.761783  0.921718  0.686586  1
  O  O65  1  0.762034  0.484199  0.198932  1
  O  O66  1  0.799616  0.024292  0.951015  1
  O  O67  1  0.800864  0.262571  0.014265  1
  O  O68  1  0.813414  0.238217  0.421718  1
  O  O69  1  0.847044  0.500604  0.919510  1
  O  O70  1  0.919223  0.847309  0.500355  1
  O  O71  1  0.917439  0.686338  0.760149  1
  O  O72  1  0.952570  0.799821  0.023298  1
  O  O73  1  0.975708  0.451015  0.700384  1
  O  O74  1  0.982414  0.300988  0.238705  1
  O  O75  1  0.000231  0.580805  0.152942  1
