# generated using pymatgen
data_YEr2Zn11
_symmetry_space_group_name_H-M   'P 1'
_cell_length_a   8.09751967
_cell_length_b   8.09752036
_cell_length_c   8.09751954
_cell_angle_alpha   148.41182497
_cell_angle_beta   114.04714991
_cell_angle_gamma   74.97008154
_symmetry_Int_Tables_number   1
_chemical_formula_structural   YEr2Zn11
_chemical_formula_sum   'Y1 Er2 Zn11'
_cell_volume   249.66685874
_cell_formula_units_Z   1
loop_
 _symmetry_equiv_pos_site_id
 _symmetry_equiv_pos_as_xyz
  1  'x, y, z'
loop_
 _atom_site_type_symbol
 _atom_site_label
 _atom_site_symmetry_multiplicity
 _atom_site_fract_x
 _atom_site_fract_y
 _atom_site_fract_z
 _atom_site_occupancy
  Y  Y0  1  0.000000  0.000000  0.000000  1
  Er  Er1  1  0.292867  0.292867  0.000000  1
  Er  Er2  1  0.707133  0.707133  0.000000  1
  Zn  Zn3  1  0.500000  0.000000  0.500000  1
  Zn  Zn4  1  0.679781  0.500000  0.179781  1
  Zn  Zn5  1  0.320219  0.500000  0.820219  1
  Zn  Zn6  1  0.701590  0.342173  0.359418  1
  Zn  Zn7  1  0.298410  0.657827  0.640582  1
  Zn  Zn8  1  0.982755  0.342173  0.640582  1
  Zn  Zn9  1  0.017245  0.657827  0.359418  1
  Zn  Zn10  1  0.421972  0.140215  0.281757  1
  Zn  Zn11  1  0.578028  0.859785  0.718243  1
  Zn  Zn12  1  0.858457  0.140215  0.718243  1
  Zn  Zn13  1  0.141543  0.859785  0.281757  1
