# generated using pymatgen
data_Nb11TcOs4
_symmetry_space_group_name_H-M   'P 1'
_cell_length_a   6.46461474
_cell_length_b   6.46461474
_cell_length_c   6.46461474
_cell_angle_alpha   89.96113809
_cell_angle_beta   89.96113809
_cell_angle_gamma   89.96113809
_symmetry_Int_Tables_number   1
_chemical_formula_structural   Nb11TcOs4
_chemical_formula_sum   'Nb11 Tc1 Os4'
_cell_volume   270.16410432
_cell_formula_units_Z   1
loop_
 _symmetry_equiv_pos_site_id
 _symmetry_equiv_pos_as_xyz
  1  'x, y, z'
loop_
 _atom_site_type_symbol
 _atom_site_label
 _atom_site_symmetry_multiplicity
 _atom_site_fract_x
 _atom_site_fract_y
 _atom_site_fract_z
 _atom_site_occupancy
  Nb  Nb0  1  0.000782  0.000782  0.000782  1
  Nb  Nb1  1  0.499200  0.000795  0.000795  1
  Nb  Nb2  1  0.000795  0.499200  0.000795  1
  Nb  Nb3  1  0.499209  0.499209  0.000813  1
  Nb  Nb4  1  0.749955  0.749955  0.250035  1
  Nb  Nb5  1  0.000795  0.000795  0.499200  1
  Nb  Nb6  1  0.499209  0.000813  0.499209  1
  Nb  Nb7  1  0.000813  0.499209  0.499209  1
  Nb  Nb8  1  0.499200  0.499200  0.499200  1
  Nb  Nb9  1  0.749955  0.250035  0.749955  1
  Nb  Nb10  1  0.250035  0.749955  0.749955  1
  Tc  Tc11  1  0.250054  0.250054  0.250054  1
  Os  Os12  1  0.750059  0.249947  0.249947  1
  Os  Os13  1  0.249947  0.750059  0.249947  1
  Os  Os14  1  0.249947  0.249947  0.750059  1
  Os  Os15  1  0.750045  0.750045  0.750045  1
