# generated using pymatgen
data_Sc12Co2ReSi12Ir
_symmetry_space_group_name_H-M   'P 1'
_cell_length_a   4.00786400
_cell_length_b   10.14725471
_cell_length_c   11.64745533
_cell_angle_alpha   90.13481845
_cell_angle_beta   90.00000000
_cell_angle_gamma   90.00000000
_symmetry_Int_Tables_number   1
_chemical_formula_structural   Sc12Co2ReSi12Ir
_chemical_formula_sum   'Sc12 Co2 Re1 Si12 Ir1'
_cell_volume   473.68691606
_cell_formula_units_Z   1
loop_
 _symmetry_equiv_pos_site_id
 _symmetry_equiv_pos_as_xyz
  1  'x, y, z'
loop_
 _atom_site_type_symbol
 _atom_site_label
 _atom_site_symmetry_multiplicity
 _atom_site_fract_x
 _atom_site_fract_y
 _atom_site_fract_z
 _atom_site_occupancy
  Sc  Sc0  1  0.250000  0.875161  0.021949  1
  Sc  Sc1  1  0.250000  0.623828  0.523393  1
  Sc  Sc2  1  0.750000  0.117273  0.979176  1
  Sc  Sc3  1  0.750000  0.380719  0.480656  1
  Sc  Sc4  1  0.250000  0.922207  0.596767  1
  Sc  Sc5  1  0.250000  0.578717  0.099335  1
  Sc  Sc6  1  0.750000  0.079620  0.395096  1
  Sc  Sc7  1  0.750000  0.419142  0.894407  1
  Sc  Sc8  1  0.250000  0.668555  0.799276  1
  Sc  Sc9  1  0.250000  0.836720  0.300237  1
  Sc  Sc10  1  0.750000  0.347286  0.201177  1
  Sc  Sc11  1  0.750000  0.151133  0.701485  1
  Co  Co12  1  0.750000  0.611360  0.323391  1
  Co  Co13  1  0.750000  0.888063  0.825164  1
  Re  Re14  1  0.250000  0.391709  0.677543  1
  Si  Si15  1  0.250000  0.002047  0.821120  1
  Si  Si16  1  0.250000  0.496344  0.321692  1
  Si  Si17  1  0.750000  0.982309  0.177763  1
  Si  Si18  1  0.750000  0.520721  0.679529  1
  Si  Si19  1  0.250000  0.244648  0.842793  1
  Si  Si20  1  0.250000  0.253750  0.341561  1
  Si  Si21  1  0.750000  0.743256  0.162316  1
  Si  Si22  1  0.750000  0.760428  0.660953  1
  Si  Si23  1  0.250000  0.194079  0.543755  1
  Si  Si24  1  0.250000  0.303690  0.044897  1
  Si  Si25  1  0.750000  0.801842  0.452946  1
  Si  Si26  1  0.750000  0.695780  0.954404  1
  Ir  Ir27  1  0.250000  0.109611  0.177219  1
