# generated using pymatgen
data_Zr6Sc8Al8Os3Pt4
_symmetry_space_group_name_H-M   'P 1'
_cell_length_a   9.08242669
_cell_length_b   9.09771469
_cell_length_c   9.17377393
_cell_angle_alpha   59.61255373
_cell_angle_beta   59.81366448
_cell_angle_gamma   60.61006493
_symmetry_Int_Tables_number   1
_chemical_formula_structural   Zr6Sc8Al8Os3Pt4
_chemical_formula_sum   'Zr6 Sc8 Al8 Os3 Pt4'
_cell_volume   536.05866225
_cell_formula_units_Z   1
loop_
 _symmetry_equiv_pos_site_id
 _symmetry_equiv_pos_as_xyz
  1  'x, y, z'
loop_
 _atom_site_type_symbol
 _atom_site_label
 _atom_site_symmetry_multiplicity
 _atom_site_fract_x
 _atom_site_fract_y
 _atom_site_fract_z
 _atom_site_occupancy
  Zr  Zr0  1  0.668394  0.665922  0.331606  1
  Zr  Zr1  1  0.316939  0.683061  0.316939  1
  Zr  Zr2  1  0.690826  0.314863  0.309173  1
  Zr  Zr3  1  0.331606  0.334078  0.668394  1
  Zr  Zr4  1  0.683061  0.316939  0.683061  1
  Zr  Zr5  1  0.309174  0.685137  0.690827  1
  Sc  Sc6  1  0.881481  0.869704  0.366451  1
  Sc  Sc7  1  0.884982  0.371578  0.872350  1
  Sc  Sc8  1  0.366451  0.882364  0.881481  1
  Sc  Sc9  1  0.872351  0.871090  0.884982  1
  Sc  Sc10  1  0.118519  0.130296  0.633549  1
  Sc  Sc11  1  0.115018  0.628422  0.127650  1
  Sc  Sc12  1  0.633549  0.117636  0.118519  1
  Sc  Sc13  1  0.127649  0.128910  0.115018  1
  Al  Al14  1  0.660328  0.659942  0.015296  1
  Al  Al15  1  0.663663  0.018747  0.658788  1
  Al  Al16  1  0.015295  0.664435  0.660329  1
  Al  Al17  1  0.658788  0.658802  0.663663  1
  Al  Al18  1  0.339672  0.340058  0.984704  1
  Al  Al19  1  0.336337  0.981253  0.341212  1
  Al  Al20  1  0.984705  0.335565  0.339671  1
  Al  Al21  1  0.341212  0.341198  0.336337  1
  Os  Os22  1  0.000000  0.500000  0.500000  1
  Os  Os23  1  0.000000  0.500000  0.000000  1
  Os  Os24  1  0.500000  0.000000  0.000000  1
  Pt  Pt25  1  0.000000  0.000000  0.000000  1
  Pt  Pt26  1  0.000000  0.000000  0.500000  1
  Pt  Pt27  1  0.500000  0.000000  0.500000  1
  Pt  Pt28  1  0.500000  0.500000  0.000000  1
