# generated using pymatgen
data_Mn5CoAsP2
_symmetry_space_group_name_H-M   'P 1'
_cell_length_a   6.17195612
_cell_length_b   6.15394738
_cell_length_c   3.34232000
_cell_angle_alpha   90.00000000
_cell_angle_beta   90.00000000
_cell_angle_gamma   120.38321480
_symmetry_Int_Tables_number   1
_chemical_formula_structural   Mn5CoAsP2
_chemical_formula_sum   'Mn5 Co1 As1 P2'
_cell_volume   109.51289064
_cell_formula_units_Z   1
loop_
 _symmetry_equiv_pos_site_id
 _symmetry_equiv_pos_as_xyz
  1  'x, y, z'
loop_
 _atom_site_type_symbol
 _atom_site_label
 _atom_site_symmetry_multiplicity
 _atom_site_fract_x
 _atom_site_fract_y
 _atom_site_fract_z
 _atom_site_occupancy
  Mn  Mn0  1  0.753678  0.008687  0.000000  1
  Mn  Mn1  1  0.612049  0.592699  0.500000  1
  Mn  Mn2  1  0.994103  0.746200  0.000000  1
  Mn  Mn3  1  0.407779  0.014776  0.500000  1
  Mn  Mn4  1  0.974984  0.390027  0.500000  1
  Co  Co5  1  0.256161  0.246701  0.000000  1
  As  As6  1  0.332727  0.661262  0.000000  1
  P  P7  1  0.006761  0.007875  0.500000  1
  P  P8  1  0.661758  0.331773  0.000000  1
