# generated using pymatgen
data_Er3Th11Ru6
_symmetry_space_group_name_H-M   'P 1'
_cell_length_a   9.80984368
_cell_length_b   9.87811352
_cell_length_c   6.39357356
_cell_angle_alpha   90.21263404
_cell_angle_beta   89.85516314
_cell_angle_gamma   120.34349307
_symmetry_Int_Tables_number   1
_chemical_formula_structural   Er3Th11Ru6
_chemical_formula_sum   'Er3 Th11 Ru6'
_cell_volume   534.67963759
_cell_formula_units_Z   1
loop_
 _symmetry_equiv_pos_site_id
 _symmetry_equiv_pos_as_xyz
  1  'x, y, z'
loop_
 _atom_site_type_symbol
 _atom_site_label
 _atom_site_symmetry_multiplicity
 _atom_site_fract_x
 _atom_site_fract_y
 _atom_site_fract_z
 _atom_site_occupancy
  Er  Er0  1  0.459732  0.536754  0.297733  1
  Er  Er1  1  0.074256  0.536120  0.302506  1
  Er  Er2  1  0.926191  0.462532  0.801535  1
  Th  Th3  1  0.249840  0.126825  0.508790  1
  Th  Th4  1  0.542644  0.082854  0.797028  1
  Th  Th5  1  0.747137  0.873596  0.010842  1
  Th  Th6  1  0.667216  0.333973  0.279828  1
  Th  Th7  1  0.124971  0.870095  0.008044  1
  Th  Th8  1  0.458262  0.916191  0.296861  1
  Th  Th9  1  0.540154  0.463632  0.799729  1
  Th  Th10  1  0.876550  0.129614  0.509210  1
  Th  Th11  1  0.124784  0.253621  0.012591  1
  Th  Th12  1  0.873845  0.747605  0.507960  1
  Th  Th13  1  0.332994  0.664756  0.775568  1
  Ru  Ru14  1  0.812456  0.630464  0.048529  1
  Ru  Ru15  1  0.815180  0.183263  0.045441  1
  Ru  Ru16  1  0.631091  0.815298  0.544471  1
  Ru  Ru17  1  0.371079  0.188140  0.041883  1
  Ru  Ru18  1  0.184121  0.366617  0.551357  1
  Ru  Ru19  1  0.187497  0.818051  0.544092  1
