# generated using pymatgen
data_Ho3Tm13(InRu)4
_symmetry_space_group_name_H-M   'P 1'
_cell_length_a   9.53175592
_cell_length_b   9.52785380
_cell_length_c   9.57224408
_cell_angle_alpha   59.87276587
_cell_angle_beta   59.83238260
_cell_angle_gamma   59.70765524
_symmetry_Int_Tables_number   1
_chemical_formula_structural   Ho3Tm13(InRu)4
_chemical_formula_sum   'Ho3 Tm13 In4 Ru4'
_cell_volume   611.97101123
_cell_formula_units_Z   1
loop_
 _symmetry_equiv_pos_site_id
 _symmetry_equiv_pos_as_xyz
  1  'x, y, z'
loop_
 _atom_site_type_symbol
 _atom_site_label
 _atom_site_symmetry_multiplicity
 _atom_site_fract_x
 _atom_site_fract_y
 _atom_site_fract_z
 _atom_site_occupancy
  Ho  Ho0  1  0.058858  0.058858  0.441142  1
  Ho  Ho1  1  0.440072  0.060485  0.440243  1
  Ho  Ho2  1  0.060485  0.440072  0.059199  1
  Tm  Tm3  1  0.045556  0.650726  0.652071  1
  Tm  Tm4  1  0.441232  0.441232  0.058768  1
  Tm  Tm5  1  0.650726  0.045556  0.651647  1
  Tm  Tm6  1  0.190403  0.810511  0.189365  1
  Tm  Tm7  1  0.189665  0.189665  0.810335  1
  Tm  Tm8  1  0.810172  0.810172  0.189828  1
  Tm  Tm9  1  0.441664  0.058852  0.057512  1
  Tm  Tm10  1  0.810700  0.190310  0.189161  1
  Tm  Tm11  1  0.058852  0.441664  0.441972  1
  Tm  Tm12  1  0.810511  0.190403  0.809721  1
  Tm  Tm13  1  0.190310  0.810700  0.809829  1
  Tm  Tm14  1  0.651600  0.650941  0.045450  1
  Tm  Tm15  1  0.650941  0.651600  0.652012  1
  In  In16  1  0.416923  0.417813  0.415799  1
  In  In17  1  0.747310  0.418591  0.417235  1
  In  In18  1  0.418591  0.747310  0.416863  1
  In  In19  1  0.417813  0.416923  0.749465  1
  Ru  Ru20  1  0.859192  0.857772  0.422247  1
  Ru  Ru21  1  0.857772  0.859192  0.860790  1
  Ru  Ru22  1  0.423618  0.857034  0.860510  1
  Ru  Ru23  1  0.857034  0.423618  0.858839  1
