# generated using pymatgen
data_AcLa7(CdOs)2
_symmetry_space_group_name_H-M   'P 1'
_cell_length_a   10.16233725
_cell_length_b   10.15593457
_cell_length_c   10.15622185
_cell_angle_alpha   59.88710906
_cell_angle_beta   59.98007447
_cell_angle_gamma   59.97913552
_symmetry_Int_Tables_number   1
_chemical_formula_structural   AcLa7(CdOs)2
_chemical_formula_sum   'Ac2 La14 Cd4 Os4'
_cell_volume   740.32950661
_cell_formula_units_Z   2
loop_
 _symmetry_equiv_pos_site_id
 _symmetry_equiv_pos_as_xyz
  1  'x, y, z'
loop_
 _atom_site_type_symbol
 _atom_site_label
 _atom_site_symmetry_multiplicity
 _atom_site_fract_x
 _atom_site_fract_y
 _atom_site_fract_z
 _atom_site_occupancy
  Ac  Ac0  1  0.943307  0.939056  0.560026  1
  Ac  Ac1  1  0.557611  0.939056  0.560026  1
  La  La2  1  0.557534  0.941031  0.943900  1
  La  La3  1  0.689812  0.687901  0.308937  1
  La  La4  1  0.153580  0.158259  0.534581  1
  La  La5  1  0.311704  0.686692  0.689901  1
  La  La6  1  0.155957  0.157144  0.153640  1
  La  La7  1  0.533259  0.157144  0.153640  1
  La  La8  1  0.313350  0.687901  0.308937  1
  La  La9  1  0.310490  0.311535  0.689536  1
  La  La10  1  0.688439  0.311535  0.689536  1
  La  La11  1  0.945055  0.553595  0.556295  1
  La  La12  1  0.557999  0.556438  0.943132  1
  La  La13  1  0.154169  0.536185  0.155477  1
  La  La14  1  0.689337  0.313074  0.308252  1
  La  La15  1  0.942431  0.556438  0.943132  1
  Cd  Cd16  1  0.234417  0.921136  0.924050  1
  Cd  Cd17  1  0.920396  0.921136  0.924050  1
  Cd  Cd18  1  0.923240  0.920948  0.232572  1
  Cd  Cd19  1  0.920952  0.236920  0.921176  1
  Os  Os20  1  0.913454  0.364152  0.362191  1
  Os  Os21  1  0.361598  0.364239  0.912565  1
  Os  Os22  1  0.361704  0.914334  0.362258  1
  Os  Os23  1  0.360204  0.364152  0.362191  1
