# generated using pymatgen
data_Ga3Mo12Pt5N4
_symmetry_space_group_name_H-M   'P 1'
_cell_length_a   6.88784819
_cell_length_b   6.88784819
_cell_length_c   6.88784819
_cell_angle_alpha   90.29955112
_cell_angle_beta   90.29955112
_cell_angle_gamma   90.29955112
_symmetry_Int_Tables_number   1
_chemical_formula_structural   Ga3Mo12Pt5N4
_chemical_formula_sum   'Ga3 Mo12 Pt5 N4'
_cell_volume   326.76296724
_cell_formula_units_Z   1
loop_
 _symmetry_equiv_pos_site_id
 _symmetry_equiv_pos_as_xyz
  1  'x, y, z'
loop_
 _atom_site_type_symbol
 _atom_site_label
 _atom_site_symmetry_multiplicity
 _atom_site_fract_x
 _atom_site_fract_y
 _atom_site_fract_z
 _atom_site_occupancy
  Ga  Ga0  1  0.070760  0.934934  0.428405  1
  Ga  Ga1  1  0.428405  0.070760  0.934934  1
  Ga  Ga2  1  0.934934  0.428405  0.070760  1
  Mo  Mo3  1  0.546626  0.371307  0.213597  1
  Mo  Mo4  1  0.870389  0.296047  0.457653  1
  Mo  Mo5  1  0.457653  0.870389  0.296047  1
  Mo  Mo6  1  0.620716  0.716363  0.948898  1
  Mo  Mo7  1  0.948898  0.620716  0.716363  1
  Mo  Mo8  1  0.371307  0.213597  0.546626  1
  Mo  Mo9  1  0.048429  0.123085  0.781386  1
  Mo  Mo10  1  0.123085  0.781386  0.048429  1
  Mo  Mo11  1  0.213597  0.546626  0.371307  1
  Mo  Mo12  1  0.296047  0.457653  0.870389  1
  Mo  Mo13  1  0.716363  0.948898  0.620716  1
  Mo  Mo14  1  0.781386  0.048429  0.123085  1
  Pt  Pt15  1  0.564631  0.564631  0.564631  1
  Pt  Pt16  1  0.823959  0.687975  0.308844  1
  Pt  Pt17  1  0.687975  0.308844  0.823959  1
  Pt  Pt18  1  0.308844  0.823959  0.687975  1
  Pt  Pt19  1  0.181242  0.181242  0.181242  1
  N  N20  1  0.122538  0.383075  0.621727  1
  N  N21  1  0.383075  0.621727  0.122538  1
  N  N22  1  0.621727  0.122538  0.383075  1
  N  N23  1  0.877411  0.877411  0.877411  1
