# generated using pymatgen
data_Cs3TaF8
_symmetry_space_group_name_H-M   'P 1'
_cell_length_a   9.15616900
_cell_length_b   9.15616792
_cell_length_c   6.99457500
_cell_angle_alpha   90.00000000
_cell_angle_beta   90.00000000
_cell_angle_gamma   120.00000028
_symmetry_Int_Tables_number   1
_chemical_formula_structural   Cs3TaF8
_chemical_formula_sum   'Cs6 Ta2 F16'
_cell_volume   507.83135362
_cell_formula_units_Z   2
loop_
 _symmetry_equiv_pos_site_id
 _symmetry_equiv_pos_as_xyz
  1  'x, y, z'
loop_
 _atom_site_type_symbol
 _atom_site_label
 _atom_site_symmetry_multiplicity
 _atom_site_fract_x
 _atom_site_fract_y
 _atom_site_fract_z
 _atom_site_occupancy
  Cs  Cs0  1  0.158127  0.316254  0.246438  1
  Cs  Cs1  1  0.841873  0.683746  0.746439  1
  Cs  Cs2  1  0.683746  0.841873  0.246438  1
  Cs  Cs3  1  0.158127  0.841873  0.246438  1
  Cs  Cs4  1  0.841873  0.158127  0.746439  1
  Cs  Cs5  1  0.316254  0.158127  0.746439  1
  Ta  Ta6  1  0.333333  0.666667  0.737140  1
  Ta  Ta7  1  0.666667  0.333333  0.237140  1
  F  F8  1  0.000000  0.000000  0.001451  1
  F  F9  1  0.000000  0.000000  0.501451  1
  F  F10  1  0.428899  0.571101  0.552259  1
  F  F11  1  0.571101  0.428899  0.052259  1
  F  F12  1  0.428899  0.857798  0.552259  1
  F  F13  1  0.142202  0.571101  0.552259  1
  F  F14  1  0.857798  0.428899  0.052259  1
  F  F15  1  0.571101  0.142202  0.052259  1
  F  F16  1  0.333333  0.666667  0.021746  1
  F  F17  1  0.666667  0.333333  0.521746  1
  F  F18  1  0.212616  0.787384  0.809573  1
  F  F19  1  0.787384  0.212616  0.309573  1
  F  F20  1  0.212616  0.425231  0.809573  1
  F  F21  1  0.574769  0.787384  0.809573  1
  F  F22  1  0.425231  0.212616  0.309573  1
  F  F23  1  0.787384  0.574769  0.309573  1
