# generated using pymatgen
data_MgPa3Ge4IrPt3
_symmetry_space_group_name_H-M   'P 1'
_cell_length_a   4.34372600
_cell_length_b   6.94667308
_cell_length_c   7.65766190
_cell_angle_alpha   91.18888946
_cell_angle_beta   90.00000000
_cell_angle_gamma   90.00000000
_symmetry_Int_Tables_number   1
_chemical_formula_structural   MgPa3Ge4IrPt3
_chemical_formula_sum   'Mg1 Pa3 Ge4 Ir1 Pt3'
_cell_volume   231.01595137
_cell_formula_units_Z   1
loop_
 _symmetry_equiv_pos_site_id
 _symmetry_equiv_pos_as_xyz
  1  'x, y, z'
loop_
 _atom_site_type_symbol
 _atom_site_label
 _atom_site_symmetry_multiplicity
 _atom_site_fract_x
 _atom_site_fract_y
 _atom_site_fract_z
 _atom_site_occupancy
  Mg  Mg0  1  0.250000  0.990757  0.306279  1
  Pa  Pa1  1  0.250000  0.490941  0.207790  1
  Pa  Pa2  1  0.750000  0.500377  0.800065  1
  Pa  Pa3  1  0.750000  0.005211  0.702959  1
  Ge  Ge4  1  0.250000  0.825278  0.919741  1
  Ge  Ge5  1  0.750000  0.192685  0.088649  1
  Ge  Ge6  1  0.750000  0.689137  0.406411  1
  Ge  Ge7  1  0.250000  0.309965  0.578917  1
  Ir  Ir8  1  0.250000  0.229529  0.903700  1
  Pt  Pt9  1  0.250000  0.714283  0.587230  1
  Pt  Pt10  1  0.750000  0.261477  0.415350  1
  Pt  Pt11  1  0.750000  0.790360  0.082909  1
