# generated using pymatgen
data_Tb7Ho3(Bi3C)2
_symmetry_space_group_name_H-M   'P 1'
_cell_length_a   9.17543200
_cell_length_b   9.17543319
_cell_length_c   6.50184200
_cell_angle_alpha   90.00000000
_cell_angle_beta   90.00000000
_cell_angle_gamma   120.00000292
_symmetry_Int_Tables_number   1
_chemical_formula_structural   Tb7Ho3(Bi3C)2
_chemical_formula_sum   'Tb7 Ho3 Bi6 C2'
_cell_volume   474.04560971
_cell_formula_units_Z   1
loop_
 _symmetry_equiv_pos_site_id
 _symmetry_equiv_pos_as_xyz
  1  'x, y, z'
loop_
 _atom_site_type_symbol
 _atom_site_label
 _atom_site_symmetry_multiplicity
 _atom_site_fract_x
 _atom_site_fract_y
 _atom_site_fract_z
 _atom_site_occupancy
  Tb  Tb0  1  0.666667  0.333333  0.000319  1
  Tb  Tb1  1  0.333333  0.666667  0.000319  1
  Tb  Tb2  1  0.333333  0.666667  0.499681  1
  Tb  Tb3  1  0.666667  0.333333  0.499681  1
  Tb  Tb4  1  0.209407  0.209407  0.250000  1
  Tb  Tb5  1  0.790593  0.000000  0.250000  1
  Tb  Tb6  1  0.000000  0.790593  0.250000  1
  Ho  Ho7  1  0.794370  0.794370  0.750000  1
  Ho  Ho8  1  0.205630  0.000000  0.750000  1
  Ho  Ho9  1  0.000000  0.205630  0.750000  1
  Bi  Bi10  1  0.400635  0.400635  0.750000  1
  Bi  Bi11  1  0.599365  0.000000  0.750000  1
  Bi  Bi12  1  0.000000  0.599365  0.750000  1
  Bi  Bi13  1  0.599240  0.599240  0.250000  1
  Bi  Bi14  1  0.400760  0.000000  0.250000  1
  Bi  Bi15  1  0.000000  0.400760  0.250000  1
  C  C16  1  0.000000  0.000000  0.997333  1
  C  C17  1  0.000000  0.000000  0.502667  1
