# generated using pymatgen
data_Dy2HoTm(Mo2O7)2
_symmetry_space_group_name_H-M   'P 1'
_cell_length_a   7.34104157
_cell_length_b   7.43955069
_cell_length_c   7.35342936
_cell_angle_alpha   59.61182718
_cell_angle_beta   59.21894546
_cell_angle_gamma   59.55510636
_symmetry_Int_Tables_number   1
_chemical_formula_structural   Dy2HoTm(Mo2O7)2
_chemical_formula_sum   'Dy2 Ho1 Tm1 Mo4 O14'
_cell_volume   280.49101819
_cell_formula_units_Z   1
loop_
 _symmetry_equiv_pos_site_id
 _symmetry_equiv_pos_as_xyz
  1  'x, y, z'
loop_
 _atom_site_type_symbol
 _atom_site_label
 _atom_site_symmetry_multiplicity
 _atom_site_fract_x
 _atom_site_fract_y
 _atom_site_fract_z
 _atom_site_occupancy
  Dy  Dy0  1  0.125000  0.625000  0.125000  1
  Dy  Dy1  1  0.125000  0.125000  0.125000  1
  Ho  Ho2  1  0.125000  0.125000  0.625000  1
  Tm  Tm3  1  0.625000  0.125000  0.125000  1
  Mo  Mo4  1  0.125000  0.625000  0.625000  1
  Mo  Mo5  1  0.625000  0.125000  0.625000  1
  Mo  Mo6  1  0.625000  0.625000  0.125000  1
  Mo  Mo7  1  0.625000  0.625000  0.625000  1
  O  O8  1  0.709880  0.721134  0.283860  1
  O  O9  1  0.284598  0.285566  0.710270  1
  O  O10  1  0.717620  0.281114  0.720152  1
  O  O11  1  0.285637  0.714194  0.285974  1
  O  O12  1  0.284598  0.719566  0.710270  1
  O  O13  1  0.709880  0.285127  0.283860  1
  O  O14  1  0.540120  0.528866  0.966140  1
  O  O15  1  0.965402  0.964434  0.539730  1
  O  O16  1  0.532380  0.968886  0.529848  1
  O  O17  1  0.964363  0.535806  0.964026  1
  O  O18  1  0.965402  0.530434  0.539730  1
  O  O19  1  0.540120  0.964873  0.966140  1
  O  O20  1  0.250161  0.251869  0.246101  1
  O  O21  1  0.999839  0.998131  0.003899  1
