# generated using pymatgen
data_PrTh3(CdPd2)2
_symmetry_space_group_name_H-M   'P 1'
_cell_length_a   7.95041598
_cell_length_b   7.95041598
_cell_length_c   3.85195400
_cell_angle_alpha   90.00000000
_cell_angle_beta   90.00000000
_cell_angle_gamma   88.93714961
_symmetry_Int_Tables_number   1
_chemical_formula_structural   PrTh3(CdPd2)2
_chemical_formula_sum   'Pr1 Th3 Cd2 Pd4'
_cell_volume   243.43670958
_cell_formula_units_Z   1
loop_
 _symmetry_equiv_pos_site_id
 _symmetry_equiv_pos_as_xyz
  1  'x, y, z'
loop_
 _atom_site_type_symbol
 _atom_site_label
 _atom_site_symmetry_multiplicity
 _atom_site_fract_x
 _atom_site_fract_y
 _atom_site_fract_z
 _atom_site_occupancy
  Pr  Pr0  1  0.675205  0.175205  0.500000  1
  Th  Th1  1  0.326814  0.826814  0.500000  1
  Th  Th2  1  0.825558  0.673213  0.500000  1
  Th  Th3  1  0.173213  0.325558  0.500000  1
  Cd  Cd4  1  0.998217  0.999911  0.000000  1
  Cd  Cd5  1  0.499911  0.498217  0.000000  1
  Pd  Pd6  1  0.364960  0.124449  0.000000  1
  Pd  Pd7  1  0.880821  0.380821  0.000000  1
  Pd  Pd8  1  0.130851  0.630851  0.000000  1
  Pd  Pd9  1  0.624449  0.864960  0.000000  1
