# generated using pymatgen
data_Sc3Fe2Co7P6
_symmetry_space_group_name_H-M   'P 1'
_cell_length_a   3.59058700
_cell_length_b   10.39835400
_cell_length_c   11.82751500
_cell_angle_alpha   90.00000000
_cell_angle_beta   90.00000000
_cell_angle_gamma   90.00000000
_symmetry_Int_Tables_number   1
_chemical_formula_structural   Sc3Fe2Co7P6
_chemical_formula_sum   'Sc6 Fe4 Co14 P12'
_cell_volume   441.59440278
_cell_formula_units_Z   2
loop_
 _symmetry_equiv_pos_site_id
 _symmetry_equiv_pos_as_xyz
  1  'x, y, z'
loop_
 _atom_site_type_symbol
 _atom_site_label
 _atom_site_symmetry_multiplicity
 _atom_site_fract_x
 _atom_site_fract_y
 _atom_site_fract_z
 _atom_site_occupancy
  Sc  Sc0  1  0.000000  0.500000  0.523785  1
  Sc  Sc1  1  0.500000  0.000000  0.476215  1
  Sc  Sc2  1  0.500000  0.820198  0.203938  1
  Sc  Sc3  1  0.500000  0.179802  0.203938  1
  Sc  Sc4  1  0.000000  0.679802  0.796062  1
  Sc  Sc5  1  0.000000  0.320198  0.796062  1
  Fe  Fe6  1  0.500000  0.500000  0.157834  1
  Fe  Fe7  1  0.000000  0.000000  0.842166  1
  Fe  Fe8  1  0.000000  0.500000  0.987229  1
  Fe  Fe9  1  0.500000  0.000000  0.012771  1
  Co  Co10  1  0.500000  0.500000  0.699628  1
  Co  Co11  1  0.000000  0.000000  0.300372  1
  Co  Co12  1  0.500000  0.331905  0.993042  1
  Co  Co13  1  0.500000  0.668095  0.993042  1
  Co  Co14  1  0.000000  0.168095  0.006958  1
  Co  Co15  1  0.000000  0.831905  0.006958  1
  Co  Co16  1  0.500000  0.297921  0.431056  1
  Co  Co17  1  0.500000  0.702079  0.431056  1
  Co  Co18  1  0.000000  0.202079  0.568944  1
  Co  Co19  1  0.000000  0.797921  0.568944  1
  Co  Co20  1  0.500000  0.877046  0.708218  1
  Co  Co21  1  0.500000  0.122954  0.708218  1
  Co  Co22  1  0.000000  0.622954  0.291782  1
  Co  Co23  1  0.000000  0.377046  0.291782  1
  P  P24  1  0.500000  0.500000  0.880021  1
  P  P25  1  0.000000  0.000000  0.119979  1
  P  P26  1  0.500000  0.500000  0.348054  1
  P  P27  1  0.000000  0.000000  0.651946  1
  P  P28  1  0.500000  0.314003  0.618500  1
  P  P29  1  0.500000  0.685997  0.618500  1
  P  P30  1  0.000000  0.185997  0.381500  1
  P  P31  1  0.000000  0.814003  0.381500  1
  P  P32  1  0.500000  0.845551  0.890957  1
  P  P33  1  0.500000  0.154449  0.890957  1
  P  P34  1  0.000000  0.654449  0.109043  1
  P  P35  1  0.000000  0.345551  0.109043  1
