# generated using pymatgen
data_Dy(CrC)4
_symmetry_space_group_name_H-M   'P 1'
_cell_length_a   5.74297806
_cell_length_b   5.74297856
_cell_length_c   5.74297768
_cell_angle_alpha   94.46488502
_cell_angle_beta   94.46489924
_cell_angle_gamma   147.59739400
_symmetry_Int_Tables_number   1
_chemical_formula_structural   Dy(CrC)4
_chemical_formula_sum   'Dy1 Cr4 C4'
_cell_volume   97.46938759
_cell_formula_units_Z   1
loop_
 _symmetry_equiv_pos_site_id
 _symmetry_equiv_pos_as_xyz
  1  'x, y, z'
loop_
 _atom_site_type_symbol
 _atom_site_label
 _atom_site_symmetry_multiplicity
 _atom_site_fract_x
 _atom_site_fract_y
 _atom_site_fract_z
 _atom_site_occupancy
  Dy  Dy0  1  0.000000  0.000000  0.000000  1
  Cr  Cr1  1  0.819202  0.634673  0.453874  1
  Cr  Cr2  1  0.180798  0.365327  0.546126  1
  Cr  Cr3  1  0.634673  0.180798  0.815470  1
  Cr  Cr4  1  0.365327  0.819202  0.184530  1
  C  C5  1  0.254839  0.598795  0.853635  1
  C  C6  1  0.745161  0.401205  0.146365  1
  C  C7  1  0.598795  0.745161  0.343955  1
  C  C8  1  0.401205  0.254839  0.656045  1
