# generated using pymatgen
data_Tb3Hg2Ru
_symmetry_space_group_name_H-M   'P 1'
_cell_length_a   3.54372200
_cell_length_b   3.54372200
_cell_length_c   11.48926300
_cell_angle_alpha   90.00000000
_cell_angle_beta   90.00000000
_cell_angle_gamma   90.00000000
_symmetry_Int_Tables_number   1
_chemical_formula_structural   Tb3Hg2Ru
_chemical_formula_sum   'Tb3 Hg2 Ru1'
_cell_volume   144.28176968
_cell_formula_units_Z   1
loop_
 _symmetry_equiv_pos_site_id
 _symmetry_equiv_pos_as_xyz
  1  'x, y, z'
loop_
 _atom_site_type_symbol
 _atom_site_label
 _atom_site_symmetry_multiplicity
 _atom_site_fract_x
 _atom_site_fract_y
 _atom_site_fract_z
 _atom_site_occupancy
  Tb  Tb0  1  0.000000  0.000000  0.000000  1
  Tb  Tb1  1  0.000000  0.000000  0.357623  1
  Tb  Tb2  1  0.000000  0.000000  0.642376  1
  Hg  Hg3  1  0.500001  0.500001  0.173307  1
  Hg  Hg4  1  0.500001  0.500001  0.826692  1
  Ru  Ru5  1  0.500001  0.500001  0.500000  1
