# generated using pymatgen
data_Tb16MgIn(HgIr2)2
_symmetry_space_group_name_H-M   'P 1'
_cell_length_a   9.68423412
_cell_length_b   9.68423319
_cell_length_c   9.68601111
_cell_angle_alpha   59.96451405
_cell_angle_beta   59.96451798
_cell_angle_gamma   59.98521513
_symmetry_Int_Tables_number   1
_chemical_formula_structural   Tb16MgIn(HgIr2)2
_chemical_formula_sum   'Tb16 Mg1 In1 Hg2 Ir4'
_cell_volume   641.91695582
_cell_formula_units_Z   1
loop_
 _symmetry_equiv_pos_site_id
 _symmetry_equiv_pos_as_xyz
  1  'x, y, z'
loop_
 _atom_site_type_symbol
 _atom_site_label
 _atom_site_symmetry_multiplicity
 _atom_site_fract_x
 _atom_site_fract_y
 _atom_site_fract_z
 _atom_site_occupancy
  Tb  Tb0  1  0.099471  0.703272  0.098924  1
  Tb  Tb1  1  0.941487  0.941487  0.558489  1
  Tb  Tb2  1  0.942697  0.558150  0.940782  1
  Tb  Tb3  1  0.312156  0.691081  0.310453  1
  Tb  Tb4  1  0.936839  0.561518  0.561490  1
  Tb  Tb5  1  0.313407  0.313407  0.687908  1
  Tb  Tb6  1  0.100788  0.100788  0.099606  1
  Tb  Tb7  1  0.559476  0.559476  0.937857  1
  Tb  Tb8  1  0.099354  0.099354  0.704341  1
  Tb  Tb9  1  0.692413  0.311274  0.685866  1
  Tb  Tb10  1  0.689760  0.689760  0.308962  1
  Tb  Tb11  1  0.691081  0.312156  0.310453  1
  Tb  Tb12  1  0.311274  0.692413  0.685866  1
  Tb  Tb13  1  0.561518  0.936839  0.561490  1
  Tb  Tb14  1  0.703272  0.099471  0.098924  1
  Tb  Tb15  1  0.558150  0.942697  0.940782  1
  Mg  Mg16  1  0.321879  0.321879  0.326993  1
  In  In17  1  0.330728  0.330728  0.003884  1
  Hg  Hg18  1  0.993600  0.336864  0.336827  1
  Hg  Hg19  1  0.336864  0.993600  0.336827  1
  Ir  Ir20  1  0.892331  0.892331  0.892080  1
  Ir  Ir21  1  0.893469  0.893469  0.324635  1
  Ir  Ir22  1  0.325919  0.892068  0.893281  1
  Ir  Ir23  1  0.892068  0.325919  0.893281  1
