# generated using pymatgen
data_K3Rb13Ga22
_symmetry_space_group_name_H-M   'P 1'
_cell_length_a   9.81189544
_cell_length_b   9.81189489
_cell_length_c   17.44475747
_cell_angle_alpha   90.00000019
_cell_angle_beta   106.33349282
_cell_angle_gamma   120.00000114
_symmetry_Int_Tables_number   1
_chemical_formula_structural   K3Rb13Ga22
_chemical_formula_sum   'K3 Rb13 Ga22'
_cell_volume   1375.63486476
_cell_formula_units_Z   1
loop_
 _symmetry_equiv_pos_site_id
 _symmetry_equiv_pos_as_xyz
  1  'x, y, z'
loop_
 _atom_site_type_symbol
 _atom_site_label
 _atom_site_symmetry_multiplicity
 _atom_site_fract_x
 _atom_site_fract_y
 _atom_site_fract_z
 _atom_site_occupancy
  K  K0  1  0.251051  0.906144  0.929539  1
  K  K1  1  0.584630  0.678488  0.929539  1
  K  K2  1  0.023393  0.344906  0.929539  1
  Rb  Rb3  1  0.972762  0.656052  0.067394  1
  Rb  Rb4  1  0.411344  0.316709  0.067394  1
  Rb  Rb5  1  0.750685  0.094633  0.067394  1
  Rb  Rb6  1  0.155809  0.077905  0.233714  1
  Rb  Rb7  1  0.844312  0.422157  0.266470  1
  Rb  Rb8  1  0.248589  0.843983  0.431753  1
  Rb  Rb9  1  0.587769  0.404606  0.431753  1
  Rb  Rb10  1  0.027148  0.183164  0.431753  1
  Rb  Rb11  1  0.973263  0.817108  0.568335  1
  Rb  Rb12  1  0.412180  0.595070  0.568335  1
  Rb  Rb13  1  0.751227  0.156155  0.568335  1
  Rb  Rb14  1  0.156527  0.578262  0.734790  1
  Rb  Rb15  1  0.844890  0.922445  0.767333  1
  Ga  Ga16  1  0.408636  0.704319  0.112955  1
  Ga  Ga17  1  0.437430  0.980127  0.165486  1
  Ga  Ga18  1  0.708184  0.728055  0.165486  1
  Ga  Ga19  1  0.185359  0.457303  0.165486  1
  Ga  Ga20  1  0.695302  0.945301  0.250062  1
  Ga  Ga21  1  0.304762  0.750002  0.250062  1
  Ga  Ga22  1  0.500060  0.554760  0.250062  1
  Ga  Ga23  1  0.814708  0.771890  0.333765  1
  Ga  Ga24  1  0.290947  0.519058  0.333765  1
  Ga  Ga25  1  0.561874  0.042819  0.333765  1
  Ga  Ga26  1  0.590799  0.795400  0.386198  1
  Ga  Ga27  1  0.408746  0.204374  0.613120  1
  Ga  Ga28  1  0.438719  0.959042  0.666698  1
  Ga  Ga29  1  0.707656  0.479677  0.666698  1
  Ga  Ga30  1  0.187022  0.227979  0.666698  1
  Ga  Ga31  1  0.501287  0.447452  0.751275  1
  Ga  Ga32  1  0.697440  0.249988  0.751275  1
  Ga  Ga33  1  0.303823  0.053835  0.751275  1
  Ga  Ga34  1  0.817687  0.544077  0.835156  1
  Ga  Ga35  1  0.291079  0.273612  0.835156  1
  Ga  Ga36  1  0.561545  0.017468  0.835156  1
  Ga  Ga37  1  0.591355  0.295676  0.887031  1
