# generated using pymatgen
data_Nd5IrPb2
_symmetry_space_group_name_H-M   'P 1'
_cell_length_a   8.32814900
_cell_length_b   9.24235200
_cell_length_c   12.87818700
_cell_angle_alpha   90.00000000
_cell_angle_beta   90.00000000
_cell_angle_gamma   90.00000000
_symmetry_Int_Tables_number   1
_chemical_formula_structural   Nd5IrPb2
_chemical_formula_sum   'Nd20 Ir4 Pb8'
_cell_volume   991.25574755
_cell_formula_units_Z   4
loop_
 _symmetry_equiv_pos_site_id
 _symmetry_equiv_pos_as_xyz
  1  'x, y, z'
loop_
 _atom_site_type_symbol
 _atom_site_label
 _atom_site_symmetry_multiplicity
 _atom_site_fract_x
 _atom_site_fract_y
 _atom_site_fract_z
 _atom_site_occupancy
  Nd  Nd0  1  0.674857  0.463735  0.928629  1
  Nd  Nd1  1  0.174857  0.963736  0.571371  1
  Nd  Nd2  1  0.674857  0.036265  0.928629  1
  Nd  Nd3  1  0.825143  0.463735  0.428629  1
  Nd  Nd4  1  0.945880  0.750000  0.997986  1
  Nd  Nd5  1  0.445880  0.250000  0.502014  1
  Nd  Nd6  1  0.054120  0.250000  0.002014  1
  Nd  Nd7  1  0.554120  0.750000  0.497986  1
  Nd  Nd8  1  0.325143  0.536264  0.071371  1
  Nd  Nd9  1  0.825143  0.036265  0.428629  1
  Nd  Nd10  1  0.325143  0.963736  0.071371  1
  Nd  Nd11  1  0.174857  0.536264  0.571371  1
  Nd  Nd12  1  0.368499  0.750000  0.807270  1
  Nd  Nd13  1  0.868499  0.250000  0.692730  1
  Nd  Nd14  1  0.631501  0.250000  0.192730  1
  Nd  Nd15  1  0.131501  0.750000  0.307270  1
  Nd  Nd16  1  0.836491  0.750000  0.711119  1
  Nd  Nd17  1  0.336491  0.250000  0.788881  1
  Nd  Nd18  1  0.163509  0.250000  0.288881  1
  Nd  Nd19  1  0.663509  0.750000  0.211119  1
  Ir  Ir20  1  0.574409  0.750000  0.992803  1
  Ir  Ir21  1  0.074409  0.250000  0.507197  1
  Ir  Ir22  1  0.425591  0.250000  0.007197  1
  Ir  Ir23  1  0.925591  0.750000  0.492803  1
  Pb  Pb24  1  0.561437  0.494592  0.672031  1
  Pb  Pb25  1  0.938563  0.005408  0.172031  1
  Pb  Pb26  1  0.438563  0.994592  0.327969  1
  Pb  Pb27  1  0.061437  0.505408  0.827969  1
  Pb  Pb28  1  0.438563  0.505408  0.327969  1
  Pb  Pb29  1  0.061437  0.994592  0.827969  1
  Pb  Pb30  1  0.561437  0.005408  0.672031  1
  Pb  Pb31  1  0.938563  0.494592  0.172031  1
