# generated using pymatgen
data_Y3Er5(AlPd)2
_symmetry_space_group_name_H-M   'P 1'
_cell_length_a   9.55491688
_cell_length_b   9.55491753
_cell_length_c   9.55491700
_cell_angle_alpha   60.00000530
_cell_angle_beta   60.00000304
_cell_angle_gamma   60.00000429
_symmetry_Int_Tables_number   1
_chemical_formula_structural   Y3Er5(AlPd)2
_chemical_formula_sum   'Y6 Er10 Al4 Pd4'
_cell_volume   616.83046995
_cell_formula_units_Z   2
loop_
 _symmetry_equiv_pos_site_id
 _symmetry_equiv_pos_as_xyz
  1  'x, y, z'
loop_
 _atom_site_type_symbol
 _atom_site_label
 _atom_site_symmetry_multiplicity
 _atom_site_fract_x
 _atom_site_fract_y
 _atom_site_fract_z
 _atom_site_occupancy
  Y  Y0  1  0.935135  0.564865  0.564865  1
  Y  Y1  1  0.564865  0.935135  0.935135  1
  Y  Y2  1  0.564865  0.935135  0.564865  1
  Y  Y3  1  0.935135  0.564865  0.935135  1
  Y  Y4  1  0.564865  0.564865  0.935135  1
  Y  Y5  1  0.935135  0.935135  0.564865  1
  Er  Er6  1  0.355890  0.355890  0.355890  1
  Er  Er7  1  0.355890  0.355890  0.932328  1
  Er  Er8  1  0.355890  0.932328  0.355890  1
  Er  Er9  1  0.932328  0.355890  0.355890  1
  Er  Er10  1  0.807408  0.192592  0.192592  1
  Er  Er11  1  0.192592  0.807408  0.807408  1
  Er  Er12  1  0.192592  0.807408  0.192592  1
  Er  Er13  1  0.807408  0.192592  0.807408  1
  Er  Er14  1  0.192592  0.192592  0.807408  1
  Er  Er15  1  0.807408  0.807408  0.192592  1
  Al  Al16  1  0.577778  0.577778  0.577778  1
  Al  Al17  1  0.577778  0.577778  0.266667  1
  Al  Al18  1  0.577778  0.266667  0.577778  1
  Al  Al19  1  0.266667  0.577778  0.577778  1
  Pd  Pd20  1  0.144776  0.144776  0.144776  1
  Pd  Pd21  1  0.144776  0.144776  0.565673  1
  Pd  Pd22  1  0.144776  0.565673  0.144776  1
  Pd  Pd23  1  0.565673  0.144776  0.144776  1
