# generated using pymatgen
data_Li8Dy8GaSb7
_symmetry_space_group_name_H-M   'P 1'
_cell_length_a   9.43116500
_cell_length_b   9.43116657
_cell_length_c   7.02640500
_cell_angle_alpha   90.00000000
_cell_angle_beta   90.00000000
_cell_angle_gamma   119.99999801
_symmetry_Int_Tables_number   1
_chemical_formula_structural   Li8Dy8GaSb7
_chemical_formula_sum   'Li8 Dy8 Ga1 Sb7'
_cell_volume   541.24584750
_cell_formula_units_Z   1
loop_
 _symmetry_equiv_pos_site_id
 _symmetry_equiv_pos_as_xyz
  1  'x, y, z'
loop_
 _atom_site_type_symbol
 _atom_site_label
 _atom_site_symmetry_multiplicity
 _atom_site_fract_x
 _atom_site_fract_y
 _atom_site_fract_z
 _atom_site_occupancy
  Li  Li0  1  0.167425  0.334851  0.275125  1
  Li  Li1  1  0.167425  0.832575  0.275125  1
  Li  Li2  1  0.665149  0.832575  0.275125  1
  Li  Li3  1  0.830260  0.660523  0.774926  1
  Li  Li4  1  0.830260  0.169740  0.774926  1
  Li  Li5  1  0.339477  0.169740  0.774926  1
  Li  Li6  1  0.333333  0.666667  0.687211  1
  Li  Li7  1  0.666667  0.333333  0.193986  1
  Dy  Dy8  1  0.513418  0.026836  0.499246  1
  Dy  Dy9  1  0.513418  0.486582  0.499246  1
  Dy  Dy10  1  0.973164  0.486582  0.499246  1
  Dy  Dy11  1  0.495526  0.991053  0.990920  1
  Dy  Dy12  1  0.495526  0.504474  0.990920  1
  Dy  Dy13  1  0.008947  0.504474  0.990920  1
  Dy  Dy14  1  0.000000  0.000000  0.502957  1
  Dy  Dy15  1  0.000000  0.000000  0.000584  1
  Ga  Ga16  1  0.666667  0.333333  0.754505  1
  Sb  Sb17  1  0.166124  0.332248  0.738222  1
  Sb  Sb18  1  0.166124  0.833876  0.738222  1
  Sb  Sb19  1  0.667752  0.833876  0.738222  1
  Sb  Sb20  1  0.833435  0.666870  0.237081  1
  Sb  Sb21  1  0.833435  0.166565  0.237081  1
  Sb  Sb22  1  0.333130  0.166565  0.237081  1
  Sb  Sb23  1  0.333333  0.666667  0.256190  1
