# generated using pymatgen
data_La3(ThTc)2
_symmetry_space_group_name_H-M   'P 1'
_cell_length_a   9.06638534
_cell_length_b   9.06638540
_cell_length_c   7.45414306
_cell_angle_alpha   85.52291098
_cell_angle_beta   85.52291072
_cell_angle_gamma   43.09978961
_symmetry_Int_Tables_number   1
_chemical_formula_structural   La3(ThTc)2
_chemical_formula_sum   'La6 Th4 Tc4'
_cell_volume   417.18066804
_cell_formula_units_Z   2
loop_
 _symmetry_equiv_pos_site_id
 _symmetry_equiv_pos_as_xyz
  1  'x, y, z'
loop_
 _atom_site_type_symbol
 _atom_site_label
 _atom_site_symmetry_multiplicity
 _atom_site_fract_x
 _atom_site_fract_y
 _atom_site_fract_z
 _atom_site_occupancy
  La  La0  1  0.354737  0.217582  0.819623  1
  La  La1  1  0.782418  0.645263  0.680377  1
  La  La2  1  0.645263  0.782418  0.180377  1
  La  La3  1  0.217582  0.354737  0.319623  1
  La  La4  1  0.578098  0.421902  0.750000  1
  La  La5  1  0.421902  0.578098  0.250000  1
  Th  Th6  1  0.005167  0.812524  0.903480  1
  Th  Th7  1  0.187476  0.994833  0.596520  1
  Th  Th8  1  0.994833  0.187476  0.096520  1
  Th  Th9  1  0.812524  0.005167  0.403480  1
  Tc  Tc10  1  0.144526  0.642897  0.587688  1
  Tc  Tc11  1  0.357103  0.855474  0.912312  1
  Tc  Tc12  1  0.855474  0.357103  0.412312  1
  Tc  Tc13  1  0.642897  0.144526  0.087688  1
