# generated using pymatgen
data_Sm4Dy6Sn7Sb
_symmetry_space_group_name_H-M   'P 1'
_cell_length_a   8.13035000
_cell_length_b   8.23744429
_cell_length_c   15.51575923
_cell_angle_alpha   90.10259317
_cell_angle_beta   90.00000000
_cell_angle_gamma   90.00000000
_symmetry_Int_Tables_number   1
_chemical_formula_structural   Sm4Dy6Sn7Sb
_chemical_formula_sum   'Sm8 Dy12 Sn14 Sb2'
_cell_volume   1039.14001286
_cell_formula_units_Z   2
loop_
 _symmetry_equiv_pos_site_id
 _symmetry_equiv_pos_as_xyz
  1  'x, y, z'
loop_
 _atom_site_type_symbol
 _atom_site_label
 _atom_site_symmetry_multiplicity
 _atom_site_fract_x
 _atom_site_fract_y
 _atom_site_fract_z
 _atom_site_occupancy
  Sm  Sm0  1  0.519298  0.321810  0.902129  1
  Sm  Sm1  1  0.019298  0.178190  0.597871  1
  Sm  Sm2  1  0.479251  0.678833  0.401629  1
  Sm  Sm3  1  0.979251  0.821167  0.098371  1
  Sm  Sm4  1  0.481676  0.678329  0.097664  1
  Sm  Sm5  1  0.981676  0.821671  0.402336  1
  Sm  Sm6  1  0.517670  0.320723  0.598124  1
  Sm  Sm7  1  0.017670  0.179277  0.901876  1
  Dy  Dy8  1  0.366215  0.836485  0.878248  1
  Dy  Dy9  1  0.866215  0.663515  0.621752  1
  Dy  Dy10  1  0.633305  0.162521  0.377143  1
  Dy  Dy11  1  0.133305  0.337479  0.122857  1
  Dy  Dy12  1  0.635364  0.163585  0.122207  1
  Dy  Dy13  1  0.135364  0.336415  0.377793  1
  Dy  Dy14  1  0.365473  0.836636  0.622274  1
  Dy  Dy15  1  0.865473  0.663364  0.877726  1
  Dy  Dy16  1  0.196841  0.501913  0.749369  1
  Dy  Dy17  1  0.696841  0.998087  0.750631  1
  Dy  Dy18  1  0.803496  0.498478  0.249450  1
  Dy  Dy19  1  0.303496  0.001522  0.250550  1
  Sn  Sn20  1  0.704612  0.962094  0.541580  1
  Sn  Sn21  1  0.204612  0.537906  0.958420  1
  Sn  Sn22  1  0.707618  0.962121  0.958068  1
  Sn  Sn23  1  0.207618  0.537879  0.541932  1
  Sn  Sn24  1  0.296093  0.037475  0.457615  1
  Sn  Sn25  1  0.796093  0.462525  0.042385  1
  Sn  Sn26  1  0.564523  0.621408  0.749504  1
  Sn  Sn27  1  0.064523  0.878592  0.750496  1
  Sn  Sn28  1  0.436543  0.378024  0.249930  1
  Sn  Sn29  1  0.936543  0.121976  0.250070  1
  Sn  Sn30  1  0.327314  0.144214  0.750068  1
  Sn  Sn31  1  0.827314  0.355786  0.749932  1
  Sn  Sn32  1  0.671335  0.855177  0.250156  1
  Sn  Sn33  1  0.171335  0.644823  0.249844  1
  Sb  Sb34  1  0.293372  0.037727  0.042938  1
  Sb  Sb35  1  0.793372  0.462273  0.457062  1
