# generated using pymatgen
data_Nd3Y(Ho4Bi3)4
_symmetry_space_group_name_H-M   'P 1'
_cell_length_a   8.32844447
_cell_length_b   9.55418900
_cell_length_c   12.18199200
_cell_angle_alpha   90.00000000
_cell_angle_beta   90.01934524
_cell_angle_gamma   90.00000000
_symmetry_Int_Tables_number   1
_chemical_formula_structural   Nd3Y(Ho4Bi3)4
_chemical_formula_sum   'Nd3 Y1 Ho16 Bi12'
_cell_volume   969.33971816
_cell_formula_units_Z   1
loop_
 _symmetry_equiv_pos_site_id
 _symmetry_equiv_pos_as_xyz
  1  'x, y, z'
loop_
 _atom_site_type_symbol
 _atom_site_label
 _atom_site_symmetry_multiplicity
 _atom_site_fract_x
 _atom_site_fract_y
 _atom_site_fract_z
 _atom_site_occupancy
  Nd  Nd0  1  0.317360  0.250000  0.220214  1
  Nd  Nd1  1  0.816326  0.250000  0.279650  1
  Nd  Nd2  1  0.683158  0.750000  0.779929  1
  Y  Y3  1  0.185958  0.750000  0.717674  1
  Ho  Ho4  1  0.351069  0.750000  0.217526  1
  Ho  Ho5  1  0.851955  0.750000  0.283354  1
  Ho  Ho6  1  0.647046  0.250000  0.780831  1
  Ho  Ho7  1  0.148122  0.250000  0.717857  1
  Ho  Ho8  1  0.690646  0.564929  0.060624  1
  Ho  Ho9  1  0.192096  0.936032  0.439945  1
  Ho  Ho10  1  0.309431  0.064190  0.938466  1
  Ho  Ho11  1  0.807325  0.436264  0.560850  1
  Ho  Ho12  1  0.309431  0.435810  0.938466  1
  Ho  Ho13  1  0.807325  0.063736  0.560850  1
  Ho  Ho14  1  0.690646  0.935071  0.060624  1
  Ho  Ho15  1  0.192096  0.563968  0.439945  1
  Ho  Ho16  1  0.475749  0.250000  0.488644  1
  Ho  Ho17  1  0.977894  0.250000  0.011547  1
  Ho  Ho18  1  0.523465  0.750000  0.514015  1
  Ho  Ho19  1  0.022999  0.750000  0.987406  1
  Bi  Bi20  1  0.403093  0.750000  0.961686  1
  Bi  Bi21  1  0.908383  0.750000  0.539464  1
  Bi  Bi22  1  0.595778  0.250000  0.036069  1
  Bi  Bi23  1  0.093748  0.250000  0.463483  1
  Bi  Bi24  1  0.565981  0.990852  0.329425  1
  Bi  Bi25  1  0.065725  0.508773  0.171476  1
  Bi  Bi26  1  0.430358  0.493143  0.672450  1
  Bi  Bi27  1  0.937387  0.006469  0.827089  1
  Bi  Bi28  1  0.430358  0.006857  0.672450  1
  Bi  Bi29  1  0.937387  0.493531  0.827089  1
  Bi  Bi30  1  0.565981  0.509148  0.329425  1
  Bi  Bi31  1  0.065725  0.991227  0.171476  1
