# generated using pymatgen
data_Pr19ErSi15Ru
_symmetry_space_group_name_H-M   'P 1'
_cell_length_a   7.90293425
_cell_length_b   7.90499501
_cell_length_c   15.28055458
_cell_angle_alpha   90.26774636
_cell_angle_beta   89.83678558
_cell_angle_gamma   90.02210351
_symmetry_Int_Tables_number   1
_chemical_formula_structural   Pr19ErSi15Ru
_chemical_formula_sum   'Pr19 Er1 Si15 Ru1'
_cell_volume   954.60246459
_cell_formula_units_Z   1
loop_
 _symmetry_equiv_pos_site_id
 _symmetry_equiv_pos_as_xyz
  1  'x, y, z'
loop_
 _atom_site_type_symbol
 _atom_site_label
 _atom_site_symmetry_multiplicity
 _atom_site_fract_x
 _atom_site_fract_y
 _atom_site_fract_z
 _atom_site_occupancy
  Pr  Pr0  1  0.190929  0.807235  0.249614  1
  Pr  Pr1  1  0.824943  0.188309  0.749050  1
  Pr  Pr2  1  0.695530  0.689844  0.501467  1
  Pr  Pr3  1  0.371765  0.011708  0.449535  1
  Pr  Pr4  1  0.486654  0.880086  0.697810  1
  Pr  Pr5  1  0.510378  0.123831  0.197273  1
  Pr  Pr6  1  0.876904  0.488115  0.300418  1
  Pr  Pr7  1  0.128096  0.504100  0.800288  1
  Pr  Pr8  1  0.625290  0.988447  0.948396  1
  Pr  Pr9  1  0.006334  0.378315  0.551656  1
  Pr  Pr10  1  0.987591  0.624854  0.050873  1
  Pr  Pr11  1  0.133923  0.983600  0.873748  1
  Pr  Pr12  1  0.517784  0.630333  0.125665  1
  Pr  Pr13  1  0.471423  0.361483  0.630046  1
  Pr  Pr14  1  0.627367  0.514888  0.874750  1
  Pr  Pr15  1  0.374760  0.482816  0.372600  1
  Pr  Pr16  1  0.873879  0.021817  0.376523  1
  Pr  Pr17  1  0.981416  0.126792  0.123597  1
  Pr  Pr18  1  0.027055  0.881162  0.626689  1
  Er  Er19  1  0.309596  0.308237  0.998937  1
  Si  Si20  1  0.330940  0.690211  0.952744  1
  Si  Si21  1  0.663250  0.303285  0.452243  1
  Si  Si22  1  0.692497  0.331931  0.048080  1
  Si  Si23  1  0.304704  0.668043  0.547180  1
  Si  Si24  1  0.805894  0.832216  0.203423  1
  Si  Si25  1  0.168352  0.197233  0.296269  1
  Si  Si26  1  0.832511  0.802194  0.799900  1
  Si  Si27  1  0.288572  0.926272  0.057860  1
  Si  Si28  1  0.579571  0.787601  0.310495  1
  Si  Si29  1  0.418623  0.211744  0.815759  1
  Si  Si30  1  0.779159  0.582317  0.691454  1
  Si  Si31  1  0.213706  0.419383  0.185918  1
  Si  Si32  1  0.704095  0.075035  0.558919  1
  Si  Si33  1  0.925359  0.288282  0.942162  1
  Si  Si34  1  0.079780  0.715446  0.440859  1
  Ru  Ru35  1  0.191370  0.172834  0.697804  1
