# generated using pymatgen
data_Th8Fe3Si12Rh
_symmetry_space_group_name_H-M   'P 1'
_cell_length_a   8.16634700
_cell_length_b   8.16634679
_cell_length_c   8.37229600
_cell_angle_alpha   90.00000000
_cell_angle_beta   90.00000000
_cell_angle_gamma   119.99999682
_symmetry_Int_Tables_number   1
_chemical_formula_structural   Th8Fe3Si12Rh
_chemical_formula_sum   'Th8 Fe3 Si12 Rh1'
_cell_volume   483.53828757
_cell_formula_units_Z   1
loop_
 _symmetry_equiv_pos_site_id
 _symmetry_equiv_pos_as_xyz
  1  'x, y, z'
loop_
 _atom_site_type_symbol
 _atom_site_label
 _atom_site_symmetry_multiplicity
 _atom_site_fract_x
 _atom_site_fract_y
 _atom_site_fract_z
 _atom_site_occupancy
  Th  Th0  1  0.000000  0.000000  0.250381  1
  Th  Th1  1  0.000000  0.000000  0.749572  1
  Th  Th2  1  0.501068  0.498932  0.253371  1
  Th  Th3  1  0.501068  0.002135  0.253371  1
  Th  Th4  1  0.997865  0.498932  0.253371  1
  Th  Th5  1  0.502105  0.497895  0.748003  1
  Th  Th6  1  0.502105  0.004211  0.748003  1
  Th  Th7  1  0.995789  0.497895  0.748003  1
  Fe  Fe8  1  0.333333  0.666667  0.494127  1
  Fe  Fe9  1  0.666667  0.333333  0.517319  1
  Fe  Fe10  1  0.666667  0.333333  0.980542  1
  Si  Si11  1  0.170527  0.829473  0.500880  1
  Si  Si12  1  0.170527  0.341055  0.500880  1
  Si  Si13  1  0.658945  0.829473  0.500880  1
  Si  Si14  1  0.829308  0.170692  0.497346  1
  Si  Si15  1  0.829308  0.658613  0.497346  1
  Si  Si16  1  0.341387  0.170692  0.497346  1
  Si  Si17  1  0.828127  0.171873  0.003153  1
  Si  Si18  1  0.828127  0.656252  0.003153  1
  Si  Si19  1  0.343748  0.171873  0.003153  1
  Si  Si20  1  0.165006  0.834994  0.000517  1
  Si  Si21  1  0.165006  0.330015  0.000517  1
  Si  Si22  1  0.669985  0.834994  0.000517  1
  Rh  Rh23  1  0.333333  0.666667  0.998251  1
