# generated using pymatgen
data_HfSc3Tc8
_symmetry_space_group_name_H-M   'P 1'
_cell_length_a   5.24440200
_cell_length_b   5.24440342
_cell_length_c   8.60542400
_cell_angle_alpha   90.00000000
_cell_angle_beta   90.00000000
_cell_angle_gamma   119.99999104
_symmetry_Int_Tables_number   1
_chemical_formula_structural   HfSc3Tc8
_chemical_formula_sum   'Hf1 Sc3 Tc8'
_cell_volume   204.97222273
_cell_formula_units_Z   1
loop_
 _symmetry_equiv_pos_site_id
 _symmetry_equiv_pos_as_xyz
  1  'x, y, z'
loop_
 _atom_site_type_symbol
 _atom_site_label
 _atom_site_symmetry_multiplicity
 _atom_site_fract_x
 _atom_site_fract_y
 _atom_site_fract_z
 _atom_site_occupancy
  Hf  Hf0  1  0.333333  0.666667  0.062727  1
  Sc  Sc1  1  0.333333  0.666667  0.438235  1
  Sc  Sc2  1  0.666667  0.333333  0.562419  1
  Sc  Sc3  1  0.666667  0.333333  0.936707  1
  Tc  Tc4  1  0.000000  0.000000  0.499774  1
  Tc  Tc5  1  0.000000  0.000000  0.999838  1
  Tc  Tc6  1  0.827750  0.172250  0.249389  1
  Tc  Tc7  1  0.827750  0.655500  0.249389  1
  Tc  Tc8  1  0.344500  0.172250  0.249389  1
  Tc  Tc9  1  0.172197  0.827803  0.750711  1
  Tc  Tc10  1  0.172197  0.344395  0.750711  1
  Tc  Tc11  1  0.655605  0.827803  0.750711  1
