# generated using pymatgen
data_Lu20FeCoBi10
_symmetry_space_group_name_H-M   'P 1'
_cell_length_a   7.99252666
_cell_length_b   9.31943800
_cell_length_c   11.78477600
_cell_angle_alpha   90.00000000
_cell_angle_beta   89.86973083
_cell_angle_gamma   90.00000000
_symmetry_Int_Tables_number   1
_chemical_formula_structural   Lu20FeCoBi10
_chemical_formula_sum   'Lu20 Fe1 Co1 Bi10'
_cell_volume   877.79686700
_cell_formula_units_Z   1
loop_
 _symmetry_equiv_pos_site_id
 _symmetry_equiv_pos_as_xyz
  1  'x, y, z'
loop_
 _atom_site_type_symbol
 _atom_site_label
 _atom_site_symmetry_multiplicity
 _atom_site_fract_x
 _atom_site_fract_y
 _atom_site_fract_z
 _atom_site_occupancy
  Lu  Lu0  1  0.056901  0.250000  0.506498  1
  Lu  Lu1  1  0.989959  0.750000  0.494099  1
  Lu  Lu2  1  0.489230  0.750000  0.005809  1
  Lu  Lu3  1  0.554773  0.250000  0.994643  1
  Lu  Lu4  1  0.358197  0.250000  0.305983  1
  Lu  Lu5  1  0.653976  0.750000  0.723641  1
  Lu  Lu6  1  0.154994  0.750000  0.775736  1
  Lu  Lu7  1  0.856523  0.250000  0.194404  1
  Lu  Lu8  1  0.132501  0.250000  0.806295  1
  Lu  Lu9  1  0.813998  0.750000  0.222240  1
  Lu  Lu10  1  0.313744  0.750000  0.278174  1
  Lu  Lu11  1  0.629402  0.250000  0.693242  1
  Lu  Lu12  1  0.181559  0.074099  0.060465  1
  Lu  Lu13  1  0.821875  0.981294  0.939880  1
  Lu  Lu14  1  0.322690  0.982250  0.559229  1
  Lu  Lu15  1  0.821875  0.518706  0.939880  1
  Lu  Lu16  1  0.681293  0.074556  0.440503  1
  Lu  Lu17  1  0.181559  0.425901  0.060465  1
  Lu  Lu18  1  0.681293  0.425444  0.440503  1
  Lu  Lu19  1  0.322690  0.517750  0.559229  1
  Fe  Fe20  1  0.428336  0.250000  0.515488  1
  Co  Co21  1  0.930028  0.250000  0.984658  1
  Bi  Bi22  1  0.592438  0.750000  0.463113  1
  Bi  Bi23  1  0.091085  0.750000  0.035522  1
  Bi  Bi24  1  0.058074  0.998865  0.323167  1
  Bi  Bi25  1  0.926243  0.000362  0.672026  1
  Bi  Bi26  1  0.426367  0.000366  0.828797  1
  Bi  Bi27  1  0.926243  0.499638  0.672026  1
  Bi  Bi28  1  0.558856  0.998859  0.176159  1
  Bi  Bi29  1  0.058074  0.501135  0.323167  1
  Bi  Bi30  1  0.558856  0.501141  0.176159  1
  Bi  Bi31  1  0.426367  0.499634  0.828797  1
