# generated using pymatgen
data_LaTbY6(CdNi)2
_symmetry_space_group_name_H-M   'P 1'
_cell_length_a   9.62753751
_cell_length_b   9.62753672
_cell_length_c   9.62384100
_cell_angle_alpha   60.01269405
_cell_angle_beta   60.01269679
_cell_angle_gamma   60.17769341
_symmetry_Int_Tables_number   1
_chemical_formula_structural   LaTbY6(CdNi)2
_chemical_formula_sum   'La2 Tb2 Y12 Cd4 Ni4'
_cell_volume   631.72375655
_cell_formula_units_Z   2
loop_
 _symmetry_equiv_pos_site_id
 _symmetry_equiv_pos_as_xyz
  1  'x, y, z'
loop_
 _atom_site_type_symbol
 _atom_site_label
 _atom_site_symmetry_multiplicity
 _atom_site_fract_x
 _atom_site_fract_y
 _atom_site_fract_z
 _atom_site_occupancy
  La  La0  1  0.595967  0.595967  0.601394  1
  La  La1  1  0.595967  0.595967  0.206672  1
  Tb  Tb2  1  0.600666  0.197024  0.601155  1
  Tb  Tb3  1  0.197024  0.600666  0.601155  1
  Y  Y4  1  0.064001  0.439247  0.436121  1
  Y  Y5  1  0.439247  0.064001  0.060631  1
  Y  Y6  1  0.439247  0.064001  0.436121  1
  Y  Y7  1  0.064001  0.439247  0.060631  1
  Y  Y8  1  0.437717  0.437717  0.062283  1
  Y  Y9  1  0.062507  0.062507  0.437493  1
  Y  Y10  1  0.187149  0.814830  0.814248  1
  Y  Y11  1  0.814830  0.187149  0.183773  1
  Y  Y12  1  0.814830  0.187149  0.814248  1
  Y  Y13  1  0.187149  0.814830  0.183773  1
  Y  Y14  1  0.815145  0.815145  0.184855  1
  Y  Y15  1  0.187755  0.187755  0.812245  1
  Cd  Cd16  1  0.832820  0.832820  0.828274  1
  Cd  Cd17  1  0.832820  0.832820  0.506083  1
  Cd  Cd18  1  0.834408  0.504065  0.830763  1
  Cd  Cd19  1  0.504065  0.834408  0.830763  1
  Ni  Ni20  1  0.390183  0.390183  0.398559  1
  Ni  Ni21  1  0.390183  0.390183  0.821077  1
  Ni  Ni22  1  0.387799  0.824522  0.393840  1
  Ni  Ni23  1  0.824522  0.387799  0.393840  1
