# generated using pymatgen
data_Zr10BeSn3GeSb3
_symmetry_space_group_name_H-M   'P 1'
_cell_length_a   8.65063300
_cell_length_b   8.65063367
_cell_length_c   5.86388700
_cell_angle_alpha   90.00000000
_cell_angle_beta   90.00000000
_cell_angle_gamma   119.99999361
_symmetry_Int_Tables_number   1
_chemical_formula_structural   Zr10BeSn3GeSb3
_chemical_formula_sum   'Zr10 Be1 Sn3 Ge1 Sb3'
_cell_volume   380.02490684
_cell_formula_units_Z   1
loop_
 _symmetry_equiv_pos_site_id
 _symmetry_equiv_pos_as_xyz
  1  'x, y, z'
loop_
 _atom_site_type_symbol
 _atom_site_label
 _atom_site_symmetry_multiplicity
 _atom_site_fract_x
 _atom_site_fract_y
 _atom_site_fract_z
 _atom_site_occupancy
  Zr  Zr0  1  0.666667  0.333333  0.998052  1
  Zr  Zr1  1  0.333333  0.666667  0.998052  1
  Zr  Zr2  1  0.333333  0.666667  0.501428  1
  Zr  Zr3  1  0.666667  0.333333  0.501428  1
  Zr  Zr4  1  0.738279  0.738279  0.760313  1
  Zr  Zr5  1  0.261721  0.000000  0.760313  1
  Zr  Zr6  1  0.000000  0.261721  0.760313  1
  Zr  Zr7  1  0.254737  0.254737  0.241052  1
  Zr  Zr8  1  0.745263  0.000000  0.241052  1
  Zr  Zr9  1  0.000000  0.745263  0.241052  1
  Be  Be10  1  0.000000  0.000000  0.989636  1
  Sn  Sn11  1  0.388900  0.388900  0.748737  1
  Sn  Sn12  1  0.611100  0.000000  0.748737  1
  Sn  Sn13  1  0.000000  0.611100  0.748737  1
  Ge  Ge14  1  0.000000  0.000000  0.509307  1
  Sb  Sb15  1  0.605654  0.605654  0.250597  1
  Sb  Sb16  1  0.394346  0.000000  0.250597  1
  Sb  Sb17  1  0.000000  0.394346  0.250597  1
