# generated using pymatgen
data_CaNp2B10O19
_symmetry_space_group_name_H-M   'P 1'
_cell_length_a   6.43802874
_cell_length_b   6.43802940
_cell_length_c   9.15506184
_cell_angle_alpha   88.32342392
_cell_angle_beta   91.67657486
_cell_angle_gamma   118.35431184
_symmetry_Int_Tables_number   1
_chemical_formula_structural   CaNp2B10O19
_chemical_formula_sum   'Ca1 Np2 B10 O19'
_cell_volume   333.74227555
_cell_formula_units_Z   1
loop_
 _symmetry_equiv_pos_site_id
 _symmetry_equiv_pos_as_xyz
  1  'x, y, z'
loop_
 _atom_site_type_symbol
 _atom_site_label
 _atom_site_symmetry_multiplicity
 _atom_site_fract_x
 _atom_site_fract_y
 _atom_site_fract_z
 _atom_site_occupancy
  Ca  Ca0  1  0.812056  0.812056  0.500000  1
  Np  Np1  1  0.153578  0.838643  0.145271  1
  Np  Np2  1  0.838644  0.153577  0.854729  1
  B  B3  1  0.281593  0.364695  0.160646  1
  B  B4  1  0.364695  0.281593  0.839354  1
  B  B5  1  0.837147  0.187952  0.206738  1
  B  B6  1  0.187952  0.837147  0.793263  1
  B  B7  1  0.673081  0.447075  0.270822  1
  B  B8  1  0.447075  0.673081  0.729178  1
  B  B9  1  0.253232  0.786947  0.528217  1
  B  B10  1  0.786947  0.253232  0.471783  1
  B  B11  1  0.622247  0.761570  0.125570  1
  B  B12  1  0.761571  0.622246  0.874430  1
  O  O13  1  0.143990  0.850752  0.635546  1
  O  O14  1  0.850752  0.143990  0.364455  1
  O  O15  1  0.362306  0.593760  0.114334  1
  O  O16  1  0.593759  0.362307  0.885667  1
  O  O17  1  0.406256  0.700250  0.571544  1
  O  O18  1  0.700250  0.406256  0.428457  1
  O  O19  1  0.194247  0.807625  0.387534  1
  O  O20  1  0.807626  0.194246  0.612466  1
  O  O21  1  0.724150  0.695744  0.254128  1
  O  O22  1  0.695743  0.724151  0.745872  1
  O  O23  1  0.424259  0.282862  0.222210  1
  O  O24  1  0.282862  0.424259  0.777790  1
  O  O25  1  0.840802  0.413764  0.182174  1
  O  O26  1  0.413764  0.840803  0.817825  1
  O  O27  1  0.049538  0.195196  0.132937  1
  O  O28  1  0.195195  0.049538  0.867063  1
  O  O29  1  0.632083  0.993447  0.133987  1
  O  O30  1  0.993448  0.632082  0.866012  1
  O  O31  1  0.764052  0.764052  0.000000  1
