# generated using pymatgen
data_Cs2RuOF5
_symmetry_space_group_name_H-M   'P 1'
_cell_length_a   6.58814887
_cell_length_b   6.58815677
_cell_length_c   6.58819202
_cell_angle_alpha   121.38463281
_cell_angle_beta   121.38480835
_cell_angle_gamma   87.61826064
_symmetry_Int_Tables_number   1
_chemical_formula_structural   Cs2RuOF5
_chemical_formula_sum   'Cs2 Ru1 O1 F5'
_cell_volume   197.78041010
_cell_formula_units_Z   1
loop_
 _symmetry_equiv_pos_site_id
 _symmetry_equiv_pos_as_xyz
  1  'x, y, z'
loop_
 _atom_site_type_symbol
 _atom_site_label
 _atom_site_symmetry_multiplicity
 _atom_site_fract_x
 _atom_site_fract_y
 _atom_site_fract_z
 _atom_site_occupancy
  Cs  Cs0  1  0.756461  0.256460  0.500000  1
  Cs  Cs1  1  0.256460  0.756461  0.500000  1
  Ru  Ru2  1  0.000641  0.000641  0.000000  1
  O  O3  1  0.811415  0.811414  0.999997  1
  F  F4  1  0.214935  0.214932  0.000004  1
  F  F5  1  0.796534  0.223476  0.999999  1
  F  F6  1  0.223478  0.796535  0.000001  1
  F  F7  1  0.223477  0.223478  0.426941  1
  F  F8  1  0.796533  0.796537  0.573057  1
