# generated using pymatgen
data_HgBiPt2O7
_symmetry_space_group_name_H-M   'P 1'
_cell_length_a   7.36533156
_cell_length_b   7.36533181
_cell_length_c   7.23504100
_cell_angle_alpha   60.58346233
_cell_angle_beta   60.58346125
_cell_angle_gamma   61.40770711
_symmetry_Int_Tables_number   1
_chemical_formula_structural   HgBiPt2O7
_chemical_formula_sum   'Hg2 Bi2 Pt4 O14'
_cell_volume   282.86227488
_cell_formula_units_Z   2
loop_
 _symmetry_equiv_pos_site_id
 _symmetry_equiv_pos_as_xyz
  1  'x, y, z'
loop_
 _atom_site_type_symbol
 _atom_site_label
 _atom_site_symmetry_multiplicity
 _atom_site_fract_x
 _atom_site_fract_y
 _atom_site_fract_z
 _atom_site_occupancy
  Hg  Hg0  1  0.125000  0.125000  0.625000  1
  Hg  Hg1  1  0.125000  0.125000  0.125000  1
  Bi  Bi2  1  0.125000  0.625000  0.125000  1
  Bi  Bi3  1  0.625000  0.125000  0.125000  1
  Pt  Pt4  1  0.625000  0.625000  0.125000  1
  Pt  Pt5  1  0.625000  0.125000  0.625000  1
  Pt  Pt6  1  0.125000  0.625000  0.625000  1
  Pt  Pt7  1  0.625000  0.625000  0.625000  1
  O  O8  1  0.251907  0.251907  0.248093  1
  O  O9  1  0.998093  0.998093  0.001907  1
  O  O10  1  0.548449  0.954377  0.538477  1
  O  O11  1  0.295623  0.701551  0.291303  1
  O  O12  1  0.540730  0.540730  0.959270  1
  O  O13  1  0.954377  0.548449  0.538477  1
  O  O14  1  0.548449  0.954377  0.958697  1
  O  O15  1  0.953472  0.953472  0.546528  1
  O  O16  1  0.954377  0.548449  0.958697  1
  O  O17  1  0.701551  0.295623  0.291303  1
  O  O18  1  0.295623  0.701551  0.711523  1
  O  O19  1  0.701551  0.295623  0.711523  1
  O  O20  1  0.296528  0.296528  0.703472  1
  O  O21  1  0.709270  0.709270  0.290730  1
