# generated using pymatgen
data_Ho2B8IrOs
_symmetry_space_group_name_H-M   'P 1'
_cell_length_a   3.56464200
_cell_length_b   5.95930820
_cell_length_c   11.55613217
_cell_angle_alpha   89.88136817
_cell_angle_beta   90.00000000
_cell_angle_gamma   90.00000000
_symmetry_Int_Tables_number   1
_chemical_formula_structural   Ho2B8IrOs
_chemical_formula_sum   'Ho4 B16 Ir2 Os2'
_cell_volume   245.48408195
_cell_formula_units_Z   2
loop_
 _symmetry_equiv_pos_site_id
 _symmetry_equiv_pos_as_xyz
  1  'x, y, z'
loop_
 _atom_site_type_symbol
 _atom_site_label
 _atom_site_symmetry_multiplicity
 _atom_site_fract_x
 _atom_site_fract_y
 _atom_site_fract_z
 _atom_site_occupancy
  Ho  Ho0  1  0.000000  0.629591  0.351578  1
  Ho  Ho1  1  0.000000  0.370409  0.648422  1
  Ho  Ho2  1  0.000000  0.129989  0.150191  1
  Ho  Ho3  1  0.000000  0.870011  0.849809  1
  B  B4  1  0.500000  0.790312  0.187762  1
  B  B5  1  0.500000  0.209688  0.812238  1
  B  B6  1  0.500000  0.289298  0.313437  1
  B  B7  1  0.500000  0.710702  0.686563  1
  B  B8  1  0.500000  0.863554  0.029866  1
  B  B9  1  0.500000  0.136446  0.970134  1
  B  B10  1  0.500000  0.363784  0.469822  1
  B  B11  1  0.500000  0.636216  0.530178  1
  B  B12  1  0.500000  0.887391  0.453576  1
  B  B13  1  0.500000  0.112609  0.546424  1
  B  B14  1  0.500000  0.387407  0.047281  1
  B  B15  1  0.500000  0.612593  0.952719  1
  B  B16  1  0.500000  0.974297  0.308439  1
  B  B17  1  0.500000  0.025703  0.691561  1
  B  B18  1  0.500000  0.475505  0.192783  1
  B  B19  1  0.500000  0.524495  0.807217  1
  Ir  Ir20  1  0.000000  0.644565  0.096573  1
  Ir  Ir21  1  0.000000  0.355435  0.903427  1
  Os  Os22  1  0.000000  0.141648  0.406253  1
  Os  Os23  1  0.000000  0.858352  0.593747  1
