# generated using pymatgen
data_Pr8DyTmSn6
_symmetry_space_group_name_H-M   'P 1'
_cell_length_a   6.82897400
_cell_length_b   9.28247383
_cell_length_c   9.28284300
_cell_angle_alpha   119.99855108
_cell_angle_beta   90.00159083
_cell_angle_gamma   89.99787175
_symmetry_Int_Tables_number   1
_chemical_formula_structural   Pr8DyTmSn6
_chemical_formula_sum   'Pr8 Dy1 Tm1 Sn6'
_cell_volume   509.60909502
_cell_formula_units_Z   1
loop_
 _symmetry_equiv_pos_site_id
 _symmetry_equiv_pos_as_xyz
  1  'x, y, z'
loop_
 _atom_site_type_symbol
 _atom_site_label
 _atom_site_symmetry_multiplicity
 _atom_site_fract_x
 _atom_site_fract_y
 _atom_site_fract_z
 _atom_site_occupancy
  Pr  Pr0  1  0.500000  0.333306  0.666627  1
  Pr  Pr1  1  0.499997  0.666679  0.333371  1
  Pr  Pr2  1  0.752821  0.242538  0.999944  1
  Pr  Pr3  1  0.752832  0.757410  0.757472  1
  Pr  Pr4  1  0.752831  0.000049  0.242585  1
  Pr  Pr5  1  0.247175  0.757411  0.999943  1
  Pr  Pr6  1  0.247172  0.242536  0.242583  1
  Pr  Pr7  1  0.247174  0.000065  0.757473  1
  Dy  Dy8  1  0.999997  0.666666  0.333325  1
  Tm  Tm9  1  0.000001  0.333339  0.666676  1
  Sn  Sn10  1  0.762292  0.602416  0.999818  1
  Sn  Sn11  1  0.762342  0.397388  0.397570  1
  Sn  Sn12  1  0.762351  0.000185  0.602616  1
  Sn  Sn13  1  0.237709  0.397403  0.999818  1
  Sn  Sn14  1  0.237656  0.602432  0.602616  1
  Sn  Sn15  1  0.237650  0.000178  0.397565  1
