# generated using pymatgen
data_HoTiMn3CoP3
_symmetry_space_group_name_H-M   'P 1'
_cell_length_a   3.61622900
_cell_length_b   10.72054900
_cell_length_c   12.35628000
_cell_angle_alpha   90.00000000
_cell_angle_beta   90.00000000
_cell_angle_gamma   90.00000000
_symmetry_Int_Tables_number   1
_chemical_formula_structural   HoTiMn3CoP3
_chemical_formula_sum   'Ho4 Ti4 Mn12 Co4 P12'
_cell_volume   479.02777113
_cell_formula_units_Z   4
loop_
 _symmetry_equiv_pos_site_id
 _symmetry_equiv_pos_as_xyz
  1  'x, y, z'
loop_
 _atom_site_type_symbol
 _atom_site_label
 _atom_site_symmetry_multiplicity
 _atom_site_fract_x
 _atom_site_fract_y
 _atom_site_fract_z
 _atom_site_occupancy
  Ho  Ho0  1  0.250000  0.584619  0.709453  1
  Ho  Ho1  1  0.250000  0.915381  0.209453  1
  Ho  Ho2  1  0.750000  0.415381  0.290547  1
  Ho  Ho3  1  0.750000  0.084619  0.790547  1
  Ti  Ti4  1  0.250000  0.703974  0.985763  1
  Ti  Ti5  1  0.250000  0.796026  0.485763  1
  Ti  Ti6  1  0.750000  0.296026  0.014237  1
  Ti  Ti7  1  0.750000  0.203974  0.514237  1
  Mn  Mn8  1  0.250000  0.409038  0.493263  1
  Mn  Mn9  1  0.250000  0.090962  0.993263  1
  Mn  Mn10  1  0.750000  0.590962  0.506737  1
  Mn  Mn11  1  0.750000  0.909038  0.006737  1
  Mn  Mn12  1  0.250000  0.215991  0.177210  1
  Mn  Mn13  1  0.250000  0.284009  0.677210  1
  Mn  Mn14  1  0.750000  0.784009  0.822790  1
  Mn  Mn15  1  0.750000  0.715991  0.322790  1
  Mn  Mn16  1  0.250000  0.879601  0.698150  1
  Mn  Mn17  1  0.250000  0.620399  0.198150  1
  Mn  Mn18  1  0.750000  0.120399  0.301850  1
  Mn  Mn19  1  0.750000  0.379601  0.801850  1
  Co  Co20  1  0.250000  0.463163  0.934661  1
  Co  Co21  1  0.250000  0.036837  0.434661  1
  Co  Co22  1  0.750000  0.536837  0.065339  1
  Co  Co23  1  0.750000  0.963163  0.565339  1
  P  P24  1  0.250000  0.423844  0.114325  1
  P  P25  1  0.250000  0.076156  0.614325  1
  P  P26  1  0.750000  0.576156  0.885675  1
  P  P27  1  0.750000  0.923844  0.385675  1
  P  P28  1  0.250000  0.265391  0.868667  1
  P  P29  1  0.250000  0.234609  0.368667  1
  P  P30  1  0.750000  0.734609  0.131333  1
  P  P31  1  0.750000  0.765391  0.631333  1
  P  P32  1  0.250000  0.589414  0.384452  1
  P  P33  1  0.250000  0.910586  0.884452  1
  P  P34  1  0.750000  0.410586  0.615548  1
  P  P35  1  0.750000  0.089414  0.115548  1
