# generated using pymatgen
data_Ho5AlRuO12
_symmetry_space_group_name_H-M   'P 1'
_cell_length_a   6.77612061
_cell_length_b   6.77612174
_cell_length_c   7.23205173
_cell_angle_alpha   74.47855356
_cell_angle_beta   74.47854103
_cell_angle_gamma   50.65077565
_symmetry_Int_Tables_number   1
_chemical_formula_structural   Ho5AlRuO12
_chemical_formula_sum   'Ho5 Al1 Ru1 O12'
_cell_volume   245.27372094
_cell_formula_units_Z   1
loop_
 _symmetry_equiv_pos_site_id
 _symmetry_equiv_pos_as_xyz
  1  'x, y, z'
loop_
 _atom_site_type_symbol
 _atom_site_label
 _atom_site_symmetry_multiplicity
 _atom_site_fract_x
 _atom_site_fract_y
 _atom_site_fract_z
 _atom_site_occupancy
  Ho  Ho0  1  0.692746  0.691080  0.668298  1
  Ho  Ho1  1  0.685580  0.707546  0.141176  1
  Ho  Ho2  1  0.996871  0.003129  0.000000  1
  Ho  Ho3  1  0.292454  0.314420  0.858824  1
  Ho  Ho4  1  0.308920  0.307254  0.331702  1
  Al  Al5  1  0.254186  0.745814  0.500000  1
  Ru  Ru6  1  0.764535  0.235465  0.500000  1
  O  O7  1  0.399148  0.908698  0.923324  1
  O  O8  1  0.575979  0.097777  0.582673  1
  O  O9  1  0.902223  0.424021  0.417327  1
  O  O10  1  0.091302  0.600852  0.076676  1
  O  O11  1  0.006822  0.993181  0.320594  1
  O  O12  1  0.504041  0.496682  0.681753  1
  O  O13  1  0.897987  0.404797  0.927160  1
  O  O14  1  0.100374  0.578510  0.581161  1
  O  O15  1  0.421490  0.899626  0.418839  1
  O  O16  1  0.595203  0.102013  0.072840  1
  O  O17  1  0.503318  0.495959  0.318247  1
  O  O18  1  0.006819  0.993178  0.679406  1
