# generated using pymatgen
data_La4Zn4PtRh9
_symmetry_space_group_name_H-M   'P 1'
_cell_length_a   12.83202194
_cell_length_b   12.83202222
_cell_length_c   12.83202322
_cell_angle_alpha   24.94573777
_cell_angle_beta   24.94573447
_cell_angle_gamma   24.94573647
_symmetry_Int_Tables_number   1
_chemical_formula_structural   La4Zn4PtRh9
_chemical_formula_sum   'La4 Zn4 Pt1 Rh9'
_cell_volume   330.63464535
_cell_formula_units_Z   1
loop_
 _symmetry_equiv_pos_site_id
 _symmetry_equiv_pos_as_xyz
  1  'x, y, z'
loop_
 _atom_site_type_symbol
 _atom_site_label
 _atom_site_symmetry_multiplicity
 _atom_site_fract_x
 _atom_site_fract_y
 _atom_site_fract_z
 _atom_site_occupancy
  La  La0  1  0.950972  0.950972  0.950972  1
  La  La1  1  0.049028  0.049028  0.049028  1
  La  La2  1  0.853789  0.853789  0.853789  1
  La  La3  1  0.146211  0.146211  0.146211  1
  Zn  Zn4  1  0.720834  0.720834  0.720834  1
  Zn  Zn5  1  0.279166  0.279166  0.279166  1
  Zn  Zn6  1  0.611505  0.611505  0.611505  1
  Zn  Zn7  1  0.388495  0.388495  0.388495  1
  Pt  Pt8  1  0.500000  0.500000  0.500000  1
  Rh  Rh9  1  0.500000  0.500000  0.000000  1
  Rh  Rh10  1  0.000000  0.500000  0.500000  1
  Rh  Rh11  1  0.500000  0.000000  0.500000  1
  Rh  Rh12  1  0.388003  0.895381  0.388003  1
  Rh  Rh13  1  0.388003  0.388003  0.895381  1
  Rh  Rh14  1  0.895381  0.388003  0.388003  1
  Rh  Rh15  1  0.611997  0.104619  0.611997  1
  Rh  Rh16  1  0.611997  0.611997  0.104619  1
  Rh  Rh17  1  0.104619  0.611997  0.611997  1
