# generated using pymatgen
data_HoFe7Tc5
_symmetry_space_group_name_H-M   'P 1'
_cell_length_a   4.74101053
_cell_length_b   6.55365016
_cell_length_c   6.55364927
_cell_angle_alpha   98.77816541
_cell_angle_beta   111.20510233
_cell_angle_gamma   68.79490463
_symmetry_Int_Tables_number   1
_chemical_formula_structural   HoFe7Tc5
_chemical_formula_sum   'Ho1 Fe7 Tc5'
_cell_volume   176.93126054
_cell_formula_units_Z   1
loop_
 _symmetry_equiv_pos_site_id
 _symmetry_equiv_pos_as_xyz
  1  'x, y, z'
loop_
 _atom_site_type_symbol
 _atom_site_label
 _atom_site_symmetry_multiplicity
 _atom_site_fract_x
 _atom_site_fract_y
 _atom_site_fract_z
 _atom_site_occupancy
  Ho  Ho0  1  0.000000  0.008292  0.008292  1
  Fe  Fe1  1  0.500000  0.208649  0.208649  1
  Fe  Fe2  1  0.497220  0.000735  0.493935  1
  Fe  Fe3  1  0.995978  0.000735  0.493935  1
  Fe  Fe4  1  0.502780  0.493935  0.000735  1
  Fe  Fe5  1  0.004022  0.493935  0.000735  1
  Fe  Fe6  1  0.726168  0.771870  0.224206  1
  Fe  Fe7  1  0.273832  0.224206  0.771870  1
  Tc  Tc8  1  0.639487  0.355272  0.634246  1
  Tc  Tc9  1  0.360513  0.634246  0.355272  1
  Tc  Tc10  1  0.000000  0.361062  0.361062  1
  Tc  Tc11  1  0.000000  0.648919  0.648919  1
  Tc  Tc12  1  0.500000  0.798143  0.798143  1
