# generated using pymatgen
data_Rb2ZnSiS4
_symmetry_space_group_name_H-M   'P 1'
_cell_length_a   13.57615427
_cell_length_b   12.11923525
_cell_length_c   7.39942447
_cell_angle_alpha   84.45975869
_cell_angle_beta   62.68728303
_cell_angle_gamma   32.85295852
_symmetry_Int_Tables_number   1
_chemical_formula_structural   Rb2ZnSiS4
_chemical_formula_sum   'Rb4 Zn2 Si2 S8'
_cell_volume   469.71548876
_cell_formula_units_Z   2
loop_
 _symmetry_equiv_pos_site_id
 _symmetry_equiv_pos_as_xyz
  1  'x, y, z'
loop_
 _atom_site_type_symbol
 _atom_site_label
 _atom_site_symmetry_multiplicity
 _atom_site_fract_x
 _atom_site_fract_y
 _atom_site_fract_z
 _atom_site_occupancy
  Rb  Rb0  1  0.571776  0.571776  0.928224  1
  Rb  Rb1  1  0.928224  0.928224  0.571776  1
  Rb  Rb2  1  0.321776  0.321776  0.678224  1
  Rb  Rb3  1  0.678224  0.678224  0.321776  1
  Zn  Zn4  1  0.000000  0.000000  0.000000  1
  Zn  Zn5  1  0.250000  0.250000  0.250000  1
  Si  Si6  1  0.750000  0.750000  0.750000  1
  Si  Si7  1  0.500000  0.500000  0.500000  1
  S  S8  1  0.239578  0.862407  0.580524  1
  S  S9  1  0.317492  0.580524  0.862407  1
  S  S10  1  0.580524  0.317492  0.239578  1
  S  S11  1  0.862407  0.239578  0.317492  1
  S  S12  1  0.387593  0.010422  0.932508  1
  S  S13  1  0.932508  0.669476  0.387593  1
  S  S14  1  0.669476  0.932508  0.010422  1
  S  S15  1  0.010422  0.387593  0.669476  1
