# generated using pymatgen
data_Hf2Be8ReRh
_symmetry_space_group_name_H-M   'P 1'
_cell_length_a   4.52569100
_cell_length_b   4.52569142
_cell_length_c   7.51798700
_cell_angle_alpha   90.00000000
_cell_angle_beta   90.00000000
_cell_angle_gamma   120.00001882
_symmetry_Int_Tables_number   1
_chemical_formula_structural   Hf2Be8ReRh
_chemical_formula_sum   'Hf2 Be8 Re1 Rh1'
_cell_volume   133.35274418
_cell_formula_units_Z   1
loop_
 _symmetry_equiv_pos_site_id
 _symmetry_equiv_pos_as_xyz
  1  'x, y, z'
loop_
 _atom_site_type_symbol
 _atom_site_label
 _atom_site_symmetry_multiplicity
 _atom_site_fract_x
 _atom_site_fract_y
 _atom_site_fract_z
 _atom_site_occupancy
  Hf  Hf0  1  0.333333  0.666667  0.062021  1
  Hf  Hf1  1  0.666667  0.333333  0.565755  1
  Be  Be2  1  0.000000  0.000000  0.994078  1
  Be  Be3  1  0.000000  0.000000  0.502594  1
  Be  Be4  1  0.833374  0.666748  0.256651  1
  Be  Be5  1  0.167834  0.832166  0.747638  1
  Be  Be6  1  0.664332  0.832166  0.747638  1
  Be  Be7  1  0.333252  0.166626  0.256651  1
  Be  Be8  1  0.833374  0.166626  0.256651  1
  Be  Be9  1  0.167834  0.335668  0.747638  1
  Re  Re10  1  0.333333  0.666667  0.433116  1
  Rh  Rh11  1  0.666667  0.333333  0.929569  1
