# generated using pymatgen
data_CsGdVS4
_symmetry_space_group_name_H-M   'P 1'
_cell_length_a   6.54521244
_cell_length_b   6.72930568
_cell_length_c   9.48677084
_cell_angle_alpha   90.04038636
_cell_angle_beta   108.78490621
_cell_angle_gamma   89.95658576
_symmetry_Int_Tables_number   1
_chemical_formula_structural   CsGdVS4
_chemical_formula_sum   'Cs2 Gd2 V2 S8'
_cell_volume   395.58541299
_cell_formula_units_Z   2
loop_
 _symmetry_equiv_pos_site_id
 _symmetry_equiv_pos_as_xyz
  1  'x, y, z'
loop_
 _atom_site_type_symbol
 _atom_site_label
 _atom_site_symmetry_multiplicity
 _atom_site_fract_x
 _atom_site_fract_y
 _atom_site_fract_z
 _atom_site_occupancy
  Cs  Cs0  1  0.228379  0.750055  0.437411  1
  Cs  Cs1  1  0.770097  0.249937  0.561584  1
  Gd  Gd2  1  0.721271  0.249808  0.043476  1
  Gd  Gd3  1  0.279804  0.750223  0.958258  1
  V  V4  1  0.276461  0.250063  0.161277  1
  V  V5  1  0.722653  0.749927  0.837837  1
  S  S6  1  0.926794  0.750184  0.068601  1
  S  S7  1  0.508733  0.501559  0.195847  1
  S  S8  1  0.509005  0.998546  0.196002  1
  S  S9  1  0.080807  0.249988  0.309386  1
  S  S10  1  0.920192  0.750016  0.691078  1
  S  S11  1  0.491637  0.001893  0.804250  1
  S  S12  1  0.491853  0.498023  0.804389  1
  S  S13  1  0.072311  0.249779  0.930601  1
