# generated using pymatgen
data_Dy3Al12Fe3Cu
_symmetry_space_group_name_H-M   'P 1'
_cell_length_a   8.69327792
_cell_length_b   8.69327757
_cell_length_c   9.31341400
_cell_angle_alpha   90.00000000
_cell_angle_beta   90.00000000
_cell_angle_gamma   119.53404954
_symmetry_Int_Tables_number   1
_chemical_formula_structural   Dy3Al12Fe3Cu
_chemical_formula_sum   'Dy6 Al24 Fe6 Cu2'
_cell_volume   612.38800170
_cell_formula_units_Z   2
loop_
 _symmetry_equiv_pos_site_id
 _symmetry_equiv_pos_as_xyz
  1  'x, y, z'
loop_
 _atom_site_type_symbol
 _atom_site_label
 _atom_site_symmetry_multiplicity
 _atom_site_fract_x
 _atom_site_fract_y
 _atom_site_fract_z
 _atom_site_occupancy
  Dy  Dy0  1  0.194636  0.805364  0.250000  1
  Dy  Dy1  1  0.188074  0.384869  0.250000  1
  Dy  Dy2  1  0.615131  0.811926  0.250000  1
  Dy  Dy3  1  0.805364  0.194636  0.750000  1
  Dy  Dy4  1  0.811926  0.615131  0.750000  1
  Dy  Dy5  1  0.384869  0.188074  0.750000  1
  Al  Al6  1  0.561919  0.438081  0.250000  1
  Al  Al7  1  0.558820  0.118125  0.250000  1
  Al  Al8  1  0.881875  0.441180  0.250000  1
  Al  Al9  1  0.438081  0.561919  0.750000  1
  Al  Al10  1  0.441180  0.881875  0.750000  1
  Al  Al11  1  0.118125  0.558820  0.750000  1
  Al  Al12  1  0.320264  0.152354  0.423766  1
  Al  Al13  1  0.837726  0.162274  0.423833  1
  Al  Al14  1  0.847646  0.679736  0.423766  1
  Al  Al15  1  0.679736  0.847646  0.576234  1
  Al  Al16  1  0.162274  0.837726  0.576167  1
  Al  Al17  1  0.152354  0.320264  0.576234  1
  Al  Al18  1  0.679736  0.847646  0.923766  1
  Al  Al19  1  0.162274  0.837726  0.923833  1
  Al  Al20  1  0.152354  0.320264  0.923766  1
  Al  Al21  1  0.320264  0.152354  0.076234  1
  Al  Al22  1  0.837726  0.162274  0.076167  1
  Al  Al23  1  0.847646  0.679736  0.076234  1
  Al  Al24  1  0.670936  0.329064  0.516055  1
  Al  Al25  1  0.329064  0.670936  0.483945  1
  Al  Al26  1  0.329064  0.670936  0.016055  1
  Al  Al27  1  0.670936  0.329064  0.983945  1
  Al  Al28  1  0.998623  0.001377  0.250000  1
  Al  Al29  1  0.001377  0.998623  0.750000  1
  Fe  Fe30  1  0.000000  0.000000  0.500000  1
  Fe  Fe31  1  0.000000  0.000000  0.000000  1
  Fe  Fe32  1  0.500000  0.000000  0.500000  1
  Fe  Fe33  1  0.000000  0.500000  0.500000  1
  Fe  Fe34  1  0.500000  0.000000  0.000000  1
  Fe  Fe35  1  0.000000  0.500000  0.000000  1
  Cu  Cu36  1  0.500000  0.500000  0.500000  1
  Cu  Cu37  1  0.500000  0.500000  0.000000  1
