# generated using pymatgen
data_TbTh7(Si3Ru)4
_symmetry_space_group_name_H-M   'P 1'
_cell_length_a   8.28658900
_cell_length_b   8.28658874
_cell_length_c   8.24442800
_cell_angle_alpha   90.00000000
_cell_angle_beta   90.00000000
_cell_angle_gamma   120.00000502
_symmetry_Int_Tables_number   1
_chemical_formula_structural   TbTh7(Si3Ru)4
_chemical_formula_sum   'Tb1 Th7 Si12 Ru4'
_cell_volume   490.27835944
_cell_formula_units_Z   1
loop_
 _symmetry_equiv_pos_site_id
 _symmetry_equiv_pos_as_xyz
  1  'x, y, z'
loop_
 _atom_site_type_symbol
 _atom_site_label
 _atom_site_symmetry_multiplicity
 _atom_site_fract_x
 _atom_site_fract_y
 _atom_site_fract_z
 _atom_site_occupancy
  Tb  Tb0  1  0.000000  0.000000  0.750000  1
  Th  Th1  1  0.500124  0.000246  0.250000  1
  Th  Th2  1  0.499740  0.999482  0.750000  1
  Th  Th3  1  0.999754  0.499876  0.250000  1
  Th  Th4  1  0.000518  0.500260  0.750000  1
  Th  Th5  1  0.500124  0.499876  0.250000  1
  Th  Th6  1  0.499740  0.500260  0.750000  1
  Th  Th7  1  0.000000  0.000000  0.250000  1
  Si  Si8  1  0.165504  0.331006  0.999164  1
  Si  Si9  1  0.834541  0.669082  0.999066  1
  Si  Si10  1  0.668994  0.834496  0.999164  1
  Si  Si11  1  0.834541  0.669082  0.500934  1
  Si  Si12  1  0.330918  0.165459  0.999066  1
  Si  Si13  1  0.165504  0.331006  0.500836  1
  Si  Si14  1  0.165504  0.834496  0.999164  1
  Si  Si15  1  0.330918  0.165459  0.500934  1
  Si  Si16  1  0.834541  0.165459  0.999066  1
  Si  Si17  1  0.668994  0.834496  0.500836  1
  Si  Si18  1  0.834541  0.165459  0.500934  1
  Si  Si19  1  0.165504  0.834496  0.500836  1
  Ru  Ru20  1  0.333333  0.666667  0.996698  1
  Ru  Ru21  1  0.666667  0.333333  0.996283  1
  Ru  Ru22  1  0.666667  0.333333  0.503717  1
  Ru  Ru23  1  0.333333  0.666667  0.503302  1
