# generated using pymatgen
data_CaPuAl20(RuRh)2
_symmetry_space_group_name_H-M   'P 1'
_cell_length_a   6.86624013
_cell_length_b   6.87397510
_cell_length_c   9.12407100
_cell_angle_alpha   90.00000000
_cell_angle_beta   90.00000000
_cell_angle_gamma   97.09890464
_symmetry_Int_Tables_number   1
_chemical_formula_structural   CaPuAl20(RuRh)2
_chemical_formula_sum   'Ca1 Pu1 Al20 Ru2 Rh2'
_cell_volume   427.34005541
_cell_formula_units_Z   1
loop_
 _symmetry_equiv_pos_site_id
 _symmetry_equiv_pos_as_xyz
  1  'x, y, z'
loop_
 _atom_site_type_symbol
 _atom_site_label
 _atom_site_symmetry_multiplicity
 _atom_site_fract_x
 _atom_site_fract_y
 _atom_site_fract_z
 _atom_site_occupancy
  Ca  Ca0  1  0.873369  0.123839  0.750000  1
  Pu  Pu1  1  0.122068  0.882085  0.250000  1
  Al  Al2  1  0.620457  0.375540  0.547831  1
  Al  Al3  1  0.379044  0.624180  0.445752  1
  Al  Al4  1  0.379044  0.624180  0.054248  1
  Al  Al5  1  0.620457  0.375540  0.952169  1
  Al  Al6  1  0.225513  0.223067  0.497832  1
  Al  Al7  1  0.775141  0.776939  0.499961  1
  Al  Al8  1  0.775141  0.776939  0.000039  1
  Al  Al9  1  0.225513  0.223067  0.002168  1
  Al  Al10  1  0.843596  0.154452  0.100817  1
  Al  Al11  1  0.158795  0.841836  0.899403  1
  Al  Al12  1  0.158795  0.841836  0.600597  1
  Al  Al13  1  0.843596  0.154452  0.399183  1
  Al  Al14  1  0.857036  0.588301  0.750000  1
  Al  Al15  1  0.140032  0.412482  0.250000  1
  Al  Al16  1  0.411845  0.141185  0.750000  1
  Al  Al17  1  0.589420  0.861669  0.250000  1
  Al  Al18  1  0.224344  0.477725  0.750000  1
  Al  Al19  1  0.776077  0.520896  0.250000  1
  Al  Al20  1  0.522207  0.780582  0.750000  1
  Al  Al21  1  0.480157  0.220915  0.250000  1
  Ru  Ru22  1  0.499588  0.999554  0.999570  1
  Ru  Ru23  1  0.499588  0.999554  0.500430  1
  Rh  Rh24  1  0.999587  0.499595  0.500564  1
  Rh  Rh25  1  0.999587  0.499595  0.999436  1
