# generated using pymatgen
data_Tm4MnAl7
_symmetry_space_group_name_H-M   'P 1'
_cell_length_a   5.51051200
_cell_length_b   5.51051204
_cell_length_c   8.83408200
_cell_angle_alpha   90.00000000
_cell_angle_beta   90.00000000
_cell_angle_gamma   119.99998777
_symmetry_Int_Tables_number   1
_chemical_formula_structural   Tm4MnAl7
_chemical_formula_sum   'Tm4 Mn1 Al7'
_cell_volume   232.31434056
_cell_formula_units_Z   1
loop_
 _symmetry_equiv_pos_site_id
 _symmetry_equiv_pos_as_xyz
  1  'x, y, z'
loop_
 _atom_site_type_symbol
 _atom_site_label
 _atom_site_symmetry_multiplicity
 _atom_site_fract_x
 _atom_site_fract_y
 _atom_site_fract_z
 _atom_site_occupancy
  Tm  Tm0  1  0.333333  0.666667  0.059728  1
  Tm  Tm1  1  0.666667  0.333333  0.560905  1
  Tm  Tm2  1  0.666667  0.333333  0.940272  1
  Tm  Tm3  1  0.333333  0.666667  0.439095  1
  Mn  Mn4  1  0.000000  0.000000  0.500000  1
  Al  Al5  1  0.000000  0.000000  0.000000  1
  Al  Al6  1  0.831898  0.663797  0.258202  1
  Al  Al7  1  0.168102  0.831898  0.741798  1
  Al  Al8  1  0.663797  0.831898  0.741798  1
  Al  Al9  1  0.336203  0.168102  0.258202  1
  Al  Al10  1  0.831898  0.168102  0.258202  1
  Al  Al11  1  0.168102  0.336203  0.741798  1
