# generated using pymatgen
data_Zr6Zn22CuS
_symmetry_space_group_name_H-M   'P 1'
_cell_length_a   8.73749526
_cell_length_b   8.73784793
_cell_length_c   8.73784200
_cell_angle_alpha   59.99660759
_cell_angle_beta   60.00081496
_cell_angle_gamma   59.99964060
_symmetry_Int_Tables_number   1
_chemical_formula_structural   Zr6Zn22CuS
_chemical_formula_sum   'Zr6 Zn22 Cu1 S1'
_cell_volume   471.70554783
_cell_formula_units_Z   1
loop_
 _symmetry_equiv_pos_site_id
 _symmetry_equiv_pos_as_xyz
  1  'x, y, z'
loop_
 _atom_site_type_symbol
 _atom_site_label
 _atom_site_symmetry_multiplicity
 _atom_site_fract_x
 _atom_site_fract_y
 _atom_site_fract_z
 _atom_site_occupancy
  Zr  Zr0  1  0.705144  0.294869  0.294833  1
  Zr  Zr1  1  0.294865  0.705147  0.705114  1
  Zr  Zr2  1  0.294873  0.705141  0.294864  1
  Zr  Zr3  1  0.705146  0.294867  0.705143  1
  Zr  Zr4  1  0.294890  0.294923  0.705087  1
  Zr  Zr5  1  0.705074  0.705106  0.294902  1
  Zn  Zn6  1  0.119959  0.119979  0.119945  1
  Zn  Zn7  1  0.880044  0.880003  0.880072  1
  Zn  Zn8  1  0.119992  0.119953  0.640118  1
  Zn  Zn9  1  0.119941  0.640122  0.119960  1
  Zn  Zn10  1  0.880014  0.880031  0.359889  1
  Zn  Zn11  1  0.880052  0.359891  0.880045  1
  Zn  Zn12  1  0.640108  0.119938  0.119997  1
  Zn  Zn13  1  0.359875  0.880048  0.880026  1
  Zn  Zn14  1  0.500000  0.999987  0.000011  1
  Zn  Zn15  1  0.999998  0.500010  0.499988  1
  Zn  Zn16  1  0.999989  0.500007  0.000011  1
  Zn  Zn17  1  0.500004  0.999995  0.499997  1
  Zn  Zn18  1  0.000002  0.000000  0.499994  1
  Zn  Zn19  1  0.499992  0.500008  0.000008  1
  Zn  Zn20  1  0.331523  0.331523  0.331517  1
  Zn  Zn21  1  0.668490  0.668469  0.668476  1
  Zn  Zn22  1  0.331530  0.331511  0.005444  1
  Zn  Zn23  1  0.331533  0.005427  0.331516  1
  Zn  Zn24  1  0.668481  0.668477  0.994563  1
  Zn  Zn25  1  0.668488  0.994547  0.668485  1
  Zn  Zn26  1  0.005448  0.331520  0.331520  1
  Zn  Zn27  1  0.994568  0.668473  0.668474  1
  Cu  Cu28  1  0.000003  0.999977  0.000019  1
  S  S29  1  0.499976  0.500053  0.499979  1
