# generated using pymatgen
data_DyY5(Ga2Si)4
_symmetry_space_group_name_H-M   'P 1'
_cell_length_a   4.07713734
_cell_length_b   4.19113477
_cell_length_c   21.63168287
_cell_angle_alpha   84.44076481
_cell_angle_beta   84.59241565
_cell_angle_gamma   89.99999841
_symmetry_Int_Tables_number   1
_chemical_formula_structural   DyY5(Ga2Si)4
_chemical_formula_sum   'Dy1 Y5 Ga8 Si4'
_cell_volume   366.24711186
_cell_formula_units_Z   1
loop_
 _symmetry_equiv_pos_site_id
 _symmetry_equiv_pos_as_xyz
  1  'x, y, z'
loop_
 _atom_site_type_symbol
 _atom_site_label
 _atom_site_symmetry_multiplicity
 _atom_site_fract_x
 _atom_site_fract_y
 _atom_site_fract_z
 _atom_site_occupancy
  Dy  Dy0  1  0.041506  0.291506  0.916989  1
  Y  Y1  1  0.957836  0.707836  0.084328  1
  Y  Y2  1  0.290059  0.040059  0.419885  1
  Y  Y3  1  0.622908  0.372908  0.754183  1
  Y  Y4  1  0.377561  0.627561  0.244877  1
  Y  Y5  1  0.709879  0.959879  0.580242  1
  Ga  Ga6  1  0.820136  0.570136  0.359728  1
  Ga  Ga7  1  0.152756  0.902756  0.694489  1
  Ga  Ga8  1  0.431742  0.181742  0.136515  1
  Ga  Ga9  1  0.764352  0.514352  0.471296  1
  Ga  Ga10  1  0.096938  0.846938  0.806123  1
  Ga  Ga11  1  0.847764  0.097764  0.304472  1
  Ga  Ga12  1  0.180369  0.430369  0.639263  1
  Ga  Ga13  1  0.513076  0.763076  0.973848  1
  Si  Si14  1  0.902657  0.152657  0.194688  1
  Si  Si15  1  0.235391  0.485391  0.529218  1
  Si  Si16  1  0.568212  0.818212  0.863577  1
  Si  Si17  1  0.486861  0.236861  0.026277  1
