# generated using pymatgen
data_Lu3Co8P6Ru
_symmetry_space_group_name_H-M   'P 1'
_cell_length_a   3.66579800
_cell_length_b   10.46462600
_cell_length_c   12.14331100
_cell_angle_alpha   90.00000000
_cell_angle_beta   90.00000000
_cell_angle_gamma   90.00000000
_symmetry_Int_Tables_number   1
_chemical_formula_structural   Lu3Co8P6Ru
_chemical_formula_sum   'Lu6 Co16 P12 Ru2'
_cell_volume   465.83204340
_cell_formula_units_Z   2
loop_
 _symmetry_equiv_pos_site_id
 _symmetry_equiv_pos_as_xyz
  1  'x, y, z'
loop_
 _atom_site_type_symbol
 _atom_site_label
 _atom_site_symmetry_multiplicity
 _atom_site_fract_x
 _atom_site_fract_y
 _atom_site_fract_z
 _atom_site_occupancy
  Lu  Lu0  1  0.000000  0.500000  0.524631  1
  Lu  Lu1  1  0.500000  0.000000  0.475369  1
  Lu  Lu2  1  0.500000  0.818976  0.206948  1
  Lu  Lu3  1  0.500000  0.181024  0.206948  1
  Lu  Lu4  1  0.000000  0.681024  0.793052  1
  Lu  Lu5  1  0.000000  0.318976  0.793052  1
  Co  Co6  1  0.500000  0.500000  0.703929  1
  Co  Co7  1  0.000000  0.000000  0.296071  1
  Co  Co8  1  0.000000  0.500000  0.986947  1
  Co  Co9  1  0.500000  0.000000  0.013053  1
  Co  Co10  1  0.500000  0.332544  0.990848  1
  Co  Co11  1  0.500000  0.667456  0.990848  1
  Co  Co12  1  0.000000  0.167456  0.009152  1
  Co  Co13  1  0.000000  0.832544  0.009152  1
  Co  Co14  1  0.500000  0.297386  0.431349  1
  Co  Co15  1  0.500000  0.702614  0.431349  1
  Co  Co16  1  0.000000  0.202614  0.568651  1
  Co  Co17  1  0.000000  0.797386  0.568651  1
  Co  Co18  1  0.500000  0.877428  0.707603  1
  Co  Co19  1  0.500000  0.122572  0.707603  1
  Co  Co20  1  0.000000  0.622572  0.292397  1
  Co  Co21  1  0.000000  0.377428  0.292397  1
  P  P22  1  0.500000  0.500000  0.881070  1
  P  P23  1  0.000000  0.000000  0.118930  1
  P  P24  1  0.500000  0.500000  0.352125  1
  P  P25  1  0.000000  0.000000  0.647875  1
  P  P26  1  0.500000  0.313664  0.616867  1
  P  P27  1  0.500000  0.686336  0.616867  1
  P  P28  1  0.000000  0.186336  0.383133  1
  P  P29  1  0.000000  0.813664  0.383133  1
  P  P30  1  0.500000  0.844997  0.891792  1
  P  P31  1  0.500000  0.155003  0.891792  1
  P  P32  1  0.000000  0.655003  0.108208  1
  P  P33  1  0.000000  0.344997  0.108208  1
  Ru  Ru34  1  0.500000  0.500000  0.160053  1
  Ru  Ru35  1  0.000000  0.000000  0.839947  1
