# generated using pymatgen
data_Tm8Ta3Si16W9
_symmetry_space_group_name_H-M   'P 1'
_cell_length_a   6.73850574
_cell_length_b   6.92915581
_cell_length_c   12.92815500
_cell_angle_alpha   90.00000000
_cell_angle_beta   90.00000000
_cell_angle_gamma   89.91731872
_symmetry_Int_Tables_number   1
_chemical_formula_structural   Tm8Ta3Si16W9
_chemical_formula_sum   'Tm8 Ta3 Si16 W9'
_cell_volume   603.64280482
_cell_formula_units_Z   1
loop_
 _symmetry_equiv_pos_site_id
 _symmetry_equiv_pos_as_xyz
  1  'x, y, z'
loop_
 _atom_site_type_symbol
 _atom_site_label
 _atom_site_symmetry_multiplicity
 _atom_site_fract_x
 _atom_site_fract_y
 _atom_site_fract_z
 _atom_site_occupancy
  Tm  Tm0  1  0.998771  0.170556  0.093738  1
  Tm  Tm1  1  0.001349  0.830968  0.906123  1
  Tm  Tm2  1  0.503505  0.669576  0.906081  1
  Tm  Tm3  1  0.001349  0.830968  0.593877  1
  Tm  Tm4  1  0.498447  0.330460  0.093672  1
  Tm  Tm5  1  0.998771  0.170556  0.406262  1
  Tm  Tm6  1  0.498447  0.330460  0.406328  1
  Tm  Tm7  1  0.503505  0.669576  0.593919  1
  Ta  Ta8  1  0.839559  0.507889  0.250000  1
  Ta  Ta9  1  0.339491  0.992718  0.250000  1
  Ta  Ta10  1  0.660646  0.004499  0.750000  1
  Si  Si11  1  0.036819  0.126852  0.750000  1
  Si  Si12  1  0.964348  0.877015  0.250000  1
  Si  Si13  1  0.463565  0.622979  0.250000  1
  Si  Si14  1  0.532677  0.375873  0.750000  1
  Si  Si15  1  0.296217  0.863030  0.750000  1
  Si  Si16  1  0.703856  0.133371  0.250000  1
  Si  Si17  1  0.203778  0.367422  0.250000  1
  Si  Si18  1  0.801595  0.631315  0.750000  1
  Si  Si19  1  0.164031  0.458354  0.545991  1
  Si  Si20  1  0.836072  0.542328  0.457613  1
  Si  Si21  1  0.335821  0.957908  0.457178  1
  Si  Si22  1  0.836072  0.542328  0.042387  1
  Si  Si23  1  0.663244  0.041359  0.543709  1
  Si  Si24  1  0.164031  0.458354  0.954009  1
  Si  Si25  1  0.663244  0.041359  0.956291  1
  Si  Si26  1  0.335821  0.957908  0.042822  1
  W  W27  1  0.163079  0.497034  0.750000  1
  W  W28  1  0.331476  0.162497  0.625273  1
  W  W29  1  0.666483  0.836059  0.375404  1
  W  W30  1  0.166781  0.663591  0.376430  1
  W  W31  1  0.666483  0.836059  0.124596  1
  W  W32  1  0.831204  0.336345  0.624904  1
  W  W33  1  0.331476  0.162497  0.874727  1
  W  W34  1  0.831204  0.336345  0.875096  1
  W  W35  1  0.166781  0.663591  0.123570  1
