# generated using pymatgen
data_Ho16MgHg3Pt4
_symmetry_space_group_name_H-M   'P 1'
_cell_length_a   9.63957725
_cell_length_b   9.63423622
_cell_length_c   9.63424800
_cell_angle_alpha   60.00001076
_cell_angle_beta   60.01822931
_cell_angle_gamma   60.01828269
_symmetry_Int_Tables_number   1
_chemical_formula_structural   Ho16MgHg3Pt4
_chemical_formula_sum   'Ho16 Mg1 Hg3 Pt4'
_cell_volume   632.84582767
_cell_formula_units_Z   1
loop_
 _symmetry_equiv_pos_site_id
 _symmetry_equiv_pos_as_xyz
  1  'x, y, z'
loop_
 _atom_site_type_symbol
 _atom_site_label
 _atom_site_symmetry_multiplicity
 _atom_site_fract_x
 _atom_site_fract_y
 _atom_site_fract_z
 _atom_site_occupancy
  Ho  Ho0  1  0.808629  0.190680  0.190680  1
  Ho  Ho1  1  0.186783  0.812131  0.812131  1
  Ho  Ho2  1  0.186782  0.812132  0.188955  1
  Ho  Ho3  1  0.808627  0.190681  0.810012  1
  Ho  Ho4  1  0.186782  0.188956  0.812131  1
  Ho  Ho5  1  0.808629  0.810012  0.190680  1
  Ho  Ho6  1  0.933189  0.565560  0.565560  1
  Ho  Ho7  1  0.564268  0.935408  0.935408  1
  Ho  Ho8  1  0.564267  0.935407  0.564916  1
  Ho  Ho9  1  0.933188  0.565560  0.935692  1
  Ho  Ho10  1  0.564269  0.564916  0.935407  1
  Ho  Ho11  1  0.933189  0.935691  0.565559  1
  Ho  Ho12  1  0.353592  0.351386  0.351383  1
  Ho  Ho13  1  0.353592  0.351386  0.943637  1
  Ho  Ho14  1  0.353594  0.943635  0.351384  1
  Ho  Ho15  1  0.933948  0.355352  0.355350  1
  Mg  Mg16  1  0.281090  0.572966  0.572973  1
  Hg  Hg17  1  0.583805  0.588296  0.588297  1
  Hg  Hg18  1  0.583805  0.588296  0.239602  1
  Hg  Hg19  1  0.583804  0.239603  0.588296  1
  Pt  Pt20  1  0.141449  0.144754  0.144758  1
  Pt  Pt21  1  0.141444  0.144752  0.569054  1
  Pt  Pt22  1  0.141447  0.569044  0.144756  1
  Pt  Pt23  1  0.569830  0.143395  0.143380  1
