# generated using pymatgen
data_La4Ga10Pd5Ru
_symmetry_space_group_name_H-M   'P 1'
_cell_length_a   8.81289792
_cell_length_b   8.81289880
_cell_length_c   8.81289800
_cell_angle_alpha   140.87952710
_cell_angle_beta   107.62011527
_cell_angle_gamma   85.49618233
_symmetry_Int_Tables_number   1
_chemical_formula_structural   La4Ga10Pd5Ru
_chemical_formula_sum   'La4 Ga10 Pd5 Ru1'
_cell_volume   397.45902486
_cell_formula_units_Z   1
loop_
 _symmetry_equiv_pos_site_id
 _symmetry_equiv_pos_as_xyz
  1  'x, y, z'
loop_
 _atom_site_type_symbol
 _atom_site_label
 _atom_site_symmetry_multiplicity
 _atom_site_fract_x
 _atom_site_fract_y
 _atom_site_fract_z
 _atom_site_occupancy
  La  La0  1  0.362314  0.135948  0.225012  1
  La  La1  1  0.637686  0.862698  0.773634  1
  La  La2  1  0.089064  0.364052  0.726366  1
  La  La3  1  0.910936  0.637302  0.274988  1
  Ga  Ga4  1  0.000000  0.250000  0.250000  1
  Ga  Ga5  1  0.000000  0.750000  0.750000  1
  Ga  Ga6  1  0.709938  0.959938  0.250000  1
  Ga  Ga7  1  0.290062  0.540062  0.250000  1
  Ga  Ga8  1  0.292864  0.042864  0.750000  1
  Ga  Ga9  1  0.707136  0.457136  0.750000  1
  Ga  Ga10  1  0.567016  0.399733  0.156322  1
  Ga  Ga11  1  0.243410  0.910694  0.343678  1
  Ga  Ga12  1  0.756590  0.100267  0.667283  1
  Ga  Ga13  1  0.432984  0.589306  0.832717  1
  Pd  Pd14  1  0.953430  0.853226  0.095511  1
  Pd  Pd15  1  0.500000  0.750000  0.250000  1
  Pd  Pd16  1  0.757715  0.357920  0.404489  1
  Pd  Pd17  1  0.242285  0.646774  0.600205  1
  Pd  Pd18  1  0.046570  0.142080  0.899795  1
  Ru  Ru19  1  0.500000  0.250000  0.750000  1
