# generated using pymatgen
data_Yb2(AlAu3)3
_symmetry_space_group_name_H-M   'P 1'
_cell_length_a   7.91507088
_cell_length_b   7.91507138
_cell_length_c   10.75395410
_cell_angle_alpha   69.02470981
_cell_angle_beta   69.02470827
_cell_angle_gamma   60.76693076
_symmetry_Int_Tables_number   1
_chemical_formula_structural   Yb2(AlAu3)3
_chemical_formula_sum   'Yb4 Al6 Au18'
_cell_volume   534.90785286
_cell_formula_units_Z   2
loop_
 _symmetry_equiv_pos_site_id
 _symmetry_equiv_pos_as_xyz
  1  'x, y, z'
loop_
 _atom_site_type_symbol
 _atom_site_label
 _atom_site_symmetry_multiplicity
 _atom_site_fract_x
 _atom_site_fract_y
 _atom_site_fract_z
 _atom_site_occupancy
  Yb  Yb0  1  0.415865  0.250491  0.748970  1
  Yb  Yb1  1  0.584135  0.749509  0.251030  1
  Yb  Yb2  1  0.749509  0.584135  0.751030  1
  Yb  Yb3  1  0.250491  0.415865  0.248970  1
  Al  Al4  1  0.649890  0.178278  0.997918  1
  Al  Al5  1  0.821722  0.350110  0.502082  1
  Al  Al6  1  0.350110  0.821722  0.002082  1
  Al  Al7  1  0.000000  0.500000  0.000000  1
  Al  Al8  1  0.178278  0.649890  0.497918  1
  Al  Al9  1  0.500000  0.000000  0.500000  1
  Au  Au10  1  0.478157  0.644902  0.568249  1
  Au  Au11  1  0.355098  0.521843  0.931751  1
  Au  Au12  1  0.855503  0.692040  0.435611  1
  Au  Au13  1  0.852569  0.147431  0.750000  1
  Au  Au14  1  0.521843  0.355098  0.431751  1
  Au  Au15  1  0.692040  0.855503  0.935611  1
  Au  Au16  1  0.916937  0.308519  0.253855  1
  Au  Au17  1  0.977182  0.801208  0.077544  1
  Au  Au18  1  0.308519  0.916937  0.753855  1
  Au  Au19  1  0.144497  0.307960  0.564389  1
  Au  Au20  1  0.801208  0.977182  0.577544  1
  Au  Au21  1  0.307960  0.144497  0.064389  1
  Au  Au22  1  0.147431  0.852569  0.250000  1
  Au  Au23  1  0.022818  0.198792  0.922456  1
  Au  Au24  1  0.083063  0.691481  0.746145  1
  Au  Au25  1  0.644902  0.478157  0.068249  1
  Au  Au26  1  0.198792  0.022818  0.422456  1
  Au  Au27  1  0.691481  0.083063  0.246145  1
