# generated using pymatgen
data_HfZr13Pd17Au3
_symmetry_space_group_name_H-M   'P 1'
_cell_length_a   8.19627181
_cell_length_b   8.19627280
_cell_length_c   9.78520172
_cell_angle_alpha   90.07788960
_cell_angle_beta   90.07789992
_cell_angle_gamma   106.78023204
_symmetry_Int_Tables_number   1
_chemical_formula_structural   HfZr13Pd17Au3
_chemical_formula_sum   'Hf1 Zr13 Pd17 Au3'
_cell_volume   629.36636076
_cell_formula_units_Z   1
loop_
 _symmetry_equiv_pos_site_id
 _symmetry_equiv_pos_as_xyz
  1  'x, y, z'
loop_
 _atom_site_type_symbol
 _atom_site_label
 _atom_site_symmetry_multiplicity
 _atom_site_fract_x
 _atom_site_fract_y
 _atom_site_fract_z
 _atom_site_occupancy
  Hf  Hf0  1  0.499825  0.499825  0.499819  1
  Zr  Zr1  1  0.695765  0.304054  0.000162  1
  Zr  Zr2  1  0.304054  0.695765  0.000162  1
  Zr  Zr3  1  0.807408  0.195376  0.498423  1
  Zr  Zr4  1  0.195376  0.807408  0.498423  1
  Zr  Zr5  1  0.000105  0.000105  0.000140  1
  Zr  Zr6  1  0.001820  0.501993  0.250572  1
  Zr  Zr7  1  0.998803  0.498331  0.749134  1
  Zr  Zr8  1  0.498331  0.998803  0.749134  1
  Zr  Zr9  1  0.501993  0.001820  0.250572  1
  Zr  Zr10  1  0.310845  0.310845  0.191339  1
  Zr  Zr11  1  0.684418  0.684418  0.812945  1
  Zr  Zr12  1  0.185248  0.185248  0.681879  1
  Zr  Zr13  1  0.817462  0.817462  0.315294  1
  Pd  Pd14  1  0.856108  0.149708  0.207597  1
  Pd  Pd15  1  0.145072  0.850684  0.792623  1
  Pd  Pd16  1  0.642565  0.352227  0.705630  1
  Pd  Pd17  1  0.647372  0.357356  0.293970  1
  Pd  Pd18  1  0.357356  0.647372  0.293970  1
  Pd  Pd19  1  0.352227  0.642565  0.705630  1
  Pd  Pd20  1  0.850684  0.145072  0.792623  1
  Pd  Pd21  1  0.149708  0.856108  0.207597  1
  Pd  Pd22  1  0.939358  0.645803  0.001351  1
  Pd  Pd23  1  0.060480  0.354226  0.999209  1
  Pd  Pd24  1  0.561279  0.852939  0.502428  1
  Pd  Pd25  1  0.147554  0.438632  0.496767  1
  Pd  Pd26  1  0.438632  0.147554  0.496767  1
  Pd  Pd27  1  0.852939  0.561279  0.502428  1
  Pd  Pd28  1  0.354226  0.060480  0.999209  1
  Pd  Pd29  1  0.645803  0.939358  0.001351  1
  Pd  Pd30  1  0.103091  0.103091  0.396061  1
  Au  Au31  1  0.895284  0.895284  0.605787  1
  Au  Au32  1  0.392111  0.392111  0.895366  1
  Au  Au33  1  0.606699  0.606699  0.105638  1
