# generated using pymatgen
data_CeY2Er5(CdRu)2
_symmetry_space_group_name_H-M   'P 1'
_cell_length_a   9.65254829
_cell_length_b   9.57844407
_cell_length_c   9.57506913
_cell_angle_alpha   59.56214814
_cell_angle_beta   59.76295995
_cell_angle_gamma   59.73784775
_symmetry_Int_Tables_number   1
_chemical_formula_structural   CeY2Er5(CdRu)2
_chemical_formula_sum   'Ce2 Y4 Er10 Cd4 Ru4'
_cell_volume   621.53867766
_cell_formula_units_Z   2
loop_
 _symmetry_equiv_pos_site_id
 _symmetry_equiv_pos_as_xyz
  1  'x, y, z'
loop_
 _atom_site_type_symbol
 _atom_site_label
 _atom_site_symmetry_multiplicity
 _atom_site_fract_x
 _atom_site_fract_y
 _atom_site_fract_z
 _atom_site_occupancy
  Ce  Ce0  1  0.971195  0.341517  0.341886  1
  Ce  Ce1  1  0.347704  0.340858  0.341352  1
  Y  Y2  1  0.563030  0.562341  0.937097  1
  Y  Y3  1  0.938385  0.560304  0.938681  1
  Y  Y4  1  0.559211  0.939910  0.938956  1
  Y  Y5  1  0.937109  0.938494  0.560554  1
  Er  Er6  1  0.562505  0.938538  0.560214  1
  Er  Er7  1  0.938981  0.560861  0.559820  1
  Er  Er8  1  0.188609  0.188215  0.812184  1
  Er  Er9  1  0.809961  0.187641  0.812483  1
  Er  Er10  1  0.188077  0.811429  0.811261  1
  Er  Er11  1  0.809655  0.812227  0.188282  1
  Er  Er12  1  0.187982  0.812372  0.188743  1
  Er  Er13  1  0.811160  0.188066  0.189055  1
  Er  Er14  1  0.349076  0.350026  0.953127  1
  Er  Er15  1  0.348796  0.952983  0.350349  1
  Cd  Cd16  1  0.580952  0.579514  0.258088  1
  Cd  Cd17  1  0.580845  0.257514  0.579297  1
  Cd  Cd18  1  0.258995  0.579708  0.579784  1
  Cd  Cd19  1  0.580437  0.580110  0.579585  1
  Ru  Ru20  1  0.140047  0.151539  0.572842  1
  Ru  Ru21  1  0.139181  0.572893  0.151906  1
  Ru  Ru22  1  0.573291  0.147196  0.148877  1
  Ru  Ru23  1  0.134813  0.145741  0.145575  1
