# generated using pymatgen
data_Ce12Al6ReIr5
_symmetry_space_group_name_H-M   'P 1'
_cell_length_a   7.79804981
_cell_length_b   7.79805095
_cell_length_c   9.87536500
_cell_angle_alpha   90.32804334
_cell_angle_beta   90.32803604
_cell_angle_gamma   120.27126473
_symmetry_Int_Tables_number   1
_chemical_formula_structural   Ce12Al6ReIr5
_chemical_formula_sum   'Ce12 Al6 Re1 Ir5'
_cell_volume   518.60121645
_cell_formula_units_Z   1
loop_
 _symmetry_equiv_pos_site_id
 _symmetry_equiv_pos_as_xyz
  1  'x, y, z'
loop_
 _atom_site_type_symbol
 _atom_site_label
 _atom_site_symmetry_multiplicity
 _atom_site_fract_x
 _atom_site_fract_y
 _atom_site_fract_z
 _atom_site_occupancy
  Ce  Ce0  1  0.001110  0.607851  0.507523  1
  Ce  Ce1  1  0.607851  0.001110  0.507523  1
  Ce  Ce2  1  0.397457  0.397457  0.506933  1
  Ce  Ce3  1  0.005292  0.397027  0.007213  1
  Ce  Ce4  1  0.397027  0.005292  0.007213  1
  Ce  Ce5  1  0.587449  0.587449  0.006389  1
  Ce  Ce6  1  0.999836  0.725893  0.165339  1
  Ce  Ce7  1  0.725893  0.999836  0.165339  1
  Ce  Ce8  1  0.268056  0.268056  0.169038  1
  Ce  Ce9  1  0.005235  0.270397  0.669985  1
  Ce  Ce10  1  0.270397  0.005235  0.669985  1
  Ce  Ce11  1  0.725693  0.725693  0.666585  1
  Al  Al12  1  0.666540  0.333076  0.283263  1
  Al  Al13  1  0.333076  0.666540  0.283263  1
  Al  Al14  1  0.333591  0.671898  0.781310  1
  Al  Al15  1  0.671898  0.333591  0.781310  1
  Al  Al16  1  0.999593  0.999593  0.412544  1
  Al  Al17  1  0.997102  0.997102  0.915586  1
  Re  Re18  1  0.337704  0.337704  0.836315  1
  Ir  Ir19  1  0.000155  0.334224  0.338383  1
  Ir  Ir20  1  0.334224  0.000155  0.338383  1
  Ir  Ir21  1  0.667520  0.667520  0.334532  1
  Ir  Ir22  1  0.000417  0.666883  0.837647  1
  Ir  Ir23  1  0.666883  0.000417  0.837647  1
