# generated using pymatgen
data_LiTb(TaSe2)6
_symmetry_space_group_name_H-M   'P 1'
_cell_length_a   6.08498500
_cell_length_b   6.08498387
_cell_length_c   13.98682500
_cell_angle_alpha   90.00000000
_cell_angle_beta   90.00000000
_cell_angle_gamma   120.00001157
_symmetry_Int_Tables_number   1
_chemical_formula_structural   LiTb(TaSe2)6
_chemical_formula_sum   'Li1 Tb1 Ta6 Se12'
_cell_volume   448.50642170
_cell_formula_units_Z   1
loop_
 _symmetry_equiv_pos_site_id
 _symmetry_equiv_pos_as_xyz
  1  'x, y, z'
loop_
 _atom_site_type_symbol
 _atom_site_label
 _atom_site_symmetry_multiplicity
 _atom_site_fract_x
 _atom_site_fract_y
 _atom_site_fract_z
 _atom_site_occupancy
  Li  Li0  1  0.000000  0.000000  0.500000  1
  Tb  Tb1  1  0.000000  0.000000  0.000000  1
  Ta  Ta2  1  0.333333  0.666667  0.259643  1
  Ta  Ta3  1  0.666667  0.333333  0.740357  1
  Ta  Ta4  1  0.666667  0.333333  0.259643  1
  Ta  Ta5  1  0.333333  0.666667  0.740357  1
  Ta  Ta6  1  0.000000  0.000000  0.256943  1
  Ta  Ta7  1  0.000000  0.000000  0.743057  1
  Se  Se8  1  0.340207  0.000000  0.139017  1
  Se  Se9  1  0.000000  0.340207  0.139017  1
  Se  Se10  1  0.659793  0.659793  0.139017  1
  Se  Se11  1  0.334515  0.334515  0.622918  1
  Se  Se12  1  0.665485  0.665485  0.377082  1
  Se  Se13  1  0.665485  0.000000  0.622918  1
  Se  Se14  1  0.000000  0.665485  0.622918  1
  Se  Se15  1  0.000000  0.659793  0.860983  1
  Se  Se16  1  0.340207  0.340207  0.860983  1
  Se  Se17  1  0.000000  0.334515  0.377082  1
  Se  Se18  1  0.334515  0.000000  0.377082  1
  Se  Se19  1  0.659793  0.000000  0.860983  1
