# generated using pymatgen
data_Hf6TiNb3Ga5Sb
_symmetry_space_group_name_H-M   'P 1'
_cell_length_a   7.99603238
_cell_length_b   8.00680561
_cell_length_c   5.45796272
_cell_angle_alpha   89.94145298
_cell_angle_beta   90.03489382
_cell_angle_gamma   119.96032524
_symmetry_Int_Tables_number   1
_chemical_formula_structural   Hf6TiNb3Ga5Sb
_chemical_formula_sum   'Hf6 Ti1 Nb3 Ga5 Sb1'
_cell_volume   302.73893827
_cell_formula_units_Z   1
loop_
 _symmetry_equiv_pos_site_id
 _symmetry_equiv_pos_as_xyz
  1  'x, y, z'
loop_
 _atom_site_type_symbol
 _atom_site_label
 _atom_site_symmetry_multiplicity
 _atom_site_fract_x
 _atom_site_fract_y
 _atom_site_fract_z
 _atom_site_occupancy
  Hf  Hf0  1  0.237365  0.002021  0.248652  1
  Hf  Hf1  1  0.757946  0.001677  0.752255  1
  Hf  Hf2  1  0.009412  0.255988  0.247570  1
  Hf  Hf3  1  0.996894  0.748547  0.751021  1
  Hf  Hf4  1  0.755715  0.742687  0.248571  1
  Hf  Hf5  1  0.249571  0.249818  0.751496  1
  Ti  Ti6  1  0.328225  0.659717  0.503152  1
  Nb  Nb7  1  0.328830  0.660891  0.995988  1
  Nb  Nb8  1  0.668183  0.339368  0.997443  1
  Nb  Nb9  1  0.668181  0.339330  0.502465  1
  Ga  Ga10  1  0.393717  0.997791  0.748526  1
  Ga  Ga11  1  0.005315  0.604119  0.252369  1
  Ga  Ga12  1  0.000164  0.396566  0.747419  1
  Ga  Ga13  1  0.398558  0.398970  0.252096  1
  Ga  Ga14  1  0.601139  0.605869  0.747546  1
  Sb  Sb15  1  0.600789  0.996641  0.253429  1
