# generated using pymatgen
data_Tb4Al18Ir5Pt
_symmetry_space_group_name_H-M   'P 1'
_cell_length_a   7.57875863
_cell_length_b   7.57875890
_cell_length_c   9.48750863
_cell_angle_alpha   89.97896333
_cell_angle_beta   89.97896201
_cell_angle_gamma   119.59875985
_symmetry_Int_Tables_number   1
_chemical_formula_structural   Tb4Al18Ir5Pt
_chemical_formula_sum   'Tb4 Al18 Ir5 Pt1'
_cell_volume   473.82789976
_cell_formula_units_Z   1
loop_
 _symmetry_equiv_pos_site_id
 _symmetry_equiv_pos_as_xyz
  1  'x, y, z'
loop_
 _atom_site_type_symbol
 _atom_site_label
 _atom_site_symmetry_multiplicity
 _atom_site_fract_x
 _atom_site_fract_y
 _atom_site_fract_z
 _atom_site_occupancy
  Tb  Tb0  1  0.994762  0.670305  0.250544  1
  Tb  Tb1  1  0.005051  0.329715  0.749590  1
  Tb  Tb2  1  0.670285  0.994949  0.250410  1
  Tb  Tb3  1  0.329695  0.005238  0.749456  1
  Al  Al4  1  0.128019  0.127304  0.250414  1
  Al  Al5  1  0.872696  0.871981  0.749586  1
  Al  Al6  1  0.004240  0.335111  0.075818  1
  Al  Al7  1  0.002025  0.668457  0.924097  1
  Al  Al8  1  0.999667  0.665068  0.574074  1
  Al  Al9  1  0.334932  0.000333  0.425926  1
  Al  Al10  1  0.000820  0.334550  0.425572  1
  Al  Al11  1  0.665450  0.999180  0.574428  1
  Al  Al12  1  0.664889  0.995760  0.924182  1
  Al  Al13  1  0.331543  0.997975  0.075903  1
  Al  Al14  1  0.333341  0.333275  0.551913  1
  Al  Al15  1  0.666725  0.666659  0.448087  1
  Al  Al16  1  0.666162  0.669276  0.054481  1
  Al  Al17  1  0.330724  0.333838  0.945519  1
  Al  Al18  1  0.340067  0.548529  0.250269  1
  Al  Al19  1  0.660331  0.453605  0.747578  1
  Al  Al20  1  0.546395  0.339669  0.252422  1
  Al  Al21  1  0.451471  0.659933  0.749731  1
  Ir  Ir22  1  0.328261  0.671739  0.000000  1
  Ir  Ir23  1  0.328460  0.671540  0.500000  1
  Ir  Ir24  1  0.671823  0.328177  0.500000  1
  Ir  Ir25  1  0.999856  0.000144  0.000000  1
  Ir  Ir26  1  0.000212  0.999788  0.500000  1
  Pt  Pt27  1  0.672099  0.327901  0.000000  1
