# generated using pymatgen
data_Li2Y7Er11(Cd3Ru)2
_symmetry_space_group_name_H-M   'P 1'
_cell_length_a   9.43595650
_cell_length_b   9.43570189
_cell_length_c   9.68214368
_cell_angle_alpha   89.99980801
_cell_angle_beta   90.03720952
_cell_angle_gamma   119.99929440
_symmetry_Int_Tables_number   1
_chemical_formula_structural   Li2Y7Er11(Cd3Ru)2
_chemical_formula_sum   'Li2 Y7 Er11 Cd6 Ru2'
_cell_volume   746.56093744
_cell_formula_units_Z   1
loop_
 _symmetry_equiv_pos_site_id
 _symmetry_equiv_pos_as_xyz
  1  'x, y, z'
loop_
 _atom_site_type_symbol
 _atom_site_label
 _atom_site_symmetry_multiplicity
 _atom_site_fract_x
 _atom_site_fract_y
 _atom_site_fract_z
 _atom_site_occupancy
  Li  Li0  1  0.000014  0.000007  0.500042  1
  Li  Li1  1  0.000127  0.000064  0.999976  1
  Y  Y2  1  0.584275  0.792130  0.058108  1
  Y  Y3  1  0.542140  0.457546  0.250217  1
  Y  Y4  1  0.542144  0.084602  0.250216  1
  Y  Y5  1  0.915841  0.457916  0.250051  1
  Y  Y6  1  0.457736  0.541810  0.749627  1
  Y  Y7  1  0.457737  0.915927  0.749632  1
  Y  Y8  1  0.084321  0.542159  0.749967  1
  Er  Er9  1  0.208502  0.791475  0.441182  1
  Er  Er10  1  0.208502  0.417023  0.441175  1
  Er  Er11  1  0.582984  0.791489  0.441364  1
  Er  Er12  1  0.791576  0.208540  0.558753  1
  Er  Er13  1  0.791568  0.583034  0.558746  1
  Er  Er14  1  0.417026  0.208517  0.558746  1
  Er  Er15  1  0.791665  0.208815  0.941125  1
  Er  Er16  1  0.791667  0.582855  0.941126  1
  Er  Er17  1  0.417017  0.208507  0.941276  1
  Er  Er18  1  0.208191  0.791454  0.058909  1
  Er  Er19  1  0.208184  0.416732  0.058910  1
  Cd  Cd20  1  0.891751  0.108325  0.250013  1
  Cd  Cd21  1  0.891733  0.783422  0.250022  1
  Cd  Cd22  1  0.216468  0.108240  0.250048  1
  Cd  Cd23  1  0.108256  0.891738  0.750035  1
  Cd  Cd24  1  0.108259  0.216522  0.750035  1
  Cd  Cd25  1  0.783500  0.891738  0.749927  1
  Ru  Ru26  1  0.332187  0.666095  0.250792  1
  Ru  Ru27  1  0.666628  0.333319  0.749982  1
