# generated using pymatgen
data_Ac8Ho12Si15As
_symmetry_space_group_name_H-M   'P 1'
_cell_length_a   7.70583100
_cell_length_b   7.99769237
_cell_length_c   15.17127400
_cell_angle_alpha   90.00000000
_cell_angle_beta   90.00000000
_cell_angle_gamma   90.15789562
_symmetry_Int_Tables_number   1
_chemical_formula_structural   Ac8Ho12Si15As
_chemical_formula_sum   'Ac8 Ho12 Si15 As1'
_cell_volume   934.98485878
_cell_formula_units_Z   1
loop_
 _symmetry_equiv_pos_site_id
 _symmetry_equiv_pos_as_xyz
  1  'x, y, z'
loop_
 _atom_site_type_symbol
 _atom_site_label
 _atom_site_symmetry_multiplicity
 _atom_site_fract_x
 _atom_site_fract_y
 _atom_site_fract_z
 _atom_site_occupancy
  Ac  Ac0  1  0.017274  0.174781  0.401750  1
  Ac  Ac1  1  0.516644  0.325907  0.400956  1
  Ac  Ac2  1  0.489237  0.667100  0.904341  1
  Ac  Ac3  1  0.489237  0.667100  0.595659  1
  Ac  Ac4  1  0.985768  0.829398  0.599919  1
  Ac  Ac5  1  0.985768  0.829398  0.900081  1
  Ac  Ac6  1  0.516644  0.325907  0.099044  1
  Ac  Ac7  1  0.017274  0.174781  0.098250  1
  Ho  Ho8  1  0.318437  0.171499  0.626749  1
  Ho  Ho9  1  0.678329  0.826860  0.374828  1
  Ho  Ho10  1  0.658588  0.996675  0.750000  1
  Ho  Ho11  1  0.176602  0.675549  0.375212  1
  Ho  Ho12  1  0.818477  0.328393  0.876498  1
  Ho  Ho13  1  0.818477  0.328393  0.623502  1
  Ho  Ho14  1  0.845134  0.497597  0.250000  1
  Ho  Ho15  1  0.345512  0.002436  0.250000  1
  Ho  Ho16  1  0.318437  0.171499  0.873251  1
  Ho  Ho17  1  0.176602  0.675549  0.124788  1
  Ho  Ho18  1  0.678329  0.826860  0.125172  1
  Ho  Ho19  1  0.152134  0.498880  0.750000  1
  Si  Si20  1  0.473135  0.631213  0.250000  1
  Si  Si21  1  0.011850  0.148301  0.750000  1
  Si  Si22  1  0.521962  0.364972  0.750000  1
  Si  Si23  1  0.142609  0.466552  0.540353  1
  Si  Si24  1  0.974624  0.870380  0.250000  1
  Si  Si25  1  0.714931  0.119302  0.250000  1
  Si  Si26  1  0.857277  0.536788  0.039890  1
  Si  Si27  1  0.357145  0.965059  0.037981  1
  Si  Si28  1  0.142609  0.466552  0.959647  1
  Si  Si29  1  0.641017  0.033230  0.540682  1
  Si  Si30  1  0.357145  0.965059  0.462019  1
  Si  Si31  1  0.857277  0.536788  0.460110  1
  Si  Si32  1  0.788185  0.624757  0.750000  1
  Si  Si33  1  0.215083  0.381747  0.250000  1
  Si  Si34  1  0.641017  0.033230  0.959318  1
  As  As35  1  0.301224  0.861511  0.750000  1
