# generated using pymatgen
data_Li2Ho2Co9As7Rh
_symmetry_space_group_name_H-M   'P 1'
_cell_length_a   9.43422320
_cell_length_b   9.37725655
_cell_length_c   3.78488800
_cell_angle_alpha   90.00287926
_cell_angle_beta   89.99631027
_cell_angle_gamma   120.13302670
_symmetry_Int_Tables_number   1
_chemical_formula_structural   Li2Ho2Co9As7Rh
_chemical_formula_sum   'Li2 Ho2 Co9 As7 Rh1'
_cell_volume   289.58888568
_cell_formula_units_Z   1
loop_
 _symmetry_equiv_pos_site_id
 _symmetry_equiv_pos_as_xyz
  1  'x, y, z'
loop_
 _atom_site_type_symbol
 _atom_site_label
 _atom_site_symmetry_multiplicity
 _atom_site_fract_x
 _atom_site_fract_y
 _atom_site_fract_z
 _atom_site_occupancy
  Li  Li0  1  0.886987  0.106688  0.761849  1
  Li  Li1  1  0.219076  0.109769  0.761859  1
  Ho  Ho2  1  0.338407  0.665762  0.261922  1
  Ho  Ho3  1  0.667633  0.332900  0.761879  1
  Co  Co4  1  0.432573  0.378692  0.261898  1
  Co  Co5  1  0.942696  0.570319  0.261966  1
  Co  Co6  1  0.620033  0.055842  0.261922  1
  Co  Co7  1  0.563689  0.617891  0.761982  1
  Co  Co8  1  0.048227  0.433884  0.761823  1
  Co  Co9  1  0.382305  0.950332  0.761915  1
  Co  Co10  1  0.158474  0.876100  0.261932  1
  Co  Co11  1  0.714864  0.836091  0.261953  1
  Co  Co12  1  0.120578  0.282080  0.261861  1
  As  As13  1  0.996942  0.997570  0.261835  1
  As  As14  1  0.411355  0.117127  0.261850  1
  As  As15  1  0.702071  0.586293  0.261967  1
  As  As16  1  0.882178  0.295990  0.261820  1
  As  As17  1  0.595981  0.889914  0.762006  1
  As  As18  1  0.288978  0.401904  0.761885  1
  As  As19  1  0.120989  0.708982  0.761926  1
  Rh  Rh20  1  0.905964  0.785871  0.761953  1
