# generated using pymatgen
data_YbTaNb3B4Ru10W
_symmetry_space_group_name_H-M   'P 1'
_cell_length_a   9.52252500
_cell_length_b   9.52252570
_cell_length_c   3.03832100
_cell_angle_alpha   90.00000000
_cell_angle_beta   90.00000000
_cell_angle_gamma   90.32020133
_symmetry_Int_Tables_number   1
_chemical_formula_structural   YbTaNb3B4Ru10W
_chemical_formula_sum   'Yb1 Ta1 Nb3 B4 Ru10 W1'
_cell_volume   275.50605524
_cell_formula_units_Z   1
loop_
 _symmetry_equiv_pos_site_id
 _symmetry_equiv_pos_as_xyz
  1  'x, y, z'
loop_
 _atom_site_type_symbol
 _atom_site_label
 _atom_site_symmetry_multiplicity
 _atom_site_fract_x
 _atom_site_fract_y
 _atom_site_fract_z
 _atom_site_occupancy
  Yb  Yb0  1  0.824855  0.675096  0.000000  1
  Ta  Ta1  1  0.998228  0.996185  0.000000  1
  Nb  Nb2  1  0.176458  0.322722  0.000000  1
  Nb  Nb3  1  0.324045  0.823310  0.000000  1
  Nb  Nb4  1  0.678004  0.175088  0.000000  1
  B  B5  1  0.619895  0.881498  0.000000  1
  B  B6  1  0.375927  0.122556  0.000000  1
  B  B7  1  0.121598  0.619921  0.000000  1
  B  B8  1  0.882024  0.376749  0.000000  1
  Ru  Ru9  1  0.556337  0.722928  0.500000  1
  Ru  Ru10  1  0.427404  0.285952  0.500000  1
  Ru  Ru11  1  0.084638  0.782071  0.500000  1
  Ru  Ru12  1  0.929940  0.215923  0.500000  1
  Ru  Ru13  1  0.286782  0.566884  0.500000  1
  Ru  Ru14  1  0.714790  0.418862  0.500000  1
  Ru  Ru15  1  0.216299  0.074684  0.500000  1
  Ru  Ru16  1  0.774066  0.941999  0.500000  1
  Ru  Ru17  1  0.495366  0.004549  0.500000  1
  Ru  Ru18  1  0.009251  0.491206  0.500000  1
  W  W19  1  0.504093  0.501819  0.000000  1
