# generated using pymatgen
data_La3CeHf4F28
_symmetry_space_group_name_H-M   'P 1'
_cell_length_a   5.89764094
_cell_length_b   9.37693326
_cell_length_c   12.58014000
_cell_angle_alpha   61.98646653
_cell_angle_beta   90.07412573
_cell_angle_gamma   90.01547632
_symmetry_Int_Tables_number   1
_chemical_formula_structural   La3CeHf4F28
_chemical_formula_sum   'La3 Ce1 Hf4 F28'
_cell_volume   614.19262838
_cell_formula_units_Z   1
loop_
 _symmetry_equiv_pos_site_id
 _symmetry_equiv_pos_as_xyz
  1  'x, y, z'
loop_
 _atom_site_type_symbol
 _atom_site_label
 _atom_site_symmetry_multiplicity
 _atom_site_fract_x
 _atom_site_fract_y
 _atom_site_fract_z
 _atom_site_occupancy
  La  La0  1  0.742328  0.811010  0.266155  1
  La  La1  1  0.242507  0.188271  0.233596  1
  La  La2  1  0.256935  0.188497  0.733556  1
  Ce  Ce3  1  0.756875  0.812089  0.766160  1
  Hf  Hf4  1  0.745060  0.273372  0.455659  1
  Hf  Hf5  1  0.244773  0.725619  0.043609  1
  Hf  Hf6  1  0.255587  0.726371  0.545489  1
  Hf  Hf7  1  0.755241  0.275458  0.954998  1
  F  F8  1  0.455854  0.710625  0.924601  1
  F  F9  1  0.953171  0.289457  0.575573  1
  F  F10  1  0.546467  0.288814  0.075429  1
  F  F11  1  0.044673  0.711720  0.426160  1
  F  F12  1  0.465306  0.283918  0.543919  1
  F  F13  1  0.966472  0.715249  0.954029  1
  F  F14  1  0.533470  0.715388  0.456525  1
  F  F15  1  0.035295  0.285651  0.043227  1
  F  F16  1  0.764273  0.516990  0.860287  1
  F  F17  1  0.266895  0.484901  0.639602  1
  F  F18  1  0.233534  0.484387  0.139209  1
  F  F19  1  0.733647  0.514929  0.360738  1
  F  F20  1  0.761364  0.034172  0.052966  1
  F  F21  1  0.261232  0.967405  0.447089  1
  F  F22  1  0.238855  0.966899  0.946616  1
  F  F23  1  0.740430  0.032225  0.553327  1
  F  F24  1  0.991682  0.731291  0.644452  1
  F  F25  1  0.489198  0.268160  0.858182  1
  F  F26  1  0.011890  0.268537  0.358873  1
  F  F27  1  0.510284  0.730596  0.141514  1
  F  F28  1  0.043752  0.742262  0.167074  1
  F  F29  1  0.545713  0.256540  0.331663  1
  F  F30  1  0.955571  0.257693  0.831767  1
  F  F31  1  0.458828  0.744671  0.668043  1
  F  F32  1  0.413510  0.966834  0.232325  1
  F  F33  1  0.913880  0.032176  0.267402  1
  F  F34  1  0.584710  0.029021  0.767715  1
  F  F35  1  0.080742  0.968803  0.732480  1
