# generated using pymatgen
data_Rb2Na2RhO4
_symmetry_space_group_name_H-M   'P 1'
_cell_length_a   11.22450000
_cell_length_b   6.30647233
_cell_length_c   9.87431802
_cell_angle_alpha   65.25384499
_cell_angle_beta   90.00000000
_cell_angle_gamma   90.00000000
_symmetry_Int_Tables_number   1
_chemical_formula_structural   Rb2Na2RhO4
_chemical_formula_sum   'Rb8 Na8 Rh4 O16'
_cell_volume   634.78750134
_cell_formula_units_Z   4
loop_
 _symmetry_equiv_pos_site_id
 _symmetry_equiv_pos_as_xyz
  1  'x, y, z'
loop_
 _atom_site_type_symbol
 _atom_site_label
 _atom_site_symmetry_multiplicity
 _atom_site_fract_x
 _atom_site_fract_y
 _atom_site_fract_z
 _atom_site_occupancy
  Rb  Rb0  1  0.866363  0.342366  0.777195  1
  Rb  Rb1  1  0.135789  0.326821  0.003285  1
  Rb  Rb2  1  0.635789  0.673179  0.496715  1
  Rb  Rb3  1  0.364211  0.326821  0.503285  1
  Rb  Rb4  1  0.366363  0.657634  0.722805  1
  Rb  Rb5  1  0.133637  0.657634  0.222805  1
  Rb  Rb6  1  0.633637  0.342366  0.277195  1
  Rb  Rb7  1  0.864211  0.673179  0.996715  1
  Na  Na8  1  0.611071  0.937058  0.094193  1
  Na  Na9  1  0.608569  0.437382  0.909896  1
  Na  Na10  1  0.891431  0.437382  0.409896  1
  Na  Na11  1  0.888929  0.937058  0.594193  1
  Na  Na12  1  0.108569  0.562618  0.590104  1
  Na  Na13  1  0.111071  0.062942  0.405807  1
  Na  Na14  1  0.391431  0.562618  0.090104  1
  Na  Na15  1  0.388929  0.062942  0.905807  1
  Rh  Rh16  1  0.867316  0.010515  0.236243  1
  Rh  Rh17  1  0.632684  0.010515  0.736243  1
  Rh  Rh18  1  0.367316  0.989485  0.263757  1
  Rh  Rh19  1  0.132684  0.989485  0.763757  1
  O  O20  1  0.957590  0.794769  0.409111  1
  O  O21  1  0.455647  0.727657  0.260324  1
  O  O22  1  0.277690  0.255269  0.260296  1
  O  O23  1  0.729649  0.215542  0.570524  1
  O  O24  1  0.270351  0.784458  0.429476  1
  O  O25  1  0.542410  0.794769  0.909111  1
  O  O26  1  0.777690  0.744731  0.239704  1
  O  O27  1  0.770351  0.215542  0.070524  1
  O  O28  1  0.955647  0.272343  0.239676  1
  O  O29  1  0.229649  0.784458  0.929476  1
  O  O30  1  0.042410  0.205231  0.590889  1
  O  O31  1  0.222310  0.255269  0.760296  1
  O  O32  1  0.544353  0.272343  0.739676  1
  O  O33  1  0.044353  0.727657  0.760324  1
  O  O34  1  0.722310  0.744731  0.739704  1
  O  O35  1  0.457590  0.205231  0.090889  1
