# generated using pymatgen
data_Yb2BeSi3
_symmetry_space_group_name_H-M   'P 1'
_cell_length_a   8.06225073
_cell_length_b   7.86493960
_cell_length_c   5.82754572
_cell_angle_alpha   70.35489759
_cell_angle_beta   66.74315802
_cell_angle_gamma   42.90193725
_symmetry_Int_Tables_number   1
_chemical_formula_structural   Yb2BeSi3
_chemical_formula_sum   'Yb4 Be2 Si6'
_cell_volume   230.45673089
_cell_formula_units_Z   2
loop_
 _symmetry_equiv_pos_site_id
 _symmetry_equiv_pos_as_xyz
  1  'x, y, z'
loop_
 _atom_site_type_symbol
 _atom_site_label
 _atom_site_symmetry_multiplicity
 _atom_site_fract_x
 _atom_site_fract_y
 _atom_site_fract_z
 _atom_site_occupancy
  Yb  Yb0  1  0.243592  0.756408  0.243593  1
  Yb  Yb1  1  0.250001  0.249999  0.250000  1
  Yb  Yb2  1  0.750000  0.750000  0.750000  1
  Yb  Yb3  1  0.756406  0.243594  0.756407  1
  Be  Be4  1  0.666696  0.666698  0.333303  1
  Be  Be5  1  0.333302  0.333304  0.666698  1
  Si  Si6  1  0.827548  0.827550  0.172451  1
  Si  Si7  1  0.825973  0.346292  0.174027  1
  Si  Si8  1  0.653708  0.174027  0.346292  1
  Si  Si9  1  0.346290  0.825974  0.653709  1
  Si  Si10  1  0.174025  0.653709  0.825974  1
  Si  Si11  1  0.172449  0.172451  0.827550  1
