# generated using pymatgen
data_Yb2SmDy5(B6Os)4
_symmetry_space_group_name_H-M   'P 1'
_cell_length_a   3.65949200
_cell_length_b   9.17396170
_cell_length_c   11.57111312
_cell_angle_alpha   89.99805602
_cell_angle_beta   90.00000000
_cell_angle_gamma   90.00000000
_symmetry_Int_Tables_number   1
_chemical_formula_structural   Yb2SmDy5(B6Os)4
_chemical_formula_sum   'Yb2 Sm1 Dy5 B24 Os4'
_cell_volume   388.46586597
_cell_formula_units_Z   1
loop_
 _symmetry_equiv_pos_site_id
 _symmetry_equiv_pos_as_xyz
  1  'x, y, z'
loop_
 _atom_site_type_symbol
 _atom_site_label
 _atom_site_symmetry_multiplicity
 _atom_site_fract_x
 _atom_site_fract_y
 _atom_site_fract_z
 _atom_site_occupancy
  Yb  Yb0  1  0.000000  0.677140  0.586359  1
  Yb  Yb1  1  0.000000  0.823018  0.085778  1
  Sm  Sm2  1  0.000000  0.324140  0.414250  1
  Dy  Dy3  1  0.000000  0.175608  0.914269  1
  Dy  Dy4  1  0.000000  0.940660  0.369169  1
  Dy  Dy5  1  0.000000  0.056169  0.630087  1
  Dy  Dy6  1  0.000000  0.443591  0.129187  1
  Dy  Dy7  1  0.000000  0.559363  0.869918  1
  B  B8  1  0.500000  0.555042  0.433119  1
  B  B9  1  0.500000  0.446851  0.569142  1
  B  B10  1  0.500000  0.053230  0.067262  1
  B  B11  1  0.500000  0.946341  0.933267  1
  B  B12  1  0.500000  0.747500  0.418059  1
  B  B13  1  0.500000  0.251931  0.583403  1
  B  B14  1  0.500000  0.247887  0.081073  1
  B  B15  1  0.500000  0.753122  0.918153  1
  B  B16  1  0.500000  0.789475  0.264954  1
  B  B17  1  0.500000  0.209168  0.735376  1
  B  B18  1  0.500000  0.289947  0.233118  1
  B  B19  1  0.500000  0.710806  0.765605  1
  B  B20  1  0.500000  0.631431  0.185503  1
  B  B21  1  0.500000  0.369024  0.814392  1
  B  B22  1  0.500000  0.130072  0.312692  1
  B  B23  1  0.500000  0.868937  0.686162  1
  B  B24  1  0.500000  0.982807  0.210974  1
  B  B25  1  0.500000  0.016254  0.788688  1
  B  B26  1  0.500000  0.485076  0.287753  1
  B  B27  1  0.500000  0.516858  0.712299  1
  B  B28  1  0.500000  0.602195  0.027852  1
  B  B29  1  0.500000  0.397550  0.971199  1
  B  B30  1  0.500000  0.099954  0.471896  1
  B  B31  1  0.500000  0.898546  0.527835  1
  Os  Os32  1  0.000000  0.637462  0.320685  1
  Os  Os33  1  0.000000  0.360887  0.680635  1
  Os  Os34  1  0.000000  0.138258  0.178497  1
  Os  Os35  1  0.000000  0.863698  0.821392  1
