# generated using pymatgen
data_Pa6Ga6PdPt5
_symmetry_space_group_name_H-M   'P 1'
_cell_length_a   7.14676900
_cell_length_b   7.14676831
_cell_length_c   8.11370600
_cell_angle_alpha   90.00000000
_cell_angle_beta   90.00000000
_cell_angle_gamma   119.99999857
_symmetry_Int_Tables_number   1
_chemical_formula_structural   Pa6Ga6PdPt5
_chemical_formula_sum   'Pa6 Ga6 Pd1 Pt5'
_cell_volume   358.89660725
_cell_formula_units_Z   1
loop_
 _symmetry_equiv_pos_site_id
 _symmetry_equiv_pos_as_xyz
  1  'x, y, z'
loop_
 _atom_site_type_symbol
 _atom_site_label
 _atom_site_symmetry_multiplicity
 _atom_site_fract_x
 _atom_site_fract_y
 _atom_site_fract_z
 _atom_site_occupancy
  Pa  Pa0  1  0.419834  0.419821  0.750000  1
  Pa  Pa1  1  0.999985  0.580166  0.750000  1
  Pa  Pa2  1  0.580179  0.000015  0.750000  1
  Pa  Pa3  1  0.584821  0.999980  0.250000  1
  Pa  Pa4  1  0.000020  0.584841  0.250000  1
  Pa  Pa5  1  0.415159  0.415179  0.250000  1
  Ga  Ga6  1  0.244003  0.000052  0.998940  1
  Ga  Ga7  1  0.756048  0.755997  0.998940  1
  Ga  Ga8  1  0.999948  0.243952  0.998940  1
  Ga  Ga9  1  0.756048  0.755997  0.501060  1
  Ga  Ga10  1  0.244003  0.000052  0.501060  1
  Ga  Ga11  1  0.999948  0.243952  0.501060  1
  Pd  Pd12  1  0.000000  0.000000  0.750000  1
  Pt  Pt13  1  0.666667  0.333333  0.001003  1
  Pt  Pt14  1  0.666667  0.333333  0.498997  1
  Pt  Pt15  1  0.333333  0.666667  0.499093  1
  Pt  Pt16  1  0.333333  0.666667  0.000907  1
  Pt  Pt17  1  0.000000  0.000000  0.250000  1
