# generated using pymatgen
data_Ca4In4Ag3Pd
_symmetry_space_group_name_H-M   'P 1'
_cell_length_a   4.40859000
_cell_length_b   7.63759175
_cell_length_c   8.84645050
_cell_angle_alpha   90.12777910
_cell_angle_beta   90.00000000
_cell_angle_gamma   90.00000000
_symmetry_Int_Tables_number   1
_chemical_formula_structural   Ca4In4Ag3Pd
_chemical_formula_sum   'Ca4 In4 Ag3 Pd1'
_cell_volume   297.86818786
_cell_formula_units_Z   1
loop_
 _symmetry_equiv_pos_site_id
 _symmetry_equiv_pos_as_xyz
  1  'x, y, z'
loop_
 _atom_site_type_symbol
 _atom_site_label
 _atom_site_symmetry_multiplicity
 _atom_site_fract_x
 _atom_site_fract_y
 _atom_site_fract_z
 _atom_site_occupancy
  Ca  Ca0  1  0.750000  0.038097  0.312732  1
  Ca  Ca1  1  0.250000  0.463227  0.826131  1
  Ca  Ca2  1  0.750000  0.522671  0.177685  1
  Ca  Ca3  1  0.250000  0.968184  0.681722  1
  In  In4  1  0.250000  0.862121  0.060799  1
  In  In5  1  0.250000  0.349227  0.433519  1
  In  In6  1  0.750000  0.645824  0.560903  1
  In  In7  1  0.750000  0.152345  0.945564  1
  Ag  Ag8  1  0.250000  0.735228  0.368276  1
  Ag  Ag9  1  0.750000  0.264467  0.631679  1
  Ag  Ag10  1  0.750000  0.764937  0.870684  1
  Pd  Pd11  1  0.250000  0.233673  0.130306  1
