# generated using pymatgen
data_Tb2Tm2ScOs7
_symmetry_space_group_name_H-M   'P 1'
_cell_length_a   5.38341700
_cell_length_b   5.38324615
_cell_length_c   8.87395300
_cell_angle_alpha   90.00019741
_cell_angle_beta   89.99900574
_cell_angle_gamma   119.99863602
_symmetry_Int_Tables_number   1
_chemical_formula_structural   Tb2Tm2ScOs7
_chemical_formula_sum   'Tb2 Tm2 Sc1 Os7'
_cell_volume   222.71834213
_cell_formula_units_Z   1
loop_
 _symmetry_equiv_pos_site_id
 _symmetry_equiv_pos_as_xyz
  1  'x, y, z'
loop_
 _atom_site_type_symbol
 _atom_site_label
 _atom_site_symmetry_multiplicity
 _atom_site_fract_x
 _atom_site_fract_y
 _atom_site_fract_z
 _atom_site_occupancy
  Tb  Tb0  1  0.666666  0.333333  0.577438  1
  Tb  Tb1  1  0.333334  0.666667  0.422562  1
  Tm  Tm2  1  0.333335  0.666669  0.059696  1
  Tm  Tm3  1  0.666665  0.333331  0.940304  1
  Sc  Sc4  1  0.000000  0.000000  0.500000  1
  Os  Os5  1  0.000000  0.000000  0.000000  1
  Os  Os6  1  0.172496  0.344982  0.757060  1
  Os  Os7  1  0.172495  0.827513  0.757059  1
  Os  Os8  1  0.655011  0.827499  0.757061  1
  Os  Os9  1  0.827504  0.655018  0.242940  1
  Os  Os10  1  0.827505  0.172487  0.242941  1
  Os  Os11  1  0.344989  0.172501  0.242939  1
