# generated using pymatgen
data_Nd4Er3Ag10
_symmetry_space_group_name_H-M   'P 1'
_cell_length_a   8.90280461
_cell_length_b   8.90280533
_cell_length_c   10.63448500
_cell_angle_alpha   90.00000000
_cell_angle_beta   90.00000000
_cell_angle_gamma   106.57564739
_symmetry_Int_Tables_number   1
_chemical_formula_structural   Nd4Er3Ag10
_chemical_formula_sum   'Nd8 Er6 Ag20'
_cell_volume   807.86145365
_cell_formula_units_Z   2
loop_
 _symmetry_equiv_pos_site_id
 _symmetry_equiv_pos_as_xyz
  1  'x, y, z'
loop_
 _atom_site_type_symbol
 _atom_site_label
 _atom_site_symmetry_multiplicity
 _atom_site_fract_x
 _atom_site_fract_y
 _atom_site_fract_z
 _atom_site_occupancy
  Nd  Nd0  1  0.702363  0.297637  0.000000  1
  Nd  Nd1  1  0.297637  0.702363  0.000000  1
  Nd  Nd2  1  0.797637  0.202363  0.500000  1
  Nd  Nd3  1  0.202363  0.797637  0.500000  1
  Nd  Nd4  1  0.305736  0.305736  0.200771  1
  Nd  Nd5  1  0.694264  0.694264  0.799229  1
  Nd  Nd6  1  0.194264  0.194264  0.700771  1
  Nd  Nd7  1  0.805736  0.805736  0.299229  1
  Er  Er8  1  0.012417  0.512417  0.250000  1
  Er  Er9  1  0.987583  0.487583  0.750000  1
  Er  Er10  1  0.487583  0.987583  0.750000  1
  Er  Er11  1  0.512417  0.012417  0.250000  1
  Er  Er12  1  0.000000  0.000000  0.000000  1
  Er  Er13  1  0.500000  0.500000  0.500000  1
  Ag  Ag14  1  0.099545  0.099545  0.403651  1
  Ag  Ag15  1  0.900455  0.900455  0.596349  1
  Ag  Ag16  1  0.400455  0.400455  0.903651  1
  Ag  Ag17  1  0.599545  0.599545  0.096349  1
  Ag  Ag18  1  0.883731  0.164651  0.210029  1
  Ag  Ag19  1  0.116269  0.835349  0.789971  1
  Ag  Ag20  1  0.616269  0.335349  0.710029  1
  Ag  Ag21  1  0.664651  0.383731  0.289971  1
  Ag  Ag22  1  0.383731  0.664651  0.289971  1
  Ag  Ag23  1  0.335349  0.616269  0.710029  1
  Ag  Ag24  1  0.835349  0.116269  0.789971  1
  Ag  Ag25  1  0.164651  0.883731  0.210029  1
  Ag  Ag26  1  0.930489  0.650205  0.013011  1
  Ag  Ag27  1  0.069511  0.349795  0.986989  1
  Ag  Ag28  1  0.569511  0.849795  0.513011  1
  Ag  Ag29  1  0.150205  0.430489  0.486989  1
  Ag  Ag30  1  0.430489  0.150205  0.486989  1
  Ag  Ag31  1  0.849795  0.569511  0.513011  1
  Ag  Ag32  1  0.349795  0.069511  0.986989  1
  Ag  Ag33  1  0.650205  0.930489  0.013011  1
