# generated using pymatgen
data_Eu6NpNbO12
_symmetry_space_group_name_H-M   'P 1'
_cell_length_a   7.05871915
_cell_length_b   7.05871815
_cell_length_c   7.05872000
_cell_angle_alpha   92.70345228
_cell_angle_beta   92.70346003
_cell_angle_gamma   92.70346061
_symmetry_Int_Tables_number   1
_chemical_formula_structural   Eu6NpNbO12
_chemical_formula_sum   'Eu6 Np1 Nb1 O12'
_cell_volume   350.49166644
_cell_formula_units_Z   1
loop_
 _symmetry_equiv_pos_site_id
 _symmetry_equiv_pos_as_xyz
  1  'x, y, z'
loop_
 _atom_site_type_symbol
 _atom_site_label
 _atom_site_symmetry_multiplicity
 _atom_site_fract_x
 _atom_site_fract_y
 _atom_site_fract_z
 _atom_site_occupancy
  Eu  Eu0  1  0.929641  0.438938  0.741873  1
  Eu  Eu1  1  0.741873  0.929641  0.438938  1
  Eu  Eu2  1  0.561062  0.258127  0.070359  1
  Eu  Eu3  1  0.438938  0.741873  0.929641  1
  Eu  Eu4  1  0.258127  0.070359  0.561062  1
  Eu  Eu5  1  0.070359  0.561062  0.258127  1
  Np  Np6  1  0.000000  0.000000  0.000000  1
  Nb  Nb7  1  0.500000  0.500000  0.500000  1
  O  O8  1  0.931840  0.292046  0.059444  1
  O  O9  1  0.940556  0.068160  0.707954  1
  O  O10  1  0.780317  0.580710  0.457482  1
  O  O11  1  0.707954  0.940556  0.068160  1
  O  O12  1  0.580710  0.457482  0.780317  1
  O  O13  1  0.542518  0.219683  0.419290  1
  O  O14  1  0.457482  0.780317  0.580710  1
  O  O15  1  0.419290  0.542518  0.219683  1
  O  O16  1  0.292046  0.059444  0.931840  1
  O  O17  1  0.219683  0.419290  0.542518  1
  O  O18  1  0.059444  0.931840  0.292046  1
  O  O19  1  0.068160  0.707954  0.940556  1
