# generated using pymatgen
data_PrEr2Th3In10
_symmetry_space_group_name_H-M   'P 1'
_cell_length_a   6.57524413
_cell_length_b   6.57524463
_cell_length_c   10.33186407
_cell_angle_alpha   89.95453805
_cell_angle_beta   89.95453643
_cell_angle_gamma   102.28916515
_symmetry_Int_Tables_number   1
_chemical_formula_structural   PrEr2Th3In10
_chemical_formula_sum   'Pr1 Er2 Th3 In10'
_cell_volume   436.45035796
_cell_formula_units_Z   1
loop_
 _symmetry_equiv_pos_site_id
 _symmetry_equiv_pos_as_xyz
  1  'x, y, z'
loop_
 _atom_site_type_symbol
 _atom_site_label
 _atom_site_symmetry_multiplicity
 _atom_site_fract_x
 _atom_site_fract_y
 _atom_site_fract_z
 _atom_site_occupancy
  Pr  Pr0  1  0.705484  0.294516  0.000000  1
  Er  Er1  1  0.129919  0.129261  0.749161  1
  Er  Er2  1  0.870739  0.870081  0.250839  1
  Th  Th3  1  0.705682  0.294318  0.500000  1
  Th  Th4  1  0.293910  0.706090  0.000000  1
  Th  Th5  1  0.294130  0.705870  0.500000  1
  In  In6  1  0.508012  0.508058  0.749888  1
  In  In7  1  0.491942  0.491988  0.250112  1
  In  In8  1  0.811729  0.811732  0.546133  1
  In  In9  1  0.188268  0.188271  0.453867  1
  In  In10  1  0.811362  0.810998  0.954133  1
  In  In11  1  0.189002  0.188638  0.045867  1
  In  In12  1  0.990898  0.564574  0.749716  1
  In  In13  1  0.435426  0.009102  0.250284  1
  In  In14  1  0.009204  0.435708  0.250042  1
  In  In15  1  0.564292  0.990796  0.749958  1
