# generated using pymatgen
data_Zr9Ta(TcO)3
_symmetry_space_group_name_H-M   'P 1'
_cell_length_a   8.62778000
_cell_length_b   8.62791532
_cell_length_c   8.58469200
_cell_angle_alpha   90.00000000
_cell_angle_beta   90.00000000
_cell_angle_gamma   119.99738143
_symmetry_Int_Tables_number   1
_chemical_formula_structural   Zr9Ta(TcO)3
_chemical_formula_sum   'Zr18 Ta2 Tc6 O6'
_cell_volume   553.44152981
_cell_formula_units_Z   2
loop_
 _symmetry_equiv_pos_site_id
 _symmetry_equiv_pos_as_xyz
  1  'x, y, z'
loop_
 _atom_site_type_symbol
 _atom_site_label
 _atom_site_symmetry_multiplicity
 _atom_site_fract_x
 _atom_site_fract_y
 _atom_site_fract_z
 _atom_site_occupancy
  Zr  Zr0  1  0.453727  0.907491  0.250000  1
  Zr  Zr1  1  0.546273  0.092509  0.750000  1
  Zr  Zr2  1  0.092509  0.546271  0.250000  1
  Zr  Zr3  1  0.907491  0.453729  0.750000  1
  Zr  Zr4  1  0.453742  0.546251  0.250000  1
  Zr  Zr5  1  0.546258  0.453749  0.750000  1
  Zr  Zr6  1  0.204157  0.408326  0.562448  1
  Zr  Zr7  1  0.795843  0.591674  0.437552  1
  Zr  Zr8  1  0.591674  0.795842  0.562452  1
  Zr  Zr9  1  0.795843  0.591674  0.062448  1
  Zr  Zr10  1  0.408326  0.204158  0.437548  1
  Zr  Zr11  1  0.204157  0.408326  0.937552  1
  Zr  Zr12  1  0.204164  0.795835  0.562429  1
  Zr  Zr13  1  0.408326  0.204158  0.062452  1
  Zr  Zr14  1  0.795836  0.204165  0.437571  1
  Zr  Zr15  1  0.591674  0.795842  0.937548  1
  Zr  Zr16  1  0.795836  0.204165  0.062429  1
  Zr  Zr17  1  0.204164  0.795835  0.937571  1
  Ta  Ta18  1  0.000000  0.000000  0.000000  1
  Ta  Ta19  1  0.000000  0.000000  0.500000  1
  Tc  Tc20  1  0.110995  0.221988  0.250000  1
  Tc  Tc21  1  0.889005  0.778012  0.750000  1
  Tc  Tc22  1  0.778013  0.889006  0.250000  1
  Tc  Tc23  1  0.221987  0.110994  0.750000  1
  Tc  Tc24  1  0.111006  0.888997  0.250000  1
  Tc  Tc25  1  0.888994  0.111003  0.750000  1
  O  O26  1  0.500000  0.000000  0.000000  1
  O  O27  1  0.000000  0.500000  0.000000  1
  O  O28  1  0.500000  0.000000  0.500000  1
  O  O29  1  0.500000  0.500000  0.000000  1
  O  O30  1  0.000000  0.500000  0.500000  1
  O  O31  1  0.500000  0.500000  0.500000  1
