# generated using pymatgen
data_Yb3AlSiPd2
_symmetry_space_group_name_H-M   'P 1'
_cell_length_a   5.67479800
_cell_length_b   8.01541100
_cell_length_c   13.53127700
_cell_angle_alpha   90.00000000
_cell_angle_beta   90.00000000
_cell_angle_gamma   90.00000000
_symmetry_Int_Tables_number   1
_chemical_formula_structural   Yb3AlSiPd2
_chemical_formula_sum   'Yb12 Al4 Si4 Pd8'
_cell_volume   615.48147778
_cell_formula_units_Z   4
loop_
 _symmetry_equiv_pos_site_id
 _symmetry_equiv_pos_as_xyz
  1  'x, y, z'
loop_
 _atom_site_type_symbol
 _atom_site_label
 _atom_site_symmetry_multiplicity
 _atom_site_fract_x
 _atom_site_fract_y
 _atom_site_fract_z
 _atom_site_occupancy
  Yb  Yb0  1  0.652025  0.246701  0.250000  1
  Yb  Yb1  1  0.347975  0.753299  0.750000  1
  Yb  Yb2  1  0.347975  0.746701  0.250000  1
  Yb  Yb3  1  0.652025  0.253299  0.750000  1
  Yb  Yb4  1  0.140519  0.392379  0.103942  1
  Yb  Yb5  1  0.859481  0.607621  0.896058  1
  Yb  Yb6  1  0.859481  0.607621  0.603942  1
  Yb  Yb7  1  0.859481  0.892379  0.396058  1
  Yb  Yb8  1  0.140519  0.392379  0.396058  1
  Yb  Yb9  1  0.140519  0.107621  0.603942  1
  Yb  Yb10  1  0.140519  0.107621  0.896058  1
  Yb  Yb11  1  0.859481  0.892379  0.103942  1
  Al  Al12  1  0.626681  0.250000  0.000000  1
  Al  Al13  1  0.373319  0.750000  0.000000  1
  Al  Al14  1  0.373319  0.750000  0.500000  1
  Al  Al15  1  0.626681  0.250000  0.500000  1
  Si  Si16  1  0.159996  0.100994  0.250000  1
  Si  Si17  1  0.840004  0.899006  0.750000  1
  Si  Si18  1  0.840004  0.600994  0.250000  1
  Si  Si19  1  0.159996  0.399006  0.750000  1
  Pd  Pd20  1  0.371130  0.031509  0.092271  1
  Pd  Pd21  1  0.628870  0.968491  0.907729  1
  Pd  Pd22  1  0.628870  0.968491  0.592271  1
  Pd  Pd23  1  0.628870  0.531509  0.407729  1
  Pd  Pd24  1  0.371130  0.031509  0.407729  1
  Pd  Pd25  1  0.371130  0.468491  0.592271  1
  Pd  Pd26  1  0.371130  0.468491  0.907729  1
  Pd  Pd27  1  0.628870  0.531509  0.092271  1
