# generated using pymatgen
data_Cs2Pu2O7
_symmetry_space_group_name_H-M   'P 1'
_cell_length_a   7.44838973
_cell_length_b   7.44839071
_cell_length_c   7.60028017
_cell_angle_alpha   68.15722067
_cell_angle_beta   68.15721788
_cell_angle_gamma   34.38867123
_symmetry_Int_Tables_number   1
_chemical_formula_structural   Cs2Pu2O7
_chemical_formula_sum   'Cs2 Pu2 O7'
_cell_volume   219.34651313
_cell_formula_units_Z   1
loop_
 _symmetry_equiv_pos_site_id
 _symmetry_equiv_pos_as_xyz
  1  'x, y, z'
loop_
 _atom_site_type_symbol
 _atom_site_label
 _atom_site_symmetry_multiplicity
 _atom_site_fract_x
 _atom_site_fract_y
 _atom_site_fract_z
 _atom_site_occupancy
  Cs  Cs0  1  0.398427  0.398427  0.905200  1
  Cs  Cs1  1  0.601573  0.601573  0.094800  1
  Pu  Pu2  1  0.150271  0.150271  0.507374  1
  Pu  Pu3  1  0.849729  0.849729  0.492626  1
  O  O4  1  0.797220  0.797220  0.757216  1
  O  O5  1  0.311283  0.311283  0.497923  1
  O  O6  1  0.093535  0.093535  0.771833  1
  O  O7  1  0.000000  0.000000  0.500000  1
  O  O8  1  0.688717  0.688717  0.502077  1
  O  O9  1  0.906465  0.906465  0.228167  1
  O  O10  1  0.202780  0.202780  0.242784  1
