# generated using pymatgen
data_Y13Th7(SnPb3)4
_symmetry_space_group_name_H-M   'P 1'
_cell_length_a   8.22357141
_cell_length_b   8.32720928
_cell_length_c   15.72687955
_cell_angle_alpha   90.03469478
_cell_angle_beta   90.37474700
_cell_angle_gamma   89.88178976
_symmetry_Int_Tables_number   1
_chemical_formula_structural   Y13Th7(SnPb3)4
_chemical_formula_sum   'Y13 Th7 Sn4 Pb12'
_cell_volume   1076.94176086
_cell_formula_units_Z   1
loop_
 _symmetry_equiv_pos_site_id
 _symmetry_equiv_pos_as_xyz
  1  'x, y, z'
loop_
 _atom_site_type_symbol
 _atom_site_label
 _atom_site_symmetry_multiplicity
 _atom_site_fract_x
 _atom_site_fract_y
 _atom_site_fract_z
 _atom_site_occupancy
  Y  Y0  1  0.361362  0.840127  0.876011  1
  Y  Y1  1  0.859359  0.658040  0.624081  1
  Y  Y2  1  0.639260  0.159431  0.376310  1
  Y  Y3  1  0.135981  0.341043  0.123286  1
  Y  Y4  1  0.637349  0.159194  0.123183  1
  Y  Y5  1  0.139810  0.341494  0.376345  1
  Y  Y6  1  0.360423  0.842553  0.624938  1
  Y  Y7  1  0.863749  0.658172  0.876176  1
  Y  Y8  1  0.527986  0.323578  0.898312  1
  Y  Y9  1  0.190354  0.495779  0.750531  1
  Y  Y10  1  0.691267  0.004576  0.750288  1
  Y  Y11  1  0.809316  0.504952  0.249862  1
  Y  Y12  1  0.309180  0.994541  0.250222  1
  Th  Th13  1  0.022711  0.180438  0.598709  1
  Th  Th14  1  0.478748  0.680400  0.401830  1
  Th  Th15  1  0.975979  0.819999  0.098506  1
  Th  Th16  1  0.477349  0.680188  0.099264  1
  Th  Th17  1  0.979045  0.819977  0.402465  1
  Th  Th18  1  0.519820  0.319336  0.597184  1
  Th  Th19  1  0.021374  0.178462  0.901693  1
  Sn  Sn20  1  0.331635  0.148131  0.752195  1
  Sn  Sn21  1  0.828236  0.354809  0.749826  1
  Sn  Sn22  1  0.672064  0.855650  0.250533  1
  Sn  Sn23  1  0.170310  0.644702  0.250219  1
  Pb  Pb24  1  0.292455  0.037051  0.043277  1
  Pb  Pb25  1  0.795155  0.459726  0.457639  1
  Pb  Pb26  1  0.704833  0.960346  0.542761  1
  Pb  Pb27  1  0.211524  0.535215  0.956878  1
  Pb  Pb28  1  0.704219  0.960494  0.956953  1
  Pb  Pb29  1  0.204030  0.542267  0.542287  1
  Pb  Pb30  1  0.295308  0.040285  0.457887  1
  Pb  Pb31  1  0.791160  0.459236  0.041285  1
  Pb  Pb32  1  0.555965  0.623204  0.749677  1
  Pb  Pb33  1  0.055545  0.876894  0.749955  1
  Pb  Pb34  1  0.443474  0.375820  0.249536  1
  Pb  Pb35  1  0.943666  0.123892  0.249896  1
