# generated using pymatgen
data_Ce4Ga20Pt11
_symmetry_space_group_name_H-M   'P 1'
_cell_length_a   4.21762292
_cell_length_b   11.02414633
_cell_length_c   13.82627440
_cell_angle_alpha   82.64313666
_cell_angle_beta   81.22690381
_cell_angle_gamma   78.97191103
_symmetry_Int_Tables_number   1
_chemical_formula_structural   Ce4Ga20Pt11
_chemical_formula_sum   'Ce4 Ga20 Pt11'
_cell_volume   620.36052998
_cell_formula_units_Z   1
loop_
 _symmetry_equiv_pos_site_id
 _symmetry_equiv_pos_as_xyz
  1  'x, y, z'
loop_
 _atom_site_type_symbol
 _atom_site_label
 _atom_site_symmetry_multiplicity
 _atom_site_fract_x
 _atom_site_fract_y
 _atom_site_fract_z
 _atom_site_occupancy
  Ce  Ce0  1  0.122902  0.088922  0.665275  1
  Ce  Ce1  1  0.877098  0.911078  0.334725  1
  Ce  Ce2  1  0.774220  0.631007  0.820552  1
  Ce  Ce3  1  0.225780  0.368993  0.179448  1
  Ga  Ga4  1  0.007566  0.071883  0.912986  1
  Ga  Ga5  1  0.992434  0.928117  0.087014  1
  Ga  Ga6  1  0.065329  0.671838  0.197505  1
  Ga  Ga7  1  0.934671  0.328162  0.802495  1
  Ga  Ga8  1  0.101974  0.342321  0.453730  1
  Ga  Ga9  1  0.898026  0.657679  0.546270  1
  Ga  Ga10  1  0.201129  0.605312  0.992429  1
  Ga  Ga11  1  0.798871  0.394688  0.007571  1
  Ga  Ga12  1  0.257080  0.783103  0.702736  1
  Ga  Ga13  1  0.742920  0.216897  0.297264  1
  Ga  Ga14  1  0.301777  0.899381  0.497065  1
  Ga  Ga15  1  0.698223  0.100619  0.502935  1
  Ga  Ga16  1  0.388667  0.525241  0.697426  1
  Ga  Ga17  1  0.611333  0.474759  0.302574  1
  Ga  Ga18  1  0.397560  0.205858  0.999022  1
  Ga  Ga19  1  0.602440  0.794142  0.000978  1
  Ga  Ga20  1  0.543576  0.287053  0.625796  1
  Ga  Ga21  1  0.456424  0.712947  0.374204  1
  Ga  Ga22  1  0.635024  0.934001  0.795953  1
  Ga  Ga23  1  0.364976  0.065999  0.204047  1
  Pt  Pt24  1  0.500000  0.500000  0.500000  1
  Pt  Pt25  1  0.027373  0.574049  0.371204  1
  Pt  Pt26  1  0.972627  0.425951  0.628796  1
  Pt  Pt27  1  0.135673  0.835812  0.892842  1
  Pt  Pt28  1  0.864327  0.164188  0.107158  1
  Pt  Pt29  1  0.240785  0.127936  0.390492  1
  Pt  Pt30  1  0.759215  0.872064  0.609508  1
  Pt  Pt31  1  0.345405  0.417617  0.891573  1
  Pt  Pt32  1  0.654595  0.582383  0.108427  1
  Pt  Pt33  1  0.505455  0.171651  0.817440  1
  Pt  Pt34  1  0.494545  0.828349  0.182560  1
