# generated using pymatgen
data_K2CdAs2O7
_symmetry_space_group_name_H-M   'P 1'
_cell_length_a   8.72691200
_cell_length_b   8.72691200
_cell_length_c   5.82690900
_cell_angle_alpha   90.00000000
_cell_angle_beta   90.00000000
_cell_angle_gamma   90.00000000
_symmetry_Int_Tables_number   1
_chemical_formula_structural   K2CdAs2O7
_chemical_formula_sum   'K4 Cd2 As4 O14'
_cell_volume   443.77152207
_cell_formula_units_Z   2
loop_
 _symmetry_equiv_pos_site_id
 _symmetry_equiv_pos_as_xyz
  1  'x, y, z'
loop_
 _atom_site_type_symbol
 _atom_site_label
 _atom_site_symmetry_multiplicity
 _atom_site_fract_x
 _atom_site_fract_y
 _atom_site_fract_z
 _atom_site_occupancy
  K  K0  1  0.335208  0.164792  0.489844  1
  K  K1  1  0.664792  0.835208  0.489844  1
  K  K2  1  0.835208  0.335208  0.510157  1
  K  K3  1  0.164792  0.664792  0.510157  1
  Cd  Cd4  1  0.000000  0.000000  0.000000  1
  Cd  Cd5  1  0.500000  0.500000  0.000000  1
  As  As6  1  0.136492  0.363507  0.054723  1
  As  As7  1  0.863507  0.636493  0.054723  1
  As  As8  1  0.636493  0.136492  0.945277  1
  As  As9  1  0.363507  0.863507  0.945277  1
  O  O10  1  0.000000  0.500000  0.169647  1
  O  O11  1  0.077697  0.200631  0.195448  1
  O  O12  1  0.299368  0.422302  0.195448  1
  O  O13  1  0.700631  0.577698  0.195448  1
  O  O14  1  0.922302  0.799369  0.195448  1
  O  O15  1  0.638477  0.138478  0.233583  1
  O  O16  1  0.361523  0.861522  0.233583  1
  O  O17  1  0.138478  0.361523  0.766418  1
  O  O18  1  0.861522  0.638477  0.766418  1
  O  O19  1  0.799369  0.077697  0.804553  1
  O  O20  1  0.577698  0.299368  0.804553  1
  O  O21  1  0.422302  0.700631  0.804553  1
  O  O22  1  0.200631  0.922302  0.804553  1
  O  O23  1  0.500000  0.000000  0.830353  1
