# generated using pymatgen
data_Lu3Sc2Sn3Se
_symmetry_space_group_name_H-M   'P 1'
_cell_length_a   8.83314100
_cell_length_b   8.83314255
_cell_length_c   6.42501600
_cell_angle_alpha   90.00000000
_cell_angle_beta   90.00000000
_cell_angle_gamma   119.99999795
_symmetry_Int_Tables_number   1
_chemical_formula_structural   Lu3Sc2Sn3Se
_chemical_formula_sum   'Lu6 Sc4 Sn6 Se2'
_cell_volume   434.14545241
_cell_formula_units_Z   2
loop_
 _symmetry_equiv_pos_site_id
 _symmetry_equiv_pos_as_xyz
  1  'x, y, z'
loop_
 _atom_site_type_symbol
 _atom_site_label
 _atom_site_symmetry_multiplicity
 _atom_site_fract_x
 _atom_site_fract_y
 _atom_site_fract_z
 _atom_site_occupancy
  Lu  Lu0  1  0.744423  0.744423  0.750000  1
  Lu  Lu1  1  0.255577  0.000000  0.750000  1
  Lu  Lu2  1  0.000000  0.255577  0.750000  1
  Lu  Lu3  1  0.255577  0.255577  0.250000  1
  Lu  Lu4  1  0.744423  0.000000  0.250000  1
  Lu  Lu5  1  0.000000  0.744423  0.250000  1
  Sc  Sc6  1  0.666667  0.333333  0.000000  1
  Sc  Sc7  1  0.333333  0.666667  0.000000  1
  Sc  Sc8  1  0.333333  0.666667  0.500000  1
  Sc  Sc9  1  0.666667  0.333333  0.500000  1
  Sn  Sn10  1  0.398425  0.398425  0.750000  1
  Sn  Sn11  1  0.601575  0.000000  0.750000  1
  Sn  Sn12  1  0.000000  0.601575  0.750000  1
  Sn  Sn13  1  0.601575  0.601575  0.250000  1
  Sn  Sn14  1  0.398425  0.000000  0.250000  1
  Sn  Sn15  1  0.000000  0.398425  0.250000  1
  Se  Se16  1  0.000000  0.000000  0.000000  1
  Se  Se17  1  0.000000  0.000000  0.500000  1
