# generated using pymatgen
data_Ba3CaU2O9
_symmetry_space_group_name_H-M   'P 1'
_cell_length_a   10.81550599
_cell_length_b   10.81550514
_cell_length_c   10.81550572
_cell_angle_alpha   146.49150480
_cell_angle_beta   131.88776877
_cell_angle_gamma   59.90219364
_symmetry_Int_Tables_number   1
_chemical_formula_structural   Ba3CaU2O9
_chemical_formula_sum   'Ba6 Ca2 U4 O18'
_cell_volume   515.23767592
_cell_formula_units_Z   2
loop_
 _symmetry_equiv_pos_site_id
 _symmetry_equiv_pos_as_xyz
  1  'x, y, z'
loop_
 _atom_site_type_symbol
 _atom_site_label
 _atom_site_symmetry_multiplicity
 _atom_site_fract_x
 _atom_site_fract_y
 _atom_site_fract_z
 _atom_site_occupancy
  Ba  Ba0  1  0.767333  0.500000  0.267333  1
  Ba  Ba1  1  0.415743  0.173086  0.242655  1
  Ba  Ba2  1  0.069569  0.826914  0.242655  1
  Ba  Ba3  1  0.232667  0.500000  0.732667  1
  Ba  Ba4  1  0.930431  0.173086  0.757345  1
  Ba  Ba5  1  0.584257  0.826914  0.757345  1
  Ca  Ca6  1  0.167089  0.667089  0.500000  1
  Ca  Ca7  1  0.832911  0.332911  0.500000  1
  U  U8  1  0.000000  0.000000  0.000000  1
  U  U9  1  0.665132  0.665132  0.000000  1
  U  U10  1  0.334868  0.334868  0.000000  1
  U  U11  1  0.500000  0.000000  0.500000  1
  O  O12  1  0.743129  0.000000  0.743129  1
  O  O13  1  0.426773  0.664020  0.762753  1
  O  O14  1  0.098733  0.335980  0.762753  1
  O  O15  1  0.580420  0.835224  0.254804  1
  O  O16  1  0.254098  0.493960  0.239863  1
  O  O17  1  0.921632  0.161912  0.240280  1
  O  O18  1  0.419580  0.674385  0.254804  1
  O  O19  1  0.078368  0.318649  0.240280  1
  O  O20  1  0.745902  0.985765  0.239863  1
  O  O21  1  0.256871  0.000000  0.256871  1
  O  O22  1  0.901267  0.664020  0.237247  1
  O  O23  1  0.573227  0.335980  0.237247  1
  O  O24  1  0.419580  0.164776  0.745196  1
  O  O25  1  0.078368  0.838088  0.759720  1
  O  O26  1  0.745902  0.506040  0.760137  1
  O  O27  1  0.580420  0.325615  0.745196  1
  O  O28  1  0.254098  0.014235  0.760137  1
  O  O29  1  0.921632  0.681351  0.759720  1
