# generated using pymatgen
data_Tb3Y6Tm11Bi12
_symmetry_space_group_name_H-M   'P 1'
_cell_length_a   8.22849958
_cell_length_b   9.45531940
_cell_length_c   12.03979529
_cell_angle_alpha   89.99252142
_cell_angle_beta   90.06508977
_cell_angle_gamma   89.98059937
_symmetry_Int_Tables_number   1
_chemical_formula_structural   Tb3Y6Tm11Bi12
_chemical_formula_sum   'Tb3 Y6 Tm11 Bi12'
_cell_volume   936.73263129
_cell_formula_units_Z   1
loop_
 _symmetry_equiv_pos_site_id
 _symmetry_equiv_pos_as_xyz
  1  'x, y, z'
loop_
 _atom_site_type_symbol
 _atom_site_label
 _atom_site_symmetry_multiplicity
 _atom_site_fract_x
 _atom_site_fract_y
 _atom_site_fract_z
 _atom_site_occupancy
  Tb  Tb0  1  0.186192  0.750040  0.718608  1
  Tb  Tb1  1  0.686393  0.750059  0.781575  1
  Tb  Tb2  1  0.813653  0.249370  0.281045  1
  Y  Y3  1  0.313601  0.249809  0.218248  1
  Y  Y4  1  0.807779  0.437222  0.559284  1
  Y  Y5  1  0.353895  0.749860  0.216186  1
  Y  Y6  1  0.853367  0.749453  0.283732  1
  Y  Y7  1  0.645115  0.248806  0.784253  1
  Y  Y8  1  0.146962  0.249090  0.716530  1
  Tm  Tm9  1  0.024813  0.749802  0.989010  1
  Tm  Tm10  1  0.524515  0.749946  0.511180  1
  Tm  Tm11  1  0.975165  0.249847  0.011093  1
  Tm  Tm12  1  0.474441  0.249416  0.488869  1
  Tm  Tm13  1  0.307445  0.434006  0.940757  1
  Tm  Tm14  1  0.807350  0.066252  0.559545  1
  Tm  Tm15  1  0.692578  0.933940  0.059214  1
  Tm  Tm16  1  0.192415  0.566202  0.440616  1
  Tm  Tm17  1  0.692429  0.566147  0.059235  1
  Tm  Tm18  1  0.193280  0.934280  0.440290  1
  Tm  Tm19  1  0.307421  0.065864  0.940935  1
  Bi  Bi20  1  0.433881  0.003571  0.672386  1
  Bi  Bi21  1  0.934209  0.495602  0.828062  1
  Bi  Bi22  1  0.565989  0.503619  0.327534  1
  Bi  Bi23  1  0.066193  0.995654  0.172128  1
  Bi  Bi24  1  0.565961  0.995798  0.327755  1
  Bi  Bi25  1  0.066418  0.503921  0.171973  1
  Bi  Bi26  1  0.433391  0.495664  0.672438  1
  Bi  Bi27  1  0.933972  0.003945  0.828008  1
  Bi  Bi28  1  0.405651  0.749988  0.957699  1
  Bi  Bi29  1  0.906891  0.753148  0.541663  1
  Bi  Bi30  1  0.594269  0.250150  0.042621  1
  Bi  Bi31  1  0.094366  0.249530  0.457529  1
