# generated using pymatgen
data_Tb6Tm10Cd4Ir3Ru
_symmetry_space_group_name_H-M   'P 1'
_cell_length_a   9.59547508
_cell_length_b   9.59547552
_cell_length_c   9.59547578
_cell_angle_alpha   59.67798340
_cell_angle_beta   59.67798384
_cell_angle_gamma   59.67799134
_symmetry_Int_Tables_number   1
_chemical_formula_structural   Tb6Tm10Cd4Ir3Ru
_chemical_formula_sum   'Tb6 Tm10 Cd4 Ir3 Ru1'
_cell_volume   620.14856018
_cell_formula_units_Z   1
loop_
 _symmetry_equiv_pos_site_id
 _symmetry_equiv_pos_as_xyz
  1  'x, y, z'
loop_
 _atom_site_type_symbol
 _atom_site_label
 _atom_site_symmetry_multiplicity
 _atom_site_fract_x
 _atom_site_fract_y
 _atom_site_fract_z
 _atom_site_occupancy
  Tb  Tb0  1  0.190357  0.810018  0.810018  1
  Tb  Tb1  1  0.808068  0.190088  0.190088  1
  Tb  Tb2  1  0.810018  0.190357  0.810018  1
  Tb  Tb3  1  0.190088  0.808068  0.190088  1
  Tb  Tb4  1  0.810018  0.810018  0.190357  1
  Tb  Tb5  1  0.190088  0.190088  0.808068  1
  Tm  Tm6  1  0.598197  0.598197  0.598197  1
  Tm  Tm7  1  0.598473  0.598473  0.207088  1
  Tm  Tm8  1  0.598473  0.207088  0.598473  1
  Tm  Tm9  1  0.207088  0.598473  0.598473  1
  Tm  Tm10  1  0.062602  0.437657  0.437657  1
  Tm  Tm11  1  0.436813  0.061376  0.061376  1
  Tm  Tm12  1  0.437657  0.062602  0.437657  1
  Tm  Tm13  1  0.061376  0.436813  0.061376  1
  Tm  Tm14  1  0.437657  0.437657  0.062602  1
  Tm  Tm15  1  0.061376  0.061376  0.436813  1
  Cd  Cd16  1  0.829748  0.829748  0.829748  1
  Cd  Cd17  1  0.830633  0.830633  0.507256  1
  Cd  Cd18  1  0.830633  0.507256  0.830633  1
  Cd  Cd19  1  0.507256  0.830633  0.830633  1
  Ir  Ir20  1  0.392938  0.392938  0.826269  1
  Ir  Ir21  1  0.392938  0.826269  0.392938  1
  Ir  Ir22  1  0.826269  0.392938  0.392938  1
  Ru  Ru23  1  0.391235  0.391235  0.391235  1
