# generated using pymatgen
data_HfZrTiGe2Mo
_symmetry_space_group_name_H-M   'P 1'
_cell_length_a   3.63439000
_cell_length_b   6.94783100
_cell_length_c   8.41327700
_cell_angle_alpha   90.00000000
_cell_angle_beta   90.00000000
_cell_angle_gamma   90.00000000
_symmetry_Int_Tables_number   1
_chemical_formula_structural   HfZrTiGe2Mo
_chemical_formula_sum   'Hf2 Zr2 Ti2 Ge4 Mo2'
_cell_volume   212.44473029
_cell_formula_units_Z   2
loop_
 _symmetry_equiv_pos_site_id
 _symmetry_equiv_pos_as_xyz
  1  'x, y, z'
loop_
 _atom_site_type_symbol
 _atom_site_label
 _atom_site_symmetry_multiplicity
 _atom_site_fract_x
 _atom_site_fract_y
 _atom_site_fract_z
 _atom_site_occupancy
  Hf  Hf0  1  0.250000  0.556993  0.163415  1
  Hf  Hf1  1  0.250000  0.056993  0.336585  1
  Zr  Zr2  1  0.750000  0.453799  0.836838  1
  Zr  Zr3  1  0.750000  0.953799  0.663162  1
  Ti  Ti4  1  0.250000  0.620201  0.554546  1
  Ti  Ti5  1  0.250000  0.120201  0.945454  1
  Ge  Ge6  1  0.250000  0.751197  0.855342  1
  Ge  Ge7  1  0.250000  0.251197  0.644658  1
  Ge  Ge8  1  0.750000  0.250893  0.139198  1
  Ge  Ge9  1  0.750000  0.750893  0.360802  1
  Mo  Mo10  1  0.750000  0.366916  0.441858  1
  Mo  Mo11  1  0.750000  0.866916  0.058142  1
