# generated using pymatgen
data_Dy10GaSn3Sb2
_symmetry_space_group_name_H-M   'P 1'
_cell_length_a   6.50531400
_cell_length_b   8.90591714
_cell_length_c   8.89262424
_cell_angle_alpha   119.86114382
_cell_angle_beta   89.99978479
_cell_angle_gamma   90.00011833
_symmetry_Int_Tables_number   1
_chemical_formula_structural   Dy10GaSn3Sb2
_chemical_formula_sum   'Dy10 Ga1 Sn3 Sb2'
_cell_volume   446.80030041
_cell_formula_units_Z   1
loop_
 _symmetry_equiv_pos_site_id
 _symmetry_equiv_pos_as_xyz
  1  'x, y, z'
loop_
 _atom_site_type_symbol
 _atom_site_label
 _atom_site_symmetry_multiplicity
 _atom_site_fract_x
 _atom_site_fract_y
 _atom_site_fract_z
 _atom_site_occupancy
  Dy  Dy0  1  0.502484  0.342147  0.676068  1
  Dy  Dy1  1  0.502013  0.663626  0.323908  1
  Dy  Dy2  1  0.997986  0.663627  0.323909  1
  Dy  Dy3  1  0.997517  0.342145  0.676067  1
  Dy  Dy4  1  0.749998  0.245059  0.003195  1
  Dy  Dy5  1  0.750000  0.755045  0.768882  1
  Dy  Dy6  1  0.749999  0.990413  0.233016  1
  Dy  Dy7  1  0.250001  0.759496  0.996816  1
  Dy  Dy8  1  0.250001  0.241692  0.238851  1
  Dy  Dy9  1  0.250002  0.999097  0.760180  1
  Ga  Ga10  1  0.750002  0.604212  0.001321  1
  Sn  Sn11  1  0.750000  0.390986  0.393183  1
  Sn  Sn12  1  0.250000  0.393978  0.998477  1
  Sn  Sn13  1  0.250000  0.607275  0.603175  1
  Sb  Sb14  1  0.750000  0.998897  0.608966  1
  Sb  Sb15  1  0.250003  0.002306  0.393984  1
