# generated using pymatgen
data_Ba4ErSc(CoO5)2
_symmetry_space_group_name_H-M   'P 1'
_cell_length_a   6.04523500
_cell_length_b   7.89199335
_cell_length_c   12.32370988
_cell_angle_alpha   91.58441744
_cell_angle_beta   90.00000000
_cell_angle_gamma   90.00000000
_symmetry_Int_Tables_number   1
_chemical_formula_structural   Ba4ErSc(CoO5)2
_chemical_formula_sum   'Ba8 Er2 Sc2 Co4 O20'
_cell_volume   587.72652293
_cell_formula_units_Z   2
loop_
 _symmetry_equiv_pos_site_id
 _symmetry_equiv_pos_as_xyz
  1  'x, y, z'
loop_
 _atom_site_type_symbol
 _atom_site_label
 _atom_site_symmetry_multiplicity
 _atom_site_fract_x
 _atom_site_fract_y
 _atom_site_fract_z
 _atom_site_occupancy
  Ba  Ba0  1  0.754598  0.493801  0.365015  1
  Ba  Ba1  1  0.745402  0.993801  0.865015  1
  Ba  Ba2  1  0.243037  0.503984  0.636063  1
  Ba  Ba3  1  0.256963  0.003984  0.136063  1
  Ba  Ba4  1  0.753248  0.994516  0.383469  1
  Ba  Ba5  1  0.746752  0.494516  0.883469  1
  Ba  Ba6  1  0.246155  0.007945  0.616076  1
  Ba  Ba7  1  0.253845  0.507945  0.116076  1
  Er  Er8  1  0.251184  0.739190  0.368537  1
  Er  Er9  1  0.248816  0.239190  0.868537  1
  Sc  Sc10  1  0.747527  0.257605  0.632096  1
  Sc  Sc11  1  0.752473  0.757605  0.132096  1
  Co  Co12  1  0.742806  0.746822  0.594193  1
  Co  Co13  1  0.757194  0.246822  0.094193  1
  Co  Co14  1  0.256296  0.254824  0.411261  1
  Co  Co15  1  0.243704  0.754824  0.911261  1
  O  O16  1  0.753180  0.975184  0.633711  1
  O  O17  1  0.746820  0.475184  0.133711  1
  O  O18  1  0.246760  0.029277  0.366311  1
  O  O19  1  0.253240  0.529277  0.866311  1
  O  O20  1  0.741837  0.048041  0.166274  1
  O  O21  1  0.758163  0.548041  0.666274  1
  O  O22  1  0.259208  0.948114  0.832906  1
  O  O23  1  0.240792  0.448114  0.332906  1
  O  O24  1  0.532471  0.748031  0.257881  1
  O  O25  1  0.967529  0.248031  0.757881  1
  O  O26  1  0.480048  0.252976  0.731947  1
  O  O27  1  0.019952  0.752976  0.231947  1
  O  O28  1  0.524327  0.232492  0.988260  1
  O  O29  1  0.975673  0.732492  0.488260  1
  O  O30  1  0.486680  0.767562  0.012666  1
  O  O31  1  0.013320  0.267562  0.512666  1
  O  O32  1  0.023822  0.234219  0.011228  1
  O  O33  1  0.476178  0.734219  0.511228  1
  O  O34  1  0.973697  0.765416  0.992108  1
  O  O35  1  0.526303  0.265416  0.492108  1
