# generated using pymatgen
data_Y4(Zn3Cd)3
_symmetry_space_group_name_H-M   'P 1'
_cell_length_a   4.41314800
_cell_length_b   7.16115922
_cell_length_c   10.02049651
_cell_angle_alpha   89.87771538
_cell_angle_beta   90.00000000
_cell_angle_gamma   90.00000000
_symmetry_Int_Tables_number   1
_chemical_formula_structural   Y4(Zn3Cd)3
_chemical_formula_sum   'Y4 Zn9 Cd3'
_cell_volume   316.67959007
_cell_formula_units_Z   1
loop_
 _symmetry_equiv_pos_site_id
 _symmetry_equiv_pos_as_xyz
  1  'x, y, z'
loop_
 _atom_site_type_symbol
 _atom_site_label
 _atom_site_symmetry_multiplicity
 _atom_site_fract_x
 _atom_site_fract_y
 _atom_site_fract_z
 _atom_site_occupancy
  Y  Y0  1  0.250000  0.302830  0.672412  1
  Y  Y1  1  0.750000  0.697645  0.330009  1
  Y  Y2  1  0.250000  0.807434  0.822244  1
  Y  Y3  1  0.750000  0.195492  0.173422  1
  Zn  Zn4  1  0.750000  0.965352  0.600222  1
  Zn  Zn5  1  0.750000  0.299679  0.466117  1
  Zn  Zn6  1  0.250000  0.693408  0.537493  1
  Zn  Zn7  1  0.750000  0.812972  0.036194  1
  Zn  Zn8  1  0.250000  0.186142  0.961982  1
  Zn  Zn9  1  0.750000  0.594691  0.642493  1
  Zn  Zn10  1  0.250000  0.414170  0.358983  1
  Zn  Zn11  1  0.750000  0.085206  0.846805  1
  Zn  Zn12  1  0.250000  0.913982  0.145227  1
  Cd  Cd13  1  0.250000  0.532452  0.098985  1
  Cd  Cd14  1  0.750000  0.467057  0.899584  1
  Cd  Cd15  1  0.250000  0.031486  0.407829  1
