# generated using pymatgen
data_Tb4Er4In3Fe
_symmetry_space_group_name_H-M   'P 1'
_cell_length_a   10.31595901
_cell_length_b   10.31558551
_cell_length_c   7.08011400
_cell_angle_alpha   90.00012758
_cell_angle_beta   89.99962598
_cell_angle_gamma   120.00440554
_symmetry_Int_Tables_number   1
_chemical_formula_structural   Tb4Er4In3Fe
_chemical_formula_sum   'Tb8 Er8 In6 Fe2'
_cell_volume   652.46180367
_cell_formula_units_Z   2
loop_
 _symmetry_equiv_pos_site_id
 _symmetry_equiv_pos_as_xyz
  1  'x, y, z'
loop_
 _atom_site_type_symbol
 _atom_site_label
 _atom_site_symmetry_multiplicity
 _atom_site_fract_x
 _atom_site_fract_y
 _atom_site_fract_z
 _atom_site_occupancy
  Tb  Tb0  1  0.536007  0.072042  0.787356  1
  Tb  Tb1  1  0.927975  0.463982  0.787357  1
  Tb  Tb2  1  0.536016  0.463960  0.787372  1
  Tb  Tb3  1  0.464006  0.927985  0.287320  1
  Tb  Tb4  1  0.072001  0.535990  0.287323  1
  Tb  Tb5  1  0.463995  0.536032  0.287353  1
  Tb  Tb6  1  0.999987  0.000034  0.774923  1
  Tb  Tb7  1  0.999998  0.999966  0.274923  1
  Er  Er8  1  0.821316  0.642628  0.491591  1
  Er  Er9  1  0.357349  0.178694  0.491582  1
  Er  Er10  1  0.821326  0.178715  0.491564  1
  Er  Er11  1  0.178711  0.357388  0.991545  1
  Er  Er12  1  0.642624  0.821287  0.991524  1
  Er  Er13  1  0.178681  0.821260  0.991475  1
  Er  Er14  1  0.666656  0.333373  0.179247  1
  Er  Er15  1  0.333336  0.666636  0.679210  1
  In  In16  1  0.836827  0.673649  0.037347  1
  In  In17  1  0.326378  0.163191  0.037311  1
  In  In18  1  0.836811  0.163191  0.037402  1
  In  In19  1  0.163190  0.326359  0.537293  1
  In  In20  1  0.673636  0.836796  0.537214  1
  In  In21  1  0.163168  0.836834  0.537271  1
  Fe  Fe22  1  0.666701  0.333363  0.560310  1
  Fe  Fe23  1  0.333302  0.666643  0.060261  1
