# generated using pymatgen
data_Tb4Y4Ti5Si16W7
_symmetry_space_group_name_H-M   'P 1'
_cell_length_a   6.94085952
_cell_length_b   6.93714312
_cell_length_c   12.85743134
_cell_angle_alpha   89.85997686
_cell_angle_beta   90.03535298
_cell_angle_gamma   90.00693777
_symmetry_Int_Tables_number   1
_chemical_formula_structural   Tb4Y4Ti5Si16W7
_chemical_formula_sum   'Tb4 Y4 Ti5 Si16 W7'
_cell_volume   619.07995248
_cell_formula_units_Z   1
loop_
 _symmetry_equiv_pos_site_id
 _symmetry_equiv_pos_as_xyz
  1  'x, y, z'
loop_
 _atom_site_type_symbol
 _atom_site_label
 _atom_site_symmetry_multiplicity
 _atom_site_fract_x
 _atom_site_fract_y
 _atom_site_fract_z
 _atom_site_occupancy
  Tb  Tb0  1  0.160604  0.502080  0.782603  1
  Tb  Tb1  1  0.660256  0.997528  0.968598  1
  Tb  Tb2  1  0.002787  0.339559  0.531641  1
  Tb  Tb3  1  0.996197  0.661598  0.031127  1
  Y  Y4  1  0.340348  0.002895  0.467422  1
  Y  Y5  1  0.497983  0.839878  0.718794  1
  Y  Y6  1  0.501639  0.160459  0.218529  1
  Y  Y7  1  0.839565  0.497157  0.280902  1
  Ti  Ti8  1  0.330025  0.330466  0.999476  1
  Ti  Ti9  1  0.169258  0.829390  0.250074  1
  Ti  Ti10  1  0.828253  0.171948  0.750414  1
  Ti  Ti11  1  0.669333  0.667365  0.499055  1
  Ti  Ti12  1  0.993973  0.840407  0.625924  1
  Si  Si13  1  0.202455  0.128475  0.683929  1
  Si  Si14  1  0.371903  0.701984  0.933926  1
  Si  Si15  1  0.629865  0.298743  0.433584  1
  Si  Si16  1  0.699683  0.371217  0.066658  1
  Si  Si17  1  0.300645  0.628910  0.565318  1
  Si  Si18  1  0.798817  0.871642  0.183776  1
  Si  Si19  1  0.127454  0.200652  0.316456  1
  Si  Si20  1  0.872315  0.799774  0.815958  1
  Si  Si21  1  0.289017  0.959492  0.063119  1
  Si  Si22  1  0.540373  0.789384  0.312790  1
  Si  Si23  1  0.458793  0.210546  0.812697  1
  Si  Si24  1  0.789640  0.541796  0.687392  1
  Si  Si25  1  0.210411  0.458791  0.186726  1
  Si  Si26  1  0.710704  0.041758  0.563515  1
  Si  Si27  1  0.958968  0.289750  0.937254  1
  Si  Si28  1  0.042650  0.710260  0.436964  1
  W  W29  1  0.160707  0.008540  0.875062  1
  W  W30  1  0.492133  0.659952  0.124376  1
  W  W31  1  0.507596  0.340363  0.623491  1
  W  W32  1  0.658436  0.491416  0.877681  1
  W  W33  1  0.341793  0.504771  0.374572  1
  W  W34  1  0.838961  0.991173  0.373675  1
  W  W35  1  0.006454  0.159882  0.126521  1
