# generated using pymatgen
data_K2AgAu3I8
_symmetry_space_group_name_H-M   'P 1'
_cell_length_a   7.89240182
_cell_length_b   7.89240223
_cell_length_c   22.10680751
_cell_angle_alpha   77.03175512
_cell_angle_beta   77.03175499
_cell_angle_gamma   57.41099131
_symmetry_Int_Tables_number   1
_chemical_formula_structural   K2AgAu3I8
_chemical_formula_sum   'K4 Ag2 Au6 I16'
_cell_volume   1121.60910751
_cell_formula_units_Z   2
loop_
 _symmetry_equiv_pos_site_id
 _symmetry_equiv_pos_as_xyz
  1  'x, y, z'
loop_
 _atom_site_type_symbol
 _atom_site_label
 _atom_site_symmetry_multiplicity
 _atom_site_fract_x
 _atom_site_fract_y
 _atom_site_fract_z
 _atom_site_occupancy
  K  K0  1  0.324212  0.266940  0.589048  1
  K  K1  1  0.266940  0.324212  0.089048  1
  K  K2  1  0.675788  0.733060  0.410952  1
  K  K3  1  0.733060  0.675788  0.910952  1
  Ag  Ag4  1  0.994359  0.005641  0.250000  1
  Ag  Ag5  1  0.005641  0.994359  0.750000  1
  Au  Au6  1  0.394240  0.412400  0.807644  1
  Au  Au7  1  0.605760  0.587600  0.192356  1
  Au  Au8  1  0.000000  0.000000  0.000000  1
  Au  Au9  1  0.587600  0.605760  0.692356  1
  Au  Au10  1  0.412400  0.394240  0.307644  1
  Au  Au11  1  0.000000  0.000000  0.500000  1
  I  I12  1  0.603837  0.052483  0.259487  1
  I  I13  1  0.157667  0.229107  0.437760  1
  I  I14  1  0.052483  0.603837  0.759487  1
  I  I15  1  0.191686  0.733478  0.356791  1
  I  I16  1  0.770893  0.842333  0.062240  1
  I  I17  1  0.808314  0.266522  0.643209  1
  I  I18  1  0.330672  0.760036  0.560587  1
  I  I19  1  0.229107  0.157667  0.937760  1
  I  I20  1  0.947517  0.396163  0.240513  1
  I  I21  1  0.760036  0.330672  0.060587  1
  I  I22  1  0.842333  0.770893  0.562240  1
  I  I23  1  0.669328  0.239964  0.439413  1
  I  I24  1  0.266522  0.808314  0.143209  1
  I  I25  1  0.239964  0.669328  0.939413  1
  I  I26  1  0.396163  0.947517  0.740513  1
  I  I27  1  0.733478  0.191686  0.856791  1
