# generated using pymatgen
data_CaTb7(IO6)4
_symmetry_space_group_name_H-M   'P 1'
_cell_length_a   5.53675300
_cell_length_b   7.69453882
_cell_length_c   11.49371500
_cell_angle_alpha   77.00634764
_cell_angle_beta   90.00000000
_cell_angle_gamma   90.00000000
_symmetry_Int_Tables_number   1
_chemical_formula_structural   CaTb7(IO6)4
_chemical_formula_sum   'Ca1 Tb7 I4 O24'
_cell_volume   477.12613566
_cell_formula_units_Z   1
loop_
 _symmetry_equiv_pos_site_id
 _symmetry_equiv_pos_as_xyz
  1  'x, y, z'
loop_
 _atom_site_type_symbol
 _atom_site_label
 _atom_site_symmetry_multiplicity
 _atom_site_fract_x
 _atom_site_fract_y
 _atom_site_fract_z
 _atom_site_occupancy
  Ca  Ca0  1  0.741272  0.000000  0.750000  1
  Tb  Tb1  1  0.248535  0.000000  0.250000  1
  Tb  Tb2  1  0.180940  0.787999  0.576899  1
  Tb  Tb3  1  0.818378  0.790672  0.079900  1
  Tb  Tb4  1  0.690806  0.500000  0.750000  1
  Tb  Tb5  1  0.314010  0.500000  0.250000  1
  Tb  Tb6  1  0.180940  0.212001  0.923101  1
  Tb  Tb7  1  0.818378  0.209328  0.420100  1
  I  I8  1  0.255908  0.725368  0.881497  1
  I  I9  1  0.735694  0.722347  0.389180  1
  I  I10  1  0.255908  0.274632  0.618503  1
  I  I11  1  0.735694  0.277653  0.110820  1
  O  O12  1  0.068730  0.935472  0.890435  1
  O  O13  1  0.524287  0.831462  0.938368  1
  O  O14  1  0.979978  0.948059  0.405288  1
  O  O15  1  0.438875  0.794080  0.732215  1
  O  O16  1  0.465432  0.845578  0.435388  1
  O  O17  1  0.990524  0.698935  0.775616  1
  O  O18  1  0.551521  0.793437  0.228015  1
  O  O19  1  0.830617  0.649278  0.562900  1
  O  O20  1  0.371246  0.495474  0.881542  1
  O  O21  1  0.049875  0.716984  0.251530  1
  O  O22  1  0.371246  0.504526  0.618458  1
  O  O23  1  0.830617  0.350722  0.937100  1
  O  O24  1  0.127452  0.623446  0.033027  1
  O  O25  1  0.613230  0.490092  0.391034  1
  O  O26  1  0.990524  0.301065  0.724384  1
  O  O27  1  0.613230  0.509908  0.108966  1
  O  O28  1  0.127452  0.376554  0.466973  1
  O  O29  1  0.438875  0.205920  0.767785  1
  O  O30  1  0.049875  0.283016  0.248470  1
  O  O31  1  0.524287  0.168538  0.561632  1
  O  O32  1  0.551521  0.206563  0.271985  1
  O  O33  1  0.068730  0.064528  0.609565  1
  O  O34  1  0.465432  0.154422  0.064612  1
  O  O35  1  0.979978  0.051941  0.094712  1
