# generated using pymatgen
data_Tb2P7RuRh8W3
_symmetry_space_group_name_H-M   'P 1'
_cell_length_a   3.94281803
_cell_length_b   9.49151793
_cell_length_c   9.52699883
_cell_angle_alpha   119.81667710
_cell_angle_beta   90.00120486
_cell_angle_gamma   90.00439505
_symmetry_Int_Tables_number   1
_chemical_formula_structural   Tb2P7RuRh8W3
_chemical_formula_sum   'Tb2 P7 Ru1 Rh8 W3'
_cell_volume   309.33456582
_cell_formula_units_Z   1
loop_
 _symmetry_equiv_pos_site_id
 _symmetry_equiv_pos_as_xyz
  1  'x, y, z'
loop_
 _atom_site_type_symbol
 _atom_site_label
 _atom_site_symmetry_multiplicity
 _atom_site_fract_x
 _atom_site_fract_y
 _atom_site_fract_z
 _atom_site_occupancy
  Tb  Tb0  1  0.261942  0.667900  0.331775  1
  Tb  Tb1  1  0.761951  0.333261  0.666652  1
  P  P2  1  0.261917  0.997951  0.001155  1
  P  P3  1  0.761878  0.881909  0.593950  1
  P  P4  1  0.761890  0.407471  0.288131  1
  P  P5  1  0.761872  0.715904  0.120712  1
  P  P6  1  0.261904  0.115753  0.411317  1
  P  P7  1  0.261922  0.585069  0.703217  1
  P  P8  1  0.261889  0.295580  0.881847  1
  Ru  Ru9  1  0.261860  0.886741  0.160330  1
  Rh  Rh10  1  0.261914  0.839959  0.727566  1
  Rh  Rh11  1  0.261912  0.272016  0.111760  1
  Rh  Rh12  1  0.761903  0.612633  0.560950  1
  Rh  Rh13  1  0.761931  0.440919  0.053431  1
  Rh  Rh14  1  0.761860  0.948847  0.389317  1
  Rh  Rh15  1  0.261904  0.367955  0.435658  1
  Rh  Rh16  1  0.261925  0.562817  0.930545  1
  Rh  Rh17  1  0.261918  0.068382  0.632253  1
  W  W18  1  0.761931  0.089320  0.872051  1
  W  W19  1  0.761889  0.128126  0.218203  1
  W  W20  1  0.761886  0.781489  0.909181  1
