# generated using pymatgen
data_Er4MnAl18Pd4Rh
_symmetry_space_group_name_H-M   'P 1'
_cell_length_a   7.58479309
_cell_length_b   7.58479322
_cell_length_c   9.42965000
_cell_angle_alpha   90.08409417
_cell_angle_beta   90.08409267
_cell_angle_gamma   119.39645320
_symmetry_Int_Tables_number   1
_chemical_formula_structural   Er4MnAl18Pd4Rh
_chemical_formula_sum   'Er4 Mn1 Al18 Pd4 Rh1'
_cell_volume   472.62981877
_cell_formula_units_Z   1
loop_
 _symmetry_equiv_pos_site_id
 _symmetry_equiv_pos_as_xyz
  1  'x, y, z'
loop_
 _atom_site_type_symbol
 _atom_site_label
 _atom_site_symmetry_multiplicity
 _atom_site_fract_x
 _atom_site_fract_y
 _atom_site_fract_z
 _atom_site_occupancy
  Er  Er0  1  0.994162  0.670408  0.251488  1
  Er  Er1  1  0.005838  0.329592  0.748512  1
  Er  Er2  1  0.670408  0.994162  0.251488  1
  Er  Er3  1  0.329592  0.005838  0.748512  1
  Mn  Mn4  1  0.000000  0.000000  0.500000  1
  Al  Al5  1  0.121117  0.121117  0.254605  1
  Al  Al6  1  0.878883  0.878883  0.745395  1
  Al  Al7  1  0.999809  0.331605  0.077282  1
  Al  Al8  1  0.000191  0.668395  0.922718  1
  Al  Al9  1  0.000228  0.674227  0.574941  1
  Al  Al10  1  0.325773  0.999772  0.425059  1
  Al  Al11  1  0.999772  0.325773  0.425059  1
  Al  Al12  1  0.674227  0.000228  0.574941  1
  Al  Al13  1  0.668395  0.000191  0.922718  1
  Al  Al14  1  0.331605  0.999809  0.077282  1
  Al  Al15  1  0.324074  0.324074  0.551567  1
  Al  Al16  1  0.675926  0.675926  0.448433  1
  Al  Al17  1  0.670467  0.670467  0.054549  1
  Al  Al18  1  0.329533  0.329533  0.945451  1
  Al  Al19  1  0.341121  0.546948  0.250722  1
  Al  Al20  1  0.658879  0.453052  0.749278  1
  Al  Al21  1  0.546948  0.341121  0.250722  1
  Al  Al22  1  0.453052  0.658879  0.749278  1
  Pd  Pd23  1  0.671554  0.328446  0.000000  1
  Pd  Pd24  1  0.328446  0.671554  0.000000  1
  Pd  Pd25  1  0.326422  0.673578  0.500000  1
  Pd  Pd26  1  0.673578  0.326422  0.500000  1
  Rh  Rh27  1  0.000000  0.000000  0.000000  1
