# generated using pymatgen
data_Ba4HfP4
_symmetry_space_group_name_H-M   'P 1'
_cell_length_a   8.38962100
_cell_length_b   9.96613500
_cell_length_c   14.62297000
_cell_angle_alpha   90.00000000
_cell_angle_beta   90.00000000
_cell_angle_gamma   90.00000000
_symmetry_Int_Tables_number   1
_chemical_formula_structural   Ba4HfP4
_chemical_formula_sum   'Ba16 Hf4 P16'
_cell_volume   1222.65716391
_cell_formula_units_Z   4
loop_
 _symmetry_equiv_pos_site_id
 _symmetry_equiv_pos_as_xyz
  1  'x, y, z'
loop_
 _atom_site_type_symbol
 _atom_site_label
 _atom_site_symmetry_multiplicity
 _atom_site_fract_x
 _atom_site_fract_y
 _atom_site_fract_z
 _atom_site_occupancy
  Ba  Ba0  1  0.000000  0.000000  0.000000  1
  Ba  Ba1  1  0.500000  0.000000  0.500000  1
  Ba  Ba2  1  0.000000  0.500000  0.000000  1
  Ba  Ba3  1  0.500000  0.500000  0.500000  1
  Ba  Ba4  1  0.984511  0.750000  0.435923  1
  Ba  Ba5  1  0.484511  0.250000  0.064077  1
  Ba  Ba6  1  0.015489  0.250000  0.564077  1
  Ba  Ba7  1  0.515489  0.750000  0.935923  1
  Ba  Ba8  1  0.845932  0.052454  0.276701  1
  Ba  Ba9  1  0.345932  0.947546  0.223299  1
  Ba  Ba10  1  0.154068  0.552454  0.723299  1
  Ba  Ba11  1  0.654068  0.447546  0.776701  1
  Ba  Ba12  1  0.154068  0.947546  0.723299  1
  Ba  Ba13  1  0.654068  0.052454  0.776701  1
  Ba  Ba14  1  0.845932  0.447546  0.276701  1
  Ba  Ba15  1  0.345932  0.552454  0.223299  1
  Hf  Hf16  1  0.752316  0.750000  0.667216  1
  Hf  Hf17  1  0.247684  0.250000  0.332784  1
  Hf  Hf18  1  0.747684  0.750000  0.167216  1
  Hf  Hf19  1  0.252316  0.250000  0.832784  1
  P  P20  1  0.952148  0.250000  0.825376  1
  P  P21  1  0.547852  0.250000  0.325376  1
  P  P22  1  0.452148  0.750000  0.674624  1
  P  P23  1  0.047852  0.750000  0.174624  1
  P  P24  1  0.658354  0.541105  0.089659  1
  P  P25  1  0.158354  0.458895  0.410341  1
  P  P26  1  0.341646  0.041105  0.910341  1
  P  P27  1  0.841646  0.958895  0.589659  1
  P  P28  1  0.341646  0.458895  0.910341  1
  P  P29  1  0.841646  0.541105  0.589659  1
  P  P30  1  0.658354  0.958895  0.089659  1
  P  P31  1  0.158354  0.041105  0.410341  1
  P  P32  1  0.625445  0.750000  0.327302  1
  P  P33  1  0.125445  0.250000  0.172698  1
  P  P34  1  0.374555  0.250000  0.672698  1
  P  P35  1  0.874555  0.750000  0.827302  1
