# generated using pymatgen
data_Er4Zn2B4Ir9Ru
_symmetry_space_group_name_H-M   'P 1'
_cell_length_a   9.62266813
_cell_length_b   9.62266813
_cell_length_c   3.10506700
_cell_angle_alpha   90.00000000
_cell_angle_beta   90.00000000
_cell_angle_gamma   89.44434714
_symmetry_Int_Tables_number   1
_chemical_formula_structural   Er4Zn2B4Ir9Ru
_chemical_formula_sum   'Er4 Zn2 B4 Ir9 Ru1'
_cell_volume   287.50246204
_cell_formula_units_Z   1
loop_
 _symmetry_equiv_pos_site_id
 _symmetry_equiv_pos_as_xyz
  1  'x, y, z'
loop_
 _atom_site_type_symbol
 _atom_site_label
 _atom_site_symmetry_multiplicity
 _atom_site_fract_x
 _atom_site_fract_y
 _atom_site_fract_z
 _atom_site_occupancy
  Er  Er0  1  0.321553  0.821553  0.000000  1
  Er  Er1  1  0.678447  0.178447  0.000000  1
  Er  Er2  1  0.173994  0.326006  0.000000  1
  Er  Er3  1  0.826006  0.673994  0.000000  1
  Zn  Zn4  1  0.500000  0.500000  0.000000  1
  Zn  Zn5  1  0.000000  0.000000  0.000000  1
  B  B6  1  0.121760  0.621760  0.000000  1
  B  B7  1  0.878240  0.378240  0.000000  1
  B  B8  1  0.374351  0.125649  0.000000  1
  B  B9  1  0.625649  0.874351  0.000000  1
  Ir  Ir10  1  0.568914  0.719954  0.500000  1
  Ir  Ir11  1  0.431086  0.280046  0.500000  1
  Ir  Ir12  1  0.931824  0.219229  0.500000  1
  Ir  Ir13  1  0.068176  0.780771  0.500000  1
  Ir  Ir14  1  0.780046  0.931086  0.500000  1
  Ir  Ir15  1  0.219954  0.068914  0.500000  1
  Ir  Ir16  1  0.280771  0.568176  0.500000  1
  Ir  Ir17  1  0.719229  0.431824  0.500000  1
  Ir  Ir18  1  0.500000  0.000000  0.500000  1
  Ru  Ru19  1  0.000000  0.500000  0.500000  1
