# generated using pymatgen
data_Ho3Mn4Co4MoP6
_symmetry_space_group_name_H-M   'P 1'
_cell_length_a   3.67612300
_cell_length_b   10.81162400
_cell_length_c   12.41518500
_cell_angle_alpha   90.00000000
_cell_angle_beta   90.00000000
_cell_angle_gamma   90.00000000
_symmetry_Int_Tables_number   1
_chemical_formula_structural   Ho3Mn4Co4MoP6
_chemical_formula_sum   'Ho6 Mn8 Co8 Mo2 P12'
_cell_volume   493.43978540
_cell_formula_units_Z   2
loop_
 _symmetry_equiv_pos_site_id
 _symmetry_equiv_pos_as_xyz
  1  'x, y, z'
loop_
 _atom_site_type_symbol
 _atom_site_label
 _atom_site_symmetry_multiplicity
 _atom_site_fract_x
 _atom_site_fract_y
 _atom_site_fract_z
 _atom_site_occupancy
  Ho  Ho0  1  0.000000  0.500000  0.532469  1
  Ho  Ho1  1  0.500000  0.000000  0.467531  1
  Ho  Ho2  1  0.500000  0.821738  0.200131  1
  Ho  Ho3  1  0.500000  0.178262  0.200131  1
  Ho  Ho4  1  0.000000  0.678262  0.799869  1
  Ho  Ho5  1  0.000000  0.321738  0.799869  1
  Mn  Mn6  1  0.500000  0.296083  0.432501  1
  Mn  Mn7  1  0.500000  0.703917  0.432501  1
  Mn  Mn8  1  0.000000  0.203917  0.567499  1
  Mn  Mn9  1  0.000000  0.796083  0.567499  1
  Mn  Mn10  1  0.500000  0.879439  0.704045  1
  Mn  Mn11  1  0.500000  0.120561  0.704045  1
  Mn  Mn12  1  0.000000  0.620561  0.295955  1
  Mn  Mn13  1  0.000000  0.379439  0.295955  1
  Co  Co14  1  0.000000  0.500000  0.987663  1
  Co  Co15  1  0.500000  0.000000  0.012337  1
  Co  Co16  1  0.500000  0.333068  0.992561  1
  Co  Co17  1  0.500000  0.666932  0.992561  1
  Co  Co18  1  0.000000  0.166932  0.007439  1
  Co  Co19  1  0.000000  0.833068  0.007439  1
  Co  Co20  1  0.500000  0.500000  0.708891  1
  Co  Co21  1  0.000000  0.000000  0.291109  1
  Mo  Mo22  1  0.500000  0.500000  0.158107  1
  Mo  Mo23  1  0.000000  0.000000  0.841893  1
  P  P24  1  0.500000  0.318838  0.620788  1
  P  P25  1  0.500000  0.681162  0.620788  1
  P  P26  1  0.000000  0.181162  0.379212  1
  P  P27  1  0.000000  0.818838  0.379212  1
  P  P28  1  0.500000  0.500000  0.885406  1
  P  P29  1  0.000000  0.000000  0.114594  1
  P  P30  1  0.500000  0.843236  0.894633  1
  P  P31  1  0.500000  0.156764  0.894633  1
  P  P32  1  0.000000  0.656764  0.105367  1
  P  P33  1  0.000000  0.343236  0.105367  1
  P  P34  1  0.500000  0.500000  0.357544  1
  P  P35  1  0.000000  0.000000  0.642456  1
