# generated using pymatgen
data_La7ThSi14
_symmetry_space_group_name_H-M   'P 1'
_cell_length_a   8.15559113
_cell_length_b   8.15559092
_cell_length_c   8.67131822
_cell_angle_alpha   90.05102079
_cell_angle_beta   89.94897747
_cell_angle_gamma   120.21145387
_symmetry_Int_Tables_number   1
_chemical_formula_structural   La7ThSi14
_chemical_formula_sum   'La7 Th1 Si14'
_cell_volume   498.42186205
_cell_formula_units_Z   1
loop_
 _symmetry_equiv_pos_site_id
 _symmetry_equiv_pos_as_xyz
  1  'x, y, z'
loop_
 _atom_site_type_symbol
 _atom_site_label
 _atom_site_symmetry_multiplicity
 _atom_site_fract_x
 _atom_site_fract_y
 _atom_site_fract_z
 _atom_site_occupancy
  La  La0  1  0.252808  0.253100  0.999887  1
  La  La1  1  0.746900  0.747192  0.999887  1
  La  La2  1  0.745826  0.746030  0.499658  1
  La  La3  1  0.253970  0.254174  0.499658  1
  La  La4  1  0.251186  0.748814  0.496536  1
  La  La5  1  0.748639  0.251361  0.503789  1
  La  La6  1  0.749522  0.250478  0.996867  1
  Th  Th7  1  0.251625  0.748375  0.004029  1
  Si  Si8  1  0.074239  0.399304  0.249167  1
  Si  Si9  1  0.928769  0.604953  0.751425  1
  Si  Si10  1  0.583394  0.416606  0.249091  1
  Si  Si11  1  0.416717  0.583283  0.750358  1
  Si  Si12  1  0.412743  0.587257  0.249139  1
  Si  Si13  1  0.587359  0.412641  0.751865  1
  Si  Si14  1  0.075970  0.924030  0.248305  1
  Si  Si15  1  0.925080  0.074920  0.749624  1
  Si  Si16  1  0.600696  0.925761  0.249167  1
  Si  Si17  1  0.395047  0.071231  0.751425  1
  Si  Si18  1  0.923780  0.584426  0.248754  1
  Si  Si19  1  0.077189  0.417035  0.751309  1
  Si  Si20  1  0.415574  0.076220  0.248754  1
  Si  Si21  1  0.582965  0.922811  0.751309  1
