# generated using pymatgen
data_CeTh(SeI)4
_symmetry_space_group_name_H-M   'P 1'
_cell_length_a   7.91807228
_cell_length_b   7.91807256
_cell_length_c   8.71173332
_cell_angle_alpha   78.89725099
_cell_angle_beta   78.89725999
_cell_angle_gamma   120.16451806
_symmetry_Int_Tables_number   1
_chemical_formula_structural   CeTh(SeI)4
_chemical_formula_sum   'Ce1 Th1 Se4 I4'
_cell_volume   435.61034744
_cell_formula_units_Z   1
loop_
 _symmetry_equiv_pos_site_id
 _symmetry_equiv_pos_as_xyz
  1  'x, y, z'
loop_
 _atom_site_type_symbol
 _atom_site_label
 _atom_site_symmetry_multiplicity
 _atom_site_fract_x
 _atom_site_fract_y
 _atom_site_fract_z
 _atom_site_occupancy
  Ce  Ce0  1  0.143618  0.856382  0.000000  1
  Th  Th1  1  0.855534  0.144466  0.000000  1
  Se  Se2  1  0.873758  0.872514  0.275986  1
  Se  Se3  1  0.127486  0.126242  0.724014  1
  Se  Se4  1  0.698364  0.696763  0.110467  1
  Se  Se5  1  0.303237  0.301636  0.889533  1
  I  I6  1  0.420242  0.025481  0.229841  1
  I  I7  1  0.577155  0.973913  0.770711  1
  I  I8  1  0.974519  0.579758  0.770159  1
  I  I9  1  0.026087  0.422845  0.229289  1
