# generated using pymatgen
data_Y4Al2Si8IrRh5
_symmetry_space_group_name_H-M   'P 1'
_cell_length_a   8.17729907
_cell_length_b   8.19606232
_cell_length_c   5.69973033
_cell_angle_alpha   71.40635700
_cell_angle_beta   71.25576746
_cell_angle_gamma   93.51279128
_symmetry_Int_Tables_number   1
_chemical_formula_structural   Y4Al2Si8IrRh5
_chemical_formula_sum   'Y4 Al2 Si8 Ir1 Rh5'
_cell_volume   337.10967078
_cell_formula_units_Z   1
loop_
 _symmetry_equiv_pos_site_id
 _symmetry_equiv_pos_as_xyz
  1  'x, y, z'
loop_
 _atom_site_type_symbol
 _atom_site_label
 _atom_site_symmetry_multiplicity
 _atom_site_fract_x
 _atom_site_fract_y
 _atom_site_fract_z
 _atom_site_occupancy
  Y  Y0  1  0.866627  0.600907  0.757091  1
  Y  Y1  1  0.133137  0.399324  0.241895  1
  Y  Y2  1  0.398538  0.133259  0.743164  1
  Y  Y3  1  0.601476  0.867229  0.257612  1
  Al  Al4  1  0.773893  0.227487  0.747903  1
  Al  Al5  1  0.226051  0.772669  0.250374  1
  Si  Si6  1  0.517213  0.483214  0.751201  1
  Si  Si7  1  0.482776  0.517227  0.248393  1
  Si  Si8  1  0.211775  0.786834  0.751070  1
  Si  Si9  1  0.788156  0.212227  0.252174  1
  Si  Si10  1  0.264983  0.058799  0.339223  1
  Si  Si11  1  0.734680  0.939832  0.662493  1
  Si  Si12  1  0.940908  0.733807  0.161377  1
  Si  Si13  1  0.060078  0.266246  0.837647  1
  Ir  Ir14  1  0.533982  0.261155  0.139549  1
  Rh  Rh15  1  0.736722  0.466019  0.360047  1
  Rh  Rh16  1  0.465832  0.738223  0.860778  1
  Rh  Rh17  1  0.263338  0.534577  0.638472  1
  Rh  Rh18  1  0.994741  0.005792  0.249619  1
  Rh  Rh19  1  0.005095  0.995175  0.749915  1
