# generated using pymatgen
data_Tb3ThAgRh
_symmetry_space_group_name_H-M   'P 1'
_cell_length_a   9.66399820
_cell_length_b   9.66399857
_cell_length_c   9.66399900
_cell_angle_alpha   60.00000196
_cell_angle_beta   60.00000068
_cell_angle_gamma   60.00000173
_symmetry_Int_Tables_number   1
_chemical_formula_structural   Tb3ThAgRh
_chemical_formula_sum   'Tb12 Th4 Ag4 Rh4'
_cell_volume   638.19822266
_cell_formula_units_Z   4
loop_
 _symmetry_equiv_pos_site_id
 _symmetry_equiv_pos_as_xyz
  1  'x, y, z'
loop_
 _atom_site_type_symbol
 _atom_site_label
 _atom_site_symmetry_multiplicity
 _atom_site_fract_x
 _atom_site_fract_y
 _atom_site_fract_z
 _atom_site_occupancy
  Tb  Tb0  1  0.812387  0.187613  0.187613  1
  Tb  Tb1  1  0.187613  0.812387  0.812387  1
  Tb  Tb2  1  0.187613  0.812387  0.187613  1
  Tb  Tb3  1  0.812387  0.187613  0.812387  1
  Tb  Tb4  1  0.187613  0.187613  0.812387  1
  Tb  Tb5  1  0.812387  0.812387  0.187613  1
  Tb  Tb6  1  0.933996  0.566004  0.566004  1
  Tb  Tb7  1  0.566004  0.933996  0.933996  1
  Tb  Tb8  1  0.566004  0.933996  0.566004  1
  Tb  Tb9  1  0.933996  0.566004  0.933996  1
  Tb  Tb10  1  0.566004  0.566004  0.933996  1
  Tb  Tb11  1  0.933996  0.933996  0.566004  1
  Th  Th12  1  0.351991  0.351991  0.351991  1
  Th  Th13  1  0.351991  0.351991  0.944027  1
  Th  Th14  1  0.351991  0.944027  0.351991  1
  Th  Th15  1  0.944027  0.351991  0.351991  1
  Ag  Ag16  1  0.582823  0.582823  0.582823  1
  Ag  Ag17  1  0.582823  0.582823  0.251532  1
  Ag  Ag18  1  0.582823  0.251532  0.582823  1
  Ag  Ag19  1  0.251532  0.582823  0.582823  1
  Rh  Rh20  1  0.144772  0.144772  0.144772  1
  Rh  Rh21  1  0.144772  0.144772  0.565682  1
  Rh  Rh22  1  0.144772  0.565682  0.144772  1
  Rh  Rh23  1  0.565682  0.144772  0.144772  1
