# generated using pymatgen
data_Tb2Dy2Ga16Co2Tc
_symmetry_space_group_name_H-M   'P 1'
_cell_length_a   6.07656100
_cell_length_b   6.07656100
_cell_length_c   11.20378900
_cell_angle_alpha   90.00000000
_cell_angle_beta   90.00000000
_cell_angle_gamma   90.00000000
_symmetry_Int_Tables_number   1
_chemical_formula_structural   Tb2Dy2Ga16Co2Tc
_chemical_formula_sum   'Tb2 Dy2 Ga16 Co2 Tc1'
_cell_volume   413.69535546
_cell_formula_units_Z   1
loop_
 _symmetry_equiv_pos_site_id
 _symmetry_equiv_pos_as_xyz
  1  'x, y, z'
loop_
 _atom_site_type_symbol
 _atom_site_label
 _atom_site_symmetry_multiplicity
 _atom_site_fract_x
 _atom_site_fract_y
 _atom_site_fract_z
 _atom_site_occupancy
  Tb  Tb0  1  0.500000  0.000000  0.806346  1
  Tb  Tb1  1  0.000000  0.500000  0.806346  1
  Dy  Dy2  1  0.500000  0.000000  0.193884  1
  Dy  Dy3  1  0.000000  0.500000  0.193884  1
  Ga  Ga4  1  0.250012  0.250012  0.614270  1
  Ga  Ga5  1  0.749988  0.749988  0.614270  1
  Ga  Ga6  1  0.749988  0.250012  0.614270  1
  Ga  Ga7  1  0.250012  0.749988  0.614270  1
  Ga  Ga8  1  0.750015  0.750015  0.385344  1
  Ga  Ga9  1  0.249985  0.249985  0.385344  1
  Ga  Ga10  1  0.249985  0.750015  0.385344  1
  Ga  Ga11  1  0.750015  0.249985  0.385344  1
  Ga  Ga12  1  0.287694  0.287694  0.000360  1
  Ga  Ga13  1  0.712306  0.712306  0.000360  1
  Ga  Ga14  1  0.712306  0.287694  0.000360  1
  Ga  Ga15  1  0.287694  0.712306  0.000360  1
  Ga  Ga16  1  0.500000  0.500000  0.798130  1
  Ga  Ga17  1  0.500000  0.500000  0.201944  1
  Ga  Ga18  1  0.000000  0.000000  0.774145  1
  Ga  Ga19  1  0.000000  0.000000  0.225705  1
  Co  Co20  1  0.500000  0.000000  0.499813  1
  Co  Co21  1  0.000000  0.500000  0.499813  1
  Tc  Tc22  1  0.000000  0.000000  0.000090  1
