# generated using pymatgen
data_PrTm2Th(Al3Rh)6
_symmetry_space_group_name_H-M   'P 1'
_cell_length_a   7.58092076
_cell_length_b   7.58736814
_cell_length_c   9.51180600
_cell_angle_alpha   90.00000000
_cell_angle_beta   90.00000000
_cell_angle_gamma   119.27415849
_symmetry_Int_Tables_number   1
_chemical_formula_structural   PrTm2Th(Al3Rh)6
_chemical_formula_sum   'Pr1 Tm2 Th1 Al18 Rh6'
_cell_volume   477.24011762
_cell_formula_units_Z   1
loop_
 _symmetry_equiv_pos_site_id
 _symmetry_equiv_pos_as_xyz
  1  'x, y, z'
loop_
 _atom_site_type_symbol
 _atom_site_label
 _atom_site_symmetry_multiplicity
 _atom_site_fract_x
 _atom_site_fract_y
 _atom_site_fract_z
 _atom_site_occupancy
  Pr  Pr0  1  0.671667  0.993384  0.250000  1
  Tm  Tm1  1  0.004688  0.327117  0.750000  1
  Tm  Tm2  1  0.326918  0.005282  0.750000  1
  Th  Th3  1  0.994387  0.671435  0.250000  1
  Al  Al4  1  0.134937  0.134019  0.250000  1
  Al  Al5  1  0.872693  0.874075  0.750000  1
  Al  Al6  1  0.003996  0.333719  0.068977  1
  Al  Al7  1  0.999943  0.663853  0.917585  1
  Al  Al8  1  0.999943  0.663853  0.582415  1
  Al  Al9  1  0.337801  0.005533  0.431162  1
  Al  Al10  1  0.003996  0.333719  0.431023  1
  Al  Al11  1  0.663871  0.000957  0.579986  1
  Al  Al12  1  0.663871  0.000957  0.920014  1
  Al  Al13  1  0.337801  0.005533  0.068838  1
  Al  Al14  1  0.331688  0.331778  0.557139  1
  Al  Al15  1  0.663581  0.664972  0.460438  1
  Al  Al16  1  0.663581  0.664972  0.039562  1
  Al  Al17  1  0.331688  0.331778  0.942861  1
  Al  Al18  1  0.340870  0.545497  0.250000  1
  Al  Al19  1  0.657687  0.447243  0.750000  1
  Al  Al20  1  0.545488  0.339918  0.250000  1
  Al  Al21  1  0.446930  0.659727  0.750000  1
  Rh  Rh22  1  0.672878  0.329190  0.998057  1
  Rh  Rh23  1  0.326048  0.671031  0.998255  1
  Rh  Rh24  1  0.326048  0.671031  0.501745  1
  Rh  Rh25  1  0.672878  0.329190  0.501943  1
  Rh  Rh26  1  0.002063  0.000119  0.997520  1
  Rh  Rh27  1  0.002063  0.000119  0.502480  1
