# generated using pymatgen
data_Pr8TmLuSn6
_symmetry_space_group_name_H-M   'P 1'
_cell_length_a   9.28035400
_cell_length_b   9.28035422
_cell_length_c   6.80036300
_cell_angle_alpha   90.00000000
_cell_angle_beta   90.00000000
_cell_angle_gamma   120.00000633
_symmetry_Int_Tables_number   1
_chemical_formula_structural   Pr8TmLuSn6
_chemical_formula_sum   'Pr8 Tm1 Lu1 Sn6'
_cell_volume   507.21465787
_cell_formula_units_Z   1
loop_
 _symmetry_equiv_pos_site_id
 _symmetry_equiv_pos_as_xyz
  1  'x, y, z'
loop_
 _atom_site_type_symbol
 _atom_site_label
 _atom_site_symmetry_multiplicity
 _atom_site_fract_x
 _atom_site_fract_y
 _atom_site_fract_z
 _atom_site_occupancy
  Pr  Pr0  1  0.666667  0.333333  0.000000  1
  Pr  Pr1  1  0.333333  0.666667  0.000000  1
  Pr  Pr2  1  0.757465  0.757409  0.747418  1
  Pr  Pr3  1  0.242591  0.000057  0.747418  1
  Pr  Pr4  1  0.999943  0.242535  0.747418  1
  Pr  Pr5  1  0.242591  0.242535  0.252582  1
  Pr  Pr6  1  0.757465  0.000057  0.252582  1
  Pr  Pr7  1  0.999943  0.757409  0.252582  1
  Tm  Tm8  1  0.333333  0.666667  0.500000  1
  Lu  Lu9  1  0.666667  0.333333  0.500000  1
  Sn  Sn10  1  0.397397  0.397198  0.740147  1
  Sn  Sn11  1  0.602802  0.000199  0.740147  1
  Sn  Sn12  1  0.999801  0.602603  0.740147  1
  Sn  Sn13  1  0.602802  0.602603  0.259853  1
  Sn  Sn14  1  0.397397  0.000199  0.259853  1
  Sn  Sn15  1  0.999801  0.397198  0.259853  1
