# generated using pymatgen
data_La2Tb3HoTa2O14
_symmetry_space_group_name_H-M   'P 1'
_cell_length_a   6.54890575
_cell_length_b   6.55283422
_cell_length_c   7.65091302
_cell_angle_alpha   89.99221303
_cell_angle_beta   90.00047881
_cell_angle_gamma   108.96273184
_symmetry_Int_Tables_number   1
_chemical_formula_structural   La2Tb3HoTa2O14
_chemical_formula_sum   'La2 Tb3 Ho1 Ta2 O14'
_cell_volume   310.51201692
_cell_formula_units_Z   1
loop_
 _symmetry_equiv_pos_site_id
 _symmetry_equiv_pos_as_xyz
  1  'x, y, z'
loop_
 _atom_site_type_symbol
 _atom_site_label
 _atom_site_symmetry_multiplicity
 _atom_site_fract_x
 _atom_site_fract_y
 _atom_site_fract_z
 _atom_site_occupancy
  La  La0  1  0.501807  0.501634  0.499329  1
  La  La1  1  0.495654  0.495078  0.000679  1
  Tb  Tb2  1  0.000374  0.534423  0.248309  1
  Tb  Tb3  1  0.999007  0.466372  0.748262  1
  Tb  Tb4  1  0.532863  0.000609  0.751602  1
  Ho  Ho5  1  0.467895  0.998865  0.251708  1
  Ta  Ta6  1  0.999931  0.000054  0.499199  1
  Ta  Ta7  1  0.999925  0.000083  0.000687  1
  O  O8  1  0.936754  0.061101  0.749969  1
  O  O9  1  0.063246  0.937494  0.250007  1
  O  O10  1  0.356983  0.645474  0.249904  1
  O  O11  1  0.641967  0.356882  0.750085  1
  O  O12  1  0.364184  0.636325  0.749978  1
  O  O13  1  0.634392  0.359808  0.250230  1
  O  O14  1  0.320124  0.066762  0.971533  1
  O  O15  1  0.682375  0.935302  0.466451  1
  O  O16  1  0.317165  0.063078  0.532204  1
  O  O17  1  0.685519  0.939219  0.037373  1
  O  O18  1  0.065310  0.317022  0.466456  1
  O  O19  1  0.934760  0.683753  0.966139  1
  O  O20  1  0.930856  0.680878  0.530103  1
  O  O21  1  0.068910  0.319784  0.029793  1
