# generated using pymatgen
data_Li4Tb3Y(Co4P3)4
_symmetry_space_group_name_H-M   'P 1'
_cell_length_a   3.69741100
_cell_length_b   10.26235207
_cell_length_c   11.92279908
_cell_angle_alpha   90.01329077
_cell_angle_beta   90.00000480
_cell_angle_gamma   90.00002666
_symmetry_Int_Tables_number   1
_chemical_formula_structural   Li4Tb3Y(Co4P3)4
_chemical_formula_sum   'Li4 Tb3 Y1 Co16 P12'
_cell_volume   452.40026694
_cell_formula_units_Z   1
loop_
 _symmetry_equiv_pos_site_id
 _symmetry_equiv_pos_as_xyz
  1  'x, y, z'
loop_
 _atom_site_type_symbol
 _atom_site_label
 _atom_site_symmetry_multiplicity
 _atom_site_fract_x
 _atom_site_fract_y
 _atom_site_fract_z
 _atom_site_occupancy
  Li  Li0  1  0.250000  0.797379  0.492719  1
  Li  Li1  1  0.750000  0.202612  0.507485  1
  Li  Li2  1  0.750001  0.297349  0.007330  1
  Li  Li3  1  0.250000  0.702573  0.992577  1
  Tb  Tb4  1  0.250000  0.921369  0.201996  1
  Tb  Tb5  1  0.750000  0.078896  0.797938  1
  Tb  Tb6  1  0.750000  0.421113  0.297816  1
  Y  Y7  1  0.250000  0.578805  0.702265  1
  Co  Co8  1  0.250000  0.094165  0.985514  1
  Co  Co9  1  0.750000  0.905923  0.014460  1
  Co  Co10  1  0.750000  0.594240  0.514655  1
  Co  Co11  1  0.250000  0.405929  0.485544  1
  Co  Co12  1  0.250000  0.278166  0.672882  1
  Co  Co13  1  0.750000  0.721861  0.327186  1
  Co  Co14  1  0.749999  0.777970  0.827132  1
  Co  Co15  1  0.250000  0.221819  0.172820  1
  Co  Co16  1  0.250000  0.621261  0.199549  1
  Co  Co17  1  0.750000  0.378845  0.800371  1
  Co  Co18  1  0.749999  0.121291  0.300370  1
  Co  Co19  1  0.250000  0.878635  0.699631  1
  Co  Co20  1  0.250000  0.034391  0.432867  1
  Co  Co21  1  0.750000  0.965520  0.567204  1
  Co  Co22  1  0.750000  0.534345  0.067097  1
  Co  Co23  1  0.250000  0.465656  0.932742  1
  P  P24  1  0.250000  0.075061  0.614752  1
  P  P25  1  0.750000  0.924968  0.385275  1
  P  P26  1  0.750000  0.575098  0.885153  1
  P  P27  1  0.250000  0.424892  0.114645  1
  P  P28  1  0.250000  0.229500  0.359521  1
  P  P29  1  0.750000  0.770030  0.640386  1
  P  P30  1  0.750000  0.729498  0.140438  1
  P  P31  1  0.250001  0.270445  0.859570  1
  P  P32  1  0.250000  0.897723  0.893261  1
  P  P33  1  0.750000  0.102412  0.106743  1
  P  P34  1  0.750000  0.397899  0.606886  1
  P  P35  1  0.250000  0.602360  0.393220  1
