# generated using pymatgen
data_Tb5SmAl24(Ru3Au)2
_symmetry_space_group_name_H-M   'P 1'
_cell_length_a   8.89505496
_cell_length_b   8.85061835
_cell_length_c   9.58465404
_cell_angle_alpha   90.00000092
_cell_angle_beta   89.95121510
_cell_angle_gamma   119.83488557
_symmetry_Int_Tables_number   1
_chemical_formula_structural   Tb5SmAl24(Ru3Au)2
_chemical_formula_sum   'Tb5 Sm1 Al24 Ru6 Au2'
_cell_volume   654.55974432
_cell_formula_units_Z   1
loop_
 _symmetry_equiv_pos_site_id
 _symmetry_equiv_pos_as_xyz
  1  'x, y, z'
loop_
 _atom_site_type_symbol
 _atom_site_label
 _atom_site_symmetry_multiplicity
 _atom_site_fract_x
 _atom_site_fract_y
 _atom_site_fract_z
 _atom_site_occupancy
  Tb  Tb0  1  0.809135  0.193403  0.246954  1
  Tb  Tb1  1  0.809135  0.615732  0.246954  1
  Tb  Tb2  1  0.616577  0.808289  0.747673  1
  Tb  Tb3  1  0.191180  0.806637  0.752993  1
  Tb  Tb4  1  0.191180  0.384543  0.752993  1
  Sm  Sm5  1  0.381954  0.190976  0.252983  1
  Al  Al6  1  0.435551  0.871289  0.242779  1
  Al  Al7  1  0.121062  0.560531  0.250234  1
  Al  Al8  1  0.435551  0.564261  0.242779  1
  Al  Al9  1  0.564672  0.128059  0.757113  1
  Al  Al10  1  0.878933  0.439467  0.749720  1
  Al  Al11  1  0.564672  0.436613  0.757113  1
  Al  Al12  1  0.151369  0.827922  0.419459  1
  Al  Al13  1  0.151369  0.323448  0.419459  1
  Al  Al14  1  0.681779  0.840889  0.416442  1
  Al  Al15  1  0.848318  0.171493  0.581047  1
  Al  Al16  1  0.848318  0.676823  0.581047  1
  Al  Al17  1  0.318172  0.159086  0.584300  1
  Al  Al18  1  0.836170  0.163373  0.924606  1
  Al  Al19  1  0.836170  0.672796  0.924606  1
  Al  Al20  1  0.326688  0.163344  0.928223  1
  Al  Al21  1  0.163539  0.835909  0.074814  1
  Al  Al22  1  0.163539  0.327631  0.074814  1
  Al  Al23  1  0.673373  0.836687  0.070910  1
  Al  Al24  1  0.320996  0.660498  0.528797  1
  Al  Al25  1  0.679751  0.339875  0.472132  1
  Al  Al26  1  0.666942  0.333471  0.025778  1
  Al  Al27  1  0.333786  0.666893  0.973359  1
  Al  Al28  1  0.001793  0.000896  0.249022  1
  Al  Al29  1  0.996740  0.998370  0.750963  1
  Ru  Ru30  1  0.999843  0.999922  0.500093  1
  Ru  Ru31  1  0.999959  0.999979  0.999921  1
  Ru  Ru32  1  0.000300  0.500150  0.500124  1
  Ru  Ru33  1  0.500291  0.999687  0.999595  1
  Ru  Ru34  1  0.000279  0.500140  0.999809  1
  Ru  Ru35  1  0.500291  0.500604  0.999595  1
  Au  Au36  1  0.500311  0.999749  0.500399  1
  Au  Au37  1  0.500311  0.500562  0.500399  1
