# generated using pymatgen
data_Tb8LuSc11Ga16
_symmetry_space_group_name_H-M   'P 1'
_cell_length_a   7.31071202
_cell_length_b   7.58373575
_cell_length_c   14.53826542
_cell_angle_alpha   89.94953982
_cell_angle_beta   89.99959321
_cell_angle_gamma   90.00877940
_symmetry_Int_Tables_number   1
_chemical_formula_structural   Tb8LuSc11Ga16
_chemical_formula_sum   'Tb8 Lu1 Sc11 Ga16'
_cell_volume   806.03757668
_cell_formula_units_Z   1
loop_
 _symmetry_equiv_pos_site_id
 _symmetry_equiv_pos_as_xyz
  1  'x, y, z'
loop_
 _atom_site_type_symbol
 _atom_site_label
 _atom_site_symmetry_multiplicity
 _atom_site_fract_x
 _atom_site_fract_y
 _atom_site_fract_z
 _atom_site_occupancy
  Tb  Tb0  1  0.011804  0.178456  0.095350  1
  Tb  Tb1  1  0.988456  0.821512  0.905060  1
  Tb  Tb2  1  0.488381  0.678442  0.905249  1
  Tb  Tb3  1  0.987790  0.820350  0.595775  1
  Tb  Tb4  1  0.511696  0.321495  0.095267  1
  Tb  Tb5  1  0.011676  0.178426  0.404444  1
  Tb  Tb6  1  0.512175  0.321939  0.403550  1
  Tb  Tb7  1  0.488619  0.678235  0.595302  1
  Lu  Lu8  1  0.329528  0.173506  0.623146  1
  Sc  Sc9  1  0.161626  0.503900  0.750809  1
  Sc  Sc10  1  0.837966  0.497759  0.250012  1
  Sc  Sc11  1  0.337948  0.002274  0.249869  1
  Sc  Sc12  1  0.662861  0.996725  0.750763  1
  Sc  Sc13  1  0.669737  0.826199  0.375302  1
  Sc  Sc14  1  0.169944  0.673271  0.374932  1
  Sc  Sc15  1  0.669886  0.826308  0.124392  1
  Sc  Sc16  1  0.829792  0.326761  0.624680  1
  Sc  Sc17  1  0.330064  0.173672  0.875809  1
  Sc  Sc18  1  0.830054  0.326440  0.875952  1
  Sc  Sc19  1  0.170017  0.673530  0.124444  1
  Ga  Ga20  1  0.028642  0.117296  0.751823  1
  Ga  Ga21  1  0.968549  0.881486  0.249968  1
  Ga  Ga22  1  0.468696  0.618195  0.249710  1
  Ga  Ga23  1  0.533156  0.384667  0.751775  1
  Ga  Ga24  1  0.283644  0.870790  0.751594  1
  Ga  Ga25  1  0.715867  0.126718  0.249970  1
  Ga  Ga26  1  0.215664  0.373246  0.249863  1
  Ga  Ga27  1  0.784661  0.627420  0.750365  1
  Ga  Ga28  1  0.157028  0.469410  0.539114  1
  Ga  Ga29  1  0.838821  0.535507  0.459436  1
  Ga  Ga30  1  0.340466  0.962433  0.456895  1
  Ga  Ga31  1  0.839506  0.535007  0.040383  1
  Ga  Ga32  1  0.665068  0.033812  0.538797  1
  Ga  Ga33  1  0.160415  0.464919  0.959891  1
  Ga  Ga34  1  0.660528  0.034953  0.959937  1
  Ga  Ga35  1  0.339267  0.964939  0.040373  1
