# generated using pymatgen
data_Sc10CdIn7Pd4
_symmetry_space_group_name_H-M   'P 1'
_cell_length_a   3.44262000
_cell_length_b   7.67783136
_cell_length_c   17.23007600
_cell_angle_alpha   90.01758910
_cell_angle_beta   90.00000000
_cell_angle_gamma   90.00000000
_symmetry_Int_Tables_number   1
_chemical_formula_structural   Sc10CdIn7Pd4
_chemical_formula_sum   'Sc10 Cd1 In7 Pd4'
_cell_volume   455.42286284
_cell_formula_units_Z   1
loop_
 _symmetry_equiv_pos_site_id
 _symmetry_equiv_pos_as_xyz
  1  'x, y, z'
loop_
 _atom_site_type_symbol
 _atom_site_label
 _atom_site_symmetry_multiplicity
 _atom_site_fract_x
 _atom_site_fract_y
 _atom_site_fract_z
 _atom_site_occupancy
  Sc  Sc0  1  0.000000  0.500290  0.499912  1
  Sc  Sc1  1  0.000000  0.999531  0.999578  1
  Sc  Sc2  1  0.000000  0.742318  0.280043  1
  Sc  Sc3  1  0.000000  0.256414  0.720020  1
  Sc  Sc4  1  0.000000  0.756667  0.781940  1
  Sc  Sc5  1  0.000000  0.241360  0.219109  1
  Sc  Sc6  1  0.000000  0.619857  0.082090  1
  Sc  Sc7  1  0.000000  0.383773  0.917970  1
  Sc  Sc8  1  0.000000  0.879983  0.582686  1
  Sc  Sc9  1  0.000000  0.119626  0.417822  1
  Cd  Cd10  1  0.500000  0.709821  0.933959  1
  In  In11  1  0.500000  0.293556  0.065627  1
  In  In12  1  0.500000  0.792114  0.433822  1
  In  In13  1  0.500000  0.207762  0.566381  1
  In  In14  1  0.500000  0.578615  0.647451  1
  In  In15  1  0.500000  0.421759  0.352200  1
  In  In16  1  0.500000  0.921426  0.147184  1
  In  In17  1  0.500000  0.078049  0.852944  1
  Pd  Pd18  1  0.500000  0.527766  0.195170  1
  Pd  Pd19  1  0.500000  0.470335  0.803951  1
  Pd  Pd20  1  0.500000  0.971825  0.695560  1
  Pd  Pd21  1  0.500000  0.027152  0.304580  1
