# generated using pymatgen
data_BaYbCd2Au3
_symmetry_space_group_name_H-M   'P 1'
_cell_length_a   4.56689100
_cell_length_b   8.52548500
_cell_length_c   9.29714900
_cell_angle_alpha   90.00000000
_cell_angle_beta   90.00000000
_cell_angle_gamma   90.00000000
_symmetry_Int_Tables_number   1
_chemical_formula_structural   BaYbCd2Au3
_chemical_formula_sum   'Ba2 Yb2 Cd4 Au6'
_cell_volume   361.98413110
_cell_formula_units_Z   2
loop_
 _symmetry_equiv_pos_site_id
 _symmetry_equiv_pos_as_xyz
  1  'x, y, z'
loop_
 _atom_site_type_symbol
 _atom_site_label
 _atom_site_symmetry_multiplicity
 _atom_site_fract_x
 _atom_site_fract_y
 _atom_site_fract_z
 _atom_site_occupancy
  Ba  Ba0  1  0.500000  0.000000  0.733479  1
  Ba  Ba1  1  0.000000  0.500000  0.266521  1
  Yb  Yb2  1  0.000000  0.000000  0.337522  1
  Yb  Yb3  1  0.500000  0.500000  0.662478  1
  Cd  Cd4  1  0.000000  0.313957  0.895414  1
  Cd  Cd5  1  0.500000  0.186043  0.104586  1
  Cd  Cd6  1  0.000000  0.686043  0.895414  1
  Cd  Cd7  1  0.500000  0.813957  0.104586  1
  Au  Au8  1  0.000000  0.732872  0.592351  1
  Au  Au9  1  0.500000  0.767128  0.407649  1
  Au  Au10  1  0.500000  0.500000  0.987978  1
  Au  Au11  1  0.000000  0.000000  0.012022  1
  Au  Au12  1  0.500000  0.232872  0.407649  1
  Au  Au13  1  0.000000  0.267128  0.592351  1
