# generated using pymatgen
data_Y12Al3Si5Rh8
_symmetry_space_group_name_H-M   'P 1'
_cell_length_a   5.58359700
_cell_length_b   7.89142227
_cell_length_c   13.23191889
_cell_angle_alpha   90.23188332
_cell_angle_beta   90.00000000
_cell_angle_gamma   90.00000000
_symmetry_Int_Tables_number   1
_chemical_formula_structural   Y12Al3Si5Rh8
_chemical_formula_sum   'Y12 Al3 Si5 Rh8'
_cell_volume   583.02693913
_cell_formula_units_Z   1
loop_
 _symmetry_equiv_pos_site_id
 _symmetry_equiv_pos_as_xyz
  1  'x, y, z'
loop_
 _atom_site_type_symbol
 _atom_site_label
 _atom_site_symmetry_multiplicity
 _atom_site_fract_x
 _atom_site_fract_y
 _atom_site_fract_z
 _atom_site_occupancy
  Y  Y0  1  0.143108  0.603690  0.103947  1
  Y  Y1  1  0.143108  0.896310  0.896053  1
  Y  Y2  1  0.860105  0.106865  0.397544  1
  Y  Y3  1  0.860105  0.393135  0.602456  1
  Y  Y4  1  0.857544  0.397232  0.896072  1
  Y  Y5  1  0.857544  0.102768  0.103928  1
  Y  Y6  1  0.141818  0.896888  0.603395  1
  Y  Y7  1  0.141818  0.603112  0.396605  1
  Y  Y8  1  0.368273  0.246364  0.251701  1
  Y  Y9  1  0.368273  0.253636  0.748299  1
  Y  Y10  1  0.632432  0.745908  0.251227  1
  Y  Y11  1  0.632432  0.754092  0.748773  1
  Al  Al12  1  0.375406  0.250000  0.000000  1
  Al  Al13  1  0.621986  0.750000  0.500000  1
  Al  Al14  1  0.624537  0.750000  0.000000  1
  Si  Si15  1  0.861797  0.392984  0.250545  1
  Si  Si16  1  0.861797  0.107016  0.749455  1
  Si  Si17  1  0.140176  0.891894  0.252085  1
  Si  Si18  1  0.140176  0.608106  0.747915  1
  Si  Si19  1  0.380798  0.250000  0.500000  1
  Rh  Rh20  1  0.640800  0.469873  0.094420  1
  Rh  Rh21  1  0.640800  0.030127  0.905580  1
  Rh  Rh22  1  0.360618  0.977528  0.407578  1
  Rh  Rh23  1  0.360618  0.522472  0.592422  1
  Rh  Rh24  1  0.357040  0.529489  0.905611  1
  Rh  Rh25  1  0.357040  0.970511  0.094389  1
  Rh  Rh26  1  0.634926  0.034142  0.592894  1
  Rh  Rh27  1  0.634926  0.465858  0.407106  1
