# generated using pymatgen
data_Tm4B4Ir5Ru5W2
_symmetry_space_group_name_H-M   'P 1'
_cell_length_a   9.73951646
_cell_length_b   9.70764405
_cell_length_c   3.04649300
_cell_angle_alpha   90.00000000
_cell_angle_beta   90.00000000
_cell_angle_gamma   89.97662053
_symmetry_Int_Tables_number   1
_chemical_formula_structural   Tm4B4Ir5Ru5W2
_chemical_formula_sum   'Tm4 B4 Ir5 Ru5 W2'
_cell_volume   288.03906202
_cell_formula_units_Z   1
loop_
 _symmetry_equiv_pos_site_id
 _symmetry_equiv_pos_as_xyz
  1  'x, y, z'
loop_
 _atom_site_type_symbol
 _atom_site_label
 _atom_site_symmetry_multiplicity
 _atom_site_fract_x
 _atom_site_fract_y
 _atom_site_fract_z
 _atom_site_occupancy
  Tm  Tm0  1  0.823735  0.674936  0.000000  1
  Tm  Tm1  1  0.174417  0.321393  0.000000  1
  Tm  Tm2  1  0.325297  0.828463  0.000000  1
  Tm  Tm3  1  0.675928  0.175068  0.000000  1
  B  B4  1  0.623373  0.886207  0.000000  1
  B  B5  1  0.376395  0.114488  0.000000  1
  B  B6  1  0.118028  0.616099  0.000000  1
  B  B7  1  0.877249  0.384040  0.000000  1
  Ir  Ir8  1  0.571531  0.721132  0.500000  1
  Ir  Ir9  1  0.429064  0.279027  0.500000  1
  Ir  Ir10  1  0.071741  0.778981  0.500000  1
  Ir  Ir11  1  0.929427  0.220833  0.500000  1
  Ir  Ir12  1  0.280089  0.571240  0.500000  1
  Ru  Ru13  1  0.720377  0.429036  0.500000  1
  Ru  Ru14  1  0.218050  0.070346  0.500000  1
  Ru  Ru15  1  0.782113  0.929350  0.500000  1
  Ru  Ru16  1  0.500351  0.000354  0.500000  1
  Ru  Ru17  1  0.000743  0.499653  0.500000  1
  W  W18  1  0.502600  0.499420  0.000000  1
  W  W19  1  0.999494  0.999933  0.000000  1
