# generated using pymatgen
data_Tb4Y(GaSb)2
_symmetry_space_group_name_H-M   'P 1'
_cell_length_a   8.68368774
_cell_length_b   8.68368797
_cell_length_c   7.95653500
_cell_angle_alpha   90.00000000
_cell_angle_beta   90.00000000
_cell_angle_gamma   125.43719662
_symmetry_Int_Tables_number   1
_chemical_formula_structural   Tb4Y(GaSb)2
_chemical_formula_sum   'Tb8 Y2 Ga4 Sb4'
_cell_volume   488.82969718
_cell_formula_units_Z   2
loop_
 _symmetry_equiv_pos_site_id
 _symmetry_equiv_pos_as_xyz
  1  'x, y, z'
loop_
 _atom_site_type_symbol
 _atom_site_label
 _atom_site_symmetry_multiplicity
 _atom_site_fract_x
 _atom_site_fract_y
 _atom_site_fract_z
 _atom_site_occupancy
  Tb  Tb0  1  0.038655  0.300816  0.332373  1
  Tb  Tb1  1  0.961345  0.699184  0.667627  1
  Tb  Tb2  1  0.461345  0.199184  0.832373  1
  Tb  Tb3  1  0.800816  0.538655  0.167627  1
  Tb  Tb4  1  0.538655  0.800816  0.167627  1
  Tb  Tb5  1  0.199184  0.461345  0.832373  1
  Tb  Tb6  1  0.699184  0.961345  0.667627  1
  Tb  Tb7  1  0.300816  0.038655  0.332373  1
  Y  Y8  1  0.000000  0.000000  0.000000  1
  Y  Y9  1  0.500000  0.500000  0.500000  1
  Ga  Ga10  1  0.375336  0.375336  0.124137  1
  Ga  Ga11  1  0.624664  0.624664  0.875863  1
  Ga  Ga12  1  0.124664  0.124664  0.624137  1
  Ga  Ga13  1  0.875336  0.875336  0.375863  1
  Sb  Sb14  1  0.795037  0.204963  0.000000  1
  Sb  Sb15  1  0.204963  0.795037  0.000000  1
  Sb  Sb16  1  0.704963  0.295037  0.500000  1
  Sb  Sb17  1  0.295037  0.704963  0.500000  1
