# generated using pymatgen
data_Hf6Co16Re2Si11P
_symmetry_space_group_name_H-M   'P 1'
_cell_length_a   12.13757754
_cell_length_b   12.09045433
_cell_length_c   3.68600100
_cell_angle_alpha   90.00000000
_cell_angle_beta   90.00000000
_cell_angle_gamma   119.87166101
_symmetry_Int_Tables_number   1
_chemical_formula_structural   Hf6Co16Re2Si11P
_chemical_formula_sum   'Hf6 Co16 Re2 Si11 P1'
_cell_volume   469.05191093
_cell_formula_units_Z   1
loop_
 _symmetry_equiv_pos_site_id
 _symmetry_equiv_pos_as_xyz
  1  'x, y, z'
loop_
 _atom_site_type_symbol
 _atom_site_label
 _atom_site_symmetry_multiplicity
 _atom_site_fract_x
 _atom_site_fract_y
 _atom_site_fract_z
 _atom_site_occupancy
  Hf  Hf0  1  0.810146  0.812032  0.500000  1
  Hf  Hf1  1  0.000000  0.177363  0.500000  1
  Hf  Hf2  1  0.337148  0.668632  0.000000  1
  Hf  Hf3  1  0.662852  0.331483  0.000000  1
  Hf  Hf4  1  0.000000  0.558251  0.000000  1
  Hf  Hf5  1  0.189854  0.001887  0.500000  1
  Co  Co6  1  0.624818  0.822470  0.000000  1
  Co  Co7  1  0.375182  0.197652  0.000000  1
  Co  Co8  1  0.000000  0.726611  0.500000  1
  Co  Co9  1  0.278982  0.277168  0.500000  1
  Co  Co10  1  0.875105  0.354244  0.500000  1
  Co  Co11  1  0.721018  0.998186  0.500000  1
  Co  Co12  1  0.820279  0.629593  0.000000  1
  Co  Co13  1  0.179721  0.809315  0.000000  1
  Co  Co14  1  0.359051  0.882004  0.500000  1
  Co  Co15  1  0.124895  0.479138  0.500000  1
  Co  Co16  1  0.640949  0.522953  0.500000  1
  Co  Co17  1  0.000000  0.994192  0.000000  1
  Co  Co18  1  0.517238  0.646292  0.500000  1
  Co  Co19  1  0.482762  0.129054  0.500000  1
  Co  Co20  1  0.197165  0.370798  0.000000  1
  Co  Co21  1  0.802835  0.173632  0.000000  1
  Re  Re22  1  0.438904  0.441145  0.000000  1
  Re  Re23  1  0.561096  0.002241  0.000000  1
  Si  Si24  1  0.000000  0.345550  0.000000  1
  Si  Si25  1  0.821405  0.515359  0.500000  1
  Si  Si26  1  0.686521  0.167879  0.500000  1
  Si  Si27  1  0.177695  0.174771  0.000000  1
  Si  Si28  1  0.636685  0.640681  0.000000  1
  Si  Si29  1  0.822305  0.997076  0.000000  1
  Si  Si30  1  0.517763  0.835185  0.500000  1
  Si  Si31  1  0.178595  0.693953  0.500000  1
  Si  Si32  1  0.363315  0.003996  0.000000  1
  Si  Si33  1  0.482237  0.317424  0.500000  1
  Si  Si34  1  0.313479  0.481357  0.500000  1
  P  P35  1  0.000000  0.820431  0.000000  1
