# generated using pymatgen
data_Ho6Co6Ni12As7P5
_symmetry_space_group_name_H-M   'P 1'
_cell_length_a   3.79057500
_cell_length_b   10.70922206
_cell_length_c   12.50911707
_cell_angle_alpha   90.01212235
_cell_angle_beta   90.00000000
_cell_angle_gamma   90.00000000
_symmetry_Int_Tables_number   1
_chemical_formula_structural   Ho6Co6Ni12As7P5
_chemical_formula_sum   'Ho6 Co6 Ni12 As7 P5'
_cell_volume   507.79645560
_cell_formula_units_Z   1
loop_
 _symmetry_equiv_pos_site_id
 _symmetry_equiv_pos_as_xyz
  1  'x, y, z'
loop_
 _atom_site_type_symbol
 _atom_site_label
 _atom_site_symmetry_multiplicity
 _atom_site_fract_x
 _atom_site_fract_y
 _atom_site_fract_z
 _atom_site_occupancy
  Ho  Ho0  1  0.000000  0.499505  0.517034  1
  Ho  Ho1  1  0.500000  0.001347  0.481712  1
  Ho  Ho2  1  0.500000  0.820069  0.205141  1
  Ho  Ho3  1  0.500000  0.186550  0.201970  1
  Ho  Ho4  1  0.000000  0.679838  0.796553  1
  Ho  Ho5  1  0.000000  0.319305  0.795524  1
  Co  Co6  1  0.000000  0.495962  0.980236  1
  Co  Co7  1  0.500000  0.001663  0.025323  1
  Co  Co8  1  0.500000  0.337085  0.997869  1
  Co  Co9  1  0.500000  0.661110  0.993995  1
  Co  Co10  1  0.000000  0.166785  0.010959  1
  Co  Co11  1  0.000000  0.838283  0.007998  1
  Ni  Ni12  1  0.500000  0.313774  0.420189  1
  Ni  Ni13  1  0.500000  0.688647  0.422718  1
  Ni  Ni14  1  0.000000  0.188712  0.576968  1
  Ni  Ni15  1  0.000000  0.811382  0.577972  1
  Ni  Ni16  1  0.500000  0.883312  0.708430  1
  Ni  Ni17  1  0.500000  0.117205  0.707997  1
  Ni  Ni18  1  0.000000  0.615445  0.292794  1
  Ni  Ni19  1  0.000000  0.380891  0.280503  1
  Ni  Ni20  1  0.500000  0.490407  0.160053  1
  Ni  Ni21  1  0.000000  0.002090  0.838334  1
  Ni  Ni22  1  0.500000  0.499316  0.710408  1
  Ni  Ni23  1  0.000000  0.000185  0.291482  1
  As  As24  1  0.500000  0.315931  0.612940  1
  As  As25  1  0.500000  0.683444  0.614598  1
  As  As26  1  0.000000  0.185949  0.384434  1
  As  As27  1  0.000000  0.815865  0.386667  1
  As  As28  1  0.500000  0.847728  0.894850  1
  As  As29  1  0.500000  0.153191  0.894973  1
  As  As30  1  0.000000  0.652114  0.107177  1
  P  P31  1  0.500000  0.498578  0.883808  1
  P  P32  1  0.000000  0.001165  0.119107  1
  P  P33  1  0.000000  0.346429  0.101125  1
  P  P34  1  0.500000  0.500425  0.340827  1
  P  P35  1  0.000000  0.000316  0.657333  1
