# generated using pymatgen
data_Y2TaNb(SnPt)4
_symmetry_space_group_name_H-M   'P 1'
_cell_length_a   6.46058906
_cell_length_b   4.54774800
_cell_length_c   9.12244309
_cell_angle_alpha   90.00000000
_cell_angle_beta   89.98385890
_cell_angle_gamma   90.00000000
_symmetry_Int_Tables_number   1
_chemical_formula_structural   Y2TaNb(SnPt)4
_chemical_formula_sum   'Y2 Ta1 Nb1 Sn4 Pt4'
_cell_volume   268.02768480
_cell_formula_units_Z   1
loop_
 _symmetry_equiv_pos_site_id
 _symmetry_equiv_pos_as_xyz
  1  'x, y, z'
loop_
 _atom_site_type_symbol
 _atom_site_label
 _atom_site_symmetry_multiplicity
 _atom_site_fract_x
 _atom_site_fract_y
 _atom_site_fract_z
 _atom_site_occupancy
  Y  Y0  1  0.004111  0.000000  0.376416  1
  Y  Y1  1  0.504280  0.500000  0.623562  1
  Ta  Ta2  1  0.996863  0.000000  0.877955  1
  Nb  Nb3  1  0.496891  0.500000  0.122415  1
  Sn  Sn4  1  0.984151  0.500000  0.125307  1
  Sn  Sn5  1  0.511556  0.000000  0.371816  1
  Sn  Sn6  1  0.011239  0.500000  0.628029  1
  Sn  Sn7  1  0.484221  0.000000  0.874789  1
  Pt  Pt8  1  0.736160  0.000000  0.109388  1
  Pt  Pt9  1  0.268301  0.500000  0.355097  1
  Pt  Pt10  1  0.769332  0.000000  0.645932  1
  Pt  Pt11  1  0.232893  0.500000  0.889290  1
