# generated using pymatgen
data_Th6Al19Si5Os8
_symmetry_space_group_name_H-M   'P 1'
_cell_length_a   8.80575200
_cell_length_b   8.80283025
_cell_length_c   9.73759000
_cell_angle_alpha   90.00000000
_cell_angle_beta   90.00000000
_cell_angle_gamma   120.01098011
_symmetry_Int_Tables_number   1
_chemical_formula_structural   Th6Al19Si5Os8
_chemical_formula_sum   'Th6 Al19 Si5 Os8'
_cell_volume   653.61623578
_cell_formula_units_Z   1
loop_
 _symmetry_equiv_pos_site_id
 _symmetry_equiv_pos_as_xyz
  1  'x, y, z'
loop_
 _atom_site_type_symbol
 _atom_site_label
 _atom_site_symmetry_multiplicity
 _atom_site_fract_x
 _atom_site_fract_y
 _atom_site_fract_z
 _atom_site_occupancy
  Th  Th0  1  0.193606  0.387212  0.250000  1
  Th  Th1  1  0.804742  0.609484  0.750000  1
  Th  Th2  1  0.613220  0.807907  0.250000  1
  Th  Th3  1  0.392810  0.196140  0.750000  1
  Th  Th4  1  0.194687  0.807907  0.250000  1
  Th  Th5  1  0.803328  0.196140  0.750000  1
  Al  Al6  1  0.163481  0.326960  0.575717  1
  Al  Al7  1  0.835097  0.670195  0.424488  1
  Al  Al8  1  0.672590  0.836764  0.573994  1
  Al  Al9  1  0.835097  0.670195  0.075512  1
  Al  Al10  1  0.327818  0.164750  0.425890  1
  Al  Al11  1  0.163481  0.326960  0.924283  1
  Al  Al12  1  0.164175  0.836764  0.573994  1
  Al  Al13  1  0.327818  0.164750  0.074110  1
  Al  Al14  1  0.836931  0.164750  0.425890  1
  Al  Al15  1  0.672590  0.836764  0.926006  1
  Al  Al16  1  0.836931  0.164750  0.074110  1
  Al  Al17  1  0.164175  0.836764  0.926006  1
  Al  Al18  1  0.434761  0.869521  0.750000  1
  Al  Al19  1  0.866808  0.429527  0.250000  1
  Al  Al20  1  0.132311  0.566400  0.750000  1
  Al  Al21  1  0.562719  0.429527  0.250000  1
  Al  Al22  1  0.434089  0.566400  0.750000  1
  Al  Al23  1  0.000302  0.000605  0.250000  1
  Al  Al24  1  0.000971  0.001940  0.750000  1
  Si  Si25  1  0.332868  0.665737  0.027648  1
  Si  Si26  1  0.667278  0.334554  0.969077  1
  Si  Si27  1  0.667278  0.334554  0.530923  1
  Si  Si28  1  0.332868  0.665737  0.472352  1
  Si  Si29  1  0.565454  0.130909  0.250000  1
  Os  Os30  1  0.499295  0.998590  0.009613  1
  Os  Os31  1  0.002408  0.500851  0.003387  1
  Os  Os32  1  0.499295  0.998590  0.490387  1
  Os  Os33  1  0.498443  0.500851  0.003387  1
  Os  Os34  1  0.002408  0.500851  0.496613  1
  Os  Os35  1  0.498443  0.500851  0.496613  1
  Os  Os36  1  0.999713  0.999427  0.999644  1
  Os  Os37  1  0.999713  0.999427  0.500356  1
