# generated using pymatgen
data_K3Rb7(As2Pt)2
_symmetry_space_group_name_H-M   'P 1'
_cell_length_a   5.90476600
_cell_length_b   5.90476655
_cell_length_c   19.98903400
_cell_angle_alpha   90.00000000
_cell_angle_beta   90.00000000
_cell_angle_gamma   119.99999689
_symmetry_Int_Tables_number   1
_chemical_formula_structural   K3Rb7(As2Pt)2
_chemical_formula_sum   'K3 Rb7 As4 Pt2'
_cell_volume   603.57032063
_cell_formula_units_Z   1
loop_
 _symmetry_equiv_pos_site_id
 _symmetry_equiv_pos_as_xyz
  1  'x, y, z'
loop_
 _atom_site_type_symbol
 _atom_site_label
 _atom_site_symmetry_multiplicity
 _atom_site_fract_x
 _atom_site_fract_y
 _atom_site_fract_z
 _atom_site_occupancy
  K  K0  1  0.000000  0.000000  0.654242  1
  K  K1  1  0.000000  0.000000  0.844589  1
  K  K2  1  0.000000  0.000000  0.346866  1
  Rb  Rb3  1  0.333333  0.666667  0.549263  1
  Rb  Rb4  1  0.666667  0.333333  0.048712  1
  Rb  Rb5  1  0.666667  0.333333  0.450761  1
  Rb  Rb6  1  0.333333  0.666667  0.949680  1
  Rb  Rb7  1  0.000000  0.000000  0.155908  1
  Rb  Rb8  1  0.333333  0.666667  0.749497  1
  Rb  Rb9  1  0.666667  0.333333  0.251230  1
  As  As10  1  0.333333  0.666667  0.372015  1
  As  As11  1  0.666667  0.333333  0.871639  1
  As  As12  1  0.666667  0.333333  0.627839  1
  As  As13  1  0.333333  0.666667  0.127730  1
  Pt  Pt14  1  0.333333  0.666667  0.250211  1
  Pt  Pt15  1  0.666667  0.333333  0.749819  1
