# generated using pymatgen
data_YHo2Si6(Pd7Pt3)2
_symmetry_space_group_name_H-M   'P 1'
_cell_length_a   8.71344912
_cell_length_b   8.73041717
_cell_length_c   8.73051000
_cell_angle_alpha   59.99957507
_cell_angle_beta   59.93616970
_cell_angle_gamma   59.93592756
_symmetry_Int_Tables_number   1
_chemical_formula_structural   YHo2Si6(Pd7Pt3)2
_chemical_formula_sum   'Y1 Ho2 Si6 Pd14 Pt6'
_cell_volume   469.16741698
_cell_formula_units_Z   1
loop_
 _symmetry_equiv_pos_site_id
 _symmetry_equiv_pos_as_xyz
  1  'x, y, z'
loop_
 _atom_site_type_symbol
 _atom_site_label
 _atom_site_symmetry_multiplicity
 _atom_site_fract_x
 _atom_site_fract_y
 _atom_site_fract_z
 _atom_site_occupancy
  Y  Y0  1  0.251025  0.249653  0.249659  1
  Ho  Ho1  1  0.748959  0.750362  0.750346  1
  Ho  Ho2  1  0.999993  0.999980  0.000020  1
  Si  Si3  1  0.730338  0.268648  0.268651  1
  Si  Si4  1  0.269655  0.731353  0.731346  1
  Si  Si5  1  0.269655  0.731353  0.267645  1
  Si  Si6  1  0.730338  0.268648  0.732362  1
  Si  Si7  1  0.269657  0.267644  0.731350  1
  Si  Si8  1  0.730336  0.732365  0.268647  1
  Pd  Pd9  1  0.852496  0.382501  0.382501  1
  Pd  Pd10  1  0.146620  0.617794  0.617793  1
  Pd  Pd11  1  0.344173  0.000015  0.000014  1
  Pd  Pd12  1  0.655930  0.999882  0.999879  1
  Pd  Pd13  1  0.999941  0.344657  0.655456  1
  Pd  Pd14  1  0.999946  0.655453  0.344655  1
  Pd  Pd15  1  0.999943  0.344657  0.999943  1
  Pd  Pd16  1  0.655925  0.999883  0.344310  1
  Pd  Pd17  1  0.999944  0.655454  0.999948  1
  Pd  Pd18  1  0.344178  0.000016  0.655792  1
  Pd  Pd19  1  0.999942  0.999949  0.344656  1
  Pd  Pd20  1  0.999941  0.999947  0.655454  1
  Pd  Pd21  1  0.655931  0.344310  0.999880  1
  Pd  Pd22  1  0.344172  0.655795  0.000015  1
  Pt  Pt23  1  0.381598  0.384699  0.384707  1
  Pt  Pt24  1  0.618722  0.615628  0.615622  1
  Pt  Pt25  1  0.381602  0.384705  0.848989  1
  Pt  Pt26  1  0.381598  0.848992  0.384710  1
  Pt  Pt27  1  0.618720  0.615621  0.150034  1
  Pt  Pt28  1  0.618722  0.150036  0.615616  1
