# generated using pymatgen
data_Tm12Fe4AgSn
_symmetry_space_group_name_H-M   'P 1'
_cell_length_a   8.25596155
_cell_length_b   8.25596094
_cell_length_c   8.25586718
_cell_angle_alpha   106.68996755
_cell_angle_beta   110.67484901
_cell_angle_gamma   111.08474974
_symmetry_Int_Tables_number   1
_chemical_formula_structural   Tm12Fe4AgSn
_chemical_formula_sum   'Tm12 Fe4 Ag1 Sn1'
_cell_volume   432.41916657
_cell_formula_units_Z   1
loop_
 _symmetry_equiv_pos_site_id
 _symmetry_equiv_pos_as_xyz
  1  'x, y, z'
loop_
 _atom_site_type_symbol
 _atom_site_label
 _atom_site_symmetry_multiplicity
 _atom_site_fract_x
 _atom_site_fract_y
 _atom_site_fract_z
 _atom_site_occupancy
  Tm  Tm0  1  0.709042  0.277425  0.986467  1
  Tm  Tm1  1  0.291027  0.722681  0.013707  1
  Tm  Tm2  1  0.709021  0.722576  0.431603  1
  Tm  Tm3  1  0.291013  0.277321  0.568327  1
  Tm  Tm4  1  0.800283  0.110841  0.310572  1
  Tm  Tm5  1  0.800257  0.489656  0.689411  1
  Tm  Tm6  1  0.199752  0.889157  0.689413  1
  Tm  Tm7  1  0.199727  0.510287  0.310569  1
  Tm  Tm8  1  0.601854  0.790643  0.811236  1
  Tm  Tm9  1  0.979378  0.790663  0.188741  1
  Tm  Tm10  1  0.020597  0.209383  0.811237  1
  Tm  Tm11  1  0.398082  0.209362  0.188742  1
  Fe  Fe12  1  0.885291  0.500001  0.385287  1
  Fe  Fe13  1  0.114885  0.499996  0.614884  1
  Fe  Fe14  1  0.999971  0.108698  0.108671  1
  Fe  Fe15  1  0.999964  0.891329  0.891294  1
  Ag  Ag16  1  0.499895  0.499996  0.999888  1
  Sn  Sn17  1  0.499956  0.999986  0.499947  1
