# generated using pymatgen
data_Th2VB8Mo
_symmetry_space_group_name_H-M   'P 1'
_cell_length_a   6.08976464
_cell_length_b   6.08976518
_cell_length_c   3.73518500
_cell_angle_alpha   90.00000000
_cell_angle_beta   90.00000000
_cell_angle_gamma   104.28252158
_symmetry_Int_Tables_number   1
_chemical_formula_structural   Th2VB8Mo
_chemical_formula_sum   'Th2 V1 B8 Mo1'
_cell_volume   134.23870305
_cell_formula_units_Z   1
loop_
 _symmetry_equiv_pos_site_id
 _symmetry_equiv_pos_as_xyz
  1  'x, y, z'
loop_
 _atom_site_type_symbol
 _atom_site_label
 _atom_site_symmetry_multiplicity
 _atom_site_fract_x
 _atom_site_fract_y
 _atom_site_fract_z
 _atom_site_occupancy
  Th  Th0  1  0.303053  0.698845  0.000000  1
  Th  Th1  1  0.698845  0.303053  0.000000  1
  V  V2  1  0.834226  0.834226  0.000000  1
  B  B3  1  0.088569  0.908598  0.500000  1
  B  B4  1  0.908598  0.088569  0.500000  1
  B  B5  1  0.630622  0.630622  0.500000  1
  B  B6  1  0.370869  0.370869  0.500000  1
  B  B7  1  0.066190  0.377172  0.500000  1
  B  B8  1  0.932816  0.623386  0.500000  1
  B  B9  1  0.377172  0.066190  0.500000  1
  B  B10  1  0.623386  0.932816  0.500000  1
  Mo  Mo11  1  0.165653  0.165653  0.000000  1
