# generated using pymatgen
data_Na8Sr4TiSnAs8
_symmetry_space_group_name_H-M   'P 1'
_cell_length_a   9.72687318
_cell_length_b   9.74336629
_cell_length_c   7.60114707
_cell_angle_alpha   89.74017754
_cell_angle_beta   89.47618422
_cell_angle_gamma   120.16683619
_symmetry_Int_Tables_number   1
_chemical_formula_structural   Na8Sr4TiSnAs8
_chemical_formula_sum   'Na8 Sr4 Ti1 Sn1 As8'
_cell_volume   622.75484446
_cell_formula_units_Z   1
loop_
 _symmetry_equiv_pos_site_id
 _symmetry_equiv_pos_as_xyz
  1  'x, y, z'
loop_
 _atom_site_type_symbol
 _atom_site_label
 _atom_site_symmetry_multiplicity
 _atom_site_fract_x
 _atom_site_fract_y
 _atom_site_fract_z
 _atom_site_occupancy
  Na  Na0  1  0.466696  0.928403  0.380000  1
  Na  Na1  1  0.945241  0.473889  0.888871  1
  Na  Na2  1  0.868666  0.731827  0.195887  1
  Na  Na3  1  0.277608  0.130997  0.224798  1
  Na  Na4  1  0.855632  0.133699  0.215356  1
  Na  Na5  1  0.138618  0.296703  0.736263  1
  Na  Na6  1  0.716479  0.860876  0.705662  1
  Na  Na7  1  0.139330  0.845060  0.723816  1
  Sr  Sr8  1  0.050963  0.529739  0.389019  1
  Sr  Sr9  1  0.480159  0.532658  0.382404  1
  Sr  Sr10  1  0.530419  0.054137  0.883212  1
  Sr  Sr11  1  0.532776  0.479412  0.881582  1
  Ti  Ti12  1  0.328897  0.664726  0.998853  1
  Sn  Sn13  1  0.658802  0.322709  0.503059  1
  As  As14  1  0.196638  0.386374  0.114450  1
  As  As15  1  0.615179  0.807698  0.094150  1
  As  As16  1  0.196768  0.809890  0.103870  1
  As  As17  1  0.813919  0.630557  0.593181  1
  As  As18  1  0.363150  0.186238  0.619970  1
  As  As19  1  0.820314  0.189350  0.606242  1
  As  As20  1  0.666150  0.340115  0.154931  1
  As  As21  1  0.337611  0.664958  0.669020  1
