# generated using pymatgen
data_La4HoSn2Hg
_symmetry_space_group_name_H-M   'P 1'
_cell_length_a   9.47193753
_cell_length_b   9.47197331
_cell_length_c   9.47193900
_cell_angle_alpha   96.04255457
_cell_angle_beta   96.04487069
_cell_angle_gamma   142.13154423
_symmetry_Int_Tables_number   1
_chemical_formula_structural   La4HoSn2Hg
_chemical_formula_sum   'La8 Ho2 Sn4 Hg2'
_cell_volume   493.42729826
_cell_formula_units_Z   2
loop_
 _symmetry_equiv_pos_site_id
 _symmetry_equiv_pos_as_xyz
  1  'x, y, z'
loop_
 _atom_site_type_symbol
 _atom_site_label
 _atom_site_symmetry_multiplicity
 _atom_site_fract_x
 _atom_site_fract_y
 _atom_site_fract_z
 _atom_site_occupancy
  La  La0  1  0.910181  0.225100  0.135263  1
  La  La1  1  0.225144  0.089846  0.314926  1
  La  La2  1  0.774856  0.910154  0.685074  1
  La  La3  1  0.089819  0.774900  0.864737  1
  La  La4  1  0.725080  0.410154  0.135298  1
  La  La5  1  0.274920  0.589846  0.864702  1
  La  La6  1  0.589837  0.725100  0.314918  1
  La  La7  1  0.410163  0.274900  0.685082  1
  Ho  Ho8  1  0.750002  0.250000  0.500002  1
  Ho  Ho9  1  0.249998  0.750000  0.499998  1
  Sn  Sn10  1  0.845860  0.654118  0.499998  1
  Sn  Sn11  1  0.654120  0.154118  0.808258  1
  Sn  Sn12  1  0.345880  0.845882  0.191742  1
  Sn  Sn13  1  0.154140  0.345882  0.500002  1
  Hg  Hg14  1  0.750014  0.750000  0.000014  1
  Hg  Hg15  1  0.249986  0.250000  0.999986  1
