# generated using pymatgen
data_CaDy6FeCl12
_symmetry_space_group_name_H-M   'P 1'
_cell_length_a   8.62401657
_cell_length_b   8.94319099
_cell_length_c   8.89503159
_cell_angle_alpha   107.36017892
_cell_angle_beta   106.35430413
_cell_angle_gamma   106.35212254
_symmetry_Int_Tables_number   1
_chemical_formula_structural   CaDy6FeCl12
_chemical_formula_sum   'Ca1 Dy6 Fe1 Cl12'
_cell_volume   576.07502461
_cell_formula_units_Z   1
loop_
 _symmetry_equiv_pos_site_id
 _symmetry_equiv_pos_as_xyz
  1  'x, y, z'
loop_
 _atom_site_type_symbol
 _atom_site_label
 _atom_site_symmetry_multiplicity
 _atom_site_fract_x
 _atom_site_fract_y
 _atom_site_fract_z
 _atom_site_occupancy
  Ca  Ca0  1  0.500003  0.500012  0.499998  1
  Dy  Dy1  1  0.297069  0.099494  0.022276  1
  Dy  Dy2  1  0.019557  0.320110  0.110372  1
  Dy  Dy3  1  0.111199  0.025065  0.320414  1
  Dy  Dy4  1  0.888828  0.974939  0.679613  1
  Dy  Dy5  1  0.980449  0.679871  0.889621  1
  Dy  Dy6  1  0.702924  0.900475  0.977726  1
  Fe  Fe7  1  0.999979  0.999869  0.000068  1
  Cl  Cl8  1  0.676935  0.211622  0.068707  1
  Cl  Cl9  1  0.369653  0.447463  0.159638  1
  Cl  Cl10  1  0.073033  0.682219  0.213937  1
  Cl  Cl11  1  0.784368  0.928168  0.316122  1
  Cl  Cl12  1  0.455920  0.162062  0.371656  1
  Cl  Cl13  1  0.155372  0.372415  0.455227  1
  Cl  Cl14  1  0.844623  0.627623  0.544747  1
  Cl  Cl15  1  0.544091  0.837979  0.628331  1
  Cl  Cl16  1  0.215616  0.071859  0.683879  1
  Cl  Cl17  1  0.926967  0.317772  0.786051  1
  Cl  Cl18  1  0.630335  0.552566  0.840339  1
  Cl  Cl19  1  0.323081  0.788418  0.931276  1
