# generated using pymatgen
data_Tb6ScNb3(ReN4)6
_symmetry_space_group_name_H-M   'P 1'
_cell_length_a   11.13248472
_cell_length_b   11.22212994
_cell_length_c   11.13248416
_cell_angle_alpha   109.63441954
_cell_angle_beta   109.30752083
_cell_angle_gamma   109.63443028
_symmetry_Int_Tables_number   1
_chemical_formula_structural   Tb6ScNb3(ReN4)6
_chemical_formula_sum   'Tb12 Sc2 Nb6 Re12 N48'
_cell_volume   1068.46157883
_cell_formula_units_Z   2
loop_
 _symmetry_equiv_pos_site_id
 _symmetry_equiv_pos_as_xyz
  1  'x, y, z'
loop_
 _atom_site_type_symbol
 _atom_site_label
 _atom_site_symmetry_multiplicity
 _atom_site_fract_x
 _atom_site_fract_y
 _atom_site_fract_z
 _atom_site_occupancy
  Tb  Tb0  1  0.374885  0.750000  0.125115  1
  Tb  Tb1  1  0.250230  0.375115  0.125115  1
  Tb  Tb2  1  0.374885  0.124885  0.249770  1
  Tb  Tb3  1  0.873964  0.623964  0.247929  1
  Tb  Tb4  1  0.747929  0.123964  0.373964  1
  Tb  Tb5  1  0.126036  0.250000  0.373964  1
  Tb  Tb6  1  0.873964  0.750000  0.626037  1
  Tb  Tb7  1  0.252071  0.876036  0.626036  1
  Tb  Tb8  1  0.126036  0.376036  0.752071  1
  Tb  Tb9  1  0.625116  0.875115  0.750230  1
  Tb  Tb10  1  0.625115  0.250000  0.874885  1
  Tb  Tb11  1  0.749770  0.624886  0.874885  1
  Sc  Sc12  1  0.000000  0.000000  0.500000  1
  Sc  Sc13  1  0.000000  0.500000  0.500000  1
  Nb  Nb14  1  0.000000  0.000000  0.000000  1
  Nb  Nb15  1  0.500000  0.000000  0.000000  1
  Nb  Nb16  1  0.000000  0.500000  0.000000  1
  Nb  Nb17  1  0.500000  0.500000  0.000000  1
  Nb  Nb18  1  0.500000  0.000000  0.500000  1
  Nb  Nb19  1  0.500000  0.500000  0.500000  1
  Re  Re20  1  0.877044  0.252111  0.126417  1
  Re  Re21  1  0.749373  0.874305  0.126417  1
  Re  Re22  1  0.626418  0.374305  0.249373  1
  Re  Re23  1  0.122956  0.875068  0.249372  1
  Re  Re24  1  0.250627  0.624933  0.377044  1
  Re  Re25  1  0.626417  0.752112  0.377044  1
  Re  Re26  1  0.373583  0.247888  0.622957  1
  Re  Re27  1  0.749373  0.375068  0.622956  1
  Re  Re28  1  0.877044  0.124932  0.750627  1
  Re  Re29  1  0.373583  0.625695  0.750627  1
  Re  Re30  1  0.250626  0.125695  0.873583  1
  Re  Re31  1  0.122956  0.747888  0.873583  1
  N  N32  1  0.312068  0.898550  0.017790  1
  N  N33  1  0.205723  0.119241  0.017791  1
  N  N34  1  0.881777  0.403074  0.087152  1
  N  N35  1  0.705375  0.684078  0.087152  1
  N  N36  1  0.617747  0.411496  0.097689  1
  N  N37  1  0.979942  0.686193  0.097689  1
  N  N38  1  0.020058  0.206251  0.117748  1
  N  N39  1  0.597688  0.911495  0.117747  1
  N  N40  1  0.205722  0.586481  0.187932  1
  N  N41  1  0.482210  0.601450  0.187932  1
  N  N42  1  0.118224  0.021298  0.205376  1
  N  N43  1  0.587152  0.184078  0.205375  1
  N  N44  1  0.312068  0.913519  0.294278  1
  N  N45  1  0.482210  0.380760  0.294278  1
  N  N46  1  0.908921  0.286285  0.309112  1
  N  N47  1  0.900191  0.022828  0.309112  1
  N  N48  1  0.294625  0.478703  0.381777  1
  N  N49  1  0.587152  0.903074  0.381777  1
  N  N50  1  0.809112  0.522829  0.400192  1
  N  N51  1  0.091079  0.877363  0.400191  1
  N  N52  1  0.099809  0.622637  0.408921  1
  N  N53  1  0.809111  0.786284  0.408921  1
  N  N54  1  0.597689  0.186193  0.479943  1
  N  N55  1  0.382253  0.293750  0.479943  1
  N  N56  1  0.617746  0.706250  0.520057  1
  N  N57  1  0.402312  0.813807  0.520058  1
  N  N58  1  0.190888  0.213715  0.591079  1
  N  N59  1  0.900191  0.377363  0.591079  1
  N  N60  1  0.908920  0.122637  0.599808  1
  N  N61  1  0.190888  0.477172  0.599809  1
  N  N62  1  0.412848  0.096926  0.618223  1
  N  N63  1  0.705375  0.521297  0.618222  1
  N  N64  1  0.091079  0.713715  0.690888  1
  N  N65  1  0.099809  0.977171  0.690888  1
  N  N66  1  0.517790  0.619239  0.705722  1
  N  N67  1  0.687932  0.086481  0.705722  1
  N  N68  1  0.881777  0.978703  0.794625  1
  N  N69  1  0.412848  0.815921  0.794624  1
  N  N70  1  0.517791  0.398551  0.812068  1
  N  N71  1  0.794277  0.413519  0.812067  1
  N  N72  1  0.402311  0.088504  0.882253  1
  N  N73  1  0.979943  0.793750  0.882253  1
  N  N74  1  0.020057  0.313807  0.902311  1
  N  N75  1  0.382253  0.588504  0.902311  1
  N  N76  1  0.294625  0.315922  0.912848  1
  N  N77  1  0.118223  0.596925  0.912847  1
  N  N78  1  0.687932  0.101450  0.982209  1
  N  N79  1  0.794278  0.880760  0.982210  1
