# generated using pymatgen
data_Dy13Th7(Bi2Os)4
_symmetry_space_group_name_H-M   'P 1'
_cell_length_a   8.25172343
_cell_length_b   8.85178876
_cell_length_c   12.66808534
_cell_angle_alpha   90.09825376
_cell_angle_beta   89.93768000
_cell_angle_gamma   89.97050700
_symmetry_Int_Tables_number   1
_chemical_formula_structural   Dy13Th7(Bi2Os)4
_chemical_formula_sum   'Dy13 Th7 Bi8 Os4'
_cell_volume   925.30675291
_cell_formula_units_Z   1
loop_
 _symmetry_equiv_pos_site_id
 _symmetry_equiv_pos_as_xyz
  1  'x, y, z'
loop_
 _atom_site_type_symbol
 _atom_site_label
 _atom_site_symmetry_multiplicity
 _atom_site_fract_x
 _atom_site_fract_y
 _atom_site_fract_z
 _atom_site_occupancy
  Dy  Dy0  1  0.839936  0.748139  0.795946  1
  Dy  Dy1  1  0.162182  0.249510  0.206293  1
  Dy  Dy2  1  0.337885  0.249492  0.706483  1
  Dy  Dy3  1  0.662959  0.749457  0.292795  1
  Dy  Dy4  1  0.379378  0.750349  0.699644  1
  Dy  Dy5  1  0.623770  0.250124  0.301230  1
  Dy  Dy6  1  0.878475  0.251308  0.801539  1
  Dy  Dy7  1  0.124541  0.747256  0.197463  1
  Dy  Dy8  1  0.948675  0.749259  0.499650  1
  Dy  Dy9  1  0.050542  0.250146  0.500613  1
  Dy  Dy10  1  0.444176  0.252622  0.000197  1
  Dy  Dy11  1  0.550475  0.750158  0.999887  1
  Dy  Dy12  1  0.178811  0.547234  0.932464  1
  Th  Th13  1  0.684036  0.044675  0.562645  1
  Th  Th14  1  0.315345  0.955145  0.437650  1
  Th  Th15  1  0.182108  0.957990  0.936936  1
  Th  Th16  1  0.316960  0.544449  0.436274  1
  Th  Th17  1  0.814599  0.043424  0.062354  1
  Th  Th18  1  0.682941  0.455442  0.564838  1
  Th  Th19  1  0.824671  0.456650  0.061255  1
  Bi  Bi20  1  0.567107  0.488379  0.826896  1
  Bi  Bi21  1  0.431476  0.511452  0.173526  1
  Bi  Bi22  1  0.073254  0.512756  0.675284  1
  Bi  Bi23  1  0.428385  0.987607  0.174534  1
  Bi  Bi24  1  0.929211  0.487067  0.325634  1
  Bi  Bi25  1  0.572231  0.013222  0.825878  1
  Bi  Bi26  1  0.929718  0.011876  0.325446  1
  Bi  Bi27  1  0.070999  0.986696  0.674390  1
  Os  Os28  1  0.573547  0.750438  0.512168  1
  Os  Os29  1  0.426370  0.249636  0.486569  1
  Os  Os30  1  0.070625  0.243758  0.989550  1
  Os  Os31  1  0.924611  0.754286  0.013967  1
