# generated using pymatgen
data_La3Al12(IrOs)2
_symmetry_space_group_name_H-M   'P 1'
_cell_length_a   8.95473300
_cell_length_b   8.97940836
_cell_length_c   9.71896374
_cell_angle_alpha   89.89903625
_cell_angle_beta   90.00000000
_cell_angle_gamma   119.90913497
_symmetry_Int_Tables_number   1
_chemical_formula_structural   La3Al12(IrOs)2
_chemical_formula_sum   'La6 Al24 Ir4 Os4'
_cell_volume   677.40278689
_cell_formula_units_Z   2
loop_
 _symmetry_equiv_pos_site_id
 _symmetry_equiv_pos_as_xyz
  1  'x, y, z'
loop_
 _atom_site_type_symbol
 _atom_site_label
 _atom_site_symmetry_multiplicity
 _atom_site_fract_x
 _atom_site_fract_y
 _atom_site_fract_z
 _atom_site_occupancy
  La  La0  1  0.191234  0.382468  0.251791  1
  La  La1  1  0.808766  0.617532  0.748209  1
  La  La2  1  0.618243  0.807920  0.250893  1
  La  La3  1  0.381757  0.192080  0.749107  1
  La  La4  1  0.189678  0.807920  0.250893  1
  La  La5  1  0.810322  0.192080  0.749107  1
  Al  Al6  1  0.333479  0.666960  0.009649  1
  Al  Al7  1  0.666521  0.333040  0.990351  1
  Al  Al8  1  0.667230  0.334459  0.508627  1
  Al  Al9  1  0.332770  0.665541  0.491373  1
  Al  Al10  1  0.163301  0.326601  0.575087  1
  Al  Al11  1  0.836699  0.673399  0.424913  1
  Al  Al12  1  0.673605  0.835481  0.575279  1
  Al  Al13  1  0.837037  0.674074  0.075416  1
  Al  Al14  1  0.326395  0.164519  0.424721  1
  Al  Al15  1  0.162963  0.325926  0.924584  1
  Al  Al16  1  0.161877  0.835481  0.575279  1
  Al  Al17  1  0.325630  0.162939  0.075628  1
  Al  Al18  1  0.838123  0.164519  0.424721  1
  Al  Al19  1  0.674370  0.837061  0.924372  1
  Al  Al20  1  0.837308  0.162939  0.075628  1
  Al  Al21  1  0.162692  0.837061  0.924372  1
  Al  Al22  1  0.562879  0.125758  0.249065  1
  Al  Al23  1  0.437121  0.874242  0.750935  1
  Al  Al24  1  0.873681  0.436887  0.250177  1
  Al  Al25  1  0.126319  0.563113  0.749823  1
  Al  Al26  1  0.563206  0.436887  0.250177  1
  Al  Al27  1  0.436794  0.563113  0.749823  1
  Al  Al28  1  0.999963  0.999926  0.250070  1
  Al  Al29  1  0.000037  0.000074  0.749930  1
  Ir  Ir30  1  0.500000  0.000000  0.000000  1
  Ir  Ir31  1  0.000000  0.500000  0.000000  1
  Ir  Ir32  1  0.500000  0.000000  0.500000  1
  Ir  Ir33  1  0.500000  0.500000  0.000000  1
  Os  Os34  1  0.000000  0.500000  0.500000  1
  Os  Os35  1  0.500000  0.500000  0.500000  1
  Os  Os36  1  0.000000  0.000000  0.000000  1
  Os  Os37  1  0.000000  0.000000  0.500000  1
