# generated using pymatgen
data_La10Pr6Cd4Ir3Au
_symmetry_space_group_name_H-M   'P 1'
_cell_length_a   10.13752497
_cell_length_b   10.13752313
_cell_length_c   10.13752418
_cell_angle_alpha   60.18231662
_cell_angle_beta   60.18231941
_cell_angle_gamma   60.18231879
_symmetry_Int_Tables_number   1
_chemical_formula_structural   La10Pr6Cd4Ir3Au
_chemical_formula_sum   'La10 Pr6 Cd4 Ir3 Au1'
_cell_volume   739.72473096
_cell_formula_units_Z   1
loop_
 _symmetry_equiv_pos_site_id
 _symmetry_equiv_pos_as_xyz
  1  'x, y, z'
loop_
 _atom_site_type_symbol
 _atom_site_label
 _atom_site_symmetry_multiplicity
 _atom_site_fract_x
 _atom_site_fract_y
 _atom_site_fract_z
 _atom_site_occupancy
  La  La0  1  0.345021  0.345021  0.345021  1
  La  La1  1  0.355537  0.355537  0.948403  1
  La  La2  1  0.355537  0.948403  0.355537  1
  La  La3  1  0.948403  0.355537  0.355537  1
  La  La4  1  0.797922  0.191974  0.191974  1
  La  La5  1  0.190146  0.809301  0.809301  1
  La  La6  1  0.191974  0.797922  0.191974  1
  La  La7  1  0.809301  0.190146  0.809301  1
  La  La8  1  0.191974  0.191974  0.797922  1
  La  La9  1  0.809301  0.809301  0.190146  1
  Pr  Pr10  1  0.939279  0.564445  0.564445  1
  Pr  Pr11  1  0.563781  0.937724  0.937724  1
  Pr  Pr12  1  0.564445  0.939279  0.564445  1
  Pr  Pr13  1  0.937724  0.563781  0.937724  1
  Pr  Pr14  1  0.564445  0.564445  0.939279  1
  Pr  Pr15  1  0.937724  0.937724  0.563781  1
  Cd  Cd16  1  0.580711  0.580711  0.580711  1
  Cd  Cd17  1  0.580000  0.580000  0.259149  1
  Cd  Cd18  1  0.580000  0.259149  0.580000  1
  Cd  Cd19  1  0.259149  0.580000  0.580000  1
  Ir  Ir20  1  0.140054  0.140054  0.574407  1
  Ir  Ir21  1  0.140054  0.574407  0.140054  1
  Ir  Ir22  1  0.574407  0.140054  0.140054  1
  Au  Au23  1  0.143113  0.143113  0.143113  1
