# generated using pymatgen
data_Hf6Zn22SiAu
_symmetry_space_group_name_H-M   'P 1'
_cell_length_a   8.76263294
_cell_length_b   8.76263359
_cell_length_c   8.76263400
_cell_angle_alpha   60.00000599
_cell_angle_beta   60.00000354
_cell_angle_gamma   60.00000698
_symmetry_Int_Tables_number   1
_chemical_formula_structural   Hf6Zn22SiAu
_chemical_formula_sum   'Hf6 Zn22 Si1 Au1'
_cell_volume   475.76117740
_cell_formula_units_Z   1
loop_
 _symmetry_equiv_pos_site_id
 _symmetry_equiv_pos_as_xyz
  1  'x, y, z'
loop_
 _atom_site_type_symbol
 _atom_site_label
 _atom_site_symmetry_multiplicity
 _atom_site_fract_x
 _atom_site_fract_y
 _atom_site_fract_z
 _atom_site_occupancy
  Hf  Hf0  1  0.709008  0.290992  0.290992  1
  Hf  Hf1  1  0.290992  0.709008  0.709008  1
  Hf  Hf2  1  0.290992  0.709008  0.290992  1
  Hf  Hf3  1  0.709008  0.290992  0.709008  1
  Hf  Hf4  1  0.290992  0.290992  0.709008  1
  Hf  Hf5  1  0.709008  0.709008  0.290992  1
  Zn  Zn6  1  0.124784  0.124784  0.124784  1
  Zn  Zn7  1  0.875216  0.875216  0.875216  1
  Zn  Zn8  1  0.124784  0.124784  0.625647  1
  Zn  Zn9  1  0.124784  0.625647  0.124784  1
  Zn  Zn10  1  0.875216  0.875216  0.374353  1
  Zn  Zn11  1  0.875216  0.374353  0.875216  1
  Zn  Zn12  1  0.625647  0.124784  0.124784  1
  Zn  Zn13  1  0.374353  0.875216  0.875216  1
  Zn  Zn14  1  0.500000  0.000000  0.000000  1
  Zn  Zn15  1  0.000000  0.500000  0.500000  1
  Zn  Zn16  1  0.000000  0.500000  0.000000  1
  Zn  Zn17  1  0.500000  0.000000  0.500000  1
  Zn  Zn18  1  0.000000  0.000000  0.500000  1
  Zn  Zn19  1  0.500000  0.500000  0.000000  1
  Zn  Zn20  1  0.337206  0.337206  0.337206  1
  Zn  Zn21  1  0.662794  0.662794  0.662794  1
  Zn  Zn22  1  0.337206  0.337206  0.988382  1
  Zn  Zn23  1  0.337206  0.988382  0.337206  1
  Zn  Zn24  1  0.662794  0.662794  0.011618  1
  Zn  Zn25  1  0.662794  0.011618  0.662794  1
  Zn  Zn26  1  0.988382  0.337206  0.337206  1
  Zn  Zn27  1  0.011618  0.662794  0.662794  1
  Si  Si28  1  0.500000  0.500000  0.500000  1
  Au  Au29  1  0.000000  0.000000  0.000000  1
