# generated using pymatgen
data_Ru(SeCl)4
_symmetry_space_group_name_H-M   'P 1'
_cell_length_a   9.48946200
_cell_length_b   9.92902233
_cell_length_c   12.02140648
_cell_angle_alpha   73.32185782
_cell_angle_beta   90.00000000
_cell_angle_gamma   90.00000000
_symmetry_Int_Tables_number   1
_chemical_formula_structural   Ru(SeCl)4
_chemical_formula_sum   'Ru4 Se16 Cl16'
_cell_volume   1085.02080323
_cell_formula_units_Z   4
loop_
 _symmetry_equiv_pos_site_id
 _symmetry_equiv_pos_as_xyz
  1  'x, y, z'
loop_
 _atom_site_type_symbol
 _atom_site_label
 _atom_site_symmetry_multiplicity
 _atom_site_fract_x
 _atom_site_fract_y
 _atom_site_fract_z
 _atom_site_occupancy
  Ru  Ru0  1  0.807776  0.053646  0.781677  1
  Ru  Ru1  1  0.307776  0.946354  0.218323  1
  Ru  Ru2  1  0.673101  0.316138  0.712250  1
  Ru  Ru3  1  0.173101  0.683862  0.287750  1
  Se  Se4  1  0.793926  0.498880  0.785925  1
  Se  Se5  1  0.293926  0.501120  0.214075  1
  Se  Se6  1  0.395784  0.011692  0.887195  1
  Se  Se7  1  0.895784  0.988308  0.112805  1
  Se  Se8  1  0.969741  0.162631  0.204734  1
  Se  Se9  1  0.469741  0.837369  0.795266  1
  Se  Se10  1  0.299715  0.161553  0.709114  1
  Se  Se11  1  0.799715  0.838447  0.290886  1
  Se  Se12  1  0.507611  0.219818  0.600809  1
  Se  Se13  1  0.007611  0.780182  0.399191  1
  Se  Se14  1  0.873445  0.247314  0.621953  1
  Se  Se15  1  0.373445  0.752686  0.378047  1
  Se  Se16  1  0.642490  0.965580  0.669797  1
  Se  Se17  1  0.142490  0.034420  0.330203  1
  Se  Se18  1  0.642678  0.142286  0.890496  1
  Se  Se19  1  0.142678  0.857714  0.109504  1
  Cl  Cl20  1  0.482117  0.071856  0.299618  1
  Cl  Cl21  1  0.982117  0.928144  0.700382  1
  Cl  Cl22  1  0.006325  0.131744  0.879940  1
  Cl  Cl23  1  0.506325  0.868256  0.120060  1
  Cl  Cl24  1  0.804962  0.204389  0.456298  1
  Cl  Cl25  1  0.304962  0.795611  0.543702  1
  Cl  Cl26  1  0.812896  0.419434  0.978734  1
  Cl  Cl27  1  0.312896  0.580566  0.021266  1
  Cl  Cl28  1  0.501932  0.451643  0.786416  1
  Cl  Cl29  1  0.001932  0.548357  0.213584  1
  Cl  Cl30  1  0.020842  0.508800  0.739551  1
  Cl  Cl31  1  0.520842  0.491200  0.260449  1
  Cl  Cl32  1  0.700025  0.541463  0.557802  1
  Cl  Cl33  1  0.200025  0.458537  0.442198  1
  Cl  Cl34  1  0.807634  0.840220  0.943697  1
  Cl  Cl35  1  0.307634  0.159780  0.056303  1
