# generated using pymatgen
data_Zr3CoSnPdN
_symmetry_space_group_name_H-M   'P 1'
_cell_length_a   8.67889000
_cell_length_b   8.67903360
_cell_length_c   8.67884200
_cell_angle_alpha   60.00300228
_cell_angle_beta   60.00184567
_cell_angle_gamma   60.00269326
_symmetry_Int_Tables_number   1
_chemical_formula_structural   Zr3CoSnPdN
_chemical_formula_sum   'Zr12 Co4 Sn4 Pd4 N4'
_cell_volume   462.28211155
_cell_formula_units_Z   4
loop_
 _symmetry_equiv_pos_site_id
 _symmetry_equiv_pos_as_xyz
  1  'x, y, z'
loop_
 _atom_site_type_symbol
 _atom_site_label
 _atom_site_symmetry_multiplicity
 _atom_site_fract_x
 _atom_site_fract_y
 _atom_site_fract_z
 _atom_site_occupancy
  Zr  Zr0  1  0.814845  0.814897  0.185180  1
  Zr  Zr1  1  0.185090  0.185166  0.814876  1
  Zr  Zr2  1  0.814849  0.185143  0.814896  1
  Zr  Zr3  1  0.185065  0.814922  0.185143  1
  Zr  Zr4  1  0.185065  0.814905  0.814906  1
  Zr  Zr5  1  0.814808  0.185211  0.185126  1
  Zr  Zr6  1  0.438274  0.438197  0.061754  1
  Zr  Zr7  1  0.061843  0.061674  0.438219  1
  Zr  Zr8  1  0.438245  0.061739  0.438177  1
  Zr  Zr9  1  0.061832  0.438175  0.061784  1
  Zr  Zr10  1  0.061868  0.438169  0.438207  1
  Zr  Zr11  1  0.438227  0.061798  0.061754  1
  Co  Co12  1  0.455216  0.848243  0.848295  1
  Co  Co13  1  0.848224  0.455237  0.848264  1
  Co  Co14  1  0.848256  0.848303  0.455208  1
  Co  Co15  1  0.848301  0.848279  0.848202  1
  Sn  Sn16  1  0.093401  0.635520  0.635563  1
  Sn  Sn17  1  0.635495  0.093290  0.635632  1
  Sn  Sn18  1  0.635509  0.635636  0.093312  1
  Sn  Sn19  1  0.635497  0.635576  0.635577  1
  Pd  Pd20  1  0.758220  0.413919  0.413879  1
  Pd  Pd21  1  0.413952  0.758402  0.413799  1
  Pd  Pd22  1  0.413957  0.413780  0.758313  1
  Pd  Pd23  1  0.413977  0.413825  0.413919  1
  N  N24  1  0.622977  0.125676  0.125686  1
  N  N25  1  0.125690  0.622803  0.125771  1
  N  N26  1  0.125672  0.125792  0.622847  1
  N  N27  1  0.125644  0.125722  0.125712  1
