# generated using pymatgen
data_PrSm7Si12Rh3Au
_symmetry_space_group_name_H-M   'P 1'
_cell_length_a   8.23248700
_cell_length_b   8.23248922
_cell_length_c   8.44102000
_cell_angle_alpha   90.00000000
_cell_angle_beta   90.00000000
_cell_angle_gamma   120.00001116
_symmetry_Int_Tables_number   1
_chemical_formula_structural   PrSm7Si12Rh3Au
_chemical_formula_sum   'Pr1 Sm7 Si12 Rh3 Au1'
_cell_volume   495.43620057
_cell_formula_units_Z   1
loop_
 _symmetry_equiv_pos_site_id
 _symmetry_equiv_pos_as_xyz
  1  'x, y, z'
loop_
 _atom_site_type_symbol
 _atom_site_label
 _atom_site_symmetry_multiplicity
 _atom_site_fract_x
 _atom_site_fract_y
 _atom_site_fract_z
 _atom_site_occupancy
  Pr  Pr0  1  0.000000  0.000000  0.251700  1
  Sm  Sm1  1  0.497793  0.502207  0.745327  1
  Sm  Sm2  1  0.498019  0.501981  0.254826  1
  Sm  Sm3  1  0.004416  0.502207  0.745327  1
  Sm  Sm4  1  0.003961  0.501981  0.254826  1
  Sm  Sm5  1  0.497793  0.995584  0.745327  1
  Sm  Sm6  1  0.498019  0.996039  0.254826  1
  Sm  Sm7  1  0.000000  0.000000  0.748039  1
  Si  Si8  1  0.838519  0.161481  0.998177  1
  Si  Si9  1  0.169006  0.830994  0.998806  1
  Si  Si10  1  0.322964  0.161481  0.998177  1
  Si  Si11  1  0.166959  0.833041  0.501148  1
  Si  Si12  1  0.661987  0.830994  0.998806  1
  Si  Si13  1  0.832435  0.167565  0.501725  1
  Si  Si14  1  0.838519  0.677036  0.998177  1
  Si  Si15  1  0.666082  0.833041  0.501148  1
  Si  Si16  1  0.169006  0.338013  0.998806  1
  Si  Si17  1  0.335130  0.167565  0.501725  1
  Si  Si18  1  0.166959  0.333918  0.501148  1
  Si  Si19  1  0.832435  0.664870  0.501725  1
  Rh  Rh20  1  0.333333  0.666667  0.000212  1
  Rh  Rh21  1  0.333333  0.666667  0.499773  1
  Rh  Rh22  1  0.666667  0.333333  0.500118  1
  Au  Au23  1  0.666667  0.333333  0.000132  1
