# generated using pymatgen
data_Dy6Ho2Re3RuC8
_symmetry_space_group_name_H-M   'P 1'
_cell_length_a   5.10651500
_cell_length_b   6.55983992
_cell_length_c   9.83424708
_cell_angle_alpha   90.09744203
_cell_angle_beta   90.00000000
_cell_angle_gamma   90.00000000
_symmetry_Int_Tables_number   1
_chemical_formula_structural   Dy6Ho2Re3RuC8
_chemical_formula_sum   'Dy6 Ho2 Re3 Ru1 C8'
_cell_volume   329.42635498
_cell_formula_units_Z   1
loop_
 _symmetry_equiv_pos_site_id
 _symmetry_equiv_pos_as_xyz
  1  'x, y, z'
loop_
 _atom_site_type_symbol
 _atom_site_label
 _atom_site_symmetry_multiplicity
 _atom_site_fract_x
 _atom_site_fract_y
 _atom_site_fract_z
 _atom_site_occupancy
  Dy  Dy0  1  0.250000  0.467908  0.784747  1
  Dy  Dy1  1  0.750000  0.032993  0.285026  1
  Dy  Dy2  1  0.250000  0.968599  0.716793  1
  Dy  Dy3  1  0.750000  0.531047  0.212859  1
  Dy  Dy4  1  0.750000  0.679558  0.555830  1
  Dy  Dy5  1  0.750000  0.179600  0.943563  1
  Ho  Ho6  1  0.250000  0.825882  0.055282  1
  Ho  Ho7  1  0.250000  0.320586  0.442931  1
  Re  Re8  1  0.750000  0.220956  0.633174  1
  Re  Re9  1  0.250000  0.779448  0.365069  1
  Re  Re10  1  0.750000  0.721310  0.866340  1
  Ru  Ru11  1  0.250000  0.278867  0.135006  1
  C  C12  1  0.250000  0.173334  0.951312  1
  C  C13  1  0.750000  0.822272  0.051550  1
  C  C14  1  0.250000  0.675509  0.549505  1
  C  C15  1  0.750000  0.322268  0.448616  1
  C  C16  1  0.250000  0.044665  0.260051  1
  C  C17  1  0.750000  0.454461  0.758918  1
  C  C18  1  0.250000  0.546781  0.242799  1
  C  C19  1  0.750000  0.953956  0.740628  1
