# generated using pymatgen
data_Nd6DyTmSb20
_symmetry_space_group_name_H-M   'P 1'
_cell_length_a   4.25852300
_cell_length_b   13.48677701
_cell_length_c   15.12884600
_cell_angle_alpha   77.98193868
_cell_angle_beta   90.00000000
_cell_angle_gamma   90.00000000
_symmetry_Int_Tables_number   1
_chemical_formula_structural   Nd6DyTmSb20
_chemical_formula_sum   'Nd6 Dy1 Tm1 Sb20'
_cell_volume   849.86168161
_cell_formula_units_Z   1
loop_
 _symmetry_equiv_pos_site_id
 _symmetry_equiv_pos_as_xyz
  1  'x, y, z'
loop_
 _atom_site_type_symbol
 _atom_site_label
 _atom_site_symmetry_multiplicity
 _atom_site_fract_x
 _atom_site_fract_y
 _atom_site_fract_z
 _atom_site_occupancy
  Nd  Nd0  1  0.750000  0.335786  0.142916  1
  Nd  Nd1  1  0.250000  0.949486  0.361111  1
  Nd  Nd2  1  0.250000  0.664319  0.857215  1
  Nd  Nd3  1  0.250000  0.668074  0.576135  1
  Nd  Nd4  1  0.750000  0.050474  0.638878  1
  Nd  Nd5  1  0.750000  0.332057  0.423713  1
  Dy  Dy6  1  0.250000  0.396450  0.772541  1
  Tm  Tm7  1  0.750000  0.602961  0.227472  1
  Sb  Sb8  1  0.750000  0.851027  0.820070  1
  Sb  Sb9  1  0.250000  0.861905  0.675180  1
  Sb  Sb10  1  0.250000  0.142752  0.478174  1
  Sb  Sb11  1  0.750000  0.284664  0.934657  1
  Sb  Sb12  1  0.250000  0.146944  0.780952  1
  Sb  Sb13  1  0.750000  0.574264  0.440893  1
  Sb  Sb14  1  0.750000  0.138106  0.324787  1
  Sb  Sb15  1  0.250000  0.706155  0.349736  1
  Sb  Sb16  1  0.750000  0.293672  0.649906  1
  Sb  Sb17  1  0.750000  0.852507  0.219032  1
  Sb  Sb18  1  0.250000  0.420493  0.972758  1
  Sb  Sb19  1  0.250000  0.425712  0.558542  1
  Sb  Sb20  1  0.750000  0.572254  0.736431  1
  Sb  Sb21  1  0.250000  0.429015  0.263280  1
  Sb  Sb22  1  0.750000  0.857197  0.521862  1
  Sb  Sb23  1  0.750000  0.031211  0.891374  1
  Sb  Sb24  1  0.250000  0.715235  0.065824  1
  Sb  Sb25  1  0.250000  0.968751  0.108632  1
  Sb  Sb26  1  0.250000  0.149076  0.179930  1
  Sb  Sb27  1  0.750000  0.579455  0.028000  1
