# generated using pymatgen
data_Gd4Y(RhO6)2
_symmetry_space_group_name_H-M   'P 1'
_cell_length_a   6.92907005
_cell_length_b   6.92906933
_cell_length_c   7.37663041
_cell_angle_alpha   74.37604296
_cell_angle_beta   74.37604635
_cell_angle_gamma   51.04877804
_symmetry_Int_Tables_number   1
_chemical_formula_structural   Gd4Y(RhO6)2
_chemical_formula_sum   'Gd4 Y1 Rh2 O12'
_cell_volume   262.87630963
_cell_formula_units_Z   1
loop_
 _symmetry_equiv_pos_site_id
 _symmetry_equiv_pos_as_xyz
  1  'x, y, z'
loop_
 _atom_site_type_symbol
 _atom_site_label
 _atom_site_symmetry_multiplicity
 _atom_site_fract_x
 _atom_site_fract_y
 _atom_site_fract_z
 _atom_site_occupancy
  Gd  Gd0  1  0.499677  0.499677  0.500627  1
  Gd  Gd1  1  0.191004  0.191004  0.170516  1
  Gd  Gd2  1  0.808876  0.808876  0.830566  1
  Gd  Gd3  1  0.802603  0.802603  0.360116  1
  Y  Y4  1  0.197236  0.197236  0.641074  1
  Rh  Rh5  1  0.746543  0.253476  0.999556  1
  Rh  Rh6  1  0.253476  0.746543  0.999556  1
  O  O7  1  0.000187  0.000187  0.185804  1
  O  O8  1  0.001468  0.001468  0.811658  1
  O  O9  1  0.499564  0.499564  0.820417  1
  O  O10  1  0.500863  0.500863  0.178919  1
  O  O11  1  0.594471  0.098762  0.574705  1
  O  O12  1  0.903316  0.402136  0.428393  1
  O  O13  1  0.402136  0.903316  0.428393  1
  O  O14  1  0.400380  0.929390  0.914081  1
  O  O15  1  0.070985  0.599063  0.083417  1
  O  O16  1  0.599063  0.070985  0.083417  1
  O  O17  1  0.929390  0.400380  0.914081  1
  O  O18  1  0.098762  0.594471  0.574705  1
