# generated using pymatgen
data_Er6Al24Os5Pt3
_symmetry_space_group_name_H-M   'P 1'
_cell_length_a   8.80409990
_cell_length_b   8.82803236
_cell_length_c   9.53298450
_cell_angle_alpha   90.18525589
_cell_angle_beta   89.65622590
_cell_angle_gamma   119.59743720
_symmetry_Int_Tables_number   1
_chemical_formula_structural   Er6Al24Os5Pt3
_chemical_formula_sum   'Er6 Al24 Os5 Pt3'
_cell_volume   644.24048904
_cell_formula_units_Z   1
loop_
 _symmetry_equiv_pos_site_id
 _symmetry_equiv_pos_as_xyz
  1  'x, y, z'
loop_
 _atom_site_type_symbol
 _atom_site_label
 _atom_site_symmetry_multiplicity
 _atom_site_fract_x
 _atom_site_fract_y
 _atom_site_fract_z
 _atom_site_occupancy
  Er  Er0  1  0.188595  0.384980  0.251314  1
  Er  Er1  1  0.811405  0.615020  0.748686  1
  Er  Er2  1  0.611787  0.813131  0.252073  1
  Er  Er3  1  0.388213  0.186869  0.747927  1
  Er  Er4  1  0.196637  0.807729  0.251838  1
  Er  Er5  1  0.803363  0.192271  0.748162  1
  Al  Al6  1  0.335132  0.671194  0.029675  1
  Al  Al7  1  0.664868  0.328806  0.970325  1
  Al  Al8  1  0.669145  0.331597  0.528312  1
  Al  Al9  1  0.330855  0.668403  0.471688  1
  Al  Al10  1  0.157922  0.325555  0.575570  1
  Al  Al11  1  0.842078  0.674445  0.424430  1
  Al  Al12  1  0.673617  0.840936  0.575998  1
  Al  Al13  1  0.836802  0.676251  0.078435  1
  Al  Al14  1  0.326383  0.159064  0.424002  1
  Al  Al15  1  0.163198  0.323749  0.921565  1
  Al  Al16  1  0.163471  0.835049  0.576852  1
  Al  Al17  1  0.325206  0.158559  0.077384  1
  Al  Al18  1  0.836529  0.164951  0.423148  1
  Al  Al19  1  0.674794  0.841441  0.922616  1
  Al  Al20  1  0.831634  0.159008  0.078554  1
  Al  Al21  1  0.168366  0.840992  0.921446  1
  Al  Al22  1  0.560830  0.124771  0.250006  1
  Al  Al23  1  0.439170  0.875229  0.749994  1
  Al  Al24  1  0.874267  0.437636  0.252596  1
  Al  Al25  1  0.125733  0.562364  0.747404  1
  Al  Al26  1  0.562247  0.436363  0.249866  1
  Al  Al27  1  0.437753  0.563637  0.750134  1
  Al  Al28  1  0.999137  0.002633  0.250237  1
  Al  Al29  1  0.000863  0.997367  0.749763  1
  Os  Os30  1  0.500000  0.000000  0.000000  1
  Os  Os31  1  0.500000  0.000000  0.500000  1
  Os  Os32  1  0.000000  0.500000  0.500000  1
  Os  Os33  1  0.000000  0.000000  0.000000  1
  Os  Os34  1  0.000000  0.000000  0.500000  1
  Pt  Pt35  1  0.000000  0.500000  0.000000  1
  Pt  Pt36  1  0.500000  0.500000  0.000000  1
  Pt  Pt37  1  0.500000  0.500000  0.500000  1
