# generated using pymatgen
data_Tm4Lu8Tc3Os
_symmetry_space_group_name_H-M   'P 1'
_cell_length_a   7.36607554
_cell_length_b   8.87555600
_cell_length_c   6.15762931
_cell_angle_alpha   90.00000000
_cell_angle_beta   89.93631440
_cell_angle_gamma   90.00000000
_symmetry_Int_Tables_number   1
_chemical_formula_structural   Tm4Lu8Tc3Os
_chemical_formula_sum   'Tm4 Lu8 Tc3 Os1'
_cell_volume   402.57333861
_cell_formula_units_Z   1
loop_
 _symmetry_equiv_pos_site_id
 _symmetry_equiv_pos_as_xyz
  1  'x, y, z'
loop_
 _atom_site_type_symbol
 _atom_site_label
 _atom_site_symmetry_multiplicity
 _atom_site_fract_x
 _atom_site_fract_y
 _atom_site_fract_z
 _atom_site_occupancy
  Tm  Tm0  1  0.042023  0.250000  0.627393  1
  Tm  Tm1  1  0.959374  0.750000  0.375925  1
  Tm  Tm2  1  0.461089  0.750000  0.125311  1
  Tm  Tm3  1  0.539168  0.250000  0.875599  1
  Lu  Lu4  1  0.173367  0.062646  0.158581  1
  Lu  Lu5  1  0.825729  0.938904  0.840601  1
  Lu  Lu6  1  0.324826  0.937759  0.656354  1
  Lu  Lu7  1  0.825729  0.561096  0.840601  1
  Lu  Lu8  1  0.676292  0.063020  0.341155  1
  Lu  Lu9  1  0.173367  0.437354  0.158581  1
  Lu  Lu10  1  0.676292  0.436980  0.341155  1
  Lu  Lu11  1  0.324826  0.562241  0.656354  1
  Tc  Tc12  1  0.382992  0.250000  0.457714  1
  Tc  Tc13  1  0.617151  0.750000  0.543722  1
  Tc  Tc14  1  0.116180  0.750000  0.959357  1
  Os  Os15  1  0.881597  0.250000  0.041595  1
