# generated using pymatgen
data_Tb14Ho6CoBi8Rh3
_symmetry_space_group_name_H-M   'P 1'
_cell_length_a   8.03762190
_cell_length_b   9.00113552
_cell_length_c   12.49862921
_cell_angle_alpha   90.02581586
_cell_angle_beta   89.78854397
_cell_angle_gamma   90.02922982
_symmetry_Int_Tables_number   1
_chemical_formula_structural   Tb14Ho6CoBi8Rh3
_chemical_formula_sum   'Tb14 Ho6 Co1 Bi8 Rh3'
_cell_volume   904.24100888
_cell_formula_units_Z   1
loop_
 _symmetry_equiv_pos_site_id
 _symmetry_equiv_pos_as_xyz
  1  'x, y, z'
loop_
 _atom_site_type_symbol
 _atom_site_label
 _atom_site_symmetry_multiplicity
 _atom_site_fract_x
 _atom_site_fract_y
 _atom_site_fract_z
 _atom_site_occupancy
  Tb  Tb0  1  0.345698  0.750172  0.700091  1
  Tb  Tb1  1  0.657495  0.249878  0.293742  1
  Tb  Tb2  1  0.843093  0.249944  0.793775  1
  Tb  Tb3  1  0.156834  0.750082  0.205758  1
  Tb  Tb4  1  0.879363  0.750026  0.806115  1
  Tb  Tb5  1  0.121214  0.249998  0.193529  1
  Tb  Tb6  1  0.378670  0.249760  0.693918  1
  Tb  Tb7  1  0.615491  0.750286  0.311142  1
  Tb  Tb8  1  0.677578  0.545056  0.564331  1
  Tb  Tb9  1  0.323082  0.465412  0.436283  1
  Tb  Tb10  1  0.051206  0.750267  0.498772  1
  Tb  Tb11  1  0.950465  0.249776  0.501394  1
  Tb  Tb12  1  0.547312  0.249988  0.000879  1
  Tb  Tb13  1  0.451273  0.750007  0.998146  1
  Ho  Ho14  1  0.177395  0.457576  0.934274  1
  Ho  Ho15  1  0.324402  0.034605  0.436512  1
  Ho  Ho16  1  0.821987  0.541755  0.065655  1
  Ho  Ho17  1  0.676365  0.954952  0.564109  1
  Ho  Ho18  1  0.821991  0.958227  0.065676  1
  Ho  Ho19  1  0.177414  0.042457  0.934255  1
  Co  Co20  1  0.432601  0.750593  0.491715  1
  Bi  Bi21  1  0.570826  0.509804  0.826176  1
  Bi  Bi22  1  0.429273  0.491054  0.173716  1
  Bi  Bi23  1  0.072083  0.490627  0.673031  1
  Bi  Bi24  1  0.429146  0.008968  0.173829  1
  Bi  Bi25  1  0.928154  0.510074  0.327153  1
  Bi  Bi26  1  0.570932  0.990204  0.826049  1
  Bi  Bi27  1  0.928558  0.989983  0.327266  1
  Bi  Bi28  1  0.071678  0.009344  0.672908  1
  Rh  Rh29  1  0.069928  0.750001  0.990646  1
  Rh  Rh30  1  0.928810  0.250010  0.009905  1
  Rh  Rh31  1  0.569681  0.249112  0.509252  1
