# generated using pymatgen
data_NdDy(Si7Ir3)2
_symmetry_space_group_name_H-M   'P 1'
_cell_length_a   8.07864002
_cell_length_b   8.07864072
_cell_length_c   8.07863934
_cell_angle_alpha   56.51985806
_cell_angle_beta   56.51986640
_cell_angle_gamma   56.51986011
_symmetry_Int_Tables_number   1
_chemical_formula_structural   NdDy(Si7Ir3)2
_chemical_formula_sum   'Nd1 Dy1 Si14 Ir6'
_cell_volume   342.83422154
_cell_formula_units_Z   1
loop_
 _symmetry_equiv_pos_site_id
 _symmetry_equiv_pos_as_xyz
  1  'x, y, z'
loop_
 _atom_site_type_symbol
 _atom_site_label
 _atom_site_symmetry_multiplicity
 _atom_site_fract_x
 _atom_site_fract_y
 _atom_site_fract_z
 _atom_site_occupancy
  Nd  Nd0  1  0.500000  0.500000  0.500000  1
  Dy  Dy1  1  0.000000  0.000000  0.000000  1
  Si  Si2  1  0.851934  0.062601  0.673364  1
  Si  Si3  1  0.673364  0.851934  0.062601  1
  Si  Si4  1  0.062601  0.673364  0.851934  1
  Si  Si5  1  0.650841  0.827917  0.435114  1
  Si  Si6  1  0.250363  0.250363  0.250363  1
  Si  Si7  1  0.749637  0.749637  0.749637  1
  Si  Si8  1  0.172083  0.564886  0.349159  1
  Si  Si9  1  0.564886  0.349159  0.172083  1
  Si  Si10  1  0.349159  0.172083  0.564886  1
  Si  Si11  1  0.937399  0.326636  0.148066  1
  Si  Si12  1  0.326636  0.148066  0.937399  1
  Si  Si13  1  0.148066  0.937399  0.326636  1
  Si  Si14  1  0.827917  0.435114  0.650841  1
  Si  Si15  1  0.435114  0.650841  0.827917  1
  Ir  Ir16  1  0.751646  0.067774  0.429584  1
  Ir  Ir17  1  0.429584  0.751646  0.067774  1
  Ir  Ir18  1  0.067774  0.429584  0.751646  1
  Ir  Ir19  1  0.248354  0.932226  0.570416  1
  Ir  Ir20  1  0.570416  0.248354  0.932226  1
  Ir  Ir21  1  0.932226  0.570416  0.248354  1
