# generated using pymatgen
data_Tb2CeCo2Sn3Rh
_symmetry_space_group_name_H-M   'P 1'
_cell_length_a   7.51650116
_cell_length_b   7.41643198
_cell_length_c   3.85825700
_cell_angle_alpha   90.00000000
_cell_angle_beta   90.00000000
_cell_angle_gamma   120.57078227
_symmetry_Int_Tables_number   1
_chemical_formula_structural   Tb2CeCo2Sn3Rh
_chemical_formula_sum   'Tb2 Ce1 Co2 Sn3 Rh1'
_cell_volume   185.18500054
_cell_formula_units_Z   1
loop_
 _symmetry_equiv_pos_site_id
 _symmetry_equiv_pos_as_xyz
  1  'x, y, z'
loop_
 _atom_site_type_symbol
 _atom_site_label
 _atom_site_symmetry_multiplicity
 _atom_site_fract_x
 _atom_site_fract_y
 _atom_site_fract_z
 _atom_site_occupancy
  Tb  Tb0  1  0.998164  0.406602  0.000000  1
  Tb  Tb1  1  0.593452  0.591909  0.000000  1
  Ce  Ce2  1  0.419821  0.009420  0.000000  1
  Co  Co3  1  0.644609  0.307900  0.500000  1
  Co  Co4  1  0.006529  0.001083  0.000000  1
  Sn  Sn5  1  0.254235  0.257140  0.500000  1
  Sn  Sn6  1  0.990239  0.739700  0.500000  1
  Sn  Sn7  1  0.757382  0.003319  0.500000  1
  Rh  Rh8  1  0.335568  0.682928  0.500000  1
