# generated using pymatgen
data_ScNb2(SiTc)3
_symmetry_space_group_name_H-M   'P 1'
_cell_length_a   6.83388000
_cell_length_b   6.93554111
_cell_length_c   3.33271200
_cell_angle_alpha   90.00000000
_cell_angle_beta   90.00000000
_cell_angle_gamma   119.51628110
_symmetry_Int_Tables_number   1
_chemical_formula_structural   ScNb2(SiTc)3
_chemical_formula_sum   'Sc1 Nb2 Si3 Tc3'
_cell_volume   137.45875800
_cell_formula_units_Z   1
loop_
 _symmetry_equiv_pos_site_id
 _symmetry_equiv_pos_as_xyz
  1  'x, y, z'
loop_
 _atom_site_type_symbol
 _atom_site_label
 _atom_site_symmetry_multiplicity
 _atom_site_fract_x
 _atom_site_fract_y
 _atom_site_fract_z
 _atom_site_occupancy
  Sc  Sc0  1  0.402361  0.000000  0.500000  1
  Nb  Nb1  1  0.004091  0.405200  0.500000  1
  Nb  Nb2  1  0.598891  0.594800  0.500000  1
  Si  Si3  1  0.334269  0.666004  0.000000  1
  Si  Si4  1  0.668267  0.333996  0.000000  1
  Si  Si5  1  0.998810  0.000000  0.500000  1
  Tc  Tc6  1  0.745603  0.000000  0.000000  1
  Tc  Tc7  1  0.994290  0.740870  0.000000  1
  Tc  Tc8  1  0.253420  0.259130  0.000000  1
