# generated using pymatgen
data_Ho2Si2NiRh3
_symmetry_space_group_name_H-M   'P 1'
_cell_length_a   8.79422777
_cell_length_b   8.79422851
_cell_length_c   4.03955500
_cell_angle_alpha   90.00000000
_cell_angle_beta   90.00000000
_cell_angle_gamma   153.80070445
_symmetry_Int_Tables_number   1
_chemical_formula_structural   Ho2Si2NiRh3
_chemical_formula_sum   'Ho2 Si2 Ni1 Rh3'
_cell_volume   137.92868481
_cell_formula_units_Z   1
loop_
 _symmetry_equiv_pos_site_id
 _symmetry_equiv_pos_as_xyz
  1  'x, y, z'
loop_
 _atom_site_type_symbol
 _atom_site_label
 _atom_site_symmetry_multiplicity
 _atom_site_fract_x
 _atom_site_fract_y
 _atom_site_fract_z
 _atom_site_occupancy
  Ho  Ho0  1  0.098159  0.901841  0.750000  1
  Ho  Ho1  1  0.902891  0.097109  0.250000  1
  Si  Si2  1  0.324478  0.675522  0.750000  1
  Si  Si3  1  0.673112  0.326888  0.250000  1
  Ni  Ni4  1  0.543280  0.456720  0.250000  1
  Rh  Rh5  1  0.460404  0.539596  0.750000  1
  Rh  Rh6  1  0.249051  0.750949  0.250000  1
  Rh  Rh7  1  0.748626  0.251374  0.750000  1
