# generated using pymatgen
data_Cs2Rb2NiP4Pd
_symmetry_space_group_name_H-M   'P 1'
_cell_length_a   8.00689319
_cell_length_b   8.00689215
_cell_length_c   6.11141068
_cell_angle_alpha   88.45273571
_cell_angle_beta   91.54726817
_cell_angle_gamma   128.05519702
_symmetry_Int_Tables_number   1
_chemical_formula_structural   Cs2Rb2NiP4Pd
_chemical_formula_sum   'Cs2 Rb2 Ni1 P4 Pd1'
_cell_volume   308.37449107
_cell_formula_units_Z   1
loop_
 _symmetry_equiv_pos_site_id
 _symmetry_equiv_pos_as_xyz
  1  'x, y, z'
loop_
 _atom_site_type_symbol
 _atom_site_label
 _atom_site_symmetry_multiplicity
 _atom_site_fract_x
 _atom_site_fract_y
 _atom_site_fract_z
 _atom_site_occupancy
  Cs  Cs0  1  0.412902  0.587098  0.247890  1
  Cs  Cs1  1  0.587098  0.412902  0.752110  1
  Rb  Rb2  1  0.787771  0.212229  0.252044  1
  Rb  Rb3  1  0.212229  0.787771  0.747956  1
  Ni  Ni4  1  0.000000  0.000000  0.000000  1
  P  P5  1  0.942570  0.746518  0.234161  1
  P  P6  1  0.057430  0.253482  0.765839  1
  P  P7  1  0.253482  0.057430  0.234161  1
  P  P8  1  0.746518  0.942570  0.765839  1
  Pd  Pd9  1  0.000000  0.000000  0.500000  1
