# generated using pymatgen
data_Sr3GaSn2Au3
_symmetry_space_group_name_H-M   'P 1'
_cell_length_a   4.81912300
_cell_length_b   8.38254900
_cell_length_c   23.58072600
_cell_angle_alpha   90.00000000
_cell_angle_beta   90.00000000
_cell_angle_gamma   90.00000000
_symmetry_Int_Tables_number   1
_chemical_formula_structural   Sr3GaSn2Au3
_chemical_formula_sum   'Sr12 Ga4 Sn8 Au12'
_cell_volume   952.57961575
_cell_formula_units_Z   4
loop_
 _symmetry_equiv_pos_site_id
 _symmetry_equiv_pos_as_xyz
  1  'x, y, z'
loop_
 _atom_site_type_symbol
 _atom_site_label
 _atom_site_symmetry_multiplicity
 _atom_site_fract_x
 _atom_site_fract_y
 _atom_site_fract_z
 _atom_site_occupancy
  Sr  Sr0  1  0.750000  0.212780  0.498889  1
  Sr  Sr1  1  0.250000  0.798133  0.165286  1
  Sr  Sr2  1  0.250000  0.793401  0.501866  1
  Sr  Sr3  1  0.250000  0.786728  0.835321  1
  Sr  Sr4  1  0.250000  0.713272  0.335321  1
  Sr  Sr5  1  0.750000  0.216133  0.836990  1
  Sr  Sr6  1  0.750000  0.287220  0.998889  1
  Sr  Sr7  1  0.750000  0.293111  0.664588  1
  Sr  Sr8  1  0.750000  0.283867  0.336990  1
  Sr  Sr9  1  0.250000  0.701867  0.665286  1
  Sr  Sr10  1  0.250000  0.706599  0.001866  1
  Sr  Sr11  1  0.750000  0.206889  0.164588  1
  Ga  Ga12  1  0.250000  0.420411  0.564604  1
  Ga  Ga13  1  0.250000  0.080065  0.398828  1
  Ga  Ga14  1  0.250000  0.079589  0.064604  1
  Ga  Ga15  1  0.250000  0.419935  0.898828  1
  Sn  Sn16  1  0.750000  0.584666  0.102083  1
  Sn  Sn17  1  0.250000  0.415709  0.770224  1
  Sn  Sn18  1  0.750000  0.582622  0.231117  1
  Sn  Sn19  1  0.750000  0.584797  0.436313  1
  Sn  Sn20  1  0.750000  0.915203  0.936313  1
  Sn  Sn21  1  0.250000  0.084291  0.270224  1
  Sn  Sn22  1  0.750000  0.915334  0.602083  1
  Sn  Sn23  1  0.750000  0.917378  0.731117  1
  Au  Au24  1  0.250000  0.103069  0.590614  1
  Au  Au25  1  0.250000  0.087345  0.739734  1
  Au  Au26  1  0.750000  0.573630  0.906787  1
  Au  Au27  1  0.750000  0.926370  0.406787  1
  Au  Au28  1  0.750000  0.568629  0.565700  1
  Au  Au29  1  0.750000  0.585796  0.760816  1
  Au  Au30  1  0.250000  0.401973  0.430238  1
  Au  Au31  1  0.250000  0.412655  0.239734  1
  Au  Au32  1  0.750000  0.931371  0.065700  1
  Au  Au33  1  0.250000  0.396931  0.090614  1
  Au  Au34  1  0.250000  0.098027  0.930238  1
  Au  Au35  1  0.750000  0.914204  0.260816  1
