# generated using pymatgen
data_Dy11In9Ru4
_symmetry_space_group_name_H-M   'P 1'
_cell_length_a   3.89062700
_cell_length_b   12.81109783
_cell_length_c   12.81109705
_cell_angle_alpha   113.55350168
_cell_angle_beta   90.00000000
_cell_angle_gamma   90.00000000
_symmetry_Int_Tables_number   1
_chemical_formula_structural   Dy11In9Ru4
_chemical_formula_sum   'Dy11 In9 Ru4'
_cell_volume   585.34713126
_cell_formula_units_Z   1
loop_
 _symmetry_equiv_pos_site_id
 _symmetry_equiv_pos_as_xyz
  1  'x, y, z'
loop_
 _atom_site_type_symbol
 _atom_site_label
 _atom_site_symmetry_multiplicity
 _atom_site_fract_x
 _atom_site_fract_y
 _atom_site_fract_z
 _atom_site_occupancy
  Dy  Dy0  1  0.000000  0.913142  0.580956  1
  Dy  Dy1  1  0.000000  0.086858  0.419044  1
  Dy  Dy2  1  0.000000  0.580956  0.913142  1
  Dy  Dy3  1  0.000000  0.419044  0.086858  1
  Dy  Dy4  1  0.000000  0.164390  0.835610  1
  Dy  Dy5  1  0.000000  0.835610  0.164390  1
  Dy  Dy6  1  0.000000  0.372465  0.627535  1
  Dy  Dy7  1  0.000000  0.627535  0.372465  1
  Dy  Dy8  1  0.000000  0.692611  0.692611  1
  Dy  Dy9  1  0.000000  0.307389  0.307389  1
  Dy  Dy10  1  0.000000  0.000000  0.000000  1
  In  In11  1  0.500000  0.154622  0.631242  1
  In  In12  1  0.500000  0.845378  0.368758  1
  In  In13  1  0.500000  0.631242  0.154622  1
  In  In14  1  0.500000  0.368758  0.845378  1
  In  In15  1  0.500000  0.929491  0.781159  1
  In  In16  1  0.500000  0.070509  0.218841  1
  In  In17  1  0.500000  0.781159  0.929491  1
  In  In18  1  0.500000  0.218841  0.070509  1
  In  In19  1  0.500000  0.500000  0.500000  1
  Ru  Ru20  1  0.500000  0.741795  0.548277  1
  Ru  Ru21  1  0.500000  0.258205  0.451723  1
  Ru  Ru22  1  0.500000  0.548277  0.741795  1
  Ru  Ru23  1  0.500000  0.451723  0.258205  1
