# generated using pymatgen
data_YbTm2ThSe4
_symmetry_space_group_name_H-M   'P 1'
_cell_length_a   13.77122501
_cell_length_b   13.77122477
_cell_length_c   13.77122576
_cell_angle_alpha   16.99965308
_cell_angle_beta   16.99965625
_cell_angle_gamma   16.99965531
_symmetry_Int_Tables_number   1
_chemical_formula_structural   YbTm2ThSe4
_chemical_formula_sum   'Yb1 Tm2 Th1 Se4'
_cell_volume   194.74925222
_cell_formula_units_Z   1
loop_
 _symmetry_equiv_pos_site_id
 _symmetry_equiv_pos_as_xyz
  1  'x, y, z'
loop_
 _atom_site_type_symbol
 _atom_site_label
 _atom_site_symmetry_multiplicity
 _atom_site_fract_x
 _atom_site_fract_y
 _atom_site_fract_z
 _atom_site_occupancy
  Yb  Yb0  1  0.000000  0.000000  0.000000  1
  Tm  Tm1  1  0.248903  0.248903  0.248903  1
  Tm  Tm2  1  0.751097  0.751097  0.751097  1
  Th  Th3  1  0.500000  0.500000  0.500000  1
  Se  Se4  1  0.375972  0.375972  0.375972  1
  Se  Se5  1  0.121324  0.121324  0.121324  1
  Se  Se6  1  0.624028  0.624028  0.624028  1
  Se  Se7  1  0.878676  0.878676  0.878676  1
