# generated using pymatgen
data_Nd4HfTh2Co17P12
_symmetry_space_group_name_H-M   'P 1'
_cell_length_a   3.76731300
_cell_length_b   10.71808300
_cell_length_c   12.48022200
_cell_angle_alpha   90.00000000
_cell_angle_beta   90.00000000
_cell_angle_gamma   90.00000000
_symmetry_Int_Tables_number   1
_chemical_formula_structural   Nd4HfTh2Co17P12
_chemical_formula_sum   'Nd4 Hf1 Th2 Co17 P12'
_cell_volume   503.93106429
_cell_formula_units_Z   1
loop_
 _symmetry_equiv_pos_site_id
 _symmetry_equiv_pos_as_xyz
  1  'x, y, z'
loop_
 _atom_site_type_symbol
 _atom_site_label
 _atom_site_symmetry_multiplicity
 _atom_site_fract_x
 _atom_site_fract_y
 _atom_site_fract_z
 _atom_site_occupancy
  Nd  Nd0  1  0.500000  0.819466  0.206696  1
  Nd  Nd1  1  0.500000  0.180534  0.206696  1
  Nd  Nd2  1  0.000000  0.684550  0.796705  1
  Nd  Nd3  1  0.000000  0.315450  0.796705  1
  Hf  Hf4  1  0.500000  0.500000  0.150430  1
  Th  Th5  1  0.000000  0.500000  0.531630  1
  Th  Th6  1  0.500000  0.000000  0.476388  1
  Co  Co7  1  0.000000  0.000000  0.839627  1
  Co  Co8  1  0.500000  0.500000  0.700103  1
  Co  Co9  1  0.000000  0.000000  0.299453  1
  Co  Co10  1  0.000000  0.500000  0.984678  1
  Co  Co11  1  0.500000  0.000000  0.012998  1
  Co  Co12  1  0.500000  0.328176  0.990412  1
  Co  Co13  1  0.500000  0.671824  0.990412  1
  Co  Co14  1  0.000000  0.161704  0.001316  1
  Co  Co15  1  0.000000  0.838296  0.001316  1
  Co  Co16  1  0.500000  0.296694  0.434004  1
  Co  Co17  1  0.500000  0.703306  0.434004  1
  Co  Co18  1  0.000000  0.200477  0.569326  1
  Co  Co19  1  0.000000  0.799523  0.569326  1
  Co  Co20  1  0.500000  0.882626  0.709376  1
  Co  Co21  1  0.500000  0.117374  0.709376  1
  Co  Co22  1  0.000000  0.619578  0.296058  1
  Co  Co23  1  0.000000  0.380422  0.296058  1
  P  P24  1  0.500000  0.500000  0.883478  1
  P  P25  1  0.000000  0.000000  0.113756  1
  P  P26  1  0.500000  0.500000  0.354831  1
  P  P27  1  0.000000  0.000000  0.660710  1
  P  P28  1  0.500000  0.303186  0.616717  1
  P  P29  1  0.500000  0.696814  0.616717  1
  P  P30  1  0.000000  0.194614  0.386946  1
  P  P31  1  0.000000  0.805386  0.386946  1
  P  P32  1  0.500000  0.853792  0.891505  1
  P  P33  1  0.500000  0.146208  0.891505  1
  P  P34  1  0.000000  0.662471  0.096895  1
  P  P35  1  0.000000  0.337529  0.096895  1
