# generated using pymatgen
data_Hf20Si15Sb
_symmetry_space_group_name_H-M   'P 1'
_cell_length_a   7.12948396
_cell_length_b   7.10170424
_cell_length_c   12.91729926
_cell_angle_alpha   89.92403969
_cell_angle_beta   89.68125388
_cell_angle_gamma   90.20704495
_symmetry_Int_Tables_number   1
_chemical_formula_structural   Hf20Si15Sb
_chemical_formula_sum   'Hf20 Si15 Sb1'
_cell_volume   654.00707916
_cell_formula_units_Z   1
loop_
 _symmetry_equiv_pos_site_id
 _symmetry_equiv_pos_as_xyz
  1  'x, y, z'
loop_
 _atom_site_type_symbol
 _atom_site_label
 _atom_site_symmetry_multiplicity
 _atom_site_fract_x
 _atom_site_fract_y
 _atom_site_fract_z
 _atom_site_occupancy
  Hf  Hf0  1  0.676418  0.324610  0.749192  1
  Hf  Hf1  1  0.324922  0.675827  0.251244  1
  Hf  Hf2  1  0.823743  0.825125  0.500480  1
  Hf  Hf3  1  0.181400  0.174312  0.998353  1
  Hf  Hf4  1  0.498153  0.150923  0.533750  1
  Hf  Hf5  1  0.495042  0.841185  0.030308  1
  Hf  Hf6  1  0.648134  0.999243  0.289289  1
  Hf  Hf7  1  0.344618  0.993999  0.780798  1
  Hf  Hf8  1  0.849836  0.511363  0.962882  1
  Hf  Hf9  1  0.152743  0.497536  0.466892  1
  Hf  Hf10  1  0.001268  0.650802  0.715121  1
  Hf  Hf11  1  0.012700  0.358131  0.224776  1
  Hf  Hf12  1  0.489360  0.361474  0.125478  1
  Hf  Hf13  1  0.500753  0.645426  0.626494  1
  Hf  Hf14  1  0.852767  0.999801  0.873117  1
  Hf  Hf15  1  0.148318  0.000119  0.377897  1
  Hf  Hf16  1  0.647770  0.501750  0.374170  1
  Hf  Hf17  1  0.352182  0.499976  0.871636  1
  Hf  Hf18  1  0.011618  0.841616  0.125851  1
  Hf  Hf19  1  0.999043  0.146309  0.622893  1
  Si  Si20  1  0.204650  0.854161  0.573860  1
  Si  Si21  1  0.644765  0.703883  0.821269  1
  Si  Si22  1  0.358130  0.295898  0.324413  1
  Si  Si23  1  0.854864  0.204643  0.427291  1
  Si  Si24  1  0.143655  0.795883  0.925614  1
  Si  Si25  1  0.703038  0.648380  0.177929  1
  Si  Si26  1  0.295348  0.353118  0.675518  1
  Si  Si27  1  0.538738  0.196223  0.929103  1
  Si  Si28  1  0.448946  0.798924  0.437725  1
  Si  Si29  1  0.696928  0.952016  0.685184  1
  Si  Si30  1  0.303306  0.049312  0.186588  1
  Si  Si31  1  0.801703  0.451196  0.563481  1
  Si  Si32  1  0.197500  0.547264  0.061863  1
  Si  Si33  1  0.950669  0.701404  0.316301  1
  Si  Si34  1  0.048182  0.301613  0.813226  1
  Sb  Sb35  1  0.798793  0.146554  0.080018  1
