# generated using pymatgen
data_Eu2Cu2B2PdPt5
_symmetry_space_group_name_H-M   'P 1'
_cell_length_a   5.53117833
_cell_length_b   5.53117818
_cell_length_c   7.27759800
_cell_angle_alpha   90.00000000
_cell_angle_beta   90.00000000
_cell_angle_gamma   119.96040968
_symmetry_Int_Tables_number   1
_chemical_formula_structural   Eu2Cu2B2PdPt5
_chemical_formula_sum   'Eu2 Cu2 B2 Pd1 Pt5'
_cell_volume   192.89773229
_cell_formula_units_Z   1
loop_
 _symmetry_equiv_pos_site_id
 _symmetry_equiv_pos_as_xyz
  1  'x, y, z'
loop_
 _atom_site_type_symbol
 _atom_site_label
 _atom_site_symmetry_multiplicity
 _atom_site_fract_x
 _atom_site_fract_y
 _atom_site_fract_z
 _atom_site_occupancy
  Eu  Eu0  1  0.000000  0.000000  0.501981  1
  Eu  Eu1  1  0.000000  0.000000  0.003469  1
  Cu  Cu2  1  0.667111  0.332889  0.998990  1
  Cu  Cu3  1  0.332889  0.667111  0.998990  1
  B  B4  1  0.669625  0.330375  0.498857  1
  B  B5  1  0.330375  0.669625  0.498857  1
  Pd  Pd6  1  0.500000  0.500000  0.708712  1
  Pt  Pt7  1  0.500000  0.000000  0.707812  1
  Pt  Pt8  1  0.000000  0.500000  0.707812  1
  Pt  Pt9  1  0.500000  0.500000  0.295254  1
  Pt  Pt10  1  0.500000  0.000000  0.289632  1
  Pt  Pt11  1  0.000000  0.500000  0.289632  1
