# generated using pymatgen
data_Tb16Cd4NiOs2Pd
_symmetry_space_group_name_H-M   'P 1'
_cell_length_a   9.66240662
_cell_length_b   9.65294496
_cell_length_c   9.73619800
_cell_angle_alpha   59.71428721
_cell_angle_beta   59.74704833
_cell_angle_gamma   59.58964989
_symmetry_Int_Tables_number   1
_chemical_formula_structural   Tb16Cd4NiOs2Pd
_chemical_formula_sum   'Tb16 Cd4 Ni1 Os2 Pd1'
_cell_volume   637.50772982
_cell_formula_units_Z   1
loop_
 _symmetry_equiv_pos_site_id
 _symmetry_equiv_pos_as_xyz
  1  'x, y, z'
loop_
 _atom_site_type_symbol
 _atom_site_label
 _atom_site_symmetry_multiplicity
 _atom_site_fract_x
 _atom_site_fract_y
 _atom_site_fract_z
 _atom_site_occupancy
  Tb  Tb0  1  0.344619  0.355920  0.348633  1
  Tb  Tb1  1  0.344619  0.355920  0.950827  1
  Tb  Tb2  1  0.345781  0.952143  0.351038  1
  Tb  Tb3  1  0.959130  0.350007  0.345432  1
  Tb  Tb4  1  0.815690  0.186703  0.191830  1
  Tb  Tb5  1  0.186742  0.811039  0.811847  1
  Tb  Tb6  1  0.186742  0.811039  0.190373  1
  Tb  Tb7  1  0.815690  0.186703  0.805778  1
  Tb  Tb8  1  0.189146  0.188040  0.811407  1
  Tb  Tb9  1  0.815706  0.802536  0.190879  1
  Tb  Tb10  1  0.937157  0.556379  0.568248  1
  Tb  Tb11  1  0.555734  0.938849  0.939037  1
  Tb  Tb12  1  0.555734  0.938849  0.566381  1
  Tb  Tb13  1  0.937157  0.556379  0.938217  1
  Tb  Tb14  1  0.564657  0.564216  0.935564  1
  Tb  Tb15  1  0.939544  0.940342  0.560057  1
  Cd  Cd16  1  0.580417  0.579645  0.581546  1
  Cd  Cd17  1  0.580417  0.579645  0.258390  1
  Cd  Cd18  1  0.581215  0.255869  0.581458  1
  Cd  Cd19  1  0.254867  0.581087  0.582023  1
  Ni  Ni20  1  0.144955  0.576009  0.139519  1
  Os  Os21  1  0.145279  0.144010  0.136579  1
  Os  Os22  1  0.145279  0.144010  0.574132  1
  Pd  Pd23  1  0.573723  0.144661  0.140808  1
