# generated using pymatgen
data_Dy4Mn3Fe7(Ni5P6)2
_symmetry_space_group_name_H-M   'P 1'
_cell_length_a   3.70848000
_cell_length_b   10.35275535
_cell_length_c   11.93198623
_cell_angle_alpha   90.02630168
_cell_angle_beta   90.00000000
_cell_angle_gamma   90.00000000
_symmetry_Int_Tables_number   1
_chemical_formula_structural   Dy4Mn3Fe7(Ni5P6)2
_chemical_formula_sum   'Dy4 Mn3 Fe7 Ni10 P12'
_cell_volume   458.10453422
_cell_formula_units_Z   1
loop_
 _symmetry_equiv_pos_site_id
 _symmetry_equiv_pos_as_xyz
  1  'x, y, z'
loop_
 _atom_site_type_symbol
 _atom_site_label
 _atom_site_symmetry_multiplicity
 _atom_site_fract_x
 _atom_site_fract_y
 _atom_site_fract_z
 _atom_site_occupancy
  Dy  Dy0  1  0.250000  0.578178  0.705832  1
  Dy  Dy1  1  0.250000  0.920213  0.204776  1
  Dy  Dy2  1  0.750000  0.423626  0.293426  1
  Dy  Dy3  1  0.750000  0.076811  0.794950  1
  Mn  Mn4  1  0.250000  0.702141  0.990897  1
  Mn  Mn5  1  0.250000  0.794952  0.489518  1
  Mn  Mn6  1  0.750000  0.294211  0.008687  1
  Fe  Fe7  1  0.250000  0.874074  0.701028  1
  Fe  Fe8  1  0.250000  0.623699  0.200634  1
  Fe  Fe9  1  0.750000  0.373078  0.797540  1
  Fe  Fe10  1  0.250000  0.460569  0.931627  1
  Fe  Fe11  1  0.250000  0.041137  0.432277  1
  Fe  Fe12  1  0.750000  0.537654  0.067085  1
  Fe  Fe13  1  0.750000  0.965049  0.566290  1
  Ni  Ni14  1  0.750000  0.212617  0.508489  1
  Ni  Ni15  1  0.250000  0.410664  0.487637  1
  Ni  Ni16  1  0.250000  0.091557  0.987606  1
  Ni  Ni17  1  0.750000  0.594365  0.514310  1
  Ni  Ni18  1  0.750000  0.905781  0.013541  1
  Ni  Ni19  1  0.250000  0.226151  0.175831  1
  Ni  Ni20  1  0.250000  0.271423  0.671442  1
  Ni  Ni21  1  0.750000  0.772213  0.828155  1
  Ni  Ni22  1  0.750000  0.726850  0.327885  1
  Ni  Ni23  1  0.750000  0.125711  0.298662  1
  P  P24  1  0.250000  0.430206  0.112417  1
  P  P25  1  0.250000  0.067068  0.613932  1
  P  P26  1  0.750000  0.566431  0.886389  1
  P  P27  1  0.750000  0.929571  0.387941  1
  P  P28  1  0.250000  0.269389  0.861931  1
  P  P29  1  0.250000  0.236077  0.368080  1
  P  P30  1  0.750000  0.728433  0.137427  1
  P  P31  1  0.750000  0.772319  0.637439  1
  P  P32  1  0.250000  0.603775  0.389338  1
  P  P33  1  0.250000  0.895437  0.889436  1
  P  P34  1  0.750000  0.395521  0.610586  1
  P  P35  1  0.750000  0.103051  0.106960  1
