# generated using pymatgen
data_NaLa2(PIr)6
_symmetry_space_group_name_H-M   'P 1'
_cell_length_a   6.73637697
_cell_length_b   6.70798240
_cell_length_c   7.14143520
_cell_angle_alpha   90.00002169
_cell_angle_beta   89.82101091
_cell_angle_gamma   119.86065917
_symmetry_Int_Tables_number   1
_chemical_formula_structural   NaLa2(PIr)6
_chemical_formula_sum   'Na1 La2 P6 Ir6'
_cell_volume   279.85926495
_cell_formula_units_Z   1
loop_
 _symmetry_equiv_pos_site_id
 _symmetry_equiv_pos_as_xyz
  1  'x, y, z'
loop_
 _atom_site_type_symbol
 _atom_site_label
 _atom_site_symmetry_multiplicity
 _atom_site_fract_x
 _atom_site_fract_y
 _atom_site_fract_z
 _atom_site_occupancy
  Na  Na0  1  0.000001  0.604293  0.833333  1
  La  La1  1  0.397962  0.401164  0.503361  1
  La  La2  1  0.602038  0.003202  0.163305  1
  P  P3  1  0.877400  0.221893  0.548844  1
  P  P4  1  0.214723  0.873248  0.457502  1
  P  P5  1  0.122600  0.344493  0.117823  1
  P  P6  1  0.785277  0.658525  0.209164  1
  P  P7  1  0.335016  0.114611  0.875691  1
  P  P8  1  0.664984  0.779596  0.790976  1
  Ir  Ir9  1  0.867523  0.871641  0.499087  1
  Ir  Ir10  1  0.132477  0.004117  0.167579  1
  Ir  Ir11  1  0.493441  0.487683  0.001813  1
  Ir  Ir12  1  0.000000  0.505287  0.333333  1
  Ir  Ir13  1  0.506559  0.994243  0.664853  1
  Ir  Ir14  1  0.000000  0.136003  0.833333  1
