# generated using pymatgen
data_Sr4CaEr(RuO6)2
_symmetry_space_group_name_H-M   'P 1'
_cell_length_a   5.79804177
_cell_length_b   5.87039176
_cell_length_c   8.23396565
_cell_angle_alpha   89.94131567
_cell_angle_beta   90.43293451
_cell_angle_gamma   89.99796028
_symmetry_Int_Tables_number   1
_chemical_formula_structural   Sr4CaEr(RuO6)2
_chemical_formula_sum   'Sr4 Ca1 Er1 Ru2 O12'
_cell_volume   280.24950178
_cell_formula_units_Z   1
loop_
 _symmetry_equiv_pos_site_id
 _symmetry_equiv_pos_as_xyz
  1  'x, y, z'
loop_
 _atom_site_type_symbol
 _atom_site_label
 _atom_site_symmetry_multiplicity
 _atom_site_fract_x
 _atom_site_fract_y
 _atom_site_fract_z
 _atom_site_occupancy
  Sr  Sr0  1  0.008551  0.037659  0.247252  1
  Sr  Sr1  1  0.490939  0.540367  0.248314  1
  Sr  Sr2  1  0.509061  0.459633  0.751685  1
  Sr  Sr3  1  0.991449  0.962341  0.752747  1
  Ca  Ca4  1  0.500000  0.000000  0.000000  1
  Er  Er5  1  0.999999  0.500000  0.500000  1
  Ru  Ru6  1  0.000000  0.500000  0.000000  1
  Ru  Ru7  1  0.500001  0.000000  0.500000  1
  O  O8  1  0.267947  0.308913  0.039180  1
  O  O9  1  0.187627  0.769177  0.041175  1
  O  O10  1  0.924241  0.480063  0.235861  1
  O  O11  1  0.576082  0.979707  0.271587  1
  O  O12  1  0.301730  0.272491  0.458034  1
  O  O13  1  0.228902  0.798574  0.460328  1
  O  O14  1  0.771098  0.201426  0.539672  1
  O  O15  1  0.698270  0.727510  0.541965  1
  O  O16  1  0.423918  0.020293  0.728413  1
  O  O17  1  0.075759  0.519937  0.764139  1
  O  O18  1  0.812373  0.230824  0.958825  1
  O  O19  1  0.732052  0.691087  0.960820  1
