# generated using pymatgen
data_Tb16InNi4Ag3
_symmetry_space_group_name_H-M   'P 1'
_cell_length_a   9.51116210
_cell_length_b   9.49734405
_cell_length_c   9.49728340
_cell_angle_alpha   60.49648358
_cell_angle_beta   60.13839601
_cell_angle_gamma   60.13935444
_symmetry_Int_Tables_number   1
_chemical_formula_structural   Tb16InNi4Ag3
_chemical_formula_sum   'Tb16 In1 Ni4 Ag3'
_cell_volume   610.15273605
_cell_formula_units_Z   1
loop_
 _symmetry_equiv_pos_site_id
 _symmetry_equiv_pos_as_xyz
  1  'x, y, z'
loop_
 _atom_site_type_symbol
 _atom_site_label
 _atom_site_symmetry_multiplicity
 _atom_site_fract_x
 _atom_site_fract_y
 _atom_site_fract_z
 _atom_site_occupancy
  Tb  Tb0  1  0.348058  0.348084  0.348103  1
  Tb  Tb1  1  0.350822  0.351535  0.949536  1
  Tb  Tb2  1  0.350827  0.949529  0.351540  1
  Tb  Tb3  1  0.946254  0.351297  0.351300  1
  Tb  Tb4  1  0.813470  0.189151  0.189127  1
  Tb  Tb5  1  0.187731  0.810038  0.810028  1
  Tb  Tb6  1  0.189907  0.809441  0.192136  1
  Tb  Tb7  1  0.811021  0.187794  0.811660  1
  Tb  Tb8  1  0.189902  0.192136  0.809442  1
  Tb  Tb9  1  0.811011  0.811669  0.187787  1
  Tb  Tb10  1  0.932640  0.564731  0.564730  1
  Tb  Tb11  1  0.563576  0.935576  0.935572  1
  Tb  Tb12  1  0.563309  0.937129  0.563980  1
  Tb  Tb13  1  0.933106  0.562786  0.940144  1
  Tb  Tb14  1  0.563306  0.563975  0.937132  1
  Tb  Tb15  1  0.933100  0.940136  0.562794  1
  In  In16  1  0.263161  0.578375  0.578370  1
  Ni  Ni17  1  0.141640  0.144636  0.144631  1
  Ni  Ni18  1  0.142068  0.142964  0.571895  1
  Ni  Ni19  1  0.142070  0.571900  0.142961  1
  Ni  Ni20  1  0.571647  0.142089  0.142101  1
  Ag  Ag21  1  0.583135  0.581652  0.581654  1
  Ag  Ag22  1  0.584118  0.583671  0.249703  1
  Ag  Ag23  1  0.584118  0.249701  0.583669  1
