# generated using pymatgen
data_VTcCl9
_symmetry_space_group_name_H-M   'P 1'
_cell_length_a   7.40847365
_cell_length_b   9.62748933
_cell_length_c   10.04795064
_cell_angle_alpha   102.40092623
_cell_angle_beta   96.87503164
_cell_angle_gamma   95.99438523
_symmetry_Int_Tables_number   1
_chemical_formula_structural   VTcCl9
_chemical_formula_sum   'V2 Tc2 Cl18'
_cell_volume   688.62930153
_cell_formula_units_Z   2
loop_
 _symmetry_equiv_pos_site_id
 _symmetry_equiv_pos_as_xyz
  1  'x, y, z'
loop_
 _atom_site_type_symbol
 _atom_site_label
 _atom_site_symmetry_multiplicity
 _atom_site_fract_x
 _atom_site_fract_y
 _atom_site_fract_z
 _atom_site_occupancy
  V  V0  1  0.052628  0.191013  0.780282  1
  V  V1  1  0.947372  0.808987  0.219718  1
  Tc  Tc2  1  0.608483  0.628110  0.665598  1
  Tc  Tc3  1  0.391517  0.371890  0.334402  1
  Cl  Cl4  1  0.380683  0.570030  0.238775  1
  Cl  Cl5  1  0.619317  0.429970  0.761225  1
  Cl  Cl6  1  0.418684  0.190044  0.450383  1
  Cl  Cl7  1  0.581316  0.809956  0.549617  1
  Cl  Cl8  1  0.090319  0.288018  0.248590  1
  Cl  Cl9  1  0.909681  0.711982  0.751410  1
  Cl  Cl10  1  0.509879  0.248599  0.151004  1
  Cl  Cl11  1  0.490121  0.751401  0.848996  1
  Cl  Cl12  1  0.296924  0.517212  0.545296  1
  Cl  Cl13  1  0.703076  0.482788  0.454704  1
  Cl  Cl14  1  0.832694  0.602308  0.106611  1
  Cl  Cl15  1  0.167306  0.397692  0.893389  1
  Cl  Cl16  1  0.947368  0.200046  0.578888  1
  Cl  Cl17  1  0.052632  0.799954  0.421112  1
  Cl  Cl18  1  0.259421  0.055573  0.770927  1
  Cl  Cl19  1  0.740579  0.944427  0.229073  1
  Cl  Cl20  1  0.839698  0.108575  0.875517  1
  Cl  Cl21  1  0.160302  0.891425  0.124483  1
