# generated using pymatgen
data_CaLa4PPb3
_symmetry_space_group_name_H-M   'P 1'
_cell_length_a   9.67013900
_cell_length_b   9.67013786
_cell_length_c   7.17322600
_cell_angle_alpha   90.00000000
_cell_angle_beta   90.00000000
_cell_angle_gamma   120.00000049
_symmetry_Int_Tables_number   1
_chemical_formula_structural   CaLa4PPb3
_chemical_formula_sum   'Ca2 La8 P2 Pb6'
_cell_volume   580.91223775
_cell_formula_units_Z   2
loop_
 _symmetry_equiv_pos_site_id
 _symmetry_equiv_pos_as_xyz
  1  'x, y, z'
loop_
 _atom_site_type_symbol
 _atom_site_label
 _atom_site_symmetry_multiplicity
 _atom_site_fract_x
 _atom_site_fract_y
 _atom_site_fract_z
 _atom_site_occupancy
  Ca  Ca0  1  0.666667  0.333333  0.500000  1
  Ca  Ca1  1  0.333333  0.666667  0.500000  1
  La  La2  1  0.761336  0.761336  0.251599  1
  La  La3  1  0.238664  0.000000  0.251599  1
  La  La4  1  0.000000  0.238664  0.251599  1
  La  La5  1  0.238664  0.238664  0.748401  1
  La  La6  1  0.761336  0.000000  0.748401  1
  La  La7  1  0.000000  0.761336  0.748401  1
  La  La8  1  0.333333  0.666667  0.000000  1
  La  La9  1  0.666667  0.333333  0.000000  1
  P  P10  1  0.000000  0.000000  0.500000  1
  P  P11  1  0.000000  0.000000  0.000000  1
  Pb  Pb12  1  0.403314  0.403314  0.250184  1
  Pb  Pb13  1  0.596686  0.000000  0.250184  1
  Pb  Pb14  1  0.000000  0.596686  0.250184  1
  Pb  Pb15  1  0.596686  0.596686  0.749816  1
  Pb  Pb16  1  0.403314  0.000000  0.749816  1
  Pb  Pb17  1  0.000000  0.403314  0.749816  1
