# generated using pymatgen
data_Sm2V3P7Rh9
_symmetry_space_group_name_H-M   'P 1'
_cell_length_a   3.88302300
_cell_length_b   9.56673085
_cell_length_c   9.56421703
_cell_angle_alpha   120.01187020
_cell_angle_beta   89.99982642
_cell_angle_gamma   90.00018154
_symmetry_Int_Tables_number   1
_chemical_formula_structural   Sm2V3P7Rh9
_chemical_formula_sum   'Sm2 V3 P7 Rh9'
_cell_volume   307.65332550
_cell_formula_units_Z   1
loop_
 _symmetry_equiv_pos_site_id
 _symmetry_equiv_pos_as_xyz
  1  'x, y, z'
loop_
 _atom_site_type_symbol
 _atom_site_label
 _atom_site_symmetry_multiplicity
 _atom_site_fract_x
 _atom_site_fract_y
 _atom_site_fract_z
 _atom_site_occupancy
  Sm  Sm0  1  0.261821  0.666619  0.333338  1
  Sm  Sm1  1  0.761699  0.333341  0.666551  1
  V  V2  1  0.762033  0.092243  0.876058  1
  V  V3  1  0.761999  0.123932  0.216294  1
  V  V4  1  0.762007  0.783634  0.907704  1
  P  P5  1  0.262269  0.000051  0.000014  1
  P  P6  1  0.761899  0.887298  0.598902  1
  P  P7  1  0.761897  0.401158  0.288421  1
  P  P8  1  0.761907  0.711582  0.112655  1
  P  P9  1  0.261787  0.115498  0.410715  1
  P  P10  1  0.261761  0.589377  0.704863  1
  P  P11  1  0.261776  0.295221  0.884461  1
  Rh  Rh12  1  0.261964  0.886148  0.158171  1
  Rh  Rh13  1  0.261961  0.841858  0.728060  1
  Rh  Rh14  1  0.261970  0.272037  0.113815  1
  Rh  Rh15  1  0.761871  0.612369  0.562787  1
  Rh  Rh16  1  0.761891  0.437158  0.049460  1
  Rh  Rh17  1  0.761890  0.950397  0.387639  1
  Rh  Rh18  1  0.261847  0.367940  0.435302  1
  Rh  Rh19  1  0.261875  0.564776  0.932634  1
  Rh  Rh20  1  0.261877  0.067364  0.632156  1
