# generated using pymatgen
data_Pr4C4SCl
_symmetry_space_group_name_H-M   'P 1'
_cell_length_a   7.56554088
_cell_length_b   7.56554148
_cell_length_c   6.91764158
_cell_angle_alpha   102.76067008
_cell_angle_beta   102.76067068
_cell_angle_gamma   31.57319892
_symmetry_Int_Tables_number   1
_chemical_formula_structural   Pr4C4SCl
_chemical_formula_sum   'Pr4 C4 S1 Cl1'
_cell_volume   201.77808119
_cell_formula_units_Z   1
loop_
 _symmetry_equiv_pos_site_id
 _symmetry_equiv_pos_as_xyz
  1  'x, y, z'
loop_
 _atom_site_type_symbol
 _atom_site_label
 _atom_site_symmetry_multiplicity
 _atom_site_fract_x
 _atom_site_fract_y
 _atom_site_fract_z
 _atom_site_occupancy
  Pr  Pr0  1  0.442348  0.838815  0.155783  1
  Pr  Pr1  1  0.161184  0.557652  0.344217  1
  Pr  Pr2  1  0.839580  0.448236  0.639708  1
  Pr  Pr3  1  0.551764  0.160419  0.860292  1
  C  C4  1  0.076308  0.361567  0.026890  1
  C  C5  1  0.638433  0.923692  0.473111  1
  C  C6  1  0.367210  0.081026  0.531510  1
  C  C7  1  0.918974  0.632790  0.968489  1
  S  S8  1  0.784656  0.215344  0.249999  1
  Cl  Cl9  1  0.219541  0.780459  0.750000  1
