# generated using pymatgen
data_Tb4Dy6(TlBi)3
_symmetry_space_group_name_H-M   'P 1'
_cell_length_a   9.08227900
_cell_length_b   9.08502168
_cell_length_c   6.62798700
_cell_angle_alpha   90.00000000
_cell_angle_beta   90.00000000
_cell_angle_gamma   119.98466592
_symmetry_Int_Tables_number   1
_chemical_formula_structural   Tb4Dy6(TlBi)3
_chemical_formula_sum   'Tb4 Dy6 Tl3 Bi3'
_cell_volume   473.69649518
_cell_formula_units_Z   1
loop_
 _symmetry_equiv_pos_site_id
 _symmetry_equiv_pos_as_xyz
  1  'x, y, z'
loop_
 _atom_site_type_symbol
 _atom_site_label
 _atom_site_symmetry_multiplicity
 _atom_site_fract_x
 _atom_site_fract_y
 _atom_site_fract_z
 _atom_site_occupancy
  Tb  Tb0  1  0.001220  0.236645  0.750000  1
  Tb  Tb1  1  0.242701  0.240837  0.250000  1
  Tb  Tb2  1  0.757349  0.989894  0.250000  1
  Tb  Tb3  1  0.992421  0.758636  0.250000  1
  Dy  Dy4  1  0.660145  0.332660  0.998454  1
  Dy  Dy5  1  0.343975  0.667868  0.998117  1
  Dy  Dy6  1  0.343975  0.667868  0.501883  1
  Dy  Dy7  1  0.660145  0.332660  0.501546  1
  Dy  Dy8  1  0.755368  0.764097  0.750000  1
  Dy  Dy9  1  0.244991  0.010019  0.750000  1
  Tl  Tl10  1  0.394810  0.395412  0.750000  1
  Tl  Tl11  1  0.606720  0.003647  0.750000  1
  Tl  Tl12  1  0.604306  0.601137  0.250000  1
  Bi  Bi13  1  0.002599  0.610444  0.750000  1
  Bi  Bi14  1  0.390812  0.996052  0.250000  1
  Bi  Bi15  1  0.998464  0.392125  0.250000  1
