# generated using pymatgen
data_Nb12CoNi7(WN)4
_symmetry_space_group_name_H-M   'P 1'
_cell_length_a   8.18033715
_cell_length_b   8.18033749
_cell_length_c   8.18033700
_cell_angle_alpha   59.99737946
_cell_angle_beta   59.99737657
_cell_angle_gamma   59.99737609
_symmetry_Int_Tables_number   1
_chemical_formula_structural   Nb12CoNi7(WN)4
_chemical_formula_sum   'Nb12 Co1 Ni7 W4 N4'
_cell_volume   387.05510264
_cell_formula_units_Z   1
loop_
 _symmetry_equiv_pos_site_id
 _symmetry_equiv_pos_as_xyz
  1  'x, y, z'
loop_
 _atom_site_type_symbol
 _atom_site_label
 _atom_site_symmetry_multiplicity
 _atom_site_fract_x
 _atom_site_fract_y
 _atom_site_fract_z
 _atom_site_occupancy
  Nb  Nb0  1  0.812816  0.812816  0.186374  1
  Nb  Nb1  1  0.186988  0.186988  0.813062  1
  Nb  Nb2  1  0.812816  0.186374  0.812816  1
  Nb  Nb3  1  0.186988  0.813062  0.186988  1
  Nb  Nb4  1  0.186374  0.812816  0.812816  1
  Nb  Nb5  1  0.813062  0.186988  0.186988  1
  Nb  Nb6  1  0.437814  0.437814  0.062641  1
  Nb  Nb7  1  0.062797  0.062797  0.437392  1
  Nb  Nb8  1  0.437814  0.062641  0.437814  1
  Nb  Nb9  1  0.062797  0.437392  0.062797  1
  Nb  Nb10  1  0.062641  0.437814  0.437814  1
  Nb  Nb11  1  0.437392  0.062797  0.062797  1
  Co  Co12  1  0.826707  0.826707  0.826707  1
  Ni  Ni13  1  0.738524  0.420544  0.420544  1
  Ni  Ni14  1  0.420544  0.738524  0.420544  1
  Ni  Ni15  1  0.420544  0.420544  0.738524  1
  Ni  Ni16  1  0.420638  0.420638  0.420638  1
  Ni  Ni17  1  0.512863  0.828586  0.828586  1
  Ni  Ni18  1  0.828586  0.512863  0.828586  1
  Ni  Ni19  1  0.828586  0.828586  0.512863  1
  W  W20  1  0.123632  0.627027  0.627027  1
  W  W21  1  0.627027  0.123632  0.627027  1
  W  W22  1  0.627027  0.627027  0.123632  1
  W  W23  1  0.624667  0.624667  0.624667  1
  N  N24  1  0.624518  0.125268  0.125268  1
  N  N25  1  0.125268  0.624518  0.125268  1
  N  N26  1  0.125268  0.125268  0.624518  1
  N  N27  1  0.125296  0.125296  0.125296  1
