# generated using pymatgen
data_Nd8Cd2CuTc
_symmetry_space_group_name_H-M   'P 1'
_cell_length_a   9.95305749
_cell_length_b   9.95305792
_cell_length_c   10.06536500
_cell_angle_alpha   59.62603507
_cell_angle_beta   59.62603362
_cell_angle_gamma   59.50467068
_symmetry_Int_Tables_number   1
_chemical_formula_structural   Nd8Cd2CuTc
_chemical_formula_sum   'Nd16 Cd4 Cu2 Tc2'
_cell_volume   698.41854595
_cell_formula_units_Z   2
loop_
 _symmetry_equiv_pos_site_id
 _symmetry_equiv_pos_as_xyz
  1  'x, y, z'
loop_
 _atom_site_type_symbol
 _atom_site_label
 _atom_site_symmetry_multiplicity
 _atom_site_fract_x
 _atom_site_fract_y
 _atom_site_fract_z
 _atom_site_occupancy
  Nd  Nd0  1  0.348499  0.348499  0.354966  1
  Nd  Nd1  1  0.348499  0.348499  0.948035  1
  Nd  Nd2  1  0.344988  0.957262  0.348875  1
  Nd  Nd3  1  0.957262  0.344988  0.348875  1
  Nd  Nd4  1  0.815283  0.189222  0.191034  1
  Nd  Nd5  1  0.189222  0.815283  0.804460  1
  Nd  Nd6  1  0.189222  0.815283  0.191034  1
  Nd  Nd7  1  0.815283  0.189222  0.804460  1
  Nd  Nd8  1  0.190266  0.190266  0.809734  1
  Nd  Nd9  1  0.805568  0.805568  0.194432  1
  Nd  Nd10  1  0.936966  0.555917  0.567028  1
  Nd  Nd11  1  0.555917  0.936966  0.940088  1
  Nd  Nd12  1  0.555917  0.936966  0.567028  1
  Nd  Nd13  1  0.936966  0.555917  0.940088  1
  Nd  Nd14  1  0.563717  0.563717  0.936283  1
  Nd  Nd15  1  0.939335  0.939335  0.560665  1
  Cd  Cd16  1  0.579529  0.579529  0.580313  1
  Cd  Cd17  1  0.579529  0.579529  0.260631  1
  Cd  Cd18  1  0.580968  0.258832  0.580100  1
  Cd  Cd19  1  0.258832  0.580968  0.580100  1
  Cu  Cu20  1  0.148247  0.573084  0.139334  1
  Cu  Cu21  1  0.573084  0.148247  0.139334  1
  Tc  Tc22  1  0.143449  0.143449  0.133564  1
  Tc  Tc23  1  0.143449  0.143449  0.579537  1
