# generated using pymatgen
data_LiTc8F33
_symmetry_space_group_name_H-M   'P 1'
_cell_length_a   9.21095845
_cell_length_b   9.21301344
_cell_length_c   19.47002600
_cell_angle_alpha   89.82737259
_cell_angle_beta   90.08632664
_cell_angle_gamma   120.00738151
_symmetry_Int_Tables_number   1
_chemical_formula_structural   LiTc8F33
_chemical_formula_sum   'Li2 Tc16 F66'
_cell_volume   1430.76863863
_cell_formula_units_Z   2
loop_
 _symmetry_equiv_pos_site_id
 _symmetry_equiv_pos_as_xyz
  1  'x, y, z'
loop_
 _atom_site_type_symbol
 _atom_site_label
 _atom_site_symmetry_multiplicity
 _atom_site_fract_x
 _atom_site_fract_y
 _atom_site_fract_z
 _atom_site_occupancy
  Li  Li0  1  0.333435  0.667710  0.149854  1
  Li  Li1  1  0.666565  0.334275  0.649854  1
  Tc  Tc2  1  0.005951  0.673011  0.249616  1
  Tc  Tc3  1  0.004217  0.338512  0.874307  1
  Tc  Tc4  1  0.334540  0.995330  0.874422  1
  Tc  Tc5  1  0.000044  0.999030  0.997215  1
  Tc  Tc6  1  0.999956  0.998986  0.497215  1
  Tc  Tc7  1  0.333207  0.667429  0.627448  1
  Tc  Tc8  1  0.327447  0.333735  0.249653  1
  Tc  Tc9  1  0.333390  0.327712  0.749771  1
  Tc  Tc10  1  0.666610  0.994322  0.249771  1
  Tc  Tc11  1  0.661312  0.665115  0.874391  1
  Tc  Tc12  1  0.665460  0.660790  0.374422  1
  Tc  Tc13  1  0.338688  0.003803  0.374391  1
  Tc  Tc14  1  0.666793  0.334222  0.127448  1
  Tc  Tc15  1  0.994049  0.667060  0.749616  1
  Tc  Tc16  1  0.672553  0.006288  0.749653  1
  Tc  Tc17  1  0.995783  0.334295  0.374307  1
  F  F18  1  0.064191  0.865454  0.046334  1
  F  F19  1  0.078037  0.866796  0.197794  1
  F  F20  1  0.129617  0.923078  0.428404  1
  F  F21  1  0.120259  0.867830  0.812306  1
  F  F22  1  0.208170  0.791767  0.310426  1
  F  F23  1  0.080700  0.536063  0.808796  1
  F  F24  1  0.126472  0.600611  0.191520  1
  F  F25  1  0.201609  0.744599  0.695181  1
  F  F26  1  0.256673  0.801811  0.927201  1
  F  F27  1  0.120811  0.527873  0.425469  1
  F  F28  1  0.135114  0.532319  0.579405  1
  F  F29  1  0.407429  0.878511  0.425645  1
  F  F30  1  0.076394  0.205466  0.428356  1
  F  F31  1  0.396465  0.865734  0.579259  1
  F  F32  1  0.197388  0.453814  0.927090  1
  F  F33  1  0.132172  0.252312  0.812406  1
  F  F34  1  0.455465  0.919469  0.808979  1
  F  F35  1  0.208172  0.416575  0.310297  1
  F  F36  1  0.473435  0.874173  0.191630  1
  F  F37  1  0.133455  0.196213  0.046233  1
  F  F38  1  0.134173  0.212688  0.197695  1
  F  F39  1  0.255899  0.458300  0.695438  1
  F  F40  1  0.541862  0.798778  0.695450  1
  F  F41  1  0.197382  0.132070  0.546305  1
  F  F42  1  0.212094  0.134662  0.697888  1
  F  F43  1  0.400229  0.527391  0.191552  1
  F  F44  1  0.205987  0.075762  0.928292  1
  F  F45  1  0.468381  0.604439  0.579607  1
  F  F46  1  0.545690  0.742396  0.927097  1
  F  F47  1  0.471731  0.591513  0.425723  1
  F  F48  1  0.464093  0.544562  0.808947  1
  F  F49  1  0.583284  0.791564  0.310488  1
  F  F50  1  0.252234  0.132129  0.312350  1
  F  F51  1  0.416716  0.208280  0.810488  1
  F  F52  1  0.747766  0.879895  0.812350  1
  F  F53  1  0.544535  0.464003  0.308979  1
  F  F54  1  0.787906  0.922567  0.197888  1
  F  F55  1  0.526565  0.400736  0.691630  1
  F  F56  1  0.802618  0.934687  0.046305  1
  F  F57  1  0.458138  0.256916  0.195450  1
  F  F58  1  0.454310  0.196707  0.427097  1
  F  F59  1  0.592571  0.471082  0.925645  1
  F  F60  1  0.603535  0.469270  0.079259  1
  F  F61  1  0.794013  0.869775  0.428292  1
  F  F62  1  0.528269  0.119783  0.925723  1
  F  F63  1  0.870383  0.793461  0.928404  1
  F  F64  1  0.531619  0.136058  0.079607  1
  F  F65  1  0.743327  0.545138  0.427201  1
  F  F66  1  0.879741  0.747571  0.312306  1
  F  F67  1  0.535907  0.080468  0.308947  1
  F  F68  1  0.791830  0.583597  0.810426  1
  F  F69  1  0.599770  0.127162  0.691552  1
  F  F70  1  0.935809  0.801265  0.546334  1
  F  F71  1  0.921963  0.788759  0.697794  1
  F  F72  1  0.798391  0.542990  0.195181  1
  F  F73  1  0.744101  0.202401  0.195438  1
  F  F74  1  0.873528  0.474138  0.691520  1
  F  F75  1  0.864886  0.397204  0.079405  1
  F  F76  1  0.802612  0.256425  0.427090  1
  F  F77  1  0.879189  0.407062  0.925469  1
  F  F78  1  0.919300  0.455363  0.308796  1
  F  F79  1  0.791828  0.208402  0.810297  1
  F  F80  1  0.867828  0.120140  0.312406  1
  F  F81  1  0.865827  0.078516  0.697695  1
  F  F82  1  0.866545  0.062757  0.546233  1
  F  F83  1  0.923606  0.129074  0.928356  1
