# generated using pymatgen
data_Tb4HoCo2Pd
_symmetry_space_group_name_H-M   'P 1'
_cell_length_a   7.39615688
_cell_length_b   7.39615657
_cell_length_c   8.53648610
_cell_angle_alpha   115.67135982
_cell_angle_beta   115.67136015
_cell_angle_gamma   89.99999399
_symmetry_Int_Tables_number   1
_chemical_formula_structural   Tb4HoCo2Pd
_chemical_formula_sum   'Tb8 Ho2 Co4 Pd2'
_cell_volume   369.07396895
_cell_formula_units_Z   2
loop_
 _symmetry_equiv_pos_site_id
 _symmetry_equiv_pos_as_xyz
  1  'x, y, z'
loop_
 _atom_site_type_symbol
 _atom_site_label
 _atom_site_symmetry_multiplicity
 _atom_site_fract_x
 _atom_site_fract_y
 _atom_site_fract_z
 _atom_site_occupancy
  Tb  Tb0  1  0.469968  0.302013  0.271981  1
  Tb  Tb1  1  0.969969  0.469968  0.271981  1
  Tb  Tb2  1  0.302013  0.802012  0.271981  1
  Tb  Tb3  1  0.802012  0.969969  0.271981  1
  Tb  Tb4  1  0.197987  0.030032  0.728018  1
  Tb  Tb5  1  0.697986  0.197987  0.728018  1
  Tb  Tb6  1  0.030032  0.530031  0.728018  1
  Tb  Tb7  1  0.530031  0.697986  0.728018  1
  Ho  Ho8  1  0.000000  0.000000  0.000000  1
  Ho  Ho9  1  0.500000  0.500000  0.000000  1
  Co  Co10  1  0.630986  0.130986  0.000000  1
  Co  Co11  1  0.130986  0.369015  0.000000  1
  Co  Co12  1  0.869014  0.630986  0.000000  1
  Co  Co13  1  0.369015  0.869014  0.000000  1
  Pd  Pd14  1  0.250000  0.250000  0.500000  1
  Pd  Pd15  1  0.750000  0.750000  0.500000  1
