# generated using pymatgen
data_Sc5GaB4(Ir4Ru)2
_symmetry_space_group_name_H-M   'P 1'
_cell_length_a   3.04553500
_cell_length_b   9.52592300
_cell_length_c   9.52592300
_cell_angle_alpha   90.00000000
_cell_angle_beta   90.00000000
_cell_angle_gamma   90.00000000
_symmetry_Int_Tables_number   1
_chemical_formula_structural   Sc5GaB4(Ir4Ru)2
_chemical_formula_sum   'Sc5 Ga1 B4 Ir8 Ru2'
_cell_volume   276.36161903
_cell_formula_units_Z   1
loop_
 _symmetry_equiv_pos_site_id
 _symmetry_equiv_pos_as_xyz
  1  'x, y, z'
loop_
 _atom_site_type_symbol
 _atom_site_label
 _atom_site_symmetry_multiplicity
 _atom_site_fract_x
 _atom_site_fract_y
 _atom_site_fract_z
 _atom_site_occupancy
  Sc  Sc0  1  0.000000  0.173648  0.674195  1
  Sc  Sc1  1  0.000000  0.826352  0.325805  1
  Sc  Sc2  1  0.000000  0.325805  0.173648  1
  Sc  Sc3  1  0.000000  0.674195  0.826352  1
  Sc  Sc4  1  0.000000  0.500000  0.500000  1
  Ga  Ga5  1  0.000000  0.000000  0.000000  1
  B  B6  1  0.000000  0.624781  0.118327  1
  B  B7  1  0.000000  0.375219  0.881673  1
  B  B8  1  0.000000  0.881673  0.624781  1
  B  B9  1  0.000000  0.118327  0.375219  1
  Ir  Ir10  1  0.500000  0.068509  0.215192  1
  Ir  Ir11  1  0.500000  0.931491  0.784808  1
  Ir  Ir12  1  0.500000  0.784808  0.068509  1
  Ir  Ir13  1  0.500000  0.425144  0.722280  1
  Ir  Ir14  1  0.500000  0.215192  0.931491  1
  Ir  Ir15  1  0.500000  0.574856  0.277720  1
  Ir  Ir16  1  0.500000  0.722280  0.574856  1
  Ir  Ir17  1  0.500000  0.277720  0.425144  1
  Ru  Ru18  1  0.500000  0.000000  0.500000  1
  Ru  Ru19  1  0.500000  0.500000  0.000000  1
