# generated using pymatgen
data_Dy3HoSc3AlPt4
_symmetry_space_group_name_H-M   'P 1'
_cell_length_a   4.51457000
_cell_length_b   7.02795686
_cell_length_c   8.28723593
_cell_angle_alpha   86.92749919
_cell_angle_beta   90.00000000
_cell_angle_gamma   90.00000000
_symmetry_Int_Tables_number   1
_chemical_formula_structural   Dy3HoSc3AlPt4
_chemical_formula_sum   'Dy3 Ho1 Sc3 Al1 Pt4'
_cell_volume   262.56113323
_cell_formula_units_Z   1
loop_
 _symmetry_equiv_pos_site_id
 _symmetry_equiv_pos_as_xyz
  1  'x, y, z'
loop_
 _atom_site_type_symbol
 _atom_site_label
 _atom_site_symmetry_multiplicity
 _atom_site_fract_x
 _atom_site_fract_y
 _atom_site_fract_z
 _atom_site_occupancy
  Dy  Dy0  1  0.250000  0.040228  0.671675  1
  Dy  Dy1  1  0.250000  0.522365  0.815443  1
  Dy  Dy2  1  0.750000  0.986992  0.339801  1
  Ho  Ho3  1  0.750000  0.468214  0.184056  1
  Sc  Sc4  1  0.250000  0.133944  0.069728  1
  Sc  Sc5  1  0.250000  0.637927  0.435904  1
  Sc  Sc6  1  0.750000  0.863531  0.929090  1
  Al  Al7  1  0.750000  0.359841  0.567580  1
  Pt  Pt8  1  0.250000  0.263804  0.383023  1
  Pt  Pt9  1  0.250000  0.748285  0.101755  1
  Pt  Pt10  1  0.750000  0.729387  0.614743  1
  Pt  Pt11  1  0.750000  0.245482  0.887202  1
