# generated using pymatgen
data_TbSm3(AuCl6)4
_symmetry_space_group_name_H-M   'P 1'
_cell_length_a   8.04767051
_cell_length_b   10.00239085
_cell_length_c   14.25828000
_cell_angle_alpha   102.85419716
_cell_angle_beta   97.23333747
_cell_angle_gamma   113.01207547
_symmetry_Int_Tables_number   1
_chemical_formula_structural   TbSm3(AuCl6)4
_chemical_formula_sum   'Tb1 Sm3 Au4 Cl24'
_cell_volume   1000.52507008
_cell_formula_units_Z   1
loop_
 _symmetry_equiv_pos_site_id
 _symmetry_equiv_pos_as_xyz
  1  'x, y, z'
loop_
 _atom_site_type_symbol
 _atom_site_label
 _atom_site_symmetry_multiplicity
 _atom_site_fract_x
 _atom_site_fract_y
 _atom_site_fract_z
 _atom_site_occupancy
  Tb  Tb0  1  0.030621  0.685219  0.128053  1
  Sm  Sm1  1  0.578329  0.927673  0.623298  1
  Sm  Sm2  1  0.420971  0.071701  0.376184  1
  Sm  Sm3  1  0.970407  0.315061  0.872444  1
  Au  Au4  1  0.288940  0.633788  0.763358  1
  Au  Au5  1  0.711464  0.366742  0.236365  1
  Au  Au6  1  0.499916  0.499863  0.499898  1
  Au  Au7  1  0.000024  0.999580  0.000378  1
  Cl  Cl8  1  0.596095  0.732808  0.750976  1
  Cl  Cl9  1  0.404279  0.267428  0.249095  1
  Cl  Cl10  1  0.276871  0.847853  0.732047  1
  Cl  Cl11  1  0.723271  0.152493  0.267979  1
  Cl  Cl12  1  0.979692  0.536408  0.772046  1
  Cl  Cl13  1  0.020170  0.465832  0.226801  1
  Cl  Cl14  1  0.299806  0.416035  0.790733  1
  Cl  Cl15  1  0.702962  0.584988  0.208791  1
  Cl  Cl16  1  0.687865  0.372946  0.501957  1
  Cl  Cl17  1  0.312018  0.626942  0.497964  1
  Cl  Cl18  1  0.754715  0.733005  0.532850  1
  Cl  Cl19  1  0.245022  0.266612  0.466969  1
  Cl  Cl20  1  0.789984  0.102962  0.976364  1
  Cl  Cl21  1  0.208030  0.894729  0.024835  1
  Cl  Cl22  1  0.779417  0.790508  0.030531  1
  Cl  Cl23  1  0.222233  0.208517  0.970247  1
  Cl  Cl24  1  0.621854  0.195831  0.746011  1
  Cl  Cl25  1  0.374360  0.803079  0.252810  1
  Cl  Cl26  1  0.938837  0.059235  0.731545  1
  Cl  Cl27  1  0.060485  0.936820  0.266211  1
  Cl  Cl28  1  0.717800  0.047697  0.482448  1
  Cl  Cl29  1  0.281787  0.952119  0.517221  1
  Cl  Cl30  1  0.773823  0.439078  0.979716  1
  Cl  Cl31  1  0.227951  0.566449  0.023871  1
