# generated using pymatgen
data_ScPa(CoSb)2
_symmetry_space_group_name_H-M   'P 1'
_cell_length_a   6.28860400
_cell_length_b   4.41237500
_cell_length_c   8.80797500
_cell_angle_alpha   90.00000000
_cell_angle_beta   90.00000000
_cell_angle_gamma   90.00000000
_symmetry_Int_Tables_number   1
_chemical_formula_structural   ScPa(CoSb)2
_chemical_formula_sum   'Sc2 Pa2 Co4 Sb4'
_cell_volume   244.40086360
_cell_formula_units_Z   2
loop_
 _symmetry_equiv_pos_site_id
 _symmetry_equiv_pos_as_xyz
  1  'x, y, z'
loop_
 _atom_site_type_symbol
 _atom_site_label
 _atom_site_symmetry_multiplicity
 _atom_site_fract_x
 _atom_site_fract_y
 _atom_site_fract_z
 _atom_site_occupancy
  Sc  Sc0  1  0.008408  0.500000  0.375164  1
  Sc  Sc1  1  0.508408  0.000000  0.624838  1
  Pa  Pa2  1  0.489134  0.000000  0.128105  1
  Pa  Pa3  1  0.989134  0.500000  0.871896  1
  Co  Co4  1  0.740499  0.500000  0.118709  1
  Co  Co5  1  0.266866  0.000000  0.362432  1
  Co  Co6  1  0.766866  0.500000  0.637568  1
  Co  Co7  1  0.240499  0.000000  0.881291  1
  Sb  Sb8  1  0.990549  0.000000  0.138781  1
  Sb  Sb9  1  0.504540  0.500000  0.390376  1
  Sb  Sb10  1  0.004541  0.000000  0.609624  1
  Sb  Sb11  1  0.490550  0.500000  0.861219  1
