# generated using pymatgen
data_CeGd7(Si3Pd)4
_symmetry_space_group_name_H-M   'P 1'
_cell_length_a   8.16970300
_cell_length_b   8.16970246
_cell_length_c   8.18723900
_cell_angle_alpha   90.00000000
_cell_angle_beta   90.00000000
_cell_angle_gamma   119.99999815
_symmetry_Int_Tables_number   1
_chemical_formula_structural   CeGd7(Si3Pd)4
_chemical_formula_sum   'Ce1 Gd7 Si12 Pd4'
_cell_volume   473.23909631
_cell_formula_units_Z   1
loop_
 _symmetry_equiv_pos_site_id
 _symmetry_equiv_pos_as_xyz
  1  'x, y, z'
loop_
 _atom_site_type_symbol
 _atom_site_label
 _atom_site_symmetry_multiplicity
 _atom_site_fract_x
 _atom_site_fract_y
 _atom_site_fract_z
 _atom_site_occupancy
  Ce  Ce0  1  0.000000  0.000000  0.250000  1
  Gd  Gd1  1  0.500180  0.499820  0.750000  1
  Gd  Gd2  1  0.500613  0.499387  0.250000  1
  Gd  Gd3  1  0.999640  0.499820  0.750000  1
  Gd  Gd4  1  0.998775  0.499387  0.250000  1
  Gd  Gd5  1  0.500180  0.000360  0.750000  1
  Gd  Gd6  1  0.500613  0.001225  0.250000  1
  Gd  Gd7  1  0.000000  0.000000  0.750000  1
  Si  Si8  1  0.834624  0.165376  0.999306  1
  Si  Si9  1  0.165421  0.834579  0.999599  1
  Si  Si10  1  0.330751  0.165376  0.999306  1
  Si  Si11  1  0.165421  0.834579  0.500401  1
  Si  Si12  1  0.669159  0.834579  0.999599  1
  Si  Si13  1  0.834624  0.165376  0.500694  1
  Si  Si14  1  0.834624  0.669249  0.999306  1
  Si  Si15  1  0.669159  0.834579  0.500401  1
  Si  Si16  1  0.165421  0.330841  0.999599  1
  Si  Si17  1  0.330751  0.165376  0.500694  1
  Si  Si18  1  0.165421  0.330841  0.500401  1
  Si  Si19  1  0.834624  0.669249  0.500694  1
  Pd  Pd20  1  0.666667  0.333333  0.998955  1
  Pd  Pd21  1  0.333333  0.666667  0.999783  1
  Pd  Pd22  1  0.333333  0.666667  0.500217  1
  Pd  Pd23  1  0.666667  0.333333  0.501045  1
