# generated using pymatgen
data_Y4Al6ReIr
_symmetry_space_group_name_H-M   'P 1'
_cell_length_a   5.52579400
_cell_length_b   5.52579488
_cell_length_c   8.86105400
_cell_angle_alpha   90.00000000
_cell_angle_beta   90.00000000
_cell_angle_gamma   119.99999471
_symmetry_Int_Tables_number   1
_chemical_formula_structural   Y4Al6ReIr
_chemical_formula_sum   'Y4 Al6 Re1 Ir1'
_cell_volume   234.31791187
_cell_formula_units_Z   1
loop_
 _symmetry_equiv_pos_site_id
 _symmetry_equiv_pos_as_xyz
  1  'x, y, z'
loop_
 _atom_site_type_symbol
 _atom_site_label
 _atom_site_symmetry_multiplicity
 _atom_site_fract_x
 _atom_site_fract_y
 _atom_site_fract_z
 _atom_site_occupancy
  Y  Y0  1  0.666667  0.333334  0.054130  1
  Y  Y1  1  0.666667  0.333334  0.448143  1
  Y  Y2  1  0.333333  0.666666  0.551856  1
  Y  Y3  1  0.333333  0.666666  0.945870  1
  Al  Al4  1  0.162158  0.324315  0.251764  1
  Al  Al5  1  0.162159  0.837843  0.251764  1
  Al  Al6  1  0.675685  0.837843  0.251764  1
  Al  Al7  1  0.324315  0.162158  0.748236  1
  Al  Al8  1  0.837842  0.162158  0.748236  1
  Al  Al9  1  0.837842  0.675685  0.748236  1
  Re  Re10  1  0.000000  0.000000  0.000000  1
  Ir  Ir11  1  0.000000  0.000000  0.500000  1
