# generated using pymatgen
data_Ca18TbCd8N7
_symmetry_space_group_name_H-M   'P 1'
_cell_length_a   10.42463102
_cell_length_b   10.42463167
_cell_length_c   10.42463200
_cell_angle_alpha   59.99999896
_cell_angle_beta   59.99999688
_cell_angle_gamma   59.99999817
_symmetry_Int_Tables_number   1
_chemical_formula_structural   Ca18TbCd8N7
_chemical_formula_sum   'Ca18 Tb1 Cd8 N7'
_cell_volume   801.06383689
_cell_formula_units_Z   1
loop_
 _symmetry_equiv_pos_site_id
 _symmetry_equiv_pos_as_xyz
  1  'x, y, z'
loop_
 _atom_site_type_symbol
 _atom_site_label
 _atom_site_symmetry_multiplicity
 _atom_site_fract_x
 _atom_site_fract_y
 _atom_site_fract_z
 _atom_site_occupancy
  Ca  Ca0  1  0.171355  0.500000  0.828645  1
  Ca  Ca1  1  0.500000  0.828645  0.171355  1
  Ca  Ca2  1  0.828645  0.171355  0.500000  1
  Ca  Ca3  1  0.165652  0.834348  0.165652  1
  Ca  Ca4  1  0.828645  0.500000  0.171355  1
  Ca  Ca5  1  0.171355  0.828645  0.500000  1
  Ca  Ca6  1  0.165652  0.165652  0.834348  1
  Ca  Ca7  1  0.171355  0.500000  0.500000  1
  Ca  Ca8  1  0.834348  0.834348  0.165652  1
  Ca  Ca9  1  0.834348  0.165652  0.834348  1
  Ca  Ca10  1  0.500000  0.828645  0.500000  1
  Ca  Ca11  1  0.500000  0.500000  0.171355  1
  Ca  Ca12  1  0.165652  0.834348  0.834348  1
  Ca  Ca13  1  0.500000  0.171355  0.828645  1
  Ca  Ca14  1  0.500000  0.171355  0.500000  1
  Ca  Ca15  1  0.828645  0.500000  0.500000  1
  Ca  Ca16  1  0.834348  0.165652  0.165652  1
  Ca  Ca17  1  0.500000  0.500000  0.828645  1
  Tb  Tb18  1  0.500000  0.500000  0.500000  1
  Cd  Cd19  1  0.174460  0.174460  0.476618  1
  Cd  Cd20  1  0.825540  0.523382  0.825540  1
  Cd  Cd21  1  0.476618  0.174460  0.174460  1
  Cd  Cd22  1  0.174460  0.476618  0.174460  1
  Cd  Cd23  1  0.523382  0.825540  0.825540  1
  Cd  Cd24  1  0.174460  0.174460  0.174460  1
  Cd  Cd25  1  0.825540  0.825540  0.825540  1
  Cd  Cd26  1  0.825540  0.825540  0.523382  1
  N  N27  1  0.668577  0.331423  0.668577  1
  N  N28  1  0.668577  0.331423  0.331423  1
  N  N29  1  0.331423  0.668577  0.668577  1
  N  N30  1  0.331423  0.668577  0.331423  1
  N  N31  1  0.331423  0.331423  0.668577  1
  N  N32  1  0.668577  0.668577  0.331423  1
  N  N33  1  0.000000  0.000000  0.000000  1
