# generated using pymatgen
data_TbPr16Sm3Sn16
_symmetry_space_group_name_H-M   'P 1'
_cell_length_a   8.30787001
_cell_length_b   8.49733510
_cell_length_c   16.09011700
_cell_angle_alpha   90.00000000
_cell_angle_beta   90.00000000
_cell_angle_gamma   89.99388006
_symmetry_Int_Tables_number   1
_chemical_formula_structural   TbPr16Sm3Sn16
_chemical_formula_sum   'Tb1 Pr16 Sm3 Sn16'
_cell_volume   1135.87786870
_cell_formula_units_Z   1
loop_
 _symmetry_equiv_pos_site_id
 _symmetry_equiv_pos_as_xyz
  1  'x, y, z'
loop_
 _atom_site_type_symbol
 _atom_site_label
 _atom_site_symmetry_multiplicity
 _atom_site_fract_x
 _atom_site_fract_y
 _atom_site_fract_z
 _atom_site_occupancy
  Tb  Tb0  1  0.198912  0.501094  0.750000  1
  Pr  Pr1  1  0.367199  0.835563  0.879324  1
  Pr  Pr2  1  0.868284  0.663657  0.620553  1
  Pr  Pr3  1  0.632541  0.163954  0.379301  1
  Pr  Pr4  1  0.132409  0.335872  0.120698  1
  Pr  Pr5  1  0.632541  0.163954  0.120699  1
  Pr  Pr6  1  0.132409  0.335872  0.379302  1
  Pr  Pr7  1  0.367199  0.835563  0.620676  1
  Pr  Pr8  1  0.868284  0.663657  0.879447  1
  Pr  Pr9  1  0.517760  0.319399  0.900773  1
  Pr  Pr10  1  0.018398  0.181156  0.599131  1
  Pr  Pr11  1  0.481804  0.680852  0.400644  1
  Pr  Pr12  1  0.981672  0.819197  0.099260  1
  Pr  Pr13  1  0.481804  0.680852  0.099356  1
  Pr  Pr14  1  0.981672  0.819197  0.400740  1
  Pr  Pr15  1  0.517760  0.319399  0.599227  1
  Pr  Pr16  1  0.018398  0.181156  0.900869  1
  Sm  Sm17  1  0.697826  0.998508  0.750000  1
  Sm  Sm18  1  0.802147  0.498771  0.250000  1
  Sm  Sm19  1  0.302100  0.001353  0.250000  1
  Sn  Sn20  1  0.292664  0.034510  0.043102  1
  Sn  Sn21  1  0.792705  0.465418  0.456899  1
  Sn  Sn22  1  0.707284  0.965578  0.543045  1
  Sn  Sn23  1  0.207327  0.534744  0.956916  1
  Sn  Sn24  1  0.707284  0.965578  0.956955  1
  Sn  Sn25  1  0.207327  0.534744  0.543084  1
  Sn  Sn26  1  0.292664  0.034510  0.456898  1
  Sn  Sn27  1  0.792705  0.465418  0.043101  1
  Sn  Sn28  1  0.564996  0.615837  0.750000  1
  Sn  Sn29  1  0.066150  0.883880  0.750000  1
  Sn  Sn30  1  0.434099  0.383978  0.250000  1
  Sn  Sn31  1  0.933923  0.115948  0.250000  1
  Sn  Sn32  1  0.323534  0.144997  0.750000  1
  Sn  Sn33  1  0.823215  0.355724  0.750000  1
  Sn  Sn34  1  0.676530  0.855861  0.250000  1
  Sn  Sn35  1  0.176471  0.644248  0.250000  1
