# generated using pymatgen
data_Th10GeBi6Pd
_symmetry_space_group_name_H-M   'P 1'
_cell_length_a   9.69024900
_cell_length_b   9.69024892
_cell_length_c   6.56193700
_cell_angle_alpha   90.00000000
_cell_angle_beta   90.00000000
_cell_angle_gamma   119.99999686
_symmetry_Int_Tables_number   1
_chemical_formula_structural   Th10GeBi6Pd
_chemical_formula_sum   'Th10 Ge1 Bi6 Pd1'
_cell_volume   533.62058175
_cell_formula_units_Z   1
loop_
 _symmetry_equiv_pos_site_id
 _symmetry_equiv_pos_as_xyz
  1  'x, y, z'
loop_
 _atom_site_type_symbol
 _atom_site_label
 _atom_site_symmetry_multiplicity
 _atom_site_fract_x
 _atom_site_fract_y
 _atom_site_fract_z
 _atom_site_occupancy
  Th  Th0  1  0.666667  0.333333  0.000000  1
  Th  Th1  1  0.333333  0.666667  0.000000  1
  Th  Th2  1  0.333333  0.666667  0.500000  1
  Th  Th3  1  0.666667  0.333333  0.500000  1
  Th  Th4  1  0.741175  0.741175  0.750738  1
  Th  Th5  1  0.258825  0.000000  0.750738  1
  Th  Th6  1  0.000000  0.258825  0.750738  1
  Th  Th7  1  0.258825  0.258825  0.249262  1
  Th  Th8  1  0.741175  0.000000  0.249262  1
  Th  Th9  1  0.000000  0.741175  0.249262  1
  Ge  Ge10  1  0.000000  0.000000  0.000000  1
  Bi  Bi11  1  0.387995  0.387995  0.749982  1
  Bi  Bi12  1  0.612005  0.000000  0.749982  1
  Bi  Bi13  1  0.000000  0.612005  0.749982  1
  Bi  Bi14  1  0.612005  0.612005  0.250018  1
  Bi  Bi15  1  0.387995  0.000000  0.250018  1
  Bi  Bi16  1  0.000000  0.387995  0.250018  1
  Pd  Pd17  1  0.000000  0.000000  0.500000  1
