# generated using pymatgen
data_Dy3Er(MnAl3)2
_symmetry_space_group_name_H-M   'P 1'
_cell_length_a   9.39076563
_cell_length_b   9.39076478
_cell_length_c   9.39076482
_cell_angle_alpha   34.47939610
_cell_angle_beta   34.47940476
_cell_angle_gamma   34.47940209
_symmetry_Int_Tables_number   1
_chemical_formula_structural   Dy3Er(MnAl3)2
_chemical_formula_sum   'Dy3 Er1 Mn2 Al6'
_cell_volume   236.76318142
_cell_formula_units_Z   1
loop_
 _symmetry_equiv_pos_site_id
 _symmetry_equiv_pos_as_xyz
  1  'x, y, z'
loop_
 _atom_site_type_symbol
 _atom_site_label
 _atom_site_symmetry_multiplicity
 _atom_site_fract_x
 _atom_site_fract_y
 _atom_site_fract_z
 _atom_site_occupancy
  Dy  Dy0  1  0.313236  0.313236  0.313236  1
  Dy  Dy1  1  0.686796  0.686796  0.686796  1
  Dy  Dy2  1  0.186728  0.186728  0.186728  1
  Er  Er3  1  0.813261  0.813261  0.813261  1
  Mn  Mn4  1  0.500022  0.500022  0.500022  1
  Mn  Mn5  1  0.999996  0.999996  0.999996  1
  Al  Al6  1  0.249944  0.249944  0.750043  1
  Al  Al7  1  0.750064  0.750064  0.249901  1
  Al  Al8  1  0.249944  0.750043  0.249944  1
  Al  Al9  1  0.750064  0.249901  0.750064  1
  Al  Al10  1  0.750043  0.249944  0.249944  1
  Al  Al11  1  0.249901  0.750064  0.750064  1
