# generated using pymatgen
data_Ho8Lu12Bi11Pt
_symmetry_space_group_name_H-M   'P 1'
_cell_length_a   8.06000592
_cell_length_b   9.35879700
_cell_length_c   11.87600700
_cell_angle_alpha   90.00000000
_cell_angle_beta   89.58451696
_cell_angle_gamma   90.00000000
_symmetry_Int_Tables_number   1
_chemical_formula_structural   Ho8Lu12Bi11Pt
_chemical_formula_sum   'Ho8 Lu12 Bi11 Pt1'
_cell_volume   895.80692189
_cell_formula_units_Z   1
loop_
 _symmetry_equiv_pos_site_id
 _symmetry_equiv_pos_as_xyz
  1  'x, y, z'
loop_
 _atom_site_type_symbol
 _atom_site_label
 _atom_site_symmetry_multiplicity
 _atom_site_fract_x
 _atom_site_fract_y
 _atom_site_fract_z
 _atom_site_occupancy
  Ho  Ho0  1  0.356224  0.250000  0.299038  1
  Ho  Ho1  1  0.654048  0.750000  0.716462  1
  Ho  Ho2  1  0.146898  0.750000  0.781445  1
  Ho  Ho3  1  0.848930  0.250000  0.214816  1
  Ho  Ho4  1  0.200015  0.250000  0.777267  1
  Ho  Ho5  1  0.809664  0.750000  0.217302  1
  Ho  Ho6  1  0.314423  0.750000  0.280469  1
  Ho  Ho7  1  0.657501  0.250000  0.705573  1
  Lu  Lu8  1  0.046460  0.250000  0.506896  1
  Lu  Lu9  1  0.984018  0.750000  0.492162  1
  Lu  Lu10  1  0.477396  0.750000  0.011760  1
  Lu  Lu11  1  0.525579  0.250000  0.989937  1
  Lu  Lu12  1  0.192632  0.066626  0.063283  1
  Lu  Lu13  1  0.807136  0.933578  0.940556  1
  Lu  Lu14  1  0.313054  0.962590  0.559460  1
  Lu  Lu15  1  0.807136  0.566422  0.940556  1
  Lu  Lu16  1  0.680410  0.073382  0.447291  1
  Lu  Lu17  1  0.192632  0.433374  0.063283  1
  Lu  Lu18  1  0.680410  0.426618  0.447291  1
  Lu  Lu19  1  0.313054  0.537410  0.559460  1
  Bi  Bi20  1  0.595236  0.750000  0.457819  1
  Bi  Bi21  1  0.097393  0.750000  0.042301  1
  Bi  Bi22  1  0.906856  0.250000  0.952220  1
  Bi  Bi23  1  0.058233  0.001079  0.324285  1
  Bi  Bi24  1  0.934076  0.000577  0.673784  1
  Bi  Bi25  1  0.435673  0.992973  0.829080  1
  Bi  Bi26  1  0.934076  0.499423  0.673784  1
  Bi  Bi27  1  0.563896  0.005143  0.173736  1
  Bi  Bi28  1  0.058233  0.498921  0.324285  1
  Bi  Bi29  1  0.563896  0.494857  0.173736  1
  Bi  Bi30  1  0.435673  0.507027  0.829080  1
  Pt  Pt31  1  0.409140  0.250000  0.531587  1
