# generated using pymatgen
data_Hf2Zr4BI12
_symmetry_space_group_name_H-M   'P 1'
_cell_length_a   9.34448488
_cell_length_b   9.31014477
_cell_length_c   9.28125723
_cell_angle_alpha   106.67089082
_cell_angle_beta   106.95360770
_cell_angle_gamma   106.84756807
_symmetry_Int_Tables_number   1
_chemical_formula_structural   Hf2Zr4BI12
_chemical_formula_sum   'Hf2 Zr4 B1 I12'
_cell_volume   675.65555351
_cell_formula_units_Z   1
loop_
 _symmetry_equiv_pos_site_id
 _symmetry_equiv_pos_as_xyz
  1  'x, y, z'
loop_
 _atom_site_type_symbol
 _atom_site_label
 _atom_site_symmetry_multiplicity
 _atom_site_fract_x
 _atom_site_fract_y
 _atom_site_fract_z
 _atom_site_occupancy
  Hf  Hf0  1  0.972472  0.731810  0.912332  1
  Hf  Hf1  1  0.267236  0.087951  0.026385  1
  Zr  Zr2  1  0.087890  0.026978  0.271389  1
  Zr  Zr3  1  0.910668  0.974383  0.727735  1
  Zr  Zr4  1  0.732084  0.913394  0.974416  1
  Zr  Zr5  1  0.025452  0.269678  0.087727  1
  B  B6  1  0.002074  0.998898  0.998921  1
  I  I7  1  0.922328  0.307847  0.775081  1
  I  I8  1  0.693187  0.223487  0.077810  1
  I  I9  1  0.438959  0.140369  0.361674  1
  I  I10  1  0.860530  0.633834  0.563565  1
  I  I11  1  0.226870  0.078437  0.698059  1
  I  I12  1  0.639167  0.561213  0.859462  1
  I  I13  1  0.365544  0.435405  0.139010  1
  I  I14  1  0.776518  0.921617  0.308589  1
  I  I15  1  0.141803  0.366068  0.441107  1
  I  I16  1  0.559812  0.858839  0.633817  1
  I  I17  1  0.300638  0.777896  0.922909  1
  I  I18  1  0.076767  0.691895  0.220012  1
