# generated using pymatgen
data_Nd5Th(BePd5)2
_symmetry_space_group_name_H-M   'P 1'
_cell_length_a   8.28658934
_cell_length_b   8.28659118
_cell_length_c   8.28659200
_cell_angle_alpha   126.26893047
_cell_angle_beta   125.26507066
_cell_angle_gamma   80.27403797
_symmetry_Int_Tables_number   1
_chemical_formula_structural   Nd5Th(BePd5)2
_chemical_formula_sum   'Nd5 Th1 Be2 Pd10'
_cell_volume   361.47557576
_cell_formula_units_Z   1
loop_
 _symmetry_equiv_pos_site_id
 _symmetry_equiv_pos_as_xyz
  1  'x, y, z'
loop_
 _atom_site_type_symbol
 _atom_site_label
 _atom_site_symmetry_multiplicity
 _atom_site_fract_x
 _atom_site_fract_y
 _atom_site_fract_z
 _atom_site_occupancy
  Nd  Nd0  1  0.828218  0.053342  0.774878  1
  Nd  Nd1  1  0.221534  0.446658  0.774878  1
  Nd  Nd2  1  0.175501  0.948501  0.226998  1
  Nd  Nd3  1  0.402764  0.250000  0.152764  1
  Nd  Nd4  1  0.778499  0.551499  0.226998  1
  Th  Th5  1  0.593365  0.750000  0.843365  1
  Be  Be6  1  0.197694  0.750000  0.447694  1
  Be  Be7  1  0.798941  0.250000  0.548941  1
  Pd  Pd8  1  0.823779  0.588752  0.644145  1
  Pd  Pd9  1  0.555395  0.320367  0.644145  1
  Pd  Pd10  1  0.447331  0.083340  0.759099  1
  Pd  Pd11  1  0.823779  0.179633  0.235028  1
  Pd  Pd12  1  0.175758  0.416660  0.363990  1
  Pd  Pd13  1  0.447331  0.688232  0.363990  1
  Pd  Pd14  1  0.555395  0.911248  0.235028  1
  Pd  Pd15  1  0.175758  0.811768  0.759099  1
  Pd  Pd16  1  0.999480  0.999264  0.498744  1
  Pd  Pd17  1  0.999480  0.500736  0.000217  1
