# generated using pymatgen
data_Nd6Co3Mo(P6Rh7)2
_symmetry_space_group_name_H-M   'P 1'
_cell_length_a   3.90166200
_cell_length_b   11.19589721
_cell_length_c   12.90088347
_cell_angle_alpha   89.89325796
_cell_angle_beta   90.00000000
_cell_angle_gamma   90.00000000
_symmetry_Int_Tables_number   1
_chemical_formula_structural   Nd6Co3Mo(P6Rh7)2
_chemical_formula_sum   'Nd6 Co3 Mo1 P12 Rh14'
_cell_volume   563.54324066
_cell_formula_units_Z   1
loop_
 _symmetry_equiv_pos_site_id
 _symmetry_equiv_pos_as_xyz
  1  'x, y, z'
loop_
 _atom_site_type_symbol
 _atom_site_label
 _atom_site_symmetry_multiplicity
 _atom_site_fract_x
 _atom_site_fract_y
 _atom_site_fract_z
 _atom_site_occupancy
  Nd  Nd0  1  0.000000  0.501638  0.518265  1
  Nd  Nd1  1  0.500000  0.000490  0.477143  1
  Nd  Nd2  1  0.500000  0.814751  0.203670  1
  Nd  Nd3  1  0.500000  0.185935  0.203496  1
  Nd  Nd4  1  0.000000  0.682684  0.799919  1
  Nd  Nd5  1  0.000000  0.317749  0.799755  1
  Co  Co6  1  0.000000  0.498928  0.992773  1
  Co  Co7  1  0.500000  0.000198  0.018209  1
  Co  Co8  1  0.000000  0.377302  0.288178  1
  Mo  Mo9  1  0.500000  0.496596  0.156088  1
  P  P10  1  0.500000  0.499491  0.885745  1
  P  P11  1  0.000000  0.000240  0.115573  1
  P  P12  1  0.500000  0.490861  0.340249  1
  P  P13  1  0.000000  0.000700  0.652041  1
  P  P14  1  0.500000  0.314753  0.617172  1
  P  P15  1  0.500000  0.686169  0.617660  1
  P  P16  1  0.000000  0.193730  0.378295  1
  P  P17  1  0.000000  0.810802  0.381619  1
  P  P18  1  0.500000  0.856218  0.895255  1
  P  P19  1  0.500000  0.144837  0.895489  1
  P  P20  1  0.000000  0.647541  0.106154  1
  P  P21  1  0.000000  0.352759  0.111637  1
  Rh  Rh22  1  0.000000  0.999606  0.833898  1
  Rh  Rh23  1  0.500000  0.500311  0.704407  1
  Rh  Rh24  1  0.000000  0.000647  0.295627  1
  Rh  Rh25  1  0.500000  0.333890  0.992297  1
  Rh  Rh26  1  0.500000  0.665177  0.993090  1
  Rh  Rh27  1  0.000000  0.164046  0.008061  1
  Rh  Rh28  1  0.000000  0.836365  0.007383  1
  Rh  Rh29  1  0.500000  0.296585  0.427902  1
  Rh  Rh30  1  0.500000  0.708106  0.431447  1
  Rh  Rh31  1  0.000000  0.207938  0.568828  1
  Rh  Rh32  1  0.000000  0.794535  0.570841  1
  Rh  Rh33  1  0.500000  0.875974  0.711606  1
  Rh  Rh34  1  0.500000  0.125177  0.710968  1
  Rh  Rh35  1  0.000000  0.617272  0.289264  1
