# generated using pymatgen
data_TbCeFe2Ni10P7
_symmetry_space_group_name_H-M   'P 1'
_cell_length_a   9.07232547
_cell_length_b   9.05405164
_cell_length_c   3.67254400
_cell_angle_alpha   90.00000000
_cell_angle_beta   90.00000000
_cell_angle_gamma   119.93336279
_symmetry_Int_Tables_number   1
_chemical_formula_structural   TbCeFe2Ni10P7
_chemical_formula_sum   'Tb1 Ce1 Fe2 Ni10 P7'
_cell_volume   261.42701111
_cell_formula_units_Z   1
loop_
 _symmetry_equiv_pos_site_id
 _symmetry_equiv_pos_as_xyz
  1  'x, y, z'
loop_
 _atom_site_type_symbol
 _atom_site_label
 _atom_site_symmetry_multiplicity
 _atom_site_fract_x
 _atom_site_fract_y
 _atom_site_fract_z
 _atom_site_occupancy
  Tb  Tb0  1  0.664605  0.334289  0.500000  1
  Ce  Ce1  1  0.334362  0.666217  0.000000  1
  Fe  Fe2  1  0.380280  0.430304  0.500000  1
  Fe  Fe3  1  0.151549  0.272530  0.000000  1
  Ni  Ni4  1  0.121458  0.848249  0.000000  1
  Ni  Ni5  1  0.728023  0.879525  0.000000  1
  Ni  Ni6  1  0.877270  0.781789  0.500000  1
  Ni  Ni7  1  0.905558  0.121170  0.500000  1
  Ni  Ni8  1  0.048678  0.615919  0.500000  1
  Ni  Ni9  1  0.937750  0.374781  0.000000  1
  Ni  Ni10  1  0.212348  0.093442  0.500000  1
  Ni  Ni11  1  0.573453  0.952206  0.500000  1
  Ni  Ni12  1  0.625354  0.566376  0.000000  1
  Ni  Ni13  1  0.434156  0.063155  0.000000  1
  P  P14  1  0.596641  0.701430  0.500000  1
  P  P15  1  0.113376  0.396504  0.500000  1
  P  P16  1  0.886963  0.593464  0.000000  1
  P  P17  1  0.295955  0.893666  0.500000  1
  P  P18  1  0.001963  0.003831  0.000000  1
  P  P19  1  0.706423  0.113509  0.000000  1
  P  P20  1  0.403835  0.297643  0.000000  1
