# generated using pymatgen
data_Y2Al16Pt9
_symmetry_space_group_name_H-M   'P 1'
_cell_length_a   11.15422529
_cell_length_b   11.15422542
_cell_length_c   11.15422601
_cell_angle_alpha   158.62015700
_cell_angle_beta   115.05291230
_cell_angle_gamma   69.22866894
_symmetry_Int_Tables_number   1
_chemical_formula_structural   Y2Al16Pt9
_chemical_formula_sum   'Y2 Al16 Pt9'
_cell_volume   454.99433251
_cell_formula_units_Z   1
loop_
 _symmetry_equiv_pos_site_id
 _symmetry_equiv_pos_as_xyz
  1  'x, y, z'
loop_
 _atom_site_type_symbol
 _atom_site_label
 _atom_site_symmetry_multiplicity
 _atom_site_fract_x
 _atom_site_fract_y
 _atom_site_fract_z
 _atom_site_occupancy
  Y  Y0  1  0.228417  0.228417  0.000000  1
  Y  Y1  1  0.771583  0.771583  0.000000  1
  Al  Al2  1  0.271938  0.391546  0.880392  1
  Al  Al3  1  0.091951  0.920273  0.171678  1
  Al  Al4  1  0.512975  0.204280  0.308696  1
  Al  Al5  1  0.251406  0.079727  0.171678  1
  Al  Al6  1  0.912854  0.412854  0.500000  1
  Al  Al7  1  0.728062  0.608454  0.119608  1
  Al  Al8  1  0.895584  0.204280  0.691304  1
  Al  Al9  1  0.487025  0.795720  0.691304  1
  Al  Al10  1  0.385791  0.000000  0.385791  1
  Al  Al11  1  0.614209  0.000000  0.614209  1
  Al  Al12  1  0.488846  0.608454  0.880392  1
  Al  Al13  1  0.104416  0.795720  0.308696  1
  Al  Al14  1  0.908049  0.079727  0.828322  1
  Al  Al15  1  0.748594  0.920273  0.828322  1
  Al  Al16  1  0.511154  0.391546  0.119608  1
  Al  Al17  1  0.087146  0.587146  0.500000  1
  Pt  Pt18  1  0.748325  0.500000  0.248325  1
  Pt  Pt19  1  0.023229  0.339250  0.683978  1
  Pt  Pt20  1  0.626212  0.126212  0.500000  1
  Pt  Pt21  1  0.251675  0.500000  0.751675  1
  Pt  Pt22  1  0.373788  0.873788  0.500000  1
  Pt  Pt23  1  0.000000  0.000000  0.000000  1
  Pt  Pt24  1  0.655272  0.339250  0.316022  1
  Pt  Pt25  1  0.344728  0.660750  0.683978  1
  Pt  Pt26  1  0.976771  0.660750  0.316022  1
