# generated using pymatgen
data_Er3Tm2In3Cl
_symmetry_space_group_name_H-M   'P 1'
_cell_length_a   9.07469000
_cell_length_b   9.07468994
_cell_length_c   6.65820900
_cell_angle_alpha   90.00000000
_cell_angle_beta   90.00000000
_cell_angle_gamma   120.00000023
_symmetry_Int_Tables_number   1
_chemical_formula_structural   Er3Tm2In3Cl
_chemical_formula_sum   'Er6 Tm4 In6 Cl2'
_cell_volume   474.84475723
_cell_formula_units_Z   2
loop_
 _symmetry_equiv_pos_site_id
 _symmetry_equiv_pos_as_xyz
  1  'x, y, z'
loop_
 _atom_site_type_symbol
 _atom_site_label
 _atom_site_symmetry_multiplicity
 _atom_site_fract_x
 _atom_site_fract_y
 _atom_site_fract_z
 _atom_site_occupancy
  Er  Er0  1  0.740049  0.740049  0.250000  1
  Er  Er1  1  0.000000  0.740049  0.750000  1
  Er  Er2  1  0.740049  0.000000  0.750000  1
  Er  Er3  1  0.259951  0.259951  0.750000  1
  Er  Er4  1  0.000000  0.259951  0.250000  1
  Er  Er5  1  0.259951  0.000000  0.250000  1
  Tm  Tm6  1  0.333333  0.666667  0.500000  1
  Tm  Tm7  1  0.666667  0.333333  0.500000  1
  Tm  Tm8  1  0.333333  0.666667  0.000000  1
  Tm  Tm9  1  0.666667  0.333333  0.000000  1
  In  In10  1  0.394771  0.000000  0.750000  1
  In  In11  1  0.000000  0.605229  0.250000  1
  In  In12  1  0.605229  0.000000  0.250000  1
  In  In13  1  0.000000  0.394771  0.750000  1
  In  In14  1  0.394771  0.394771  0.250000  1
  In  In15  1  0.605229  0.605229  0.750000  1
  Cl  Cl16  1  0.000000  0.000000  0.500000  1
  Cl  Cl17  1  0.000000  0.000000  0.000000  1
