# generated using pymatgen
data_Ag2AsAuF14
_symmetry_space_group_name_H-M   'P 1'
_cell_length_a   7.24721500
_cell_length_b   7.88934459
_cell_length_c   10.19469200
_cell_angle_alpha   90.36443098
_cell_angle_beta   90.00000000
_cell_angle_gamma   90.00000000
_symmetry_Int_Tables_number   1
_chemical_formula_structural   Ag2AsAuF14
_chemical_formula_sum   'Ag4 As2 Au2 F28'
_cell_volume   582.87763979
_cell_formula_units_Z   2
loop_
 _symmetry_equiv_pos_site_id
 _symmetry_equiv_pos_as_xyz
  1  'x, y, z'
loop_
 _atom_site_type_symbol
 _atom_site_label
 _atom_site_symmetry_multiplicity
 _atom_site_fract_x
 _atom_site_fract_y
 _atom_site_fract_z
 _atom_site_occupancy
  Ag  Ag0  1  0.250000  0.635521  0.740640  1
  Ag  Ag1  1  0.750000  0.364479  0.259360  1
  Ag  Ag2  1  0.250000  0.136630  0.756393  1
  Ag  Ag3  1  0.750000  0.863370  0.243607  1
  As  As4  1  0.250000  0.300481  0.441607  1
  As  As5  1  0.750000  0.699519  0.558393  1
  Au  Au6  1  0.250000  0.803185  0.058699  1
  Au  Au7  1  0.750000  0.196815  0.941301  1
  F  F8  1  0.937079  0.119654  0.815256  1
  F  F9  1  0.437079  0.880346  0.184744  1
  F  F10  1  0.575639  0.625930  0.667018  1
  F  F11  1  0.075639  0.374070  0.332982  1
  F  F12  1  0.062921  0.880346  0.184744  1
  F  F13  1  0.562921  0.119654  0.815256  1
  F  F14  1  0.424361  0.374070  0.332982  1
  F  F15  1  0.924361  0.625930  0.667018  1
  F  F16  1  0.750000  0.609752  0.198034  1
  F  F17  1  0.250000  0.390248  0.801966  1
  F  F18  1  0.750000  0.112021  0.304049  1
  F  F19  1  0.250000  0.887979  0.695951  1
  F  F20  1  0.750000  0.493833  0.481681  1
  F  F21  1  0.250000  0.506167  0.518319  1
  F  F22  1  0.750000  0.969373  0.023390  1
  F  F23  1  0.250000  0.030627  0.976610  1
  F  F24  1  0.750000  0.897823  0.633430  1
  F  F25  1  0.250000  0.102177  0.366570  1
  F  F26  1  0.750000  0.417418  0.860763  1
  F  F27  1  0.250000  0.582582  0.139237  1
  F  F28  1  0.921130  0.766591  0.442984  1
  F  F29  1  0.421130  0.233409  0.557016  1
  F  F30  1  0.567549  0.276809  0.069848  1
  F  F31  1  0.067549  0.723191  0.930152  1
  F  F32  1  0.078870  0.233409  0.557016  1
  F  F33  1  0.578870  0.766591  0.442984  1
  F  F34  1  0.432451  0.723191  0.930152  1
  F  F35  1  0.932451  0.276809  0.069848  1
