# generated using pymatgen
data_Lu2Si3Ir
_symmetry_space_group_name_H-M   'P 1'
_cell_length_a   8.10626300
_cell_length_b   8.10626265
_cell_length_c   7.70239400
_cell_angle_alpha   90.00000000
_cell_angle_beta   90.00000000
_cell_angle_gamma   120.00000549
_symmetry_Int_Tables_number   1
_chemical_formula_structural   Lu2Si3Ir
_chemical_formula_sum   'Lu8 Si12 Ir4'
_cell_volume   438.32647130
_cell_formula_units_Z   4
loop_
 _symmetry_equiv_pos_site_id
 _symmetry_equiv_pos_as_xyz
  1  'x, y, z'
loop_
 _atom_site_type_symbol
 _atom_site_label
 _atom_site_symmetry_multiplicity
 _atom_site_fract_x
 _atom_site_fract_y
 _atom_site_fract_z
 _atom_site_occupancy
  Lu  Lu0  1  0.979750  0.489875  0.250000  1
  Lu  Lu1  1  0.510125  0.489875  0.250000  1
  Lu  Lu2  1  0.489875  0.979750  0.750000  1
  Lu  Lu3  1  0.020250  0.510125  0.750000  1
  Lu  Lu4  1  0.489875  0.510125  0.750000  1
  Lu  Lu5  1  0.510125  0.020250  0.250000  1
  Lu  Lu6  1  0.000000  0.000000  0.750000  1
  Lu  Lu7  1  0.000000  0.000000  0.250000  1
  Si  Si8  1  0.166425  0.833575  0.499405  1
  Si  Si9  1  0.166425  0.332849  0.499405  1
  Si  Si10  1  0.667151  0.833575  0.499405  1
  Si  Si11  1  0.332849  0.166425  0.999405  1
  Si  Si12  1  0.833575  0.667151  0.500595  1
  Si  Si13  1  0.833575  0.166425  0.999405  1
  Si  Si14  1  0.833575  0.667151  0.999405  1
  Si  Si15  1  0.166425  0.332849  0.000595  1
  Si  Si16  1  0.667151  0.833575  0.000595  1
  Si  Si17  1  0.332849  0.166425  0.500595  1
  Si  Si18  1  0.833575  0.166425  0.500595  1
  Si  Si19  1  0.166425  0.833575  0.000595  1
  Ir  Ir20  1  0.333333  0.666667  0.034905  1
  Ir  Ir21  1  0.666667  0.333333  0.965095  1
  Ir  Ir22  1  0.666667  0.333333  0.534905  1
  Ir  Ir23  1  0.333333  0.666667  0.465095  1
