# generated using pymatgen
data_Th4SiAsPd28
_symmetry_space_group_name_H-M   'P 1'
_cell_length_a   9.05601100
_cell_length_b   9.05601100
_cell_length_c   7.11284600
_cell_angle_alpha   90.00000000
_cell_angle_beta   90.00000000
_cell_angle_gamma   90.00000000
_symmetry_Int_Tables_number   1
_chemical_formula_structural   Th4SiAsPd28
_chemical_formula_sum   'Th4 Si1 As1 Pd28'
_cell_volume   583.33399776
_cell_formula_units_Z   1
loop_
 _symmetry_equiv_pos_site_id
 _symmetry_equiv_pos_as_xyz
  1  'x, y, z'
loop_
 _atom_site_type_symbol
 _atom_site_label
 _atom_site_symmetry_multiplicity
 _atom_site_fract_x
 _atom_site_fract_y
 _atom_site_fract_z
 _atom_site_occupancy
  Th  Th0  1  0.500000  0.000000  0.931561  1
  Th  Th1  1  0.000000  0.500000  0.069151  1
  Th  Th2  1  0.000000  0.000000  0.500818  1
  Th  Th3  1  0.500000  0.500000  0.500818  1
  Si  Si4  1  0.000000  0.500000  0.554597  1
  As  As5  1  0.500000  0.000000  0.444142  1
  Pd  Pd6  1  0.331825  0.831825  0.619848  1
  Pd  Pd7  1  0.331825  0.168175  0.619848  1
  Pd  Pd8  1  0.668175  0.831825  0.619848  1
  Pd  Pd9  1  0.668175  0.168175  0.619848  1
  Pd  Pd10  1  0.163947  0.663947  0.384191  1
  Pd  Pd11  1  0.163947  0.336053  0.384191  1
  Pd  Pd12  1  0.836053  0.663947  0.384191  1
  Pd  Pd13  1  0.836053  0.336053  0.384191  1
  Pd  Pd14  1  0.500000  0.765849  0.252688  1
  Pd  Pd15  1  0.500000  0.234151  0.252688  1
  Pd  Pd16  1  0.265849  0.000000  0.252688  1
  Pd  Pd17  1  0.734151  0.000000  0.252688  1
  Pd  Pd18  1  0.000000  0.729065  0.743326  1
  Pd  Pd19  1  0.000000  0.270935  0.743326  1
  Pd  Pd20  1  0.229065  0.500000  0.743326  1
  Pd  Pd21  1  0.770935  0.500000  0.743326  1
  Pd  Pd22  1  0.500000  0.348805  0.852380  1
  Pd  Pd23  1  0.500000  0.651195  0.852380  1
  Pd  Pd24  1  0.848805  0.000000  0.852380  1
  Pd  Pd25  1  0.151195  0.000000  0.852380  1
  Pd  Pd26  1  0.000000  0.151144  0.147287  1
  Pd  Pd27  1  0.000000  0.848856  0.147287  1
  Pd  Pd28  1  0.651144  0.500000  0.147287  1
  Pd  Pd29  1  0.348856  0.500000  0.147287  1
  Pd  Pd30  1  0.249098  0.749098  0.000009  1
  Pd  Pd31  1  0.249098  0.250902  0.000009  1
  Pd  Pd32  1  0.750902  0.749098  0.000009  1
  Pd  Pd33  1  0.750902  0.250902  0.000009  1
