# generated using pymatgen
data_Tb4YHo3(ReC2)4
_symmetry_space_group_name_H-M   'P 1'
_cell_length_a   5.12441300
_cell_length_b   6.59641710
_cell_length_c   9.87669914
_cell_angle_alpha   90.01950303
_cell_angle_beta   90.00000000
_cell_angle_gamma   90.00000000
_symmetry_Int_Tables_number   1
_chemical_formula_structural   Tb4YHo3(ReC2)4
_chemical_formula_sum   'Tb4 Y1 Ho3 Re4 C8'
_cell_volume   333.85972588
_cell_formula_units_Z   1
loop_
 _symmetry_equiv_pos_site_id
 _symmetry_equiv_pos_as_xyz
  1  'x, y, z'
loop_
 _atom_site_type_symbol
 _atom_site_label
 _atom_site_symmetry_multiplicity
 _atom_site_fract_x
 _atom_site_fract_y
 _atom_site_fract_z
 _atom_site_occupancy
  Tb  Tb0  1  0.750000  0.466939  0.784517  1
  Tb  Tb1  1  0.250000  0.033147  0.285117  1
  Tb  Tb2  1  0.750000  0.967035  0.714545  1
  Tb  Tb3  1  0.250000  0.532833  0.215352  1
  Y  Y4  1  0.750000  0.820880  0.056156  1
  Ho  Ho5  1  0.250000  0.677727  0.556508  1
  Ho  Ho6  1  0.750000  0.322101  0.443600  1
  Ho  Ho7  1  0.250000  0.177936  0.943101  1
  Re  Re8  1  0.750000  0.278419  0.134917  1
  Re  Re9  1  0.250000  0.221606  0.634366  1
  Re  Re10  1  0.750000  0.778396  0.365874  1
  Re  Re11  1  0.250000  0.721582  0.864933  1
  C  C12  1  0.750000  0.177230  0.951964  1
  C  C13  1  0.250000  0.824090  0.047616  1
  C  C14  1  0.750000  0.675379  0.548366  1
  C  C15  1  0.250000  0.324609  0.451796  1
  C  C16  1  0.750000  0.046265  0.260281  1
  C  C17  1  0.250000  0.454141  0.759235  1
  C  C18  1  0.750000  0.545276  0.241399  1
  C  C19  1  0.250000  0.954409  0.740356  1
