# generated using pymatgen
data_NaGe4(PtRh2)2
_symmetry_space_group_name_H-M   'P 1'
_cell_length_a   7.29095828
_cell_length_b   7.39982301
_cell_length_c   3.80373000
_cell_angle_alpha   90.00000000
_cell_angle_beta   90.00000000
_cell_angle_gamma   120.49516387
_symmetry_Int_Tables_number   1
_chemical_formula_structural   NaGe4(PtRh2)2
_chemical_formula_sum   'Na1 Ge4 Pt2 Rh4'
_cell_volume   176.83067565
_cell_formula_units_Z   1
loop_
 _symmetry_equiv_pos_site_id
 _symmetry_equiv_pos_as_xyz
  1  'x, y, z'
loop_
 _atom_site_type_symbol
 _atom_site_label
 _atom_site_symmetry_multiplicity
 _atom_site_fract_x
 _atom_site_fract_y
 _atom_site_fract_z
 _atom_site_occupancy
  Na  Na0  1  0.999505  0.999752  0.000000  1
  Ge  Ge1  1  0.799301  0.192251  0.500000  1
  Ge  Ge2  1  0.799301  0.607051  0.500000  1
  Ge  Ge3  1  0.395691  0.197845  0.500000  1
  Ge  Ge4  1  0.343163  0.671582  0.000000  1
  Pt  Pt5  1  0.196333  0.804306  0.500000  1
  Pt  Pt6  1  0.196333  0.392026  0.500000  1
  Rh  Rh7  1  0.531811  0.463539  0.000000  1
  Rh  Rh8  1  0.531811  0.068273  0.000000  1
  Rh  Rh9  1  0.935893  0.467947  0.000000  1
  Rh  Rh10  1  0.604191  0.802095  0.500000  1
