# generated using pymatgen
data_La6In8BiBr
_symmetry_space_group_name_H-M   'P 1'
_cell_length_a   8.65654270
_cell_length_b   8.65654158
_cell_length_c   8.65654200
_cell_angle_alpha   119.09993605
_cell_angle_beta   119.09993951
_cell_angle_gamma   91.56615631
_symmetry_Int_Tables_number   1
_chemical_formula_structural   La6In8BiBr
_chemical_formula_sum   'La6 In8 Bi1 Br1'
_cell_volume   464.74131844
_cell_formula_units_Z   1
loop_
 _symmetry_equiv_pos_site_id
 _symmetry_equiv_pos_as_xyz
  1  'x, y, z'
loop_
 _atom_site_type_symbol
 _atom_site_label
 _atom_site_symmetry_multiplicity
 _atom_site_fract_x
 _atom_site_fract_y
 _atom_site_fract_z
 _atom_site_occupancy
  La  La0  1  0.757788  0.757788  0.000000  1
  La  La1  1  0.242212  0.242212  0.000000  1
  La  La2  1  0.341793  0.839514  0.181304  1
  La  La3  1  0.658207  0.160486  0.818696  1
  La  La4  1  0.839514  0.658207  0.497721  1
  La  La5  1  0.160486  0.341793  0.502279  1
  In  In6  1  0.959311  0.456541  0.789661  1
  In  In7  1  0.666881  0.169651  0.210339  1
  In  In8  1  0.456541  0.666881  0.497230  1
  In  In9  1  0.169651  0.959311  0.502770  1
  In  In10  1  0.040689  0.543459  0.210339  1
  In  In11  1  0.333119  0.830349  0.789661  1
  In  In12  1  0.543459  0.333119  0.502770  1
  In  In13  1  0.830349  0.040689  0.497230  1
  Bi  Bi14  1  0.500000  0.500000  0.000000  1
  Br  Br15  1  0.000000  0.000000  0.000000  1
