# generated using pymatgen
data_Ho7LuTi12Si15Sn
_symmetry_space_group_name_H-M   'P 1'
_cell_length_a   7.09060153
_cell_length_b   7.05250428
_cell_length_c   12.98430465
_cell_angle_alpha   89.98252481
_cell_angle_beta   89.76985256
_cell_angle_gamma   89.93914120
_symmetry_Int_Tables_number   1
_chemical_formula_structural   Ho7LuTi12Si15Sn
_chemical_formula_sum   'Ho7 Lu1 Ti12 Si15 Sn1'
_cell_volume   649.29396600
_cell_formula_units_Z   1
loop_
 _symmetry_equiv_pos_site_id
 _symmetry_equiv_pos_as_xyz
  1  'x, y, z'
loop_
 _atom_site_type_symbol
 _atom_site_label
 _atom_site_symmetry_multiplicity
 _atom_site_fract_x
 _atom_site_fract_y
 _atom_site_fract_z
 _atom_site_occupancy
  Ho  Ho0  1  0.505547  0.835165  0.717920  1
  Ho  Ho1  1  0.502457  0.159875  0.217092  1
  Ho  Ho2  1  0.841125  0.496664  0.282671  1
  Ho  Ho3  1  0.159478  0.510234  0.785862  1
  Ho  Ho4  1  0.661804  0.996486  0.968762  1
  Ho  Ho5  1  0.992298  0.348168  0.527293  1
  Ho  Ho6  1  0.999567  0.659346  0.034333  1
  Lu  Lu7  1  0.343216  0.997658  0.461170  1
  Ti  Ti8  1  0.326728  0.326478  0.001207  1
  Ti  Ti9  1  0.174414  0.826198  0.250091  1
  Ti  Ti10  1  0.816449  0.175006  0.751686  1
  Ti  Ti11  1  0.671705  0.673565  0.499393  1
  Ti  Ti12  1  0.152991  0.008044  0.883296  1
  Ti  Ti13  1  0.492444  0.650231  0.127366  1
  Ti  Ti14  1  0.514050  0.354507  0.626170  1
  Ti  Ti15  1  0.654553  0.493123  0.875460  1
  Ti  Ti16  1  0.346954  0.509633  0.372938  1
  Ti  Ti17  1  0.847448  0.992270  0.375983  1
  Ti  Ti18  1  0.010644  0.151288  0.123643  1
  Ti  Ti19  1  0.978275  0.836360  0.618110  1
  Si  Si20  1  0.371678  0.702717  0.936067  1
  Si  Si21  1  0.626215  0.295990  0.432546  1
  Si  Si22  1  0.704393  0.369537  0.066778  1
  Si  Si23  1  0.296193  0.632229  0.565310  1
  Si  Si24  1  0.797849  0.869718  0.184463  1
  Si  Si25  1  0.131213  0.201595  0.315812  1
  Si  Si26  1  0.870876  0.800376  0.815820  1
  Si  Si27  1  0.293447  0.951910  0.066994  1
  Si  Si28  1  0.548649  0.790103  0.314193  1
  Si  Si29  1  0.459317  0.210360  0.819982  1
  Si  Si30  1  0.793527  0.544787  0.686660  1
  Si  Si31  1  0.209472  0.452152  0.185336  1
  Si  Si32  1  0.704116  0.048297  0.563908  1
  Si  Si33  1  0.952939  0.291622  0.935338  1
  Si  Si34  1  0.048482  0.711540  0.432674  1
  Sn  Sn35  1  0.199485  0.126765  0.677675  1
