# generated using pymatgen
data_Dy3Th3Cr2(Co4P3)4
_symmetry_space_group_name_H-M   'P 1'
_cell_length_a   3.75169700
_cell_length_b   10.56498353
_cell_length_c   12.29012780
_cell_angle_alpha   89.99911581
_cell_angle_beta   90.00000000
_cell_angle_gamma   90.00000000
_symmetry_Int_Tables_number   1
_chemical_formula_structural   Dy3Th3Cr2(Co4P3)4
_chemical_formula_sum   'Dy3 Th3 Cr2 Co16 P12'
_cell_volume   487.13908849
_cell_formula_units_Z   1
loop_
 _symmetry_equiv_pos_site_id
 _symmetry_equiv_pos_as_xyz
  1  'x, y, z'
loop_
 _atom_site_type_symbol
 _atom_site_label
 _atom_site_symmetry_multiplicity
 _atom_site_fract_x
 _atom_site_fract_y
 _atom_site_fract_z
 _atom_site_occupancy
  Dy  Dy0  1  0.500000  0.185701  0.202773  1
  Dy  Dy1  1  0.000000  0.684151  0.797356  1
  Dy  Dy2  1  0.000000  0.316393  0.795367  1
  Th  Th3  1  0.000000  0.500809  0.524917  1
  Th  Th4  1  0.500000  0.000351  0.477156  1
  Th  Th5  1  0.500000  0.818435  0.206405  1
  Cr  Cr6  1  0.500000  0.498198  0.151736  1
  Cr  Cr7  1  0.000000  0.000495  0.848685  1
  Co  Co8  1  0.500000  0.499230  0.701558  1
  Co  Co9  1  0.000000  0.998705  0.297296  1
  Co  Co10  1  0.000000  0.498374  0.983142  1
  Co  Co11  1  0.500000  0.002135  0.012413  1
  Co  Co12  1  0.500000  0.332878  0.990968  1
  Co  Co13  1  0.500000  0.666314  0.991509  1
  Co  Co14  1  0.000000  0.169437  0.005855  1
  Co  Co15  1  0.000000  0.833709  0.006753  1
  Co  Co16  1  0.500000  0.297252  0.429539  1
  Co  Co17  1  0.500000  0.698678  0.430732  1
  Co  Co18  1  0.000000  0.202137  0.569847  1
  Co  Co19  1  0.000000  0.799826  0.575962  1
  Co  Co20  1  0.500000  0.881940  0.715090  1
  Co  Co21  1  0.500000  0.119403  0.712222  1
  Co  Co22  1  0.000000  0.616987  0.285935  1
  Co  Co23  1  0.000000  0.379698  0.286576  1
  P  P24  1  0.500000  0.499372  0.880163  1
  P  P25  1  0.000000  0.005168  0.115166  1
  P  P26  1  0.500000  0.499626  0.338717  1
  P  P27  1  0.000000  0.999335  0.662832  1
  P  P28  1  0.500000  0.305864  0.617654  1
  P  P29  1  0.500000  0.694362  0.620055  1
  P  P30  1  0.000000  0.193574  0.381394  1
  P  P31  1  0.000000  0.803166  0.390262  1
  P  P32  1  0.500000  0.847812  0.894431  1
  P  P33  1  0.500000  0.153918  0.892444  1
  P  P34  1  0.000000  0.648687  0.102304  1
  P  P35  1  0.000000  0.347880  0.104788  1
