# generated using pymatgen
data_Tb6YbRuI12
_symmetry_space_group_name_H-M   'P 1'
_cell_length_a   9.82646107
_cell_length_b   9.82646075
_cell_length_c   9.82646038
_cell_angle_alpha   107.15260613
_cell_angle_beta   107.15260189
_cell_angle_gamma   107.15259265
_symmetry_Int_Tables_number   1
_chemical_formula_structural   Tb6YbRuI12
_chemical_formula_sum   'Tb6 Yb1 Ru1 I12'
_cell_volume   786.88750546
_cell_formula_units_Z   1
loop_
 _symmetry_equiv_pos_site_id
 _symmetry_equiv_pos_as_xyz
  1  'x, y, z'
loop_
 _atom_site_type_symbol
 _atom_site_label
 _atom_site_symmetry_multiplicity
 _atom_site_fract_x
 _atom_site_fract_y
 _atom_site_fract_z
 _atom_site_occupancy
  Tb  Tb0  1  0.902801  0.700886  0.974134  1
  Tb  Tb1  1  0.974134  0.902801  0.700886  1
  Tb  Tb2  1  0.700886  0.974134  0.902801  1
  Tb  Tb3  1  0.097199  0.299114  0.025866  1
  Tb  Tb4  1  0.025866  0.097199  0.299114  1
  Tb  Tb5  1  0.299114  0.025866  0.097199  1
  Yb  Yb6  1  0.500000  0.500000  0.500000  1
  Ru  Ru7  1  0.000000  0.000000  0.000000  1
  I  I8  1  0.618347  0.847087  0.539954  1
  I  I9  1  0.539954  0.618347  0.847087  1
  I  I10  1  0.847087  0.539954  0.618347  1
  I  I11  1  0.381653  0.152913  0.460046  1
  I  I12  1  0.460046  0.381653  0.152913  1
  I  I13  1  0.152913  0.460046  0.381653  1
  I  I14  1  0.680840  0.073142  0.224309  1
  I  I15  1  0.224309  0.680840  0.073142  1
  I  I16  1  0.073142  0.224309  0.680840  1
  I  I17  1  0.319160  0.926858  0.775691  1
  I  I18  1  0.775691  0.319160  0.926858  1
  I  I19  1  0.926858  0.775691  0.319160  1
