# generated using pymatgen
data_MnZnFe4(P2O7)4
_symmetry_space_group_name_H-M   'P 1'
_cell_length_a   9.07207300
_cell_length_b   10.33757500
_cell_length_c   12.45954500
_cell_angle_alpha   90.00000000
_cell_angle_beta   90.00000000
_cell_angle_gamma   90.00000000
_symmetry_Int_Tables_number   1
_chemical_formula_structural   MnZnFe4(P2O7)4
_chemical_formula_sum   'Mn2 Zn2 Fe8 P16 O56'
_cell_volume   1168.49643726
_cell_formula_units_Z   2
loop_
 _symmetry_equiv_pos_site_id
 _symmetry_equiv_pos_as_xyz
  1  'x, y, z'
loop_
 _atom_site_type_symbol
 _atom_site_label
 _atom_site_symmetry_multiplicity
 _atom_site_fract_x
 _atom_site_fract_y
 _atom_site_fract_z
 _atom_site_occupancy
  Mn  Mn0  1  0.245746  0.619160  0.750000  1
  Mn  Mn1  1  0.745746  0.880840  0.750000  1
  Zn  Zn2  1  0.754718  0.382075  0.250000  1
  Zn  Zn3  1  0.254718  0.117925  0.250000  1
  Fe  Fe4  1  0.251163  0.620564  0.991789  1
  Fe  Fe5  1  0.751163  0.879436  0.508211  1
  Fe  Fe6  1  0.749090  0.378365  0.489623  1
  Fe  Fe7  1  0.249090  0.121635  0.010377  1
  Fe  Fe8  1  0.749090  0.378365  0.010377  1
  Fe  Fe9  1  0.249090  0.121635  0.489623  1
  Fe  Fe10  1  0.251163  0.620564  0.508211  1
  Fe  Fe11  1  0.751163  0.879436  0.991789  1
  P  P12  1  0.586413  0.619783  0.868293  1
  P  P13  1  0.086413  0.880217  0.631707  1
  P  P14  1  0.414863  0.379153  0.366604  1
  P  P15  1  0.914863  0.120847  0.133396  1
  P  P16  1  0.414863  0.379153  0.133396  1
  P  P17  1  0.914863  0.120847  0.366604  1
  P  P18  1  0.586413  0.619783  0.631707  1
  P  P19  1  0.086413  0.880217  0.868293  1
  P  P20  1  0.572768  0.134606  0.873234  1
  P  P21  1  0.072768  0.365394  0.626766  1
  P  P22  1  0.426042  0.866954  0.372312  1
  P  P23  1  0.926042  0.633046  0.127688  1
  P  P24  1  0.426042  0.866954  0.127688  1
  P  P25  1  0.926042  0.633046  0.372312  1
  P  P26  1  0.572768  0.134606  0.626766  1
  P  P27  1  0.072768  0.365394  0.873234  1
  O  O28  1  0.128229  0.934356  0.750000  1
  O  O29  1  0.628229  0.565644  0.750000  1
  O  O30  1  0.871691  0.064011  0.250000  1
  O  O31  1  0.371691  0.435989  0.250000  1
  O  O32  1  0.049012  0.322010  0.750000  1
  O  O33  1  0.549012  0.177990  0.750000  1
  O  O34  1  0.951081  0.678264  0.250000  1
  O  O35  1  0.451081  0.821736  0.250000  1
  O  O36  1  0.920291  0.389976  0.580688  1
  O  O37  1  0.420291  0.110024  0.919312  1
  O  O38  1  0.078221  0.607888  0.081173  1
  O  O39  1  0.578221  0.892112  0.418827  1
  O  O40  1  0.078221  0.607888  0.418827  1
  O  O41  1  0.578221  0.892112  0.081173  1
  O  O42  1  0.920291  0.389976  0.919312  1
  O  O43  1  0.420291  0.110024  0.580688  1
  O  O44  1  0.151596  0.253676  0.927083  1
  O  O45  1  0.651596  0.246324  0.572917  1
  O  O46  1  0.846563  0.744248  0.426551  1
  O  O47  1  0.346563  0.755752  0.073449  1
  O  O48  1  0.846563  0.744248  0.073449  1
  O  O49  1  0.346563  0.755752  0.426551  1
  O  O50  1  0.151596  0.253676  0.572917  1
  O  O51  1  0.651596  0.246324  0.927083  1
  O  O52  1  0.417395  0.628191  0.871464  1
  O  O53  1  0.917395  0.871809  0.628536  1
  O  O54  1  0.584443  0.370847  0.368393  1
  O  O55  1  0.084443  0.129153  0.131607  1
  O  O56  1  0.584443  0.370847  0.131607  1
  O  O57  1  0.084443  0.129153  0.368393  1
  O  O58  1  0.417395  0.628191  0.628536  1
  O  O59  1  0.917395  0.871809  0.871464  1
  O  O60  1  0.665669  0.009963  0.871547  1
  O  O61  1  0.165669  0.490037  0.628453  1
  O  O62  1  0.332960  0.991949  0.368633  1
  O  O63  1  0.832960  0.508051  0.131367  1
  O  O64  1  0.332960  0.991949  0.131367  1
  O  O65  1  0.832960  0.508051  0.368633  1
  O  O66  1  0.665669  0.009963  0.628453  1
  O  O67  1  0.165669  0.490037  0.871547  1
  O  O68  1  0.157571  0.745344  0.876405  1
  O  O69  1  0.657571  0.754656  0.623595  1
  O  O70  1  0.842680  0.255901  0.372871  1
  O  O71  1  0.342680  0.244099  0.127129  1
  O  O72  1  0.842680  0.255901  0.127129  1
  O  O73  1  0.342680  0.244099  0.372871  1
  O  O74  1  0.157571  0.745344  0.623595  1
  O  O75  1  0.657571  0.754656  0.876405  1
  O  O76  1  0.149293  0.974321  0.947673  1
  O  O77  1  0.649293  0.525679  0.552327  1
  O  O78  1  0.852739  0.027932  0.447474  1
  O  O79  1  0.352739  0.472068  0.052526  1
  O  O80  1  0.852739  0.027932  0.052526  1
  O  O81  1  0.352739  0.472068  0.447474  1
  O  O82  1  0.149293  0.974321  0.552327  1
  O  O83  1  0.649293  0.525679  0.947673  1
