# generated using pymatgen
data_Tb8Ga12Pd3Pt
_symmetry_space_group_name_H-M   'P 1'
_cell_length_a   8.91531900
_cell_length_b   8.91531948
_cell_length_c   7.07136700
_cell_angle_alpha   90.00000000
_cell_angle_beta   90.00000000
_cell_angle_gamma   120.00000194
_symmetry_Int_Tables_number   1
_chemical_formula_structural   Tb8Ga12Pd3Pt
_chemical_formula_sum   'Tb8 Ga12 Pd3 Pt1'
_cell_volume   486.75206049
_cell_formula_units_Z   1
loop_
 _symmetry_equiv_pos_site_id
 _symmetry_equiv_pos_as_xyz
  1  'x, y, z'
loop_
 _atom_site_type_symbol
 _atom_site_label
 _atom_site_symmetry_multiplicity
 _atom_site_fract_x
 _atom_site_fract_y
 _atom_site_fract_z
 _atom_site_occupancy
  Tb  Tb0  1  0.515261  0.030522  0.249653  1
  Tb  Tb1  1  0.482819  0.965638  0.750785  1
  Tb  Tb2  1  0.969478  0.484739  0.249653  1
  Tb  Tb3  1  0.034362  0.517181  0.750785  1
  Tb  Tb4  1  0.515261  0.484739  0.249653  1
  Tb  Tb5  1  0.482819  0.517181  0.750785  1
  Tb  Tb6  1  0.000000  0.000000  0.250537  1
  Tb  Tb7  1  0.000000  0.000000  0.749602  1
  Ga  Ga8  1  0.166653  0.333307  0.043263  1
  Ga  Ga9  1  0.832434  0.664868  0.957487  1
  Ga  Ga10  1  0.666693  0.833347  0.043263  1
  Ga  Ga11  1  0.832527  0.665053  0.542195  1
  Ga  Ga12  1  0.335132  0.167566  0.957487  1
  Ga  Ga13  1  0.166842  0.333683  0.459226  1
  Ga  Ga14  1  0.166653  0.833347  0.043263  1
  Ga  Ga15  1  0.334947  0.167473  0.542195  1
  Ga  Ga16  1  0.832434  0.167566  0.957487  1
  Ga  Ga17  1  0.666317  0.833158  0.459226  1
  Ga  Ga18  1  0.832527  0.167473  0.542195  1
  Ga  Ga19  1  0.166842  0.833158  0.459226  1
  Pd  Pd20  1  0.666667  0.333333  0.972112  1
  Pd  Pd21  1  0.666667  0.333333  0.527939  1
  Pd  Pd22  1  0.333333  0.666667  0.467586  1
  Pt  Pt23  1  0.333333  0.666667  0.024399  1
