# generated using pymatgen
data_TmLu9Zn3Bi2Pt
_symmetry_space_group_name_H-M   'P 1'
_cell_length_a   8.48119259
_cell_length_b   8.48187070
_cell_length_c   8.52551329
_cell_angle_alpha   124.29017510
_cell_angle_beta   124.28778912
_cell_angle_gamma   82.38147383
_symmetry_Int_Tables_number   1
_chemical_formula_structural   TmLu9Zn3Bi2Pt
_chemical_formula_sum   'Tm1 Lu9 Zn3 Bi2 Pt1'
_cell_volume   403.01124482
_cell_formula_units_Z   1
loop_
 _symmetry_equiv_pos_site_id
 _symmetry_equiv_pos_as_xyz
  1  'x, y, z'
loop_
 _atom_site_type_symbol
 _atom_site_label
 _atom_site_symmetry_multiplicity
 _atom_site_fract_x
 _atom_site_fract_y
 _atom_site_fract_z
 _atom_site_occupancy
  Tm  Tm0  1  0.985814  0.793125  0.500000  1
  Lu  Lu1  1  0.004093  0.001884  0.006108  1
  Lu  Lu2  1  0.497985  0.495776  0.993892  1
  Lu  Lu3  1  0.786462  0.294098  0.799956  1
  Lu  Lu4  1  0.205994  0.713497  0.199973  1
  Lu  Lu5  1  0.486506  0.994142  0.200044  1
  Lu  Lu6  1  0.299878  0.476191  0.500000  1
  Lu  Lu7  1  0.023698  0.200412  0.500000  1
  Lu  Lu8  1  0.506022  0.013524  0.800027  1
  Lu  Lu9  1  0.707160  0.514252  0.500000  1
  Zn  Zn10  1  0.137658  0.639771  0.777606  1
  Zn  Zn11  1  0.860052  0.362166  0.222394  1
  Zn  Zn12  1  0.637560  0.862322  0.500000  1
  Bi  Bi13  1  0.246789  0.253373  0.000132  1
  Bi  Bi14  1  0.746657  0.753242  0.999868  1
  Pt  Pt15  1  0.367671  0.132226  0.500000  1
