# generated using pymatgen
data_Nb6CrB6Ru5
_symmetry_space_group_name_H-M   'P 1'
_cell_length_a   3.14521100
_cell_length_b   6.41606400
_cell_length_c   10.90996200
_cell_angle_alpha   90.00000000
_cell_angle_beta   90.00000000
_cell_angle_gamma   90.00000000
_symmetry_Int_Tables_number   1
_chemical_formula_structural   Nb6CrB6Ru5
_chemical_formula_sum   'Nb6 Cr1 B6 Ru5'
_cell_volume   220.16167017
_cell_formula_units_Z   1
loop_
 _symmetry_equiv_pos_site_id
 _symmetry_equiv_pos_as_xyz
  1  'x, y, z'
loop_
 _atom_site_type_symbol
 _atom_site_label
 _atom_site_symmetry_multiplicity
 _atom_site_fract_x
 _atom_site_fract_y
 _atom_site_fract_z
 _atom_site_occupancy
  Nb  Nb0  1  0.000000  0.278879  0.958037  1
  Nb  Nb1  1  0.000000  0.724856  0.051047  1
  Nb  Nb2  1  0.000000  0.278879  0.541963  1
  Nb  Nb3  1  0.000000  0.724856  0.448953  1
  Nb  Nb4  1  0.000000  0.362292  0.250000  1
  Nb  Nb5  1  0.000000  0.644079  0.750000  1
  Cr  Cr6  1  0.500000  0.699371  0.250000  1
  B  B7  1  0.000000  0.938716  0.250000  1
  B  B8  1  0.000000  0.046534  0.750000  1
  B  B9  1  0.500000  0.453797  0.086137  1
  B  B10  1  0.500000  0.549566  0.917414  1
  B  B11  1  0.500000  0.453797  0.413863  1
  B  B12  1  0.500000  0.549566  0.582586  1
  Ru  Ru13  1  0.500000  0.072508  0.124585  1
  Ru  Ru14  1  0.500000  0.926649  0.876469  1
  Ru  Ru15  1  0.500000  0.072508  0.375415  1
  Ru  Ru16  1  0.500000  0.926649  0.623531  1
  Ru  Ru17  1  0.500000  0.296498  0.750000  1
