# generated using pymatgen
data_Tb9Y11Cd3Ru2Au3
_symmetry_space_group_name_H-M   'P 1'
_cell_length_a   9.64336251
_cell_length_b   9.64336094
_cell_length_c   9.63305356
_cell_angle_alpha   89.92772090
_cell_angle_beta   90.07227761
_cell_angle_gamma   119.91606188
_symmetry_Int_Tables_number   1
_chemical_formula_structural   Tb9Y11Cd3Ru2Au3
_chemical_formula_sum   'Tb9 Y11 Cd3 Ru2 Au3'
_cell_volume   776.45764875
_cell_formula_units_Z   1
loop_
 _symmetry_equiv_pos_site_id
 _symmetry_equiv_pos_as_xyz
  1  'x, y, z'
loop_
 _atom_site_type_symbol
 _atom_site_label
 _atom_site_symmetry_multiplicity
 _atom_site_fract_x
 _atom_site_fract_y
 _atom_site_fract_z
 _atom_site_occupancy
  Tb  Tb0  1  0.999750  0.000250  0.458969  1
  Tb  Tb1  1  0.999607  0.000393  0.042509  1
  Tb  Tb2  1  0.208920  0.791080  0.439076  1
  Tb  Tb3  1  0.209348  0.418865  0.439765  1
  Tb  Tb4  1  0.581135  0.790652  0.439765  1
  Tb  Tb5  1  0.792350  0.207650  0.559467  1
  Tb  Tb6  1  0.791299  0.583244  0.559001  1
  Tb  Tb7  1  0.416756  0.208701  0.559001  1
  Tb  Tb8  1  0.792054  0.207946  0.939938  1
  Y  Y9  1  0.791648  0.583638  0.941255  1
  Y  Y10  1  0.416362  0.208352  0.941255  1
  Y  Y11  1  0.208957  0.791043  0.059417  1
  Y  Y12  1  0.209214  0.418744  0.059470  1
  Y  Y13  1  0.581256  0.790786  0.059470  1
  Y  Y14  1  0.539422  0.460578  0.249584  1
  Y  Y15  1  0.539709  0.079735  0.249406  1
  Y  Y16  1  0.920265  0.460291  0.249406  1
  Y  Y17  1  0.458168  0.541832  0.750272  1
  Y  Y18  1  0.458396  0.916914  0.750501  1
  Y  Y19  1  0.083086  0.541604  0.750501  1
  Cd  Cd20  1  0.109864  0.890136  0.751139  1
  Cd  Cd21  1  0.110369  0.219851  0.750860  1
  Cd  Cd22  1  0.780149  0.889631  0.750860  1
  Ru  Ru23  1  0.333679  0.666321  0.251838  1
  Ru  Ru24  1  0.667651  0.332349  0.748228  1
  Au  Au25  1  0.868421  0.131579  0.249747  1
  Au  Au26  1  0.869431  0.737263  0.249650  1
  Au  Au27  1  0.262737  0.130569  0.249650  1
