# generated using pymatgen
data_YbHo6NiI12
_symmetry_space_group_name_H-M   'P 1'
_cell_length_a   9.72588565
_cell_length_b   9.72588536
_cell_length_c   9.72588422
_cell_angle_alpha   106.96001564
_cell_angle_beta   106.96001591
_cell_angle_gamma   106.96001160
_symmetry_Int_Tables_number   1
_chemical_formula_structural   YbHo6NiI12
_chemical_formula_sum   'Yb1 Ho6 Ni1 I12'
_cell_volume   767.01824299
_cell_formula_units_Z   1
loop_
 _symmetry_equiv_pos_site_id
 _symmetry_equiv_pos_as_xyz
  1  'x, y, z'
loop_
 _atom_site_type_symbol
 _atom_site_label
 _atom_site_symmetry_multiplicity
 _atom_site_fract_x
 _atom_site_fract_y
 _atom_site_fract_z
 _atom_site_occupancy
  Yb  Yb0  1  0.500000  0.500000  0.500000  1
  Ho  Ho1  1  0.024332  0.094842  0.292058  1
  Ho  Ho2  1  0.094842  0.292058  0.024332  1
  Ho  Ho3  1  0.292058  0.024332  0.094842  1
  Ho  Ho4  1  0.975668  0.905158  0.707942  1
  Ho  Ho5  1  0.905158  0.707942  0.975668  1
  Ho  Ho6  1  0.707942  0.975668  0.905158  1
  Ni  Ni7  1  0.000000  0.000000  0.000000  1
  I  I8  1  0.151687  0.457912  0.379788  1
  I  I9  1  0.457912  0.379788  0.151687  1
  I  I10  1  0.379788  0.151687  0.457912  1
  I  I11  1  0.848313  0.542088  0.620212  1
  I  I12  1  0.542088  0.620212  0.848313  1
  I  I13  1  0.620212  0.848313  0.542088  1
  I  I14  1  0.679030  0.071828  0.223517  1
  I  I15  1  0.071828  0.223517  0.679030  1
  I  I16  1  0.223517  0.679030  0.071828  1
  I  I17  1  0.320970  0.928172  0.776483  1
  I  I18  1  0.928172  0.776483  0.320970  1
  I  I19  1  0.776483  0.320970  0.928172  1
