# generated using pymatgen
data_Ho3Tm3NiI10
_symmetry_space_group_name_H-M   'P 1'
_cell_length_a   7.64570811
_cell_length_b   9.61077319
_cell_length_c   9.64330629
_cell_angle_alpha   107.08711375
_cell_angle_beta   96.92397127
_cell_angle_gamma   104.56965834
_symmetry_Int_Tables_number   1
_chemical_formula_structural   Ho3Tm3NiI10
_chemical_formula_sum   'Ho3 Tm3 Ni1 I10'
_cell_volume   640.89541034
_cell_formula_units_Z   1
loop_
 _symmetry_equiv_pos_site_id
 _symmetry_equiv_pos_as_xyz
  1  'x, y, z'
loop_
 _atom_site_type_symbol
 _atom_site_label
 _atom_site_symmetry_multiplicity
 _atom_site_fract_x
 _atom_site_fract_y
 _atom_site_fract_z
 _atom_site_occupancy
  Ho  Ho0  1  0.030477  0.721455  0.916859  1
  Ho  Ho1  1  0.888638  0.960256  0.235155  1
  Ho  Ho2  1  0.111538  0.040087  0.764949  1
  Tm  Tm3  1  0.335973  0.119615  0.159235  1
  Tm  Tm4  1  0.663852  0.881062  0.840799  1
  Tm  Tm5  1  0.970094  0.276370  0.082730  1
  Ni  Ni6  1  0.999987  0.000093  0.000012  1
  I  I7  1  0.350794  0.449828  0.271940  1
  I  I8  1  0.647133  0.550117  0.727381  1
  I  I9  1  0.772890  0.256831  0.343291  1
  I  I10  1  0.228073  0.743870  0.655807  1
  I  I11  1  0.546388  0.185040  0.907321  1
  I  I12  1  0.454337  0.815718  0.093353  1
  I  I13  1  0.740618  0.912319  0.537293  1
  I  I14  1  0.259492  0.088200  0.462758  1
  I  I15  1  0.914835  0.625930  0.180668  1
  I  I16  1  0.084881  0.373209  0.820449  1
