# generated using pymatgen
data_NdSm3(B4Mo)4
_symmetry_space_group_name_H-M   'P 1'
_cell_length_a   3.68565900
_cell_length_b   6.09510280
_cell_length_c   11.78680745
_cell_angle_alpha   90.03495693
_cell_angle_beta   90.00000000
_cell_angle_gamma   90.00000000
_symmetry_Int_Tables_number   1
_chemical_formula_structural   NdSm3(B4Mo)4
_chemical_formula_sum   'Nd1 Sm3 B16 Mo4'
_cell_volume   264.78433895
_cell_formula_units_Z   1
loop_
 _symmetry_equiv_pos_site_id
 _symmetry_equiv_pos_as_xyz
  1  'x, y, z'
loop_
 _atom_site_type_symbol
 _atom_site_label
 _atom_site_symmetry_multiplicity
 _atom_site_fract_x
 _atom_site_fract_y
 _atom_site_fract_z
 _atom_site_occupancy
  Nd  Nd0  1  0.000000  0.874395  0.849519  1
  Sm  Sm1  1  0.000000  0.625653  0.349785  1
  Sm  Sm2  1  0.000000  0.374108  0.649784  1
  Sm  Sm3  1  0.000000  0.125899  0.150479  1
  B  B4  1  0.500000  0.783876  0.185714  1
  B  B5  1  0.500000  0.217863  0.814443  1
  B  B6  1  0.500000  0.283797  0.314825  1
  B  B7  1  0.500000  0.715719  0.684273  1
  B  B8  1  0.500000  0.864204  0.033043  1
  B  B9  1  0.500000  0.136120  0.968703  1
  B  B10  1  0.500000  0.364367  0.467721  1
  B  B11  1  0.500000  0.635270  0.531593  1
  B  B12  1  0.500000  0.887166  0.452962  1
  B  B13  1  0.500000  0.113095  0.546152  1
  B  B14  1  0.500000  0.386944  0.047368  1
  B  B15  1  0.500000  0.611795  0.954220  1
  B  B16  1  0.500000  0.975475  0.307929  1
  B  B17  1  0.500000  0.025448  0.690919  1
  B  B18  1  0.500000  0.475493  0.192492  1
  B  B19  1  0.500000  0.523480  0.807942  1
  Mo  Mo20  1  0.000000  0.628096  0.083598  1
  Mo  Mo21  1  0.000000  0.371663  0.917436  1
  Mo  Mo22  1  0.000000  0.128323  0.416785  1
  Mo  Mo23  1  0.000000  0.871749  0.582314  1
