# generated using pymatgen
data_Pr5SbPdO12
_symmetry_space_group_name_H-M   'P 1'
_cell_length_a   7.15740271
_cell_length_b   7.15740193
_cell_length_c   7.64213800
_cell_angle_alpha   74.50406610
_cell_angle_beta   74.50406783
_cell_angle_gamma   50.59626193
_symmetry_Int_Tables_number   1
_chemical_formula_structural   Pr5SbPdO12
_chemical_formula_sum   'Pr5 Sb1 Pd1 O12'
_cell_volume   288.99476627
_cell_formula_units_Z   1
loop_
 _symmetry_equiv_pos_site_id
 _symmetry_equiv_pos_as_xyz
  1  'x, y, z'
loop_
 _atom_site_type_symbol
 _atom_site_label
 _atom_site_symmetry_multiplicity
 _atom_site_fract_x
 _atom_site_fract_y
 _atom_site_fract_z
 _atom_site_occupancy
  Pr  Pr0  1  0.312439  0.292095  0.359829  1
  Pr  Pr1  1  0.707905  0.687561  0.640171  1
  Pr  Pr2  1  0.701438  0.690462  0.165448  1
  Pr  Pr3  1  0.309538  0.298562  0.834552  1
  Pr  Pr4  1  0.000383  0.999617  0.500000  1
  Sb  Sb5  1  0.234771  0.765229  0.000000  1
  Pd  Pd6  1  0.744333  0.255667  0.000000  1
  O  O7  1  0.102597  0.594586  0.574252  1
  O  O8  1  0.993085  0.005817  0.178286  1
  O  O9  1  0.405414  0.897403  0.425748  1
  O  O10  1  0.491702  0.509051  0.177071  1
  O  O11  1  0.102978  0.578648  0.079952  1
  O  O12  1  0.910606  0.399198  0.422432  1
  O  O13  1  0.994183  0.006915  0.821714  1
  O  O14  1  0.600802  0.089393  0.577568  1
  O  O15  1  0.490949  0.508298  0.822929  1
  O  O16  1  0.573481  0.097956  0.081129  1
  O  O17  1  0.421352  0.897022  0.920048  1
  O  O18  1  0.902044  0.426519  0.918871  1
