# generated using pymatgen
data_La2Dy2ErSi4
_symmetry_space_group_name_H-M   'P 1'
_cell_length_a   7.80567300
_cell_length_b   7.80567300
_cell_length_c   14.57429100
_cell_angle_alpha   90.00000000
_cell_angle_beta   90.00000000
_cell_angle_gamma   90.00000000
_symmetry_Int_Tables_number   1
_chemical_formula_structural   La2Dy2ErSi4
_chemical_formula_sum   'La8 Dy8 Er4 Si16'
_cell_volume   887.99014075
_cell_formula_units_Z   4
loop_
 _symmetry_equiv_pos_site_id
 _symmetry_equiv_pos_as_xyz
  1  'x, y, z'
loop_
 _atom_site_type_symbol
 _atom_site_label
 _atom_site_symmetry_multiplicity
 _atom_site_fract_x
 _atom_site_fract_y
 _atom_site_fract_z
 _atom_site_occupancy
  La  La0  1  0.988211  0.635888  0.044160  1
  La  La1  1  0.011789  0.364112  0.544160  1
  La  La2  1  0.635888  0.988211  0.955840  1
  La  La3  1  0.135888  0.511789  0.794160  1
  La  La4  1  0.864112  0.488211  0.294160  1
  La  La5  1  0.511789  0.135888  0.205840  1
  La  La6  1  0.488211  0.864112  0.705840  1
  La  La7  1  0.364112  0.011789  0.455840  1
  Dy  Dy8  1  0.364632  0.489342  0.374325  1
  Dy  Dy9  1  0.864632  0.010658  0.375675  1
  Dy  Dy10  1  0.989342  0.135368  0.124325  1
  Dy  Dy11  1  0.010658  0.864632  0.624325  1
  Dy  Dy12  1  0.635368  0.510658  0.874325  1
  Dy  Dy13  1  0.489342  0.364632  0.625675  1
  Dy  Dy14  1  0.510658  0.635368  0.125675  1
  Dy  Dy15  1  0.135368  0.989342  0.875675  1
  Er  Er16  1  0.685354  0.685354  0.500000  1
  Er  Er17  1  0.814646  0.185354  0.750000  1
  Er  Er18  1  0.185354  0.814646  0.250000  1
  Er  Er19  1  0.314646  0.314646  0.000000  1
  Si  Si20  1  0.069508  0.714313  0.437334  1
  Si  Si21  1  0.930492  0.285687  0.937334  1
  Si  Si22  1  0.714313  0.069508  0.562666  1
  Si  Si23  1  0.214314  0.430492  0.187334  1
  Si  Si24  1  0.785687  0.569508  0.687334  1
  Si  Si25  1  0.430492  0.214314  0.812666  1
  Si  Si26  1  0.569508  0.785687  0.312666  1
  Si  Si27  1  0.285687  0.930492  0.062666  1
  Si  Si28  1  0.841508  0.800819  0.805253  1
  Si  Si29  1  0.158492  0.199181  0.305253  1
  Si  Si30  1  0.800819  0.841508  0.194747  1
  Si  Si31  1  0.300819  0.658492  0.555253  1
  Si  Si32  1  0.699181  0.341508  0.055253  1
  Si  Si33  1  0.658492  0.300819  0.444747  1
  Si  Si34  1  0.341508  0.699181  0.944747  1
  Si  Si35  1  0.199181  0.158492  0.694747  1
