# generated using pymatgen
data_Mn2TcMo3Cl20
_symmetry_space_group_name_H-M   'P 1'
_cell_length_a   9.13245255
_cell_length_b   9.13245205
_cell_length_c   13.10274176
_cell_angle_alpha   86.98044459
_cell_angle_beta   86.98044467
_cell_angle_gamma   139.11806145
_symmetry_Int_Tables_number   1
_chemical_formula_structural   Mn2TcMo3Cl20
_chemical_formula_sum   'Mn2 Tc1 Mo3 Cl20'
_cell_volume   707.05161574
_cell_formula_units_Z   1
loop_
 _symmetry_equiv_pos_site_id
 _symmetry_equiv_pos_as_xyz
  1  'x, y, z'
loop_
 _atom_site_type_symbol
 _atom_site_label
 _atom_site_symmetry_multiplicity
 _atom_site_fract_x
 _atom_site_fract_y
 _atom_site_fract_z
 _atom_site_occupancy
  Mn  Mn0  1  0.051052  0.948948  0.750000  1
  Mn  Mn1  1  0.948924  0.051076  0.250000  1
  Tc  Tc2  1  0.431620  0.568380  0.750000  1
  Mo  Mo3  1  0.566099  0.433901  0.250000  1
  Mo  Mo4  1  0.270593  0.729407  0.750000  1
  Mo  Mo5  1  0.734055  0.265945  0.250000  1
  Cl  Cl6  1  0.776173  0.475596  0.373177  1
  Cl  Cl7  1  0.524404  0.223827  0.126823  1
  Cl  Cl8  1  0.223197  0.521439  0.625924  1
  Cl  Cl9  1  0.478561  0.776803  0.874076  1
  Cl  Cl10  1  0.889158  0.785697  0.142535  1
  Cl  Cl11  1  0.214303  0.110842  0.357465  1
  Cl  Cl12  1  0.111705  0.221257  0.856416  1
  Cl  Cl13  1  0.778743  0.888295  0.643584  1
  Cl  Cl14  1  0.069947  0.586747  0.152496  1
  Cl  Cl15  1  0.413253  0.930053  0.347504  1
  Cl  Cl16  1  0.930882  0.412269  0.846947  1
  Cl  Cl17  1  0.587731  0.069118  0.653053  1
  Cl  Cl18  1  0.597560  0.672998  0.352273  1
  Cl  Cl19  1  0.327002  0.402440  0.147727  1
  Cl  Cl20  1  0.402528  0.332472  0.649508  1
  Cl  Cl21  1  0.667528  0.597472  0.850493  1
  Cl  Cl22  1  0.946600  0.265894  0.358072  1
  Cl  Cl23  1  0.734106  0.053400  0.141928  1
  Cl  Cl24  1  0.057975  0.733699  0.643103  1
  Cl  Cl25  1  0.266301  0.942025  0.856897  1
