# generated using pymatgen
data_KHf2(AsO4)3
_symmetry_space_group_name_H-M   'P 1'
_cell_length_a   9.77438363
_cell_length_b   9.77438381
_cell_length_c   9.77438395
_cell_angle_alpha   55.92283738
_cell_angle_beta   55.92283628
_cell_angle_gamma   55.92284122
_symmetry_Int_Tables_number   1
_chemical_formula_structural   KHf2(AsO4)3
_chemical_formula_sum   'K2 Hf4 As6 O24'
_cell_volume   597.92546978
_cell_formula_units_Z   2
loop_
 _symmetry_equiv_pos_site_id
 _symmetry_equiv_pos_as_xyz
  1  'x, y, z'
loop_
 _atom_site_type_symbol
 _atom_site_label
 _atom_site_symmetry_multiplicity
 _atom_site_fract_x
 _atom_site_fract_y
 _atom_site_fract_z
 _atom_site_occupancy
  K  K0  1  0.500000  0.500000  0.500000  1
  K  K1  1  0.000000  0.000000  0.000000  1
  Hf  Hf2  1  0.647410  0.647410  0.647410  1
  Hf  Hf3  1  0.852590  0.852590  0.852590  1
  Hf  Hf4  1  0.352590  0.352590  0.352590  1
  Hf  Hf5  1  0.147410  0.147410  0.147410  1
  As  As6  1  0.465577  0.034423  0.750000  1
  As  As7  1  0.034423  0.750000  0.465577  1
  As  As8  1  0.750000  0.465577  0.034423  1
  As  As9  1  0.534423  0.965577  0.250000  1
  As  As10  1  0.965577  0.250000  0.534423  1
  As  As11  1  0.250000  0.534423  0.965577  1
  O  O12  1  0.489446  0.853559  0.739015  1
  O  O13  1  0.853559  0.739015  0.489446  1
  O  O14  1  0.739015  0.489446  0.853559  1
  O  O15  1  0.646441  0.010554  0.760985  1
  O  O16  1  0.010554  0.760985  0.646441  1
  O  O17  1  0.760985  0.646441  0.010554  1
  O  O18  1  0.510554  0.146441  0.260985  1
  O  O19  1  0.146441  0.260985  0.510554  1
  O  O20  1  0.260985  0.510554  0.146441  1
  O  O21  1  0.353559  0.989446  0.239015  1
  O  O22  1  0.989446  0.239015  0.353559  1
  O  O23  1  0.239015  0.353559  0.989446  1
  O  O24  1  0.566576  0.783182  0.433228  1
  O  O25  1  0.783182  0.433228  0.566576  1
  O  O26  1  0.433228  0.566576  0.783182  1
  O  O27  1  0.716818  0.933424  0.066772  1
  O  O28  1  0.933424  0.066772  0.716818  1
  O  O29  1  0.066772  0.716818  0.933424  1
  O  O30  1  0.433424  0.216818  0.566772  1
  O  O31  1  0.216818  0.566772  0.433424  1
  O  O32  1  0.566772  0.433424  0.216818  1
  O  O33  1  0.283182  0.066576  0.933228  1
  O  O34  1  0.066576  0.933228  0.283182  1
  O  O35  1  0.933228  0.283182  0.066576  1
