# generated using pymatgen
data_Ac3(H6Os)2
_symmetry_space_group_name_H-M   'P 1'
_cell_length_a   5.12016800
_cell_length_b   5.12016702
_cell_length_c   9.01596300
_cell_angle_alpha   90.00000000
_cell_angle_beta   90.00000000
_cell_angle_gamma   119.99999344
_symmetry_Int_Tables_number   1
_chemical_formula_structural   Ac3(H6Os)2
_chemical_formula_sum   'Ac3 H12 Os2'
_cell_volume   204.69683123
_cell_formula_units_Z   1
loop_
 _symmetry_equiv_pos_site_id
 _symmetry_equiv_pos_as_xyz
  1  'x, y, z'
loop_
 _atom_site_type_symbol
 _atom_site_label
 _atom_site_symmetry_multiplicity
 _atom_site_fract_x
 _atom_site_fract_y
 _atom_site_fract_z
 _atom_site_occupancy
  Ac  Ac0  1  0.000000  0.000000  0.000000  1
  Ac  Ac1  1  0.666667  0.333333  0.361919  1
  Ac  Ac2  1  0.333333  0.666667  0.638081  1
  H  H3  1  0.177333  0.822667  0.353996  1
  H  H4  1  0.645334  0.822667  0.353996  1
  H  H5  1  0.177333  0.354666  0.353996  1
  H  H6  1  0.822667  0.177333  0.646004  1
  H  H7  1  0.354666  0.177333  0.646004  1
  H  H8  1  0.822667  0.645334  0.646004  1
  H  H9  1  0.509109  0.018219  0.875773  1
  H  H10  1  0.509109  0.490891  0.875773  1
  H  H11  1  0.981781  0.490891  0.875773  1
  H  H12  1  0.490891  0.981781  0.124227  1
  H  H13  1  0.490891  0.509109  0.124227  1
  H  H14  1  0.018219  0.509109  0.124227  1
  Os  Os15  1  0.666667  0.333333  0.764006  1
  Os  Os16  1  0.333333  0.666667  0.235994  1
