# generated using pymatgen
data_Dy2Pa(InRh)3
_symmetry_space_group_name_H-M   'P 1'
_cell_length_a   7.57514804
_cell_length_b   7.85461551
_cell_length_c   3.80528900
_cell_angle_alpha   90.00000000
_cell_angle_beta   90.00000000
_cell_angle_gamma   121.22808432
_symmetry_Int_Tables_number   1
_chemical_formula_structural   Dy2Pa(InRh)3
_chemical_formula_sum   'Dy2 Pa1 In3 Rh3'
_cell_volume   193.60911862
_cell_formula_units_Z   1
loop_
 _symmetry_equiv_pos_site_id
 _symmetry_equiv_pos_as_xyz
  1  'x, y, z'
loop_
 _atom_site_type_symbol
 _atom_site_label
 _atom_site_symmetry_multiplicity
 _atom_site_fract_x
 _atom_site_fract_y
 _atom_site_fract_z
 _atom_site_occupancy
  Dy  Dy0  1  0.596460  0.001282  0.500000  1
  Dy  Dy1  1  0.403540  0.404822  0.500000  1
  Pa  Pa2  1  0.000000  0.582637  0.500000  1
  In  In3  1  0.000000  0.242864  0.000000  1
  In  In4  1  0.271074  0.011956  0.000000  1
  In  In5  1  0.728926  0.740882  0.000000  1
  Rh  Rh6  1  0.000000  0.987479  0.500000  1
  Rh  Rh7  1  0.704513  0.366295  0.000000  1
  Rh  Rh8  1  0.295487  0.661783  0.000000  1
