# generated using pymatgen
data_DyEr3(Ga3Ir)6
_symmetry_space_group_name_H-M   'P 1'
_cell_length_a   7.58793209
_cell_length_b   7.58877588
_cell_length_c   9.48339300
_cell_angle_alpha   90.00116562
_cell_angle_beta   90.00167813
_cell_angle_gamma   120.00980414
_symmetry_Int_Tables_number   1
_chemical_formula_structural   DyEr3(Ga3Ir)6
_chemical_formula_sum   'Dy1 Er3 Ga18 Ir6'
_cell_volume   472.87529870
_cell_formula_units_Z   1
loop_
 _symmetry_equiv_pos_site_id
 _symmetry_equiv_pos_as_xyz
  1  'x, y, z'
loop_
 _atom_site_type_symbol
 _atom_site_label
 _atom_site_symmetry_multiplicity
 _atom_site_fract_x
 _atom_site_fract_y
 _atom_site_fract_z
 _atom_site_occupancy
  Dy  Dy0  1  0.997105  0.667864  0.750000  1
  Er  Er1  1  0.002937  0.332220  0.249997  1
  Er  Er2  1  0.667876  0.997147  0.750003  1
  Er  Er3  1  0.332203  0.002902  0.249997  1
  Ga  Ga4  1  0.126593  0.126738  0.749998  1
  Ga  Ga5  1  0.873449  0.873462  0.250002  1
  Ga  Ga6  1  0.998754  0.333456  0.580439  1
  Ga  Ga7  1  0.001187  0.666184  0.419257  1
  Ga  Ga8  1  0.001178  0.666180  0.080746  1
  Ga  Ga9  1  0.334084  0.999054  0.919566  1
  Ga  Ga10  1  0.998764  0.333459  0.919556  1
  Ga  Ga11  1  0.666183  0.001204  0.080544  1
  Ga  Ga12  1  0.666193  0.001203  0.419460  1
  Ga  Ga13  1  0.334074  0.999053  0.580432  1
  Ga  Ga14  1  0.332469  0.332459  0.064940  1
  Ga  Ga15  1  0.667293  0.667560  0.935340  1
  Ga  Ga16  1  0.667292  0.667566  0.564655  1
  Ga  Ga17  1  0.332472  0.332454  0.435065  1
  Ga  Ga18  1  0.339165  0.546667  0.749997  1
  Ga  Ga19  1  0.660990  0.453356  0.250003  1
  Ga  Ga20  1  0.546468  0.338828  0.749997  1
  Ga  Ga21  1  0.453421  0.661052  0.250004  1
  Ir  Ir22  1  0.671508  0.328254  0.499937  1
  Ir  Ir23  1  0.328356  0.671530  0.499934  1
  Ir  Ir24  1  0.328364  0.671536  0.000064  1
  Ir  Ir25  1  0.671501  0.328252  0.000063  1
  Ir  Ir26  1  0.000062  0.000179  0.499908  1
  Ir  Ir27  1  0.000060  0.000181  0.000096  1
