# generated using pymatgen
data_Tb8Dy11ErSn16
_symmetry_space_group_name_H-M   'P 1'
_cell_length_a   8.04576306
_cell_length_b   8.19108406
_cell_length_c   15.48270400
_cell_angle_alpha   90.00000000
_cell_angle_beta   90.00000000
_cell_angle_gamma   90.01379745
_symmetry_Int_Tables_number   1
_chemical_formula_structural   Tb8Dy11ErSn16
_chemical_formula_sum   'Tb8 Dy11 Er1 Sn16'
_cell_volume   1020.36468686
_cell_formula_units_Z   1
loop_
 _symmetry_equiv_pos_site_id
 _symmetry_equiv_pos_as_xyz
  1  'x, y, z'
loop_
 _atom_site_type_symbol
 _atom_site_label
 _atom_site_symmetry_multiplicity
 _atom_site_fract_x
 _atom_site_fract_y
 _atom_site_fract_z
 _atom_site_occupancy
  Tb  Tb0  1  0.520314  0.319913  0.902435  1
  Tb  Tb1  1  0.020287  0.180100  0.597545  1
  Tb  Tb2  1  0.479639  0.680154  0.402431  1
  Tb  Tb3  1  0.979754  0.819955  0.097578  1
  Tb  Tb4  1  0.479639  0.680154  0.097569  1
  Tb  Tb5  1  0.979754  0.819955  0.402422  1
  Tb  Tb6  1  0.520314  0.319913  0.597565  1
  Tb  Tb7  1  0.020287  0.180100  0.902455  1
  Dy  Dy8  1  0.367446  0.835817  0.878122  1
  Dy  Dy9  1  0.867437  0.664172  0.621919  1
  Dy  Dy10  1  0.632422  0.164098  0.378070  1
  Dy  Dy11  1  0.132618  0.335752  0.121932  1
  Dy  Dy12  1  0.632422  0.164098  0.121930  1
  Dy  Dy13  1  0.132618  0.335752  0.378068  1
  Dy  Dy14  1  0.367446  0.835817  0.621878  1
  Dy  Dy15  1  0.867437  0.664172  0.878081  1
  Dy  Dy16  1  0.198091  0.502950  0.750000  1
  Dy  Dy17  1  0.698088  0.997066  0.750000  1
  Dy  Dy18  1  0.801944  0.497095  0.250000  1
  Er  Er19  1  0.301803  0.003013  0.250000  1
  Sn  Sn20  1  0.293240  0.035619  0.042088  1
  Sn  Sn21  1  0.793242  0.464376  0.458124  1
  Sn  Sn22  1  0.706747  0.964323  0.541808  1
  Sn  Sn23  1  0.206751  0.535638  0.958193  1
  Sn  Sn24  1  0.706747  0.964323  0.958192  1
  Sn  Sn25  1  0.206751  0.535638  0.541807  1
  Sn  Sn26  1  0.293240  0.035619  0.457912  1
  Sn  Sn27  1  0.793242  0.464376  0.041876  1
  Sn  Sn28  1  0.565098  0.619443  0.750000  1
  Sn  Sn29  1  0.065161  0.880573  0.750000  1
  Sn  Sn30  1  0.434762  0.380327  0.250000  1
  Sn  Sn31  1  0.935412  0.119223  0.250000  1
  Sn  Sn32  1  0.328237  0.146193  0.750000  1
  Sn  Sn33  1  0.828329  0.353710  0.750000  1
  Sn  Sn34  1  0.671525  0.853829  0.250000  1
  Sn  Sn35  1  0.171758  0.646745  0.250000  1
