# generated using pymatgen
data_Eu2InSnPd2
_symmetry_space_group_name_H-M   'P 1'
_cell_length_a   4.61685800
_cell_length_b   7.45612619
_cell_length_c   8.40133278
_cell_angle_alpha   90.12185602
_cell_angle_beta   90.00000000
_cell_angle_gamma   90.00000000
_symmetry_Int_Tables_number   1
_chemical_formula_structural   Eu2InSnPd2
_chemical_formula_sum   'Eu4 In2 Sn2 Pd4'
_cell_volume   289.20578249
_cell_formula_units_Z   2
loop_
 _symmetry_equiv_pos_site_id
 _symmetry_equiv_pos_as_xyz
  1  'x, y, z'
loop_
 _atom_site_type_symbol
 _atom_site_label
 _atom_site_symmetry_multiplicity
 _atom_site_fract_x
 _atom_site_fract_y
 _atom_site_fract_z
 _atom_site_occupancy
  Eu  Eu0  1  0.250000  0.530481  0.180062  1
  Eu  Eu1  1  0.750000  0.466647  0.822023  1
  Eu  Eu2  1  0.250000  0.034473  0.319215  1
  Eu  Eu3  1  0.750000  0.968988  0.680955  1
  In  In4  1  0.250000  0.649839  0.564514  1
  In  In5  1  0.750000  0.849629  0.066646  1
  Sn  Sn6  1  0.250000  0.150335  0.935695  1
  Sn  Sn7  1  0.750000  0.349527  0.436062  1
  Pd  Pd8  1  0.750000  0.230005  0.120036  1
  Pd  Pd9  1  0.250000  0.272475  0.620005  1
  Pd  Pd10  1  0.750000  0.721345  0.376231  1
  Pd  Pd11  1  0.250000  0.776257  0.878557  1
