# generated using pymatgen
data_LaAl2Au5
_symmetry_space_group_name_H-M   'P 1'
_cell_length_a   7.34475900
_cell_length_b   8.82600200
_cell_length_c   9.86128300
_cell_angle_alpha   90.00000000
_cell_angle_beta   90.00000000
_cell_angle_gamma   90.00000000
_symmetry_Int_Tables_number   1
_chemical_formula_structural   LaAl2Au5
_chemical_formula_sum   'La4 Al8 Au20'
_cell_volume   639.25626646
_cell_formula_units_Z   4
loop_
 _symmetry_equiv_pos_site_id
 _symmetry_equiv_pos_as_xyz
  1  'x, y, z'
loop_
 _atom_site_type_symbol
 _atom_site_label
 _atom_site_symmetry_multiplicity
 _atom_site_fract_x
 _atom_site_fract_y
 _atom_site_fract_z
 _atom_site_occupancy
  La  La0  1  0.250000  0.252295  0.126884  1
  La  La1  1  0.250000  0.752295  0.373116  1
  La  La2  1  0.750000  0.747705  0.873116  1
  La  La3  1  0.750000  0.247705  0.626884  1
  Al  Al4  1  0.250000  0.048695  0.614866  1
  Al  Al5  1  0.250000  0.548695  0.885134  1
  Al  Al6  1  0.750000  0.951305  0.385134  1
  Al  Al7  1  0.750000  0.451305  0.114866  1
  Al  Al8  1  0.250000  0.354064  0.482501  1
  Al  Al9  1  0.250000  0.854064  0.017499  1
  Al  Al10  1  0.750000  0.645936  0.517499  1
  Al  Al11  1  0.750000  0.145936  0.982501  1
  Au  Au12  1  0.057346  0.107858  0.396176  1
  Au  Au13  1  0.442654  0.607858  0.103824  1
  Au  Au14  1  0.557346  0.892142  0.603824  1
  Au  Au15  1  0.942654  0.392142  0.896176  1
  Au  Au16  1  0.942654  0.892142  0.603824  1
  Au  Au17  1  0.557346  0.392142  0.896176  1
  Au  Au18  1  0.442654  0.107858  0.396176  1
  Au  Au19  1  0.057346  0.607858  0.103824  1
  Au  Au20  1  0.035342  0.057292  0.862814  1
  Au  Au21  1  0.464658  0.557292  0.637186  1
  Au  Au22  1  0.535342  0.942708  0.137186  1
  Au  Au23  1  0.964658  0.442708  0.362814  1
  Au  Au24  1  0.964658  0.942708  0.137186  1
  Au  Au25  1  0.535342  0.442708  0.362814  1
  Au  Au26  1  0.464658  0.057292  0.862814  1
  Au  Au27  1  0.035342  0.557292  0.637186  1
  Au  Au28  1  0.250000  0.297962  0.737200  1
  Au  Au29  1  0.250000  0.797962  0.762800  1
  Au  Au30  1  0.750000  0.702038  0.262800  1
  Au  Au31  1  0.750000  0.202038  0.237200  1
