# generated using pymatgen
data_SrCeNi2(AsH2)2
_symmetry_space_group_name_H-M   'P 1'
_cell_length_a   4.17871500
_cell_length_b   4.17871582
_cell_length_c   8.50178300
_cell_angle_alpha   90.00000000
_cell_angle_beta   90.00000000
_cell_angle_gamma   120.00000145
_symmetry_Int_Tables_number   1
_chemical_formula_structural   SrCeNi2(AsH2)2
_chemical_formula_sum   'Sr1 Ce1 Ni2 As2 H4'
_cell_volume   128.56602903
_cell_formula_units_Z   1
loop_
 _symmetry_equiv_pos_site_id
 _symmetry_equiv_pos_as_xyz
  1  'x, y, z'
loop_
 _atom_site_type_symbol
 _atom_site_label
 _atom_site_symmetry_multiplicity
 _atom_site_fract_x
 _atom_site_fract_y
 _atom_site_fract_z
 _atom_site_occupancy
  Sr  Sr0  1  0.000000  0.000000  0.500000  1
  Ce  Ce1  1  0.000000  0.000000  0.000000  1
  Ni  Ni2  1  0.666667  0.333333  0.760222  1
  Ni  Ni3  1  0.333333  0.666667  0.239778  1
  As  As4  1  0.333333  0.666667  0.765201  1
  As  As5  1  0.666667  0.333333  0.234799  1
  H  H6  1  0.333333  0.666667  0.424975  1
  H  H7  1  0.666667  0.333333  0.575025  1
  H  H8  1  0.333333  0.666667  0.054325  1
  H  H9  1  0.666667  0.333333  0.945675  1
