# generated using pymatgen
data_Tb5Tm(Lu3Ru2)2
_symmetry_space_group_name_H-M   'P 1'
_cell_length_a   6.24968132
_cell_length_b   7.29610527
_cell_length_c   8.99127545
_cell_angle_alpha   89.97470782
_cell_angle_beta   90.23830398
_cell_angle_gamma   90.06562616
_symmetry_Int_Tables_number   1
_chemical_formula_structural   Tb5Tm(Lu3Ru2)2
_chemical_formula_sum   'Tb5 Tm1 Lu6 Ru4'
_cell_volume   409.98331624
_cell_formula_units_Z   1
loop_
 _symmetry_equiv_pos_site_id
 _symmetry_equiv_pos_as_xyz
  1  'x, y, z'
loop_
 _atom_site_type_symbol
 _atom_site_label
 _atom_site_symmetry_multiplicity
 _atom_site_fract_x
 _atom_site_fract_y
 _atom_site_fract_z
 _atom_site_occupancy
  Tb  Tb0  1  0.333204  0.676707  0.063662  1
  Tb  Tb1  1  0.868995  0.539761  0.250854  1
  Tb  Tb2  1  0.631010  0.040840  0.250546  1
  Tb  Tb3  1  0.129570  0.459312  0.749228  1
  Tb  Tb4  1  0.370354  0.960057  0.749278  1
  Tm  Tm5  1  0.166320  0.176290  0.435917  1
  Lu  Lu6  1  0.666523  0.323918  0.564381  1
  Lu  Lu7  1  0.833877  0.824407  0.935003  1
  Lu  Lu8  1  0.667255  0.323064  0.934923  1
  Lu  Lu9  1  0.833752  0.823965  0.564456  1
  Lu  Lu10  1  0.333610  0.675658  0.436948  1
  Lu  Lu11  1  0.165695  0.175757  0.064241  1
  Ru  Ru12  1  0.040777  0.885420  0.250982  1
  Ru  Ru13  1  0.458149  0.383696  0.250865  1
  Ru  Ru14  1  0.957543  0.115764  0.750380  1
  Ru  Ru15  1  0.543365  0.615383  0.748336  1
