# generated using pymatgen
data_Nd8ErLuPb6
_symmetry_space_group_name_H-M   'P 1'
_cell_length_a   9.30280500
_cell_length_b   9.30280435
_cell_length_c   6.81662500
_cell_angle_alpha   90.00000000
_cell_angle_beta   90.00000000
_cell_angle_gamma   119.99999874
_symmetry_Int_Tables_number   1
_chemical_formula_structural   Nd8ErLuPb6
_chemical_formula_sum   'Nd8 Er1 Lu1 Pb6'
_cell_volume   510.89052151
_cell_formula_units_Z   1
loop_
 _symmetry_equiv_pos_site_id
 _symmetry_equiv_pos_as_xyz
  1  'x, y, z'
loop_
 _atom_site_type_symbol
 _atom_site_label
 _atom_site_symmetry_multiplicity
 _atom_site_fract_x
 _atom_site_fract_y
 _atom_site_fract_z
 _atom_site_occupancy
  Nd  Nd0  1  0.333333  0.666667  0.500000  1
  Nd  Nd1  1  0.666667  0.333333  0.500000  1
  Nd  Nd2  1  0.759392  0.759481  0.751814  1
  Nd  Nd3  1  0.240519  0.999910  0.751814  1
  Nd  Nd4  1  0.000090  0.240608  0.751814  1
  Nd  Nd5  1  0.240519  0.240608  0.248186  1
  Nd  Nd6  1  0.759392  0.999910  0.248186  1
  Nd  Nd7  1  0.000090  0.759481  0.248186  1
  Er  Er8  1  0.666667  0.333333  0.000000  1
  Lu  Lu9  1  0.333333  0.666667  0.000000  1
  Pb  Pb10  1  0.395902  0.396167  0.756513  1
  Pb  Pb11  1  0.603833  0.999735  0.756513  1
  Pb  Pb12  1  0.000265  0.604098  0.756513  1
  Pb  Pb13  1  0.603833  0.604098  0.243487  1
  Pb  Pb14  1  0.395902  0.999735  0.243487  1
  Pb  Pb15  1  0.000265  0.396167  0.243487  1
