# generated using pymatgen
data_Ac3AsS3
_symmetry_space_group_name_H-M   'P 1'
_cell_length_a   7.95072443
_cell_length_b   7.95072491
_cell_length_c   7.91421682
_cell_angle_alpha   70.52380928
_cell_angle_beta   70.52381104
_cell_angle_gamma   109.61438991
_symmetry_Int_Tables_number   1
_chemical_formula_structural   Ac3AsS3
_chemical_formula_sum   'Ac6 As2 S6'
_cell_volume   384.39303133
_cell_formula_units_Z   2
loop_
 _symmetry_equiv_pos_site_id
 _symmetry_equiv_pos_as_xyz
  1  'x, y, z'
loop_
 _atom_site_type_symbol
 _atom_site_label
 _atom_site_symmetry_multiplicity
 _atom_site_fract_x
 _atom_site_fract_y
 _atom_site_fract_z
 _atom_site_occupancy
  Ac  Ac0  1  0.124990  0.376224  0.250660  1
  Ac  Ac1  1  0.376224  0.124990  0.750660  1
  Ac  Ac2  1  0.250322  0.874934  0.374285  1
  Ac  Ac3  1  0.750148  0.625703  0.124351  1
  Ac  Ac4  1  0.625703  0.750148  0.624351  1
  Ac  Ac5  1  0.874934  0.250322  0.874285  1
  As  As6  1  0.501086  0.844688  0.999821  1
  As  As7  1  0.844688  0.501086  0.499821  1
  S  S8  1  0.348807  0.498191  0.505074  1
  S  S9  1  0.146862  0.649408  0.849375  1
  S  S10  1  0.005246  0.003389  0.646433  1
  S  S11  1  0.498191  0.348807  0.005074  1
  S  S12  1  0.649408  0.146862  0.349375  1
  S  S13  1  0.003389  0.005246  0.146433  1
