# generated using pymatgen
data_TaZn3Rh4
_symmetry_space_group_name_H-M   'P 1'
_cell_length_a   7.48135464
_cell_length_b   7.48135552
_cell_length_c   7.48135537
_cell_angle_alpha   33.86697843
_cell_angle_beta   33.86696502
_cell_angle_gamma   33.86699099
_symmetry_Int_Tables_number   1
_chemical_formula_structural   TaZn3Rh4
_chemical_formula_sum   'Ta1 Zn3 Rh4'
_cell_volume   115.88626013
_cell_formula_units_Z   1
loop_
 _symmetry_equiv_pos_site_id
 _symmetry_equiv_pos_as_xyz
  1  'x, y, z'
loop_
 _atom_site_type_symbol
 _atom_site_label
 _atom_site_symmetry_multiplicity
 _atom_site_fract_x
 _atom_site_fract_y
 _atom_site_fract_z
 _atom_site_occupancy
  Ta  Ta0  1  0.000000  0.000000  0.000000  1
  Zn  Zn1  1  0.248553  0.248553  0.248553  1
  Zn  Zn2  1  0.751447  0.751447  0.751447  1
  Zn  Zn3  1  0.500000  0.500000  0.500000  1
  Rh  Rh4  1  0.375304  0.375304  0.375304  1
  Rh  Rh5  1  0.876215  0.876215  0.876215  1
  Rh  Rh6  1  0.624696  0.624696  0.624696  1
  Rh  Rh7  1  0.123785  0.123785  0.123785  1
