# generated using pymatgen
data_Lu3Ag(Rh2O7)2
_symmetry_space_group_name_H-M   'P 1'
_cell_length_a   7.21320545
_cell_length_b   7.08374156
_cell_length_c   7.21320400
_cell_angle_alpha   59.39356130
_cell_angle_beta   59.99999746
_cell_angle_gamma   59.39356216
_symmetry_Int_Tables_number   1
_chemical_formula_structural   Lu3Ag(Rh2O7)2
_chemical_formula_sum   'Lu3 Ag1 Rh4 O14'
_cell_volume   258.20337809
_cell_formula_units_Z   1
loop_
 _symmetry_equiv_pos_site_id
 _symmetry_equiv_pos_as_xyz
  1  'x, y, z'
loop_
 _atom_site_type_symbol
 _atom_site_label
 _atom_site_symmetry_multiplicity
 _atom_site_fract_x
 _atom_site_fract_y
 _atom_site_fract_z
 _atom_site_occupancy
  Lu  Lu0  1  0.625000  0.625000  0.125000  1
  Lu  Lu1  1  0.625000  0.625000  0.625000  1
  Lu  Lu2  1  0.125000  0.625000  0.625000  1
  Ag  Ag3  1  0.625000  0.125000  0.625000  1
  Rh  Rh4  1  0.125000  0.125000  0.125000  1
  Rh  Rh5  1  0.625000  0.125000  0.125000  1
  Rh  Rh6  1  0.125000  0.125000  0.625000  1
  Rh  Rh7  1  0.125000  0.625000  0.125000  1
  O  O8  1  0.033586  0.469198  0.463630  1
  O  O9  1  0.786370  0.780802  0.216414  1
  O  O10  1  0.794734  0.216442  0.194091  1
  O  O11  1  0.455266  0.033558  0.455266  1
  O  O12  1  0.748421  0.754738  0.748421  1
  O  O13  1  0.033586  0.469198  0.033586  1
  O  O14  1  0.055909  0.033558  0.455266  1
  O  O15  1  0.216414  0.780802  0.216414  1
  O  O16  1  0.194091  0.216442  0.794734  1
  O  O17  1  0.794734  0.216442  0.794734  1
  O  O18  1  0.501579  0.495262  0.501579  1
  O  O19  1  0.455266  0.033558  0.055909  1
  O  O20  1  0.463630  0.469198  0.033586  1
  O  O21  1  0.216414  0.780802  0.786370  1
