# generated using pymatgen
data_Er11TmCo4SnPt
_symmetry_space_group_name_H-M   'P 1'
_cell_length_a   8.21896857
_cell_length_b   8.21768765
_cell_length_c   8.21896907
_cell_angle_alpha   111.13399646
_cell_angle_beta   110.62255133
_cell_angle_gamma   106.69881643
_symmetry_Int_Tables_number   1
_chemical_formula_structural   Er11TmCo4SnPt
_chemical_formula_sum   'Er11 Tm1 Co4 Sn1 Pt1'
_cell_volume   426.54077190
_cell_formula_units_Z   1
loop_
 _symmetry_equiv_pos_site_id
 _symmetry_equiv_pos_as_xyz
  1  'x, y, z'
loop_
 _atom_site_type_symbol
 _atom_site_label
 _atom_site_symmetry_multiplicity
 _atom_site_fract_x
 _atom_site_fract_y
 _atom_site_fract_z
 _atom_site_occupancy
  Er  Er0  1  0.685520  0.381167  0.695647  1
  Er  Er1  1  0.314421  0.009874  0.695453  1
  Er  Er2  1  0.685355  0.989710  0.304355  1
  Er  Er3  1  0.417142  0.217040  0.200348  1
  Er  Er4  1  0.582599  0.782951  0.799305  1
  Er  Er5  1  0.016692  0.217040  0.799897  1
  Er  Er6  1  0.983645  0.782951  0.200353  1
  Er  Er7  1  0.184945  0.288841  0.473372  1
  Er  Er8  1  0.814860  0.711262  0.526389  1
  Er  Er9  1  0.184873  0.711262  0.896401  1
  Er  Er10  1  0.815469  0.288841  0.103896  1
  Tm  Tm11  1  0.314736  0.619524  0.304786  1
  Co  Co12  1  0.112976  0.612866  0.499890  1
  Co  Co13  1  0.887352  0.387395  0.500044  1
  Co  Co14  1  0.377191  0.999589  0.377261  1
  Co  Co15  1  0.622328  0.999589  0.622398  1
  Sn  Sn16  1  0.499886  0.500167  0.000282  1
  Pt  Pt17  1  0.000011  0.999933  0.999922  1
