# generated using pymatgen
data_Th8Al(Si4Rh)3
_symmetry_space_group_name_H-M   'P 1'
_cell_length_a   8.26475200
_cell_length_b   8.26475184
_cell_length_c   8.45936900
_cell_angle_alpha   90.00000000
_cell_angle_beta   90.00000000
_cell_angle_gamma   120.00000065
_symmetry_Int_Tables_number   1
_chemical_formula_structural   Th8Al(Si4Rh)3
_chemical_formula_sum   'Th8 Al1 Si12 Rh3'
_cell_volume   500.41260674
_cell_formula_units_Z   1
loop_
 _symmetry_equiv_pos_site_id
 _symmetry_equiv_pos_as_xyz
  1  'x, y, z'
loop_
 _atom_site_type_symbol
 _atom_site_label
 _atom_site_symmetry_multiplicity
 _atom_site_fract_x
 _atom_site_fract_y
 _atom_site_fract_z
 _atom_site_occupancy
  Th  Th0  1  0.000000  0.000000  0.751189  1
  Th  Th1  1  0.000000  0.000000  0.248657  1
  Th  Th2  1  0.498983  0.501017  0.751317  1
  Th  Th3  1  0.498983  0.997967  0.751317  1
  Th  Th4  1  0.002033  0.501017  0.751317  1
  Th  Th5  1  0.499419  0.500581  0.248586  1
  Th  Th6  1  0.001163  0.500581  0.248586  1
  Th  Th7  1  0.499419  0.998837  0.248586  1
  Al  Al8  1  0.666667  0.333333  0.999118  1
  Si  Si9  1  0.835998  0.164002  0.999817  1
  Si  Si10  1  0.835998  0.671997  0.999817  1
  Si  Si11  1  0.328003  0.164002  0.999817  1
  Si  Si12  1  0.832874  0.167126  0.500160  1
  Si  Si13  1  0.832874  0.665747  0.500160  1
  Si  Si14  1  0.334253  0.167126  0.500160  1
  Si  Si15  1  0.165874  0.834126  0.499576  1
  Si  Si16  1  0.668252  0.834126  0.499576  1
  Si  Si17  1  0.165874  0.331748  0.499576  1
  Si  Si18  1  0.167496  0.832504  0.999974  1
  Si  Si19  1  0.665009  0.832504  0.999974  1
  Si  Si20  1  0.167496  0.334991  0.999974  1
  Rh  Rh21  1  0.666667  0.333333  0.501011  1
  Rh  Rh22  1  0.333333  0.666667  0.500632  1
  Rh  Rh23  1  0.333333  0.666667  0.001104  1
