# generated using pymatgen
data_Hf3Zr3Si2(Tc3As2)2
_symmetry_space_group_name_H-M   'P 1'
_cell_length_a   7.80170647
_cell_length_b   7.80218198
_cell_length_c   7.80170750
_cell_angle_alpha   127.16950563
_cell_angle_beta   125.98593226
_cell_angle_gamma   78.94292644
_symmetry_Int_Tables_number   1
_chemical_formula_structural   Hf3Zr3Si2(Tc3As2)2
_chemical_formula_sum   'Hf3 Zr3 Si2 Tc6 As4'
_cell_volume   296.22898996
_cell_formula_units_Z   1
loop_
 _symmetry_equiv_pos_site_id
 _symmetry_equiv_pos_as_xyz
  1  'x, y, z'
loop_
 _atom_site_type_symbol
 _atom_site_label
 _atom_site_symmetry_multiplicity
 _atom_site_fract_x
 _atom_site_fract_y
 _atom_site_fract_z
 _atom_site_occupancy
  Hf  Hf0  1  0.250889  0.854505  0.103615  1
  Hf  Hf1  1  0.050334  0.252682  0.702348  1
  Hf  Hf2  1  0.948603  0.651506  0.202903  1
  Zr  Zr3  1  0.452690  0.656946  0.704256  1
  Zr  Zr4  1  0.548546  0.253108  0.204562  1
  Zr  Zr5  1  0.749018  0.850375  0.601355  1
  Si  Si6  1  0.252383  0.255825  0.503443  1
  Si  Si7  1  0.747667  0.250929  0.003262  1
  Tc  Tc8  1  0.497732  0.501192  0.998963  1
  Tc  Tc9  1  0.002229  0.501192  0.503460  1
  Tc  Tc10  1  0.120232  0.253028  0.126696  1
  Tc  Tc11  1  0.883821  0.006339  0.136761  1
  Tc  Tc12  1  0.369578  0.006339  0.622518  1
  Tc  Tc13  1  0.626333  0.253028  0.632796  1
  As  As14  1  0.330095  0.586306  0.250100  1
  As  As15  1  0.667834  0.919998  0.254187  1
  As  As16  1  0.165811  0.919998  0.752164  1
  As  As17  1  0.836205  0.586306  0.756211  1
