# generated using pymatgen
data_Zr10CuSn3Bi3P
_symmetry_space_group_name_H-M   'P 1'
_cell_length_a   8.73020600
_cell_length_b   8.73020671
_cell_length_c   5.93468800
_cell_angle_alpha   90.00000000
_cell_angle_beta   90.00000000
_cell_angle_gamma   119.99999730
_symmetry_Int_Tables_number   1
_chemical_formula_structural   Zr10CuSn3Bi3P
_chemical_formula_sum   'Zr10 Cu1 Sn3 Bi3 P1'
_cell_volume   391.72163104
_cell_formula_units_Z   1
loop_
 _symmetry_equiv_pos_site_id
 _symmetry_equiv_pos_as_xyz
  1  'x, y, z'
loop_
 _atom_site_type_symbol
 _atom_site_label
 _atom_site_symmetry_multiplicity
 _atom_site_fract_x
 _atom_site_fract_y
 _atom_site_fract_z
 _atom_site_occupancy
  Zr  Zr0  1  0.743170  0.000000  0.257040  1
  Zr  Zr1  1  0.000000  0.743170  0.257040  1
  Zr  Zr2  1  0.256830  0.256830  0.257040  1
  Zr  Zr3  1  0.252529  0.000000  0.742087  1
  Zr  Zr4  1  0.000000  0.252529  0.742087  1
  Zr  Zr5  1  0.747471  0.747471  0.742087  1
  Zr  Zr6  1  0.333333  0.666667  0.494493  1
  Zr  Zr7  1  0.666667  0.333333  0.494493  1
  Zr  Zr8  1  0.666667  0.333333  0.004677  1
  Zr  Zr9  1  0.333333  0.666667  0.004677  1
  Cu  Cu10  1  0.000000  0.000000  0.006271  1
  Sn  Sn11  1  0.390401  0.000000  0.244975  1
  Sn  Sn12  1  0.000000  0.390401  0.244975  1
  Sn  Sn13  1  0.609599  0.609599  0.244975  1
  Bi  Bi14  1  0.605347  0.000000  0.755935  1
  Bi  Bi15  1  0.000000  0.605347  0.755935  1
  Bi  Bi16  1  0.394653  0.394653  0.755935  1
  P  P17  1  0.000000  0.000000  0.495281  1
