# generated using pymatgen
data_Na3Fe2N3
_symmetry_space_group_name_H-M   'P 1'
_cell_length_a   4.91469958
_cell_length_b   5.76596384
_cell_length_c   5.94782302
_cell_angle_alpha   122.50484471
_cell_angle_beta   65.58420490
_cell_angle_gamma   89.77971894
_symmetry_Int_Tables_number   1
_chemical_formula_structural   Na3Fe2N3
_chemical_formula_sum   'Na3 Fe2 N3'
_cell_volume   123.70266295
_cell_formula_units_Z   1
loop_
 _symmetry_equiv_pos_site_id
 _symmetry_equiv_pos_as_xyz
  1  'x, y, z'
loop_
 _atom_site_type_symbol
 _atom_site_label
 _atom_site_symmetry_multiplicity
 _atom_site_fract_x
 _atom_site_fract_y
 _atom_site_fract_z
 _atom_site_occupancy
  Na  Na0  1  0.718076  0.514393  0.212062  1
  Na  Na1  1  0.470972  0.312333  0.707885  1
  Na  Na2  1  0.304417  0.009883  0.050972  1
  Fe  Fe3  1  0.027567  0.958818  0.597247  1
  Fe  Fe4  1  0.009607  0.578095  0.630900  1
  N  N5  1  0.168710  0.580913  0.307809  1
  N  N6  1  0.871727  0.953589  0.915964  1
  N  N7  1  0.010209  0.276943  0.630019  1
