# generated using pymatgen
data_Sr5TcMoN7
_symmetry_space_group_name_H-M   'P 1'
_cell_length_a   6.45161138
_cell_length_b   9.36637699
_cell_length_c   9.35462231
_cell_angle_alpha   115.17855906
_cell_angle_beta   97.61241271
_cell_angle_gamma   89.13208312
_symmetry_Int_Tables_number   1
_chemical_formula_structural   Sr5TcMoN7
_chemical_formula_sum   'Sr10 Tc2 Mo2 N14'
_cell_volume   506.52958692
_cell_formula_units_Z   2
loop_
 _symmetry_equiv_pos_site_id
 _symmetry_equiv_pos_as_xyz
  1  'x, y, z'
loop_
 _atom_site_type_symbol
 _atom_site_label
 _atom_site_symmetry_multiplicity
 _atom_site_fract_x
 _atom_site_fract_y
 _atom_site_fract_z
 _atom_site_occupancy
  Sr  Sr0  1  0.849115  0.598163  0.326446  1
  Sr  Sr1  1  0.267121  0.985080  0.561536  1
  Sr  Sr2  1  0.703528  0.412409  0.851694  1
  Sr  Sr3  1  0.296472  0.587591  0.148306  1
  Sr  Sr4  1  0.397298  0.790147  0.915260  1
  Sr  Sr5  1  0.602702  0.209853  0.084740  1
  Sr  Sr6  1  0.150885  0.401837  0.673554  1
  Sr  Sr7  1  0.892194  0.852924  0.760804  1
  Sr  Sr8  1  0.107806  0.147076  0.239196  1
  Sr  Sr9  1  0.732879  0.014920  0.438464  1
  Tc  Tc10  1  0.577105  0.359163  0.474991  1
  Tc  Tc11  1  0.422895  0.640837  0.525009  1
  Mo  Mo12  1  0.121850  0.217273  0.917638  1
  Mo  Mo13  1  0.878150  0.782727  0.082362  1
  N  N14  1  0.519033  0.544689  0.670385  1
  N  N15  1  0.480967  0.455311  0.329615  1
  N  N16  1  0.159271  0.713433  0.563056  1
  N  N17  1  0.840729  0.286567  0.436944  1
  N  N18  1  0.416013  0.193709  0.473438  1
  N  N19  1  0.583987  0.806291  0.526562  1
  N  N20  1  0.951377  0.137696  0.717563  1
  N  N21  1  0.048623  0.862304  0.282437  1
  N  N22  1  0.234025  0.053341  0.964588  1
  N  N23  1  0.765975  0.946659  0.035412  1
  N  N24  1  0.353884  0.329859  0.905295  1
  N  N25  1  0.967388  0.349196  0.080892  1
  N  N26  1  0.032612  0.650804  0.919108  1
  N  N27  1  0.646116  0.670141  0.094705  1
