# generated using pymatgen
data_YbEr5(Si3Ru)8
_symmetry_space_group_name_H-M   'P 1'
_cell_length_a   10.12057819
_cell_length_b   10.12057849
_cell_length_c   8.12063852
_cell_angle_alpha   89.93577423
_cell_angle_beta   90.06422708
_cell_angle_gamma   132.67527219
_symmetry_Int_Tables_number   1
_chemical_formula_structural   YbEr5(Si3Ru)8
_chemical_formula_sum   'Yb1 Er5 Si24 Ru8'
_cell_volume   611.51944591
_cell_formula_units_Z   1
loop_
 _symmetry_equiv_pos_site_id
 _symmetry_equiv_pos_as_xyz
  1  'x, y, z'
loop_
 _atom_site_type_symbol
 _atom_site_label
 _atom_site_symmetry_multiplicity
 _atom_site_fract_x
 _atom_site_fract_y
 _atom_site_fract_z
 _atom_site_occupancy
  Yb  Yb0  1  0.498012  0.998012  0.250000  1
  Er  Er1  1  0.001452  0.501452  0.750000  1
  Er  Er2  1  0.502506  0.002506  0.750000  1
  Er  Er3  1  0.997429  0.497429  0.250000  1
  Er  Er4  1  0.499795  0.499719  0.499628  1
  Er  Er5  1  0.999719  0.999795  0.000372  1
  Si  Si6  1  0.388465  0.155108  0.003303  1
  Si  Si7  1  0.655108  0.888465  0.496697  1
  Si  Si8  1  0.111742  0.344829  0.505429  1
  Si  Si9  1  0.844829  0.611742  0.994571  1
  Si  Si10  1  0.611725  0.845658  0.994032  1
  Si  Si11  1  0.345658  0.111725  0.505968  1
  Si  Si12  1  0.888078  0.655251  0.494641  1
  Si  Si13  1  0.155251  0.388078  0.005359  1
  Si  Si14  1  0.613614  0.379232  0.228360  1
  Si  Si15  1  0.879232  0.113614  0.271640  1
  Si  Si16  1  0.888421  0.121930  0.727896  1
  Si  Si17  1  0.621930  0.388421  0.772104  1
  Si  Si18  1  0.388317  0.621808  0.771474  1
  Si  Si19  1  0.121808  0.888317  0.728526  1
  Si  Si20  1  0.704836  0.294176  0.000809  1
  Si  Si21  1  0.794176  0.204836  0.499191  1
  Si  Si22  1  0.295221  0.705740  0.999941  1
  Si  Si23  1  0.205740  0.795221  0.500059  1
  Si  Si24  1  0.166322  0.167519  0.332988  1
  Si  Si25  1  0.667519  0.666322  0.167012  1
  Si  Si26  1  0.332709  0.331719  0.833116  1
  Si  Si27  1  0.831719  0.832709  0.666884  1
  Si  Si28  1  0.376774  0.611031  0.228297  1
  Si  Si29  1  0.111031  0.876774  0.271703  1
  Ru  Ru30  1  0.626101  0.626876  0.872835  1
  Ru  Ru31  1  0.126876  0.126101  0.627165  1
  Ru  Ru32  1  0.873154  0.873105  0.372531  1
  Ru  Ru33  1  0.373105  0.373154  0.127469  1
  Ru  Ru34  1  0.329434  0.668867  0.500806  1
  Ru  Ru35  1  0.168867  0.829434  0.999194  1
  Ru  Ru36  1  0.671165  0.332160  0.501695  1
  Ru  Ru37  1  0.832160  0.171165  0.998305  1
