# generated using pymatgen
data_Sc5TiB4(IrRh)5
_symmetry_space_group_name_H-M   'P 1'
_cell_length_a   9.44715242
_cell_length_b   9.47031741
_cell_length_c   3.11679100
_cell_angle_alpha   90.00000000
_cell_angle_beta   90.00000000
_cell_angle_gamma   90.06262807
_symmetry_Int_Tables_number   1
_chemical_formula_structural   Sc5TiB4(IrRh)5
_chemical_formula_sum   'Sc5 Ti1 B4 Ir5 Rh5'
_cell_volume   278.85143192
_cell_formula_units_Z   1
loop_
 _symmetry_equiv_pos_site_id
 _symmetry_equiv_pos_as_xyz
  1  'x, y, z'
loop_
 _atom_site_type_symbol
 _atom_site_label
 _atom_site_symmetry_multiplicity
 _atom_site_fract_x
 _atom_site_fract_y
 _atom_site_fract_z
 _atom_site_occupancy
  Sc  Sc0  1  0.826088  0.324113  0.000000  1
  Sc  Sc1  1  0.324316  0.174077  0.000000  1
  Sc  Sc2  1  0.674666  0.825168  0.000000  1
  Sc  Sc3  1  0.174458  0.675159  0.000000  1
  Sc  Sc4  1  0.500661  0.497468  0.000000  1
  Ti  Ti5  1  0.999769  0.000090  0.000000  1
  B  B6  1  0.622109  0.121918  0.000000  1
  B  B7  1  0.121467  0.378438  0.000000  1
  B  B8  1  0.878095  0.622349  0.000000  1
  B  B9  1  0.378897  0.877795  0.000000  1
  Ir  Ir10  1  0.068035  0.217640  0.500000  1
  Ir  Ir11  1  0.216360  0.933499  0.500000  1
  Ir  Ir12  1  0.783280  0.067608  0.500000  1
  Ir  Ir13  1  0.932556  0.782945  0.500000  1
  Ir  Ir14  1  0.425509  0.723008  0.500000  1
  Rh  Rh15  1  0.575272  0.276568  0.500000  1
  Rh  Rh16  1  0.722658  0.575192  0.500000  1
  Rh  Rh17  1  0.276547  0.425964  0.500000  1
  Rh  Rh18  1  0.500054  0.001040  0.500000  1
  Rh  Rh19  1  0.999202  0.499960  0.500000  1
