# generated using pymatgen
data_CdHg3(IO3)8
_symmetry_space_group_name_H-M   'P 1'
_cell_length_a   5.80537637
_cell_length_b   5.94898126
_cell_length_c   17.98795065
_cell_angle_alpha   89.81806937
_cell_angle_beta   90.02482021
_cell_angle_gamma   90.20526253
_symmetry_Int_Tables_number   1
_chemical_formula_structural   CdHg3(IO3)8
_chemical_formula_sum   'Cd1 Hg3 I8 O24'
_cell_volume   621.22604336
_cell_formula_units_Z   1
loop_
 _symmetry_equiv_pos_site_id
 _symmetry_equiv_pos_as_xyz
  1  'x, y, z'
loop_
 _atom_site_type_symbol
 _atom_site_label
 _atom_site_symmetry_multiplicity
 _atom_site_fract_x
 _atom_site_fract_y
 _atom_site_fract_z
 _atom_site_occupancy
  Cd  Cd0  1  0.790499  0.828698  0.595454  1
  Hg  Hg1  1  0.704522  0.173058  0.094612  1
  Hg  Hg2  1  0.204688  0.326423  0.905278  1
  Hg  Hg3  1  0.294678  0.674045  0.406743  1
  I  I4  1  0.240137  0.785898  0.705962  1
  I  I5  1  0.744240  0.713666  0.291934  1
  I  I6  1  0.755006  0.286636  0.791155  1
  I  I7  1  0.256256  0.213774  0.208581  1
  I  I8  1  0.030723  0.640274  0.078293  1
  I  I9  1  0.530234  0.860514  0.921329  1
  I  I10  1  0.968145  0.138656  0.423582  1
  I  I11  1  0.474018  0.362393  0.578613  1
  O  O12  1  0.553887  0.604496  0.518868  1
  O  O13  1  0.035902  0.895807  0.484391  1
  O  O14  1  0.456274  0.103229  0.981151  1
  O  O15  1  0.956111  0.396677  0.018719  1
  O  O16  1  0.610285  0.491016  0.661793  1
  O  O17  1  0.105732  0.012511  0.340575  1
  O  O18  1  0.393797  0.985189  0.837715  1
  O  O19  1  0.894713  0.514820  0.162036  1
  O  O20  1  0.713045  0.180213  0.547150  1
  O  O21  1  0.214052  0.314933  0.455785  1
  O  O22  1  0.286461  0.683142  0.954472  1
  O  O23  1  0.786978  0.816237  0.045344  1
  O  O24  1  0.054210  0.015221  0.164369  1
  O  O25  1  0.554729  0.484474  0.835762  1
  O  O26  1  0.945979  0.515752  0.336450  1
  O  O27  1  0.450296  0.977905  0.661905  1
  O  O28  1  0.358319  0.373816  0.125878  1
  O  O29  1  0.858512  0.125862  0.873620  1
  O  O30  1  0.640036  0.872803  0.374316  1
  O  O31  1  0.137965  0.627891  0.623598  1
  O  O32  1  0.515351  0.036770  0.209909  1
  O  O33  1  0.015240  0.463681  0.789526  1
  O  O34  1  0.484830  0.535962  0.290020  1
  O  O35  1  0.984150  0.967561  0.705109  1
