# generated using pymatgen
data_Zr7Pa(Co4P3)4
_symmetry_space_group_name_H-M   'P 1'
_cell_length_a   12.12605979
_cell_length_b   12.12606072
_cell_length_c   3.69460200
_cell_angle_alpha   90.00000000
_cell_angle_beta   90.00000000
_cell_angle_gamma   120.07776158
_symmetry_Int_Tables_number   1
_chemical_formula_structural   Zr7Pa(Co4P3)4
_chemical_formula_sum   'Zr7 Pa1 Co16 P12'
_cell_volume   470.10719695
_cell_formula_units_Z   1
loop_
 _symmetry_equiv_pos_site_id
 _symmetry_equiv_pos_as_xyz
  1  'x, y, z'
loop_
 _atom_site_type_symbol
 _atom_site_label
 _atom_site_symmetry_multiplicity
 _atom_site_fract_x
 _atom_site_fract_y
 _atom_site_fract_z
 _atom_site_occupancy
  Zr  Zr0  1  0.438927  0.438927  0.000000  1
  Zr  Zr1  1  0.557481  0.000059  0.000000  1
  Zr  Zr2  1  0.000059  0.557481  0.000000  1
  Zr  Zr3  1  0.666144  0.333876  0.000000  1
  Zr  Zr4  1  0.333876  0.666144  0.000000  1
  Zr  Zr5  1  0.181028  0.000538  0.500000  1
  Zr  Zr6  1  0.000538  0.181028  0.500000  1
  Pa  Pa7  1  0.826173  0.826173  0.500000  1
  Co  Co8  1  0.191934  0.372164  0.000000  1
  Co  Co9  1  0.183635  0.806928  0.000000  1
  Co  Co10  1  0.819222  0.626357  0.000000  1
  Co  Co11  1  0.806928  0.183635  0.000000  1
  Co  Co12  1  0.372164  0.191934  0.000000  1
  Co  Co13  1  0.125790  0.480733  0.500000  1
  Co  Co14  1  0.356945  0.873925  0.500000  1
  Co  Co15  1  0.517550  0.643451  0.500000  1
  Co  Co16  1  0.643451  0.517550  0.500000  1
  Co  Co17  1  0.873925  0.356945  0.500000  1
  Co  Co18  1  0.480733  0.125790  0.500000  1
  Co  Co19  1  0.997729  0.997729  0.000000  1
  Co  Co20  1  0.722291  0.001262  0.500000  1
  Co  Co21  1  0.001262  0.722291  0.500000  1
  Co  Co22  1  0.626357  0.819222  0.000000  1
  Co  Co23  1  0.274949  0.274949  0.500000  1
  P  P24  1  0.647036  0.647036  0.000000  1
  P  P25  1  0.348009  0.000224  0.000000  1
  P  P26  1  0.000224  0.348009  0.000000  1
  P  P27  1  0.480178  0.306274  0.500000  1
  P  P28  1  0.691697  0.175163  0.500000  1
  P  P29  1  0.826004  0.518899  0.500000  1
  P  P30  1  0.518899  0.826004  0.500000  1
  P  P31  1  0.175163  0.691697  0.500000  1
  P  P32  1  0.824346  0.008151  0.000000  1
  P  P33  1  0.008151  0.824346  0.000000  1
  P  P34  1  0.306274  0.480178  0.500000  1
  P  P35  1  0.174929  0.174929  0.000000  1
