# generated using pymatgen
data_DyEr2Sc2(In2Pt)2
_symmetry_space_group_name_H-M   'P 1'
_cell_length_a   3.58734400
_cell_length_b   7.93755700
_cell_length_c   17.86297700
_cell_angle_alpha   90.00000000
_cell_angle_beta   90.00000000
_cell_angle_gamma   90.00000000
_symmetry_Int_Tables_number   1
_chemical_formula_structural   DyEr2Sc2(In2Pt)2
_chemical_formula_sum   'Dy2 Er4 Sc4 In8 Pt4'
_cell_volume   508.64375929
_cell_formula_units_Z   2
loop_
 _symmetry_equiv_pos_site_id
 _symmetry_equiv_pos_as_xyz
  1  'x, y, z'
loop_
 _atom_site_type_symbol
 _atom_site_label
 _atom_site_symmetry_multiplicity
 _atom_site_fract_x
 _atom_site_fract_y
 _atom_site_fract_z
 _atom_site_occupancy
  Dy  Dy0  1  0.000000  0.000000  0.000000  1
  Dy  Dy1  1  0.000000  0.500000  0.500000  1
  Er  Er2  1  0.000000  0.243457  0.219702  1
  Er  Er3  1  0.000000  0.756543  0.780298  1
  Er  Er4  1  0.000000  0.256543  0.719702  1
  Er  Er5  1  0.000000  0.743457  0.280298  1
  Sc  Sc6  1  0.000000  0.115662  0.414868  1
  Sc  Sc7  1  0.000000  0.884338  0.585132  1
  Sc  Sc8  1  0.000000  0.384338  0.914868  1
  Sc  Sc9  1  0.000000  0.615662  0.085132  1
  In  In10  1  0.500000  0.417016  0.352526  1
  In  In11  1  0.500000  0.582984  0.647474  1
  In  In12  1  0.500000  0.082984  0.852526  1
  In  In13  1  0.500000  0.917016  0.147474  1
  In  In14  1  0.500000  0.301704  0.062252  1
  In  In15  1  0.500000  0.698296  0.937748  1
  In  In16  1  0.500000  0.198296  0.562252  1
  In  In17  1  0.500000  0.801704  0.437748  1
  Pt  Pt18  1  0.500000  0.029551  0.307804  1
  Pt  Pt19  1  0.500000  0.970449  0.692196  1
  Pt  Pt20  1  0.500000  0.470449  0.807804  1
  Pt  Pt21  1  0.500000  0.529551  0.192196  1
