# generated using pymatgen
data_Er10Si5Sb
_symmetry_space_group_name_H-M   'P 1'
_cell_length_a   8.42541200
_cell_length_b   8.45906863
_cell_length_c   6.27659700
_cell_angle_alpha   90.00000000
_cell_angle_beta   90.00000000
_cell_angle_gamma   119.86846280
_symmetry_Int_Tables_number   1
_chemical_formula_structural   Er10Si5Sb
_chemical_formula_sum   'Er10 Si5 Sb1'
_cell_volume   387.92045979
_cell_formula_units_Z   1
loop_
 _symmetry_equiv_pos_site_id
 _symmetry_equiv_pos_as_xyz
  1  'x, y, z'
loop_
 _atom_site_type_symbol
 _atom_site_label
 _atom_site_symmetry_multiplicity
 _atom_site_fract_x
 _atom_site_fract_y
 _atom_site_fract_z
 _atom_site_occupancy
  Er  Er0  1  0.988116  0.748446  0.750000  1
  Er  Er1  1  0.999474  0.243245  0.250000  1
  Er  Er2  1  0.756229  0.756755  0.250000  1
  Er  Er3  1  0.764801  0.000000  0.750000  1
  Er  Er4  1  0.239671  0.251554  0.750000  1
  Er  Er5  1  0.240966  0.000000  0.250000  1
  Er  Er6  1  0.331710  0.657909  0.496506  1
  Er  Er7  1  0.673802  0.342091  0.003494  1
  Er  Er8  1  0.673802  0.342091  0.496506  1
  Er  Er9  1  0.331710  0.657909  0.003494  1
  Si  Si10  1  0.393737  0.391860  0.250000  1
  Si  Si11  1  0.001877  0.608140  0.250000  1
  Si  Si12  1  0.999294  0.394465  0.750000  1
  Si  Si13  1  0.604829  0.605535  0.750000  1
  Si  Si14  1  0.606691  0.000000  0.250000  1
  Sb  Sb15  1  0.393291  0.000000  0.750000  1
