# generated using pymatgen
data_Mg3Mn(SiPd5)2
_symmetry_space_group_name_H-M   'P 1'
_cell_length_a   4.10608700
_cell_length_b   5.49495101
_cell_length_c   10.65214201
_cell_angle_alpha   90.00495960
_cell_angle_beta   90.00000000
_cell_angle_gamma   90.00000000
_symmetry_Int_Tables_number   1
_chemical_formula_structural   Mg3Mn(SiPd5)2
_chemical_formula_sum   'Mg3 Mn1 Si2 Pd10'
_cell_volume   240.34158308
_cell_formula_units_Z   1
loop_
 _symmetry_equiv_pos_site_id
 _symmetry_equiv_pos_as_xyz
  1  'x, y, z'
loop_
 _atom_site_type_symbol
 _atom_site_label
 _atom_site_symmetry_multiplicity
 _atom_site_fract_x
 _atom_site_fract_y
 _atom_site_fract_z
 _atom_site_occupancy
  Mg  Mg0  1  0.500000  0.840562  0.856712  1
  Mg  Mg1  1  0.500000  0.340349  0.643674  1
  Mg  Mg2  1  0.500000  0.659309  0.355988  1
  Mn  Mn3  1  0.500000  0.162891  0.142880  1
  Si  Si4  1  0.000000  0.999317  0.500093  1
  Si  Si5  1  0.000000  0.497366  0.000566  1
  Pd  Pd6  1  0.500000  0.173934  0.398015  1
  Pd  Pd7  1  0.500000  0.824116  0.600211  1
  Pd  Pd8  1  0.500000  0.323247  0.900810  1
  Pd  Pd9  1  0.500000  0.678200  0.100810  1
  Pd  Pd10  1  0.000000  0.415965  0.231238  1
  Pd  Pd11  1  0.000000  0.582518  0.768773  1
  Pd  Pd12  1  0.000000  0.082540  0.732011  1
  Pd  Pd13  1  0.000000  0.919084  0.266564  1
  Pd  Pd14  1  0.000000  0.001145  0.001650  1
  Pd  Pd15  1  0.000000  0.499456  0.500006  1
