# generated using pymatgen
data_Tb3Y5(CdPt)2
_symmetry_space_group_name_H-M   'P 1'
_cell_length_a   9.72748824
_cell_length_b   9.74353937
_cell_length_c   9.74354020
_cell_angle_alpha   59.89104218
_cell_angle_beta   60.05448306
_cell_angle_gamma   60.05448255
_symmetry_Int_Tables_number   1
_chemical_formula_structural   Tb3Y5(CdPt)2
_chemical_formula_sum   'Tb6 Y10 Cd4 Pt4'
_cell_volume   653.00561301
_cell_formula_units_Z   2
loop_
 _symmetry_equiv_pos_site_id
 _symmetry_equiv_pos_as_xyz
  1  'x, y, z'
loop_
 _atom_site_type_symbol
 _atom_site_label
 _atom_site_symmetry_multiplicity
 _atom_site_fract_x
 _atom_site_fract_y
 _atom_site_fract_z
 _atom_site_occupancy
  Tb  Tb0  1  0.352105  0.352573  0.352573  1
  Tb  Tb1  1  0.352573  0.352105  0.942749  1
  Tb  Tb2  1  0.352573  0.942749  0.352105  1
  Tb  Tb3  1  0.942749  0.352573  0.352573  1
  Tb  Tb4  1  0.810361  0.189639  0.189639  1
  Tb  Tb5  1  0.189639  0.810361  0.810361  1
  Y  Y6  1  0.190144  0.809856  0.190144  1
  Y  Y7  1  0.809856  0.190144  0.809856  1
  Y  Y8  1  0.190144  0.190144  0.809856  1
  Y  Y9  1  0.809856  0.809856  0.190144  1
  Y  Y10  1  0.935673  0.564327  0.564327  1
  Y  Y11  1  0.564327  0.935673  0.935673  1
  Y  Y12  1  0.564170  0.935830  0.564170  1
  Y  Y13  1  0.935830  0.564170  0.935830  1
  Y  Y14  1  0.564170  0.564170  0.935830  1
  Y  Y15  1  0.935830  0.935830  0.564170  1
  Cd  Cd16  1  0.582198  0.581777  0.581777  1
  Cd  Cd17  1  0.581777  0.582198  0.254249  1
  Cd  Cd18  1  0.581777  0.254249  0.582198  1
  Cd  Cd19  1  0.254249  0.581777  0.581777  1
  Pt  Pt20  1  0.143322  0.143975  0.143975  1
  Pt  Pt21  1  0.143975  0.143322  0.568727  1
  Pt  Pt22  1  0.143975  0.568727  0.143322  1
  Pt  Pt23  1  0.568727  0.143975  0.143975  1
