# generated using pymatgen
data_Y3HoEr2(Si3Ru)8
_symmetry_space_group_name_H-M   'P 1'
_cell_length_a   10.11803334
_cell_length_b   10.11803335
_cell_length_c   8.13616700
_cell_angle_alpha   90.04768134
_cell_angle_beta   89.95232263
_cell_angle_gamma   132.62035294
_symmetry_Int_Tables_number   1
_chemical_formula_structural   Y3HoEr2(Si3Ru)8
_chemical_formula_sum   'Y3 Ho1 Er2 Si24 Ru8'
_cell_volume   612.92181015
_cell_formula_units_Z   1
loop_
 _symmetry_equiv_pos_site_id
 _symmetry_equiv_pos_as_xyz
  1  'x, y, z'
loop_
 _atom_site_type_symbol
 _atom_site_label
 _atom_site_symmetry_multiplicity
 _atom_site_fract_x
 _atom_site_fract_y
 _atom_site_fract_z
 _atom_site_occupancy
  Y  Y0  1  0.497732  0.997732  0.250000  1
  Y  Y1  1  0.002263  0.502263  0.750000  1
  Y  Y2  1  0.502773  0.002773  0.750000  1
  Ho  Ho3  1  0.997472  0.497472  0.250000  1
  Er  Er4  1  0.500057  0.499995  0.499925  1
  Er  Er5  1  0.999995  0.000057  0.000075  1
  Si  Si6  1  0.387773  0.154325  0.004390  1
  Si  Si7  1  0.654325  0.887773  0.495610  1
  Si  Si8  1  0.111370  0.343856  0.503667  1
  Si  Si9  1  0.843856  0.611370  0.996333  1
  Si  Si10  1  0.612251  0.845689  0.995168  1
  Si  Si11  1  0.345689  0.112251  0.504832  1
  Si  Si12  1  0.888530  0.655917  0.494930  1
  Si  Si13  1  0.155917  0.388530  0.005070  1
  Si  Si14  1  0.612913  0.378967  0.227802  1
  Si  Si15  1  0.878967  0.112913  0.272198  1
  Si  Si16  1  0.886193  0.120411  0.728714  1
  Si  Si17  1  0.620411  0.386193  0.771286  1
  Si  Si18  1  0.387917  0.622039  0.771520  1
  Si  Si19  1  0.122039  0.887917  0.728480  1
  Si  Si20  1  0.705492  0.294414  0.000191  1
  Si  Si21  1  0.794414  0.205492  0.499809  1
  Si  Si22  1  0.294523  0.705667  0.000351  1
  Si  Si23  1  0.205667  0.794523  0.499649  1
  Si  Si24  1  0.168094  0.167945  0.333136  1
  Si  Si25  1  0.667945  0.668094  0.166864  1
  Si  Si26  1  0.332034  0.331924  0.833080  1
  Si  Si27  1  0.831924  0.832034  0.666920  1
  Si  Si28  1  0.378914  0.612707  0.228279  1
  Si  Si29  1  0.112707  0.878914  0.271721  1
  Ru  Ru30  1  0.625968  0.625721  0.872631  1
  Ru  Ru31  1  0.125721  0.125968  0.627369  1
  Ru  Ru32  1  0.873907  0.874294  0.372805  1
  Ru  Ru33  1  0.374294  0.373907  0.127195  1
  Ru  Ru34  1  0.329345  0.666700  0.499482  1
  Ru  Ru35  1  0.166700  0.829345  0.000518  1
  Ru  Ru36  1  0.670617  0.333288  0.498846  1
  Ru  Ru37  1  0.833288  0.170617  0.001154  1
