# generated using pymatgen
data_Tm2Th(MgIr)3
_symmetry_space_group_name_H-M   'P 1'
_cell_length_a   7.24702077
_cell_length_b   7.24702009
_cell_length_c   4.06290900
_cell_angle_alpha   90.00000000
_cell_angle_beta   90.00000000
_cell_angle_gamma   118.72826140
_symmetry_Int_Tables_number   1
_chemical_formula_structural   Tm2Th(MgIr)3
_chemical_formula_sum   'Tm2 Th1 Mg3 Ir3'
_cell_volume   187.11589663
_cell_formula_units_Z   1
loop_
 _symmetry_equiv_pos_site_id
 _symmetry_equiv_pos_as_xyz
  1  'x, y, z'
loop_
 _atom_site_type_symbol
 _atom_site_label
 _atom_site_symmetry_multiplicity
 _atom_site_fract_x
 _atom_site_fract_y
 _atom_site_fract_z
 _atom_site_occupancy
  Tm  Tm0  1  0.407905  0.000985  0.500000  1
  Tm  Tm1  1  0.000985  0.407905  0.500000  1
  Th  Th2  1  0.580666  0.580666  0.500000  1
  Mg  Mg3  1  0.757016  0.006935  0.000000  1
  Mg  Mg4  1  0.006935  0.757016  0.000000  1
  Mg  Mg5  1  0.233992  0.233992  0.000000  1
  Ir  Ir6  1  0.342268  0.670405  0.000000  1
  Ir  Ir7  1  0.670405  0.342268  0.000000  1
  Ir  Ir8  1  0.999829  0.999829  0.500000  1
