# generated using pymatgen
data_Dy9Y11(Bi2Pt)4
_symmetry_space_group_name_H-M   'P 1'
_cell_length_a   8.09308901
_cell_length_b   9.02969800
_cell_length_c   12.46666401
_cell_angle_alpha   90.00000000
_cell_angle_beta   90.00493879
_cell_angle_gamma   90.00000000
_symmetry_Int_Tables_number   1
_chemical_formula_structural   Dy9Y11(Bi2Pt)4
_chemical_formula_sum   'Dy9 Y11 Bi8 Pt4'
_cell_volume   911.04073458
_cell_formula_units_Z   1
loop_
 _symmetry_equiv_pos_site_id
 _symmetry_equiv_pos_as_xyz
  1  'x, y, z'
loop_
 _atom_site_type_symbol
 _atom_site_label
 _atom_site_symmetry_multiplicity
 _atom_site_fract_x
 _atom_site_fract_y
 _atom_site_fract_z
 _atom_site_occupancy
  Dy  Dy0  1  0.550083  0.750000  0.000003  1
  Dy  Dy1  1  0.679011  0.045603  0.566740  1
  Dy  Dy2  1  0.321007  0.954372  0.433272  1
  Dy  Dy3  1  0.179119  0.954347  0.933273  1
  Dy  Dy4  1  0.321007  0.545628  0.433272  1
  Dy  Dy5  1  0.820924  0.045607  0.066730  1
  Dy  Dy6  1  0.679011  0.454397  0.566740  1
  Dy  Dy7  1  0.820924  0.454393  0.066730  1
  Dy  Dy8  1  0.179119  0.545653  0.933273  1
  Y  Y9  1  0.838436  0.750000  0.789994  1
  Y  Y10  1  0.161506  0.250000  0.210027  1
  Y  Y11  1  0.338533  0.250000  0.710003  1
  Y  Y12  1  0.661478  0.750000  0.289943  1
  Y  Y13  1  0.370807  0.750000  0.697663  1
  Y  Y14  1  0.629150  0.250000  0.302342  1
  Y  Y15  1  0.870803  0.250000  0.802332  1
  Y  Y16  1  0.129214  0.750000  0.197721  1
  Y  Y17  1  0.950407  0.750000  0.500011  1
  Y  Y18  1  0.049580  0.250000  0.499980  1
  Y  Y19  1  0.450413  0.250000  0.999957  1
  Bi  Bi20  1  0.568835  0.491205  0.827318  1
  Bi  Bi21  1  0.431147  0.508843  0.172667  1
  Bi  Bi22  1  0.068846  0.508842  0.672723  1
  Bi  Bi23  1  0.431147  0.991157  0.172667  1
  Bi  Bi24  1  0.931163  0.491180  0.327271  1
  Bi  Bi25  1  0.568835  0.008795  0.827318  1
  Bi  Bi26  1  0.931163  0.008820  0.327271  1
  Bi  Bi27  1  0.068846  0.991158  0.672723  1
  Pt  Pt28  1  0.574588  0.750000  0.511495  1
  Pt  Pt29  1  0.425441  0.250000  0.488502  1
  Pt  Pt30  1  0.074584  0.250000  0.988489  1
  Pt  Pt31  1  0.924873  0.750000  0.011549  1
