# generated using pymatgen
data_YPaHgPt2
_symmetry_space_group_name_H-M   'P 1'
_cell_length_a   7.95039500
_cell_length_b   7.76920700
_cell_length_c   3.63112700
_cell_angle_alpha   90.00000000
_cell_angle_beta   90.00000000
_cell_angle_gamma   90.00000000
_symmetry_Int_Tables_number   1
_chemical_formula_structural   YPaHgPt2
_chemical_formula_sum   'Y2 Pa2 Hg2 Pt4'
_cell_volume   224.28841292
_cell_formula_units_Z   2
loop_
 _symmetry_equiv_pos_site_id
 _symmetry_equiv_pos_as_xyz
  1  'x, y, z'
loop_
 _atom_site_type_symbol
 _atom_site_label
 _atom_site_symmetry_multiplicity
 _atom_site_fract_x
 _atom_site_fract_y
 _atom_site_fract_z
 _atom_site_occupancy
  Y  Y0  1  0.325996  0.171796  0.500000  1
  Y  Y1  1  0.825996  0.328204  0.500000  1
  Pa  Pa2  1  0.170727  0.666252  0.500000  1
  Pa  Pa3  1  0.670727  0.833748  0.500000  1
  Hg  Hg4  1  0.005851  0.009690  0.000000  1
  Hg  Hg5  1  0.505851  0.490310  0.000000  1
  Pt  Pt6  1  0.626077  0.112092  0.000000  1
  Pt  Pt7  1  0.126077  0.387908  0.000000  1
  Pt  Pt8  1  0.871349  0.648479  0.000000  1
  Pt  Pt9  1  0.371349  0.851521  0.000000  1
