# generated using pymatgen
data_PrGd4(RhO6)2
_symmetry_space_group_name_H-M   'P 1'
_cell_length_a   6.98310591
_cell_length_b   6.98310578
_cell_length_c   7.44845626
_cell_angle_alpha   74.56057730
_cell_angle_beta   74.56057564
_cell_angle_gamma   50.97845447
_symmetry_Int_Tables_number   1
_chemical_formula_structural   PrGd4(RhO6)2
_chemical_formula_sum   'Pr1 Gd4 Rh2 O12'
_cell_volume   269.63340203
_cell_formula_units_Z   1
loop_
 _symmetry_equiv_pos_site_id
 _symmetry_equiv_pos_as_xyz
  1  'x, y, z'
loop_
 _atom_site_type_symbol
 _atom_site_label
 _atom_site_symmetry_multiplicity
 _atom_site_fract_x
 _atom_site_fract_y
 _atom_site_fract_z
 _atom_site_occupancy
  Pr  Pr0  1  0.000000  0.000000  0.500000  1
  Gd  Gd1  1  0.304717  0.304717  0.358488  1
  Gd  Gd2  1  0.695283  0.695283  0.641512  1
  Gd  Gd3  1  0.692996  0.692996  0.167004  1
  Gd  Gd4  1  0.307004  0.307004  0.832996  1
  Rh  Rh5  1  0.752692  0.247308  0.000000  1
  Rh  Rh6  1  0.247308  0.752692  0.000000  1
  O  O7  1  0.096106  0.589587  0.578421  1
  O  O8  1  0.999149  0.999149  0.175872  1
  O  O9  1  0.410413  0.903894  0.421579  1
  O  O10  1  0.500245  0.500245  0.185994  1
  O  O11  1  0.100125  0.572450  0.081570  1
  O  O12  1  0.903894  0.410413  0.421579  1
  O  O13  1  0.000851  0.000851  0.824128  1
  O  O14  1  0.589587  0.096105  0.578421  1
  O  O15  1  0.499755  0.499755  0.814006  1
  O  O16  1  0.572450  0.100125  0.081570  1
  O  O17  1  0.427550  0.899875  0.918430  1
  O  O18  1  0.899875  0.427550  0.918430  1
