# generated using pymatgen
data_Y4Tm2Al24Os5Pt3
_symmetry_space_group_name_H-M   'P 1'
_cell_length_a   8.81594333
_cell_length_b   8.83934835
_cell_length_c   9.54708159
_cell_angle_alpha   90.13378301
_cell_angle_beta   89.71831294
_cell_angle_gamma   119.61116414
_symmetry_Int_Tables_number   1
_chemical_formula_structural   Y4Tm2Al24Os5Pt3
_chemical_formula_sum   'Y4 Tm2 Al24 Os5 Pt3'
_cell_volume   646.80503625
_cell_formula_units_Z   1
loop_
 _symmetry_equiv_pos_site_id
 _symmetry_equiv_pos_as_xyz
  1  'x, y, z'
loop_
 _atom_site_type_symbol
 _atom_site_label
 _atom_site_symmetry_multiplicity
 _atom_site_fract_x
 _atom_site_fract_y
 _atom_site_fract_z
 _atom_site_occupancy
  Y  Y0  1  0.187681  0.382733  0.250670  1
  Y  Y1  1  0.812319  0.617267  0.749330  1
  Y  Y2  1  0.614591  0.814059  0.252389  1
  Y  Y3  1  0.385409  0.185941  0.747611  1
  Tm  Tm4  1  0.197162  0.807874  0.252309  1
  Tm  Tm5  1  0.802838  0.192126  0.747691  1
  Al  Al6  1  0.335194  0.671470  0.029985  1
  Al  Al7  1  0.664806  0.328530  0.970015  1
  Al  Al8  1  0.669162  0.331478  0.528039  1
  Al  Al9  1  0.330838  0.668522  0.471961  1
  Al  Al10  1  0.157323  0.325687  0.575212  1
  Al  Al11  1  0.842677  0.674313  0.424788  1
  Al  Al12  1  0.673233  0.841253  0.575877  1
  Al  Al13  1  0.837409  0.675972  0.078076  1
  Al  Al14  1  0.326767  0.158747  0.424123  1
  Al  Al15  1  0.162591  0.324028  0.921924  1
  Al  Al16  1  0.163638  0.834633  0.575415  1
  Al  Al17  1  0.325682  0.158196  0.076765  1
  Al  Al18  1  0.836362  0.165367  0.424585  1
  Al  Al19  1  0.674318  0.841804  0.923235  1
  Al  Al20  1  0.831543  0.159537  0.076972  1
  Al  Al21  1  0.168457  0.840463  0.923028  1
  Al  Al22  1  0.560698  0.125051  0.249956  1
  Al  Al23  1  0.439302  0.874949  0.750044  1
  Al  Al24  1  0.874338  0.438209  0.252658  1
  Al  Al25  1  0.125662  0.561791  0.747342  1
  Al  Al26  1  0.562759  0.436209  0.249874  1
  Al  Al27  1  0.437241  0.563791  0.750126  1
  Al  Al28  1  0.000698  0.001593  0.250210  1
  Al  Al29  1  0.999302  0.998407  0.749790  1
  Os  Os30  1  0.500000  0.000000  0.000000  1
  Os  Os31  1  0.500000  0.000000  0.500000  1
  Os  Os32  1  0.000000  0.500000  0.500000  1
  Os  Os33  1  0.000000  0.000000  0.000000  1
  Os  Os34  1  0.000000  0.000000  0.500000  1
  Pt  Pt35  1  0.000000  0.500000  0.000000  1
  Pt  Pt36  1  0.500000  0.500000  0.000000  1
  Pt  Pt37  1  0.500000  0.500000  0.500000  1
