# generated using pymatgen
data_TbGdHo2(MoN3)4
_symmetry_space_group_name_H-M   'P 1'
_cell_length_a   7.31523809
_cell_length_b   7.31523562
_cell_length_c   6.26720681
_cell_angle_alpha   73.91525853
_cell_angle_beta   73.91525262
_cell_angle_gamma   81.69097119
_symmetry_Int_Tables_number   1
_chemical_formula_structural   TbGdHo2(MoN3)4
_chemical_formula_sum   'Tb1 Gd1 Ho2 Mo4 N12'
_cell_volume   308.79633971
_cell_formula_units_Z   1
loop_
 _symmetry_equiv_pos_site_id
 _symmetry_equiv_pos_as_xyz
  1  'x, y, z'
loop_
 _atom_site_type_symbol
 _atom_site_label
 _atom_site_symmetry_multiplicity
 _atom_site_fract_x
 _atom_site_fract_y
 _atom_site_fract_z
 _atom_site_occupancy
  Tb  Tb0  1  0.704601  0.295399  0.250000  1
  Gd  Gd1  1  0.295926  0.704074  0.750000  1
  Ho  Ho2  1  0.912969  0.087031  0.750000  1
  Ho  Ho3  1  0.087026  0.912974  0.250000  1
  Mo  Mo4  1  0.800797  0.618990  0.767345  1
  Mo  Mo5  1  0.198641  0.380304  0.233322  1
  Mo  Mo6  1  0.619696  0.801359  0.266678  1
  Mo  Mo7  1  0.381010  0.199203  0.732655  1
  N  N8  1  0.217627  0.000890  0.849439  1
  N  N9  1  0.362620  0.351009  0.440663  1
  N  N10  1  0.638435  0.648918  0.558201  1
  N  N11  1  0.624440  0.109920  0.661966  1
  N  N12  1  0.999110  0.782373  0.650561  1
  N  N13  1  0.782230  0.000382  0.151216  1
  N  N14  1  0.108646  0.623542  0.162896  1
  N  N15  1  0.890080  0.375560  0.838034  1
  N  N16  1  0.999618  0.217770  0.348784  1
  N  N17  1  0.351082  0.361565  0.941799  1
  N  N18  1  0.648991  0.637380  0.059337  1
  N  N19  1  0.376458  0.891354  0.337104  1
