# generated using pymatgen
data_Pr12IrPdRu2
_symmetry_space_group_name_H-M   'P 1'
_cell_length_a   6.57728028
_cell_length_b   7.46899459
_cell_length_c   10.00874300
_cell_angle_alpha   90.00000000
_cell_angle_beta   90.00000000
_cell_angle_gamma   90.36755299
_symmetry_Int_Tables_number   1
_chemical_formula_structural   Pr12IrPdRu2
_chemical_formula_sum   'Pr12 Ir1 Pd1 Ru2'
_cell_volume   491.67609738
_cell_formula_units_Z   1
loop_
 _symmetry_equiv_pos_site_id
 _symmetry_equiv_pos_as_xyz
  1  'x, y, z'
loop_
 _atom_site_type_symbol
 _atom_site_label
 _atom_site_symmetry_multiplicity
 _atom_site_fract_x
 _atom_site_fract_y
 _atom_site_fract_z
 _atom_site_occupancy
  Pr  Pr0  1  0.337614  0.671260  0.064913  1
  Pr  Pr1  1  0.169511  0.182993  0.436563  1
  Pr  Pr2  1  0.670953  0.323732  0.568503  1
  Pr  Pr3  1  0.828060  0.823194  0.930746  1
  Pr  Pr4  1  0.670953  0.323732  0.931497  1
  Pr  Pr5  1  0.828060  0.823194  0.569254  1
  Pr  Pr6  1  0.337614  0.671260  0.435087  1
  Pr  Pr7  1  0.169511  0.182993  0.063437  1
  Pr  Pr8  1  0.850024  0.528490  0.250000  1
  Pr  Pr9  1  0.634509  0.043265  0.250000  1
  Pr  Pr10  1  0.145825  0.464820  0.750000  1
  Pr  Pr11  1  0.354858  0.960192  0.750000  1
  Ir  Ir12  1  0.940179  0.117488  0.750000  1
  Pd  Pd13  1  0.067421  0.884273  0.250000  1
  Ru  Ru14  1  0.433689  0.381128  0.250000  1
  Ru  Ru15  1  0.561218  0.617989  0.750000  1
