# generated using pymatgen
data_Er12InFe4Pt
_symmetry_space_group_name_H-M   'P 1'
_cell_length_a   8.21952627
_cell_length_b   8.21952485
_cell_length_c   8.21952616
_cell_angle_alpha   110.83020561
_cell_angle_beta   110.95745110
_cell_angle_gamma   106.66203215
_symmetry_Int_Tables_number   1
_chemical_formula_structural   Er12InFe4Pt
_chemical_formula_sum   'Er12 In1 Fe4 Pt1'
_cell_volume   426.71604328
_cell_formula_units_Z   1
loop_
 _symmetry_equiv_pos_site_id
 _symmetry_equiv_pos_as_xyz
  1  'x, y, z'
loop_
 _atom_site_type_symbol
 _atom_site_label
 _atom_site_symmetry_multiplicity
 _atom_site_fract_x
 _atom_site_fract_y
 _atom_site_fract_z
 _atom_site_occupancy
  Er  Er0  1  0.186049  0.287367  0.473415  1
  Er  Er1  1  0.813951  0.712633  0.526585  1
  Er  Er2  1  0.186049  0.712633  0.898682  1
  Er  Er3  1  0.813951  0.287367  0.101318  1
  Er  Er4  1  0.313706  0.614860  0.301154  1
  Er  Er5  1  0.686294  0.385140  0.698846  1
  Er  Er6  1  0.313706  0.012553  0.698846  1
  Er  Er7  1  0.686294  0.987447  0.301154  1
  Er  Er8  1  0.417521  0.218728  0.198793  1
  Er  Er9  1  0.582479  0.781272  0.801207  1
  Er  Er10  1  0.019935  0.218728  0.801207  1
  Er  Er11  1  0.980065  0.781272  0.198793  1
  In  In12  1  0.500000  0.500000  0.000000  1
  Fe  Fe13  1  0.108967  0.608967  0.500000  1
  Fe  Fe14  1  0.891033  0.391033  0.500000  1
  Fe  Fe15  1  0.383354  0.000000  0.383354  1
  Fe  Fe16  1  0.616646  0.000000  0.616646  1
  Pt  Pt17  1  0.000000  0.000000  0.000000  1
