# generated using pymatgen
data_La5Nd3Cd2CoIr
_symmetry_space_group_name_H-M   'P 1'
_cell_length_a   9.99552128
_cell_length_b   9.99552076
_cell_length_c   9.95762000
_cell_angle_alpha   60.12535181
_cell_angle_beta   60.12535352
_cell_angle_gamma   60.36448551
_symmetry_Int_Tables_number   1
_chemical_formula_structural   La5Nd3Cd2CoIr
_chemical_formula_sum   'La10 Nd6 Cd4 Co2 Ir2'
_cell_volume   706.73773040
_cell_formula_units_Z   2
loop_
 _symmetry_equiv_pos_site_id
 _symmetry_equiv_pos_as_xyz
  1  'x, y, z'
loop_
 _atom_site_type_symbol
 _atom_site_label
 _atom_site_symmetry_multiplicity
 _atom_site_fract_x
 _atom_site_fract_y
 _atom_site_fract_z
 _atom_site_occupancy
  La  La0  1  0.343860  0.343860  0.352725  1
  La  La1  1  0.343860  0.343860  0.959555  1
  La  La2  1  0.340889  0.960959  0.349076  1
  La  La3  1  0.960959  0.340889  0.349076  1
  La  La4  1  0.815435  0.191722  0.189913  1
  La  La5  1  0.191722  0.815435  0.802931  1
  La  La6  1  0.191722  0.815435  0.189913  1
  La  La7  1  0.815435  0.191722  0.802931  1
  La  La8  1  0.189943  0.189943  0.810057  1
  La  La9  1  0.808158  0.808158  0.191842  1
  Nd  Nd10  1  0.937146  0.564548  0.561916  1
  Nd  Nd11  1  0.564548  0.937146  0.936391  1
  Nd  Nd12  1  0.564548  0.937146  0.561916  1
  Nd  Nd13  1  0.937146  0.564548  0.936391  1
  Nd  Nd14  1  0.561986  0.561986  0.938014  1
  Nd  Nd15  1  0.935016  0.935016  0.564984  1
  Cd  Cd16  1  0.579967  0.579967  0.579684  1
  Cd  Cd17  1  0.579967  0.579967  0.260382  1
  Cd  Cd18  1  0.580609  0.258567  0.580412  1
  Cd  Cd19  1  0.258567  0.580609  0.580412  1
  Co  Co20  1  0.139742  0.139742  0.140843  1
  Co  Co21  1  0.139742  0.139742  0.579671  1
  Ir  Ir22  1  0.140860  0.578171  0.140484  1
  Ir  Ir23  1  0.578171  0.140860  0.140484  1
