# generated using pymatgen
data_Mn5Zn(AsO4)4
_symmetry_space_group_name_H-M   'P 1'
_cell_length_a   8.88375209
_cell_length_b   5.48021114
_cell_length_c   9.39211882
_cell_angle_alpha   59.63374267
_cell_angle_beta   89.85665550
_cell_angle_gamma   90.25989174
_symmetry_Int_Tables_number   1
_chemical_formula_structural   Mn5Zn(AsO4)4
_chemical_formula_sum   'Mn5 Zn1 As4 O16'
_cell_volume   394.51368018
_cell_formula_units_Z   1
loop_
 _symmetry_equiv_pos_site_id
 _symmetry_equiv_pos_as_xyz
  1  'x, y, z'
loop_
 _atom_site_type_symbol
 _atom_site_label
 _atom_site_symmetry_multiplicity
 _atom_site_fract_x
 _atom_site_fract_y
 _atom_site_fract_z
 _atom_site_occupancy
  Mn  Mn0  1  0.144260  0.483120  0.109789  1
  Mn  Mn1  1  0.641203  0.514562  0.391017  1
  Mn  Mn2  1  0.858184  0.522471  0.885540  1
  Mn  Mn3  1  0.001346  0.500845  0.500186  1
  Mn  Mn4  1  0.500414  0.495678  0.001235  1
  Zn  Zn5  1  0.358271  0.483019  0.611677  1
  As  As6  1  0.305184  0.836922  0.204030  1
  As  As7  1  0.805430  0.158894  0.300798  1
  As  As8  1  0.690469  0.158974  0.801234  1
  As  As9  1  0.198467  0.846199  0.694113  1
  O  O10  1  0.073474  0.699005  0.858072  1
  O  O11  1  0.563060  0.303402  0.640970  1
  O  O12  1  0.929747  0.308536  0.136589  1
  O  O13  1  0.427406  0.691362  0.369089  1
  O  O14  1  0.202762  0.205105  0.621810  1
  O  O15  1  0.693225  0.801076  0.877452  1
  O  O16  1  0.804743  0.800552  0.379129  1
  O  O17  1  0.305837  0.196380  0.121794  1
  O  O18  1  0.146241  0.774104  0.543025  1
  O  O19  1  0.647366  0.236204  0.952788  1
  O  O20  1  0.129719  0.675692  0.261992  1
  O  O21  1  0.631393  0.321671  0.239644  1
  O  O22  1  0.864423  0.326243  0.735471  1
  O  O23  1  0.369397  0.667760  0.755521  1
  O  O24  1  0.355785  0.752467  0.056647  1
  O  O25  1  0.852192  0.239757  0.450387  1
