# generated using pymatgen
data_YHo11(Si3Au)4
_symmetry_space_group_name_H-M   'P 1'
_cell_length_a   4.20095500
_cell_length_b   10.93503241
_cell_length_c   12.32241400
_cell_angle_alpha   89.98437011
_cell_angle_beta   90.00000000
_cell_angle_gamma   90.00000000
_symmetry_Int_Tables_number   1
_chemical_formula_structural   YHo11(Si3Au)4
_chemical_formula_sum   'Y1 Ho11 Si12 Au4'
_cell_volume   566.06184633
_cell_formula_units_Z   1
loop_
 _symmetry_equiv_pos_site_id
 _symmetry_equiv_pos_as_xyz
  1  'x, y, z'
loop_
 _atom_site_type_symbol
 _atom_site_label
 _atom_site_symmetry_multiplicity
 _atom_site_fract_x
 _atom_site_fract_y
 _atom_site_fract_z
 _atom_site_occupancy
  Y  Y0  1  0.750000  0.163707  0.697423  1
  Ho  Ho1  1  0.250000  0.875692  0.020159  1
  Ho  Ho2  1  0.250000  0.624380  0.519825  1
  Ho  Ho3  1  0.750000  0.124121  0.979971  1
  Ho  Ho4  1  0.750000  0.376032  0.479895  1
  Ho  Ho5  1  0.250000  0.923068  0.601563  1
  Ho  Ho6  1  0.250000  0.576370  0.101741  1
  Ho  Ho7  1  0.750000  0.076192  0.398908  1
  Ho  Ho8  1  0.750000  0.423913  0.898450  1
  Ho  Ho9  1  0.250000  0.664307  0.802789  1
  Ho  Ho10  1  0.250000  0.836253  0.302774  1
  Ho  Ho11  1  0.750000  0.335161  0.197332  1
  Si  Si12  1  0.250000  0.026957  0.826918  1
  Si  Si13  1  0.250000  0.472790  0.326040  1
  Si  Si14  1  0.750000  0.972797  0.173823  1
  Si  Si15  1  0.750000  0.527158  0.673712  1
  Si  Si16  1  0.250000  0.248345  0.847653  1
  Si  Si17  1  0.250000  0.251899  0.347451  1
  Si  Si18  1  0.750000  0.752036  0.152774  1
  Si  Si19  1  0.750000  0.747835  0.652373  1
  Si  Si20  1  0.250000  0.184014  0.534694  1
  Si  Si21  1  0.250000  0.316241  0.035215  1
  Si  Si22  1  0.750000  0.815835  0.464593  1
  Si  Si23  1  0.750000  0.684139  0.964835  1
  Au  Au24  1  0.250000  0.391017  0.682168  1
  Au  Au25  1  0.250000  0.109926  0.182681  1
  Au  Au26  1  0.750000  0.609613  0.317430  1
  Au  Au27  1  0.750000  0.890204  0.816809  1
