# generated using pymatgen
data_Ba3ScAs3
_symmetry_space_group_name_H-M   'P 1'
_cell_length_a   10.86811049
_cell_length_b   10.86811109
_cell_length_c   13.53094600
_cell_angle_alpha   90.00000000
_cell_angle_beta   90.00000000
_cell_angle_gamma   141.56364090
_symmetry_Int_Tables_number   1
_chemical_formula_structural   Ba3ScAs3
_chemical_formula_sum   'Ba12 Sc4 As12'
_cell_volume   993.52477871
_cell_formula_units_Z   4
loop_
 _symmetry_equiv_pos_site_id
 _symmetry_equiv_pos_as_xyz
  1  'x, y, z'
loop_
 _atom_site_type_symbol
 _atom_site_label
 _atom_site_symmetry_multiplicity
 _atom_site_fract_x
 _atom_site_fract_y
 _atom_site_fract_z
 _atom_site_occupancy
  Ba  Ba0  1  0.845240  0.845240  0.342103  1
  Ba  Ba1  1  0.154760  0.154760  0.657897  1
  Ba  Ba2  1  0.654760  0.654760  0.842103  1
  Ba  Ba3  1  0.345240  0.345240  0.157897  1
  Ba  Ba4  1  0.856431  0.497482  0.134062  1
  Ba  Ba5  1  0.502518  0.143569  0.865938  1
  Ba  Ba6  1  0.002518  0.643569  0.634062  1
  Ba  Ba7  1  0.356431  0.997482  0.365938  1
  Ba  Ba8  1  0.143569  0.502518  0.865938  1
  Ba  Ba9  1  0.497482  0.856431  0.134062  1
  Ba  Ba10  1  0.997482  0.356431  0.365938  1
  Ba  Ba11  1  0.643569  0.002518  0.634062  1
  Sc  Sc12  1  0.084792  0.915208  0.000000  1
  Sc  Sc13  1  0.584792  0.415208  0.500000  1
  Sc  Sc14  1  0.915208  0.084792  0.000000  1
  Sc  Sc15  1  0.415208  0.584792  0.500000  1
  As  As16  1  0.789265  0.789265  0.098701  1
  As  As17  1  0.210735  0.210735  0.901299  1
  As  As18  1  0.710735  0.710735  0.598701  1
  As  As19  1  0.289265  0.289265  0.401299  1
  As  As20  1  0.046417  0.362447  0.119085  1
  As  As21  1  0.637553  0.953583  0.880915  1
  As  As22  1  0.137553  0.453583  0.619085  1
  As  As23  1  0.546417  0.862447  0.380915  1
  As  As24  1  0.953583  0.637553  0.880915  1
  As  As25  1  0.362447  0.046417  0.119085  1
  As  As26  1  0.862447  0.546417  0.380915  1
  As  As27  1  0.453583  0.137553  0.619085  1
