# generated using pymatgen
data_K20Ti3SnP12
_symmetry_space_group_name_H-M   'P 1'
_cell_length_a   8.07295752
_cell_length_b   8.77613520
_cell_length_c   16.96159200
_cell_angle_alpha   59.72571064
_cell_angle_beta   89.91673506
_cell_angle_gamma   89.83551375
_symmetry_Int_Tables_number   1
_chemical_formula_structural   K20Ti3SnP12
_chemical_formula_sum   'K20 Ti3 Sn1 P12'
_cell_volume   1037.82570540
_cell_formula_units_Z   1
loop_
 _symmetry_equiv_pos_site_id
 _symmetry_equiv_pos_as_xyz
  1  'x, y, z'
loop_
 _atom_site_type_symbol
 _atom_site_label
 _atom_site_symmetry_multiplicity
 _atom_site_fract_x
 _atom_site_fract_y
 _atom_site_fract_z
 _atom_site_occupancy
  K  K0  1  0.171121  0.835298  0.743077  1
  K  K1  1  0.673075  0.158095  0.758240  1
  K  K2  1  0.826665  0.156591  0.259739  1
  K  K3  1  0.328164  0.847638  0.237749  1
  K  K4  1  0.164645  0.161801  0.416066  1
  K  K5  1  0.671274  0.837755  0.079860  1
  K  K6  1  0.831021  0.843673  0.580194  1
  K  K7  1  0.331928  0.162249  0.922506  1
  K  K8  1  0.005352  0.087526  0.091523  1
  K  K9  1  0.507661  0.914952  0.409129  1
  K  K10  1  0.992373  0.914729  0.908078  1
  K  K11  1  0.491488  0.084418  0.592121  1
  K  K12  1  0.516497  0.268296  0.077535  1
  K  K13  1  0.019771  0.734270  0.421858  1
  K  K14  1  0.482724  0.735818  0.921658  1
  K  K15  1  0.989650  0.262818  0.576029  1
  K  K16  1  0.984487  0.545858  0.256300  1
  K  K17  1  0.485708  0.456957  0.243522  1
  K  K18  1  0.013988  0.455231  0.742735  1
  K  K19  1  0.517700  0.544592  0.755592  1
  Ti  Ti20  1  0.869043  0.505610  0.920523  1
  Ti  Ti21  1  0.628855  0.506647  0.421253  1
  Ti  Ti22  1  0.129479  0.494250  0.080259  1
  Sn  Sn23  1  0.369002  0.491053  0.580590  1
  P  P24  1  0.321869  0.483338  0.430807  1
  P  P25  1  0.826865  0.512837  0.062348  1
  P  P26  1  0.691542  0.516472  0.561921  1
  P  P27  1  0.171402  0.485607  0.939404  1
  P  P28  1  0.211689  0.223957  0.214406  1
  P  P29  1  0.709905  0.774954  0.286349  1
  P  P30  1  0.787714  0.774962  0.786235  1
  P  P31  1  0.283203  0.202751  0.723360  1
  P  P32  1  0.248085  0.750372  0.077130  1
  P  P33  1  0.747985  0.253370  0.422144  1
  P  P34  1  0.750763  0.250131  0.922964  1
  P  P35  1  0.247312  0.765126  0.576793  1
