# generated using pymatgen
data_BaP12(IrRu)2
_symmetry_space_group_name_H-M   'P 1'
_cell_length_a   7.07109805
_cell_length_b   7.07709744
_cell_length_c   7.07109914
_cell_angle_alpha   109.49346793
_cell_angle_beta   109.41006525
_cell_angle_gamma   109.47575425
_symmetry_Int_Tables_number   1
_chemical_formula_structural   BaP12(IrRu)2
_chemical_formula_sum   'Ba1 P12 Ir2 Ru2'
_cell_volume   272.51535688
_cell_formula_units_Z   1
loop_
 _symmetry_equiv_pos_site_id
 _symmetry_equiv_pos_as_xyz
  1  'x, y, z'
loop_
 _atom_site_type_symbol
 _atom_site_label
 _atom_site_symmetry_multiplicity
 _atom_site_fract_x
 _atom_site_fract_y
 _atom_site_fract_z
 _atom_site_occupancy
  Ba  Ba0  1  0.000000  0.000000  0.000000  1
  P  P1  1  0.358015  0.213652  0.855636  1
  P  P2  1  0.641985  0.786348  0.144364  1
  P  P3  1  0.640086  0.498002  0.857916  1
  P  P4  1  0.359914  0.501998  0.142084  1
  P  P5  1  0.215527  0.858877  0.360981  1
  P  P6  1  0.784473  0.141123  0.639019  1
  P  P7  1  0.497896  0.858877  0.643350  1
  P  P8  1  0.502104  0.141123  0.356650  1
  P  P9  1  0.854030  0.356189  0.215409  1
  P  P10  1  0.145970  0.643811  0.784591  1
  P  P11  1  0.859220  0.643811  0.497841  1
  P  P12  1  0.140780  0.356189  0.502159  1
  Ir  Ir13  1  0.000000  0.500000  0.000000  1
  Ir  Ir14  1  0.500000  0.500000  0.500000  1
  Ru  Ru15  1  0.000000  0.000000  0.500000  1
  Ru  Ru16  1  0.500000  0.000000  0.000000  1
