# generated using pymatgen
data_SrCr2PtO6
_symmetry_space_group_name_H-M   'P 1'
_cell_length_a   6.70481312
_cell_length_b   6.70481383
_cell_length_c   6.70481287
_cell_angle_alpha   46.02385916
_cell_angle_beta   46.02385679
_cell_angle_gamma   46.02384363
_symmetry_Int_Tables_number   1
_chemical_formula_structural   SrCr2PtO6
_chemical_formula_sum   'Sr1 Cr2 Pt1 O6'
_cell_volume   142.38174686
_cell_formula_units_Z   1
loop_
 _symmetry_equiv_pos_site_id
 _symmetry_equiv_pos_as_xyz
  1  'x, y, z'
loop_
 _atom_site_type_symbol
 _atom_site_label
 _atom_site_symmetry_multiplicity
 _atom_site_fract_x
 _atom_site_fract_y
 _atom_site_fract_z
 _atom_site_occupancy
  Sr  Sr0  1  0.000000  0.000000  0.000000  1
  Cr  Cr1  1  0.173376  0.173376  0.173376  1
  Cr  Cr2  1  0.826624  0.826624  0.826624  1
  Pt  Pt3  1  0.500000  0.500000  0.500000  1
  O  O4  1  0.426453  0.786098  0.111149  1
  O  O5  1  0.888850  0.573548  0.213903  1
  O  O6  1  0.786097  0.111149  0.426454  1
  O  O7  1  0.213903  0.888851  0.573547  1
  O  O8  1  0.111150  0.426453  0.786097  1
  O  O9  1  0.573548  0.213902  0.888851  1
