# generated using pymatgen
data_Y12Tc2NiRh
_symmetry_space_group_name_H-M   'P 1'
_cell_length_a   6.38779745
_cell_length_b   7.28831476
_cell_length_c   9.25953500
_cell_angle_alpha   90.00000000
_cell_angle_beta   90.00000000
_cell_angle_gamma   90.21041333
_symmetry_Int_Tables_number   1
_chemical_formula_structural   Y12Tc2NiRh
_chemical_formula_sum   'Y12 Tc2 Ni1 Rh1'
_cell_volume   431.08658316
_cell_formula_units_Z   1
loop_
 _symmetry_equiv_pos_site_id
 _symmetry_equiv_pos_as_xyz
  1  'x, y, z'
loop_
 _atom_site_type_symbol
 _atom_site_label
 _atom_site_symmetry_multiplicity
 _atom_site_fract_x
 _atom_site_fract_y
 _atom_site_fract_z
 _atom_site_occupancy
  Y  Y0  1  0.631974  0.039985  0.250000  1
  Y  Y1  1  0.372114  0.957081  0.750000  1
  Y  Y2  1  0.134970  0.462259  0.750000  1
  Y  Y3  1  0.867831  0.539021  0.250000  1
  Y  Y4  1  0.167454  0.179551  0.060715  1
  Y  Y5  1  0.828835  0.821087  0.933873  1
  Y  Y6  1  0.668210  0.323316  0.937193  1
  Y  Y7  1  0.828835  0.821087  0.566127  1
  Y  Y8  1  0.327827  0.677407  0.066509  1
  Y  Y9  1  0.167454  0.179551  0.439285  1
  Y  Y10  1  0.327827  0.677407  0.433491  1
  Y  Y11  1  0.668210  0.323316  0.562807  1
  Tc  Tc12  1  0.461716  0.387808  0.250000  1
  Tc  Tc13  1  0.961804  0.111368  0.750000  1
  Ni  Ni14  1  0.542851  0.614216  0.750000  1
  Rh  Rh15  1  0.042089  0.885540  0.250000  1
