# generated using pymatgen
data_GdDyB5
_symmetry_space_group_name_H-M   'P 1'
_cell_length_a   7.13130300
_cell_length_b   7.10565967
_cell_length_c   7.13484444
_cell_angle_alpha   77.16204001
_cell_angle_beta   90.00000000
_cell_angle_gamma   90.00000000
_symmetry_Int_Tables_number   1
_chemical_formula_structural   GdDyB5
_chemical_formula_sum   'Gd4 Dy4 B20'
_cell_volume   352.50352733
_cell_formula_units_Z   4
loop_
 _symmetry_equiv_pos_site_id
 _symmetry_equiv_pos_as_xyz
  1  'x, y, z'
loop_
 _atom_site_type_symbol
 _atom_site_label
 _atom_site_symmetry_multiplicity
 _atom_site_fract_x
 _atom_site_fract_y
 _atom_site_fract_z
 _atom_site_occupancy
  Gd  Gd0  1  0.692187  0.769605  0.627158  1
  Gd  Gd1  1  0.192187  0.230395  0.872842  1
  Gd  Gd2  1  0.307813  0.230395  0.372842  1
  Gd  Gd3  1  0.807813  0.769605  0.127158  1
  Dy  Dy4  1  0.314896  0.756178  0.253799  1
  Dy  Dy5  1  0.814896  0.243822  0.246201  1
  Dy  Dy6  1  0.685104  0.243822  0.746201  1
  Dy  Dy7  1  0.185104  0.756178  0.753799  1
  B  B8  1  0.502321  0.314328  0.040378  1
  B  B9  1  0.002321  0.685672  0.459622  1
  B  B10  1  0.497679  0.685672  0.959622  1
  B  B11  1  0.997679  0.314328  0.540378  1
  B  B12  1  0.489885  0.925245  0.925881  1
  B  B13  1  0.989885  0.074755  0.574119  1
  B  B14  1  0.510115  0.074755  0.074119  1
  B  B15  1  0.010115  0.925245  0.425881  1
  B  B16  1  0.326391  0.496539  0.039796  1
  B  B17  1  0.826391  0.503461  0.460204  1
  B  B18  1  0.673609  0.503461  0.960204  1
  B  B19  1  0.173609  0.496539  0.539796  1
  B  B20  1  0.910566  0.498526  0.910935  1
  B  B21  1  0.410566  0.501474  0.589065  1
  B  B22  1  0.089434  0.501474  0.089065  1
  B  B23  1  0.589434  0.498526  0.410935  1
  B  B24  1  0.961656  0.496689  0.674279  1
  B  B25  1  0.461656  0.503311  0.825721  1
  B  B26  1  0.038344  0.503311  0.325721  1
  B  B27  1  0.538344  0.496689  0.174279  1
