# generated using pymatgen
data_Tb2YHo(Al3Ir)6
_symmetry_space_group_name_H-M   'P 1'
_cell_length_a   7.55470389
_cell_length_b   7.55556012
_cell_length_c   9.49042500
_cell_angle_alpha   90.00000000
_cell_angle_beta   90.00000000
_cell_angle_gamma   119.44262980
_symmetry_Int_Tables_number   1
_chemical_formula_structural   Tb2YHo(Al3Ir)6
_chemical_formula_sum   'Tb2 Y1 Ho1 Al18 Ir6'
_cell_volume   471.75041767
_cell_formula_units_Z   1
loop_
 _symmetry_equiv_pos_site_id
 _symmetry_equiv_pos_as_xyz
  1  'x, y, z'
loop_
 _atom_site_type_symbol
 _atom_site_label
 _atom_site_symmetry_multiplicity
 _atom_site_fract_x
 _atom_site_fract_y
 _atom_site_fract_z
 _atom_site_occupancy
  Tb  Tb0  1  0.005286  0.329394  0.750000  1
  Tb  Tb1  1  0.670556  0.994714  0.250000  1
  Y  Y2  1  0.994717  0.670541  0.250000  1
  Ho  Ho3  1  0.329346  0.005174  0.750000  1
  Al  Al4  1  0.128857  0.128954  0.250000  1
  Al  Al5  1  0.871479  0.871240  0.750000  1
  Al  Al6  1  0.001249  0.335051  0.073438  1
  Al  Al7  1  0.999177  0.665434  0.926076  1
  Al  Al8  1  0.999177  0.665434  0.573924  1
  Al  Al9  1  0.334761  0.001095  0.426916  1
  Al  Al10  1  0.001249  0.335051  0.426562  1
  Al  Al11  1  0.664710  0.998851  0.573913  1
  Al  Al12  1  0.664710  0.998851  0.926087  1
  Al  Al13  1  0.334761  0.001095  0.073084  1
  Al  Al14  1  0.333643  0.333309  0.552041  1
  Al  Al15  1  0.666455  0.666326  0.448653  1
  Al  Al16  1  0.666455  0.666326  0.051347  1
  Al  Al17  1  0.333643  0.333309  0.947959  1
  Al  Al18  1  0.339207  0.547496  0.250000  1
  Al  Al19  1  0.660509  0.452123  0.750000  1
  Al  Al20  1  0.547348  0.338863  0.250000  1
  Al  Al21  1  0.452526  0.661285  0.750000  1
  Ir  Ir22  1  0.671701  0.328138  0.999838  1
  Ir  Ir23  1  0.328148  0.671930  0.999831  1
  Ir  Ir24  1  0.328148  0.671930  0.500169  1
  Ir  Ir25  1  0.671701  0.328138  0.500162  1
  Ir  Ir26  1  0.000240  0.999973  0.999808  1
  Ir  Ir27  1  0.000240  0.999973  0.500192  1
