# generated using pymatgen
data_Tm2Lu(ZnAu)3
_symmetry_space_group_name_H-M   'P 1'
_cell_length_a   7.45559647
_cell_length_b   7.46548727
_cell_length_c   3.79126300
_cell_angle_alpha   90.00000000
_cell_angle_beta   90.00000000
_cell_angle_gamma   120.04388698
_symmetry_Int_Tables_number   1
_chemical_formula_structural   Tm2Lu(ZnAu)3
_chemical_formula_sum   'Tm2 Lu1 Zn3 Au3'
_cell_volume   182.66816564
_cell_formula_units_Z   1
loop_
 _symmetry_equiv_pos_site_id
 _symmetry_equiv_pos_as_xyz
  1  'x, y, z'
loop_
 _atom_site_type_symbol
 _atom_site_label
 _atom_site_symmetry_multiplicity
 _atom_site_fract_x
 _atom_site_fract_y
 _atom_site_fract_z
 _atom_site_occupancy
  Tm  Tm0  1  0.400435  0.400308  0.500000  1
  Tm  Tm1  1  0.599565  0.999873  0.500000  1
  Lu  Lu2  1  0.000000  0.600511  0.500000  1
  Zn  Zn3  1  0.737295  0.737455  0.000000  1
  Zn  Zn4  1  0.262705  0.000159  0.000000  1
  Zn  Zn5  1  0.000000  0.262103  0.000000  1
  Au  Au6  1  0.669469  0.335194  0.000000  1
  Au  Au7  1  0.330531  0.665726  0.000000  1
  Au  Au8  1  0.000000  0.998671  0.500000  1
