# generated using pymatgen
data_HoScMo2P7Rh9W
_symmetry_space_group_name_H-M   'P 1'
_cell_length_a   3.92603000
_cell_length_b   9.49532063
_cell_length_c   9.49487000
_cell_angle_alpha   119.99973305
_cell_angle_beta   89.99997081
_cell_angle_gamma   90.00001459
_symmetry_Int_Tables_number   1
_chemical_formula_structural   HoScMo2P7Rh9W
_chemical_formula_sum   'Ho1 Sc1 Mo2 P7 Rh9 W1'
_cell_volume   306.53782442
_cell_formula_units_Z   1
loop_
 _symmetry_equiv_pos_site_id
 _symmetry_equiv_pos_as_xyz
  1  'x, y, z'
loop_
 _atom_site_type_symbol
 _atom_site_label
 _atom_site_symmetry_multiplicity
 _atom_site_fract_x
 _atom_site_fract_y
 _atom_site_fract_z
 _atom_site_occupancy
  Ho  Ho0  1  0.261889  0.666624  0.333451  1
  Sc  Sc1  1  0.762135  0.333271  0.666645  1
  Mo  Mo2  1  0.761898  0.090389  0.870070  1
  Mo  Mo3  1  0.761890  0.129606  0.220748  1
  P  P4  1  0.261846  0.000067  0.000176  1
  P  P5  1  0.761900  0.880320  0.592656  1
  P  P6  1  0.761914  0.406781  0.286673  1
  P  P7  1  0.761908  0.712932  0.120207  1
  P  P8  1  0.261925  0.119983  0.415778  1
  P  P9  1  0.261917  0.584333  0.704430  1
  P  P10  1  0.261899  0.296006  0.880254  1
  Rh  Rh11  1  0.261883  0.884949  0.161039  1
  Rh  Rh12  1  0.261888  0.838611  0.724055  1
  Rh  Rh13  1  0.261881  0.276274  0.115343  1
  Rh  Rh14  1  0.761894  0.610878  0.558576  1
  Rh  Rh15  1  0.761891  0.441184  0.051484  1
  Rh  Rh16  1  0.761903  0.948103  0.389432  1
  Rh  Rh17  1  0.261882  0.369176  0.441140  1
  Rh  Rh18  1  0.261889  0.559536  0.927814  1
  Rh  Rh19  1  0.261893  0.071708  0.631203  1
  W  W20  1  0.761877  0.779264  0.908827  1
