# generated using pymatgen
data_Eu8P5Se
_symmetry_space_group_name_H-M   'P 1'
_cell_length_a   7.78324353
_cell_length_b   7.78324294
_cell_length_c   7.78324247
_cell_angle_alpha   109.39924162
_cell_angle_beta   109.39925433
_cell_angle_gamma   109.61527147
_symmetry_Int_Tables_number   1
_chemical_formula_structural   Eu8P5Se
_chemical_formula_sum   'Eu8 P5 Se1'
_cell_volume   362.95916353
_cell_formula_units_Z   1
loop_
 _symmetry_equiv_pos_site_id
 _symmetry_equiv_pos_as_xyz
  1  'x, y, z'
loop_
 _atom_site_type_symbol
 _atom_site_label
 _atom_site_symmetry_multiplicity
 _atom_site_fract_x
 _atom_site_fract_y
 _atom_site_fract_z
 _atom_site_occupancy
  Eu  Eu0  1  0.493442  0.997105  0.358938  1
  Eu  Eu1  1  0.628600  0.625008  0.630550  1
  Eu  Eu2  1  0.001949  0.371400  0.496408  1
  Eu  Eu3  1  0.374992  0.505541  0.003592  1
  Eu  Eu4  1  0.002895  0.861833  0.496336  1
  Eu  Eu5  1  0.865496  0.506558  0.003664  1
  Eu  Eu6  1  0.494459  0.998051  0.869450  1
  Eu  Eu7  1  0.138167  0.134504  0.141062  1
  P  P8  1  0.374940  0.247626  0.625793  1
  P  P9  1  0.121833  0.749148  0.874207  1
  P  P10  1  0.752374  0.878167  0.127314  1
  P  P11  1  0.250852  0.625060  0.372686  1
  P  P12  1  0.625000  0.375000  0.250000  1
  Se  Se13  1  0.875000  0.125000  0.750000  1
