# generated using pymatgen
data_TmFe2P3RuRh2
_symmetry_space_group_name_H-M   'P 1'
_cell_length_a   3.78141600
_cell_length_b   10.47391300
_cell_length_c   12.20325100
_cell_angle_alpha   90.00000000
_cell_angle_beta   90.00000000
_cell_angle_gamma   90.00000000
_symmetry_Int_Tables_number   1
_chemical_formula_structural   TmFe2P3RuRh2
_chemical_formula_sum   'Tm4 Fe8 P12 Ru4 Rh8'
_cell_volume   483.32467068
_cell_formula_units_Z   4
loop_
 _symmetry_equiv_pos_site_id
 _symmetry_equiv_pos_as_xyz
  1  'x, y, z'
loop_
 _atom_site_type_symbol
 _atom_site_label
 _atom_site_symmetry_multiplicity
 _atom_site_fract_x
 _atom_site_fract_y
 _atom_site_fract_z
 _atom_site_occupancy
  Tm  Tm0  1  0.250000  0.579183  0.710118  1
  Tm  Tm1  1  0.250000  0.920817  0.210118  1
  Tm  Tm2  1  0.750000  0.420817  0.289882  1
  Tm  Tm3  1  0.750000  0.079183  0.789882  1
  Fe  Fe4  1  0.250000  0.878708  0.698068  1
  Fe  Fe5  1  0.250000  0.621292  0.198068  1
  Fe  Fe6  1  0.750000  0.121292  0.301932  1
  Fe  Fe7  1  0.750000  0.378708  0.801932  1
  Fe  Fe8  1  0.250000  0.461220  0.936143  1
  Fe  Fe9  1  0.250000  0.038780  0.436143  1
  Fe  Fe10  1  0.750000  0.538780  0.063857  1
  Fe  Fe11  1  0.750000  0.961220  0.563857  1
  P  P12  1  0.250000  0.437479  0.112421  1
  P  P13  1  0.250000  0.062521  0.612421  1
  P  P14  1  0.750000  0.562521  0.887579  1
  P  P15  1  0.750000  0.937479  0.387579  1
  P  P16  1  0.250000  0.272674  0.865515  1
  P  P17  1  0.250000  0.227326  0.365515  1
  P  P18  1  0.750000  0.727326  0.134485  1
  P  P19  1  0.750000  0.772674  0.634485  1
  P  P20  1  0.250000  0.602043  0.382192  1
  P  P21  1  0.250000  0.897957  0.882192  1
  P  P22  1  0.750000  0.397957  0.617808  1
  P  P23  1  0.750000  0.102043  0.117808  1
  Ru  Ru24  1  0.250000  0.708349  0.988742  1
  Ru  Ru25  1  0.250000  0.791651  0.488742  1
  Ru  Ru26  1  0.750000  0.291651  0.011258  1
  Ru  Ru27  1  0.750000  0.208349  0.511258  1
  Rh  Rh28  1  0.250000  0.406398  0.479902  1
  Rh  Rh29  1  0.250000  0.093602  0.979902  1
  Rh  Rh30  1  0.750000  0.593602  0.520098  1
  Rh  Rh31  1  0.750000  0.906398  0.020098  1
  Rh  Rh32  1  0.250000  0.231344  0.175848  1
  Rh  Rh33  1  0.250000  0.268656  0.675848  1
  Rh  Rh34  1  0.750000  0.768656  0.824152  1
  Rh  Rh35  1  0.750000  0.731344  0.324152  1
