# generated using pymatgen
data_Tm2Lu4Fe4Si5Ge
_symmetry_space_group_name_H-M   'P 1'
_cell_length_a   5.52515118
_cell_length_b   5.52514961
_cell_length_c   13.41563047
_cell_angle_alpha   89.97169981
_cell_angle_beta   90.02830030
_cell_angle_gamma   137.02376527
_symmetry_Int_Tables_number   1
_chemical_formula_structural   Tm2Lu4Fe4Si5Ge
_chemical_formula_sum   'Tm2 Lu4 Fe4 Si5 Ge1'
_cell_volume   279.18321865
_cell_formula_units_Z   1
loop_
 _symmetry_equiv_pos_site_id
 _symmetry_equiv_pos_as_xyz
  1  'x, y, z'
loop_
 _atom_site_type_symbol
 _atom_site_label
 _atom_site_symmetry_multiplicity
 _atom_site_fract_x
 _atom_site_fract_y
 _atom_site_fract_z
 _atom_site_occupancy
  Tm  Tm0  1  0.637830  0.362170  0.250133  1
  Tm  Tm1  1  0.920965  0.079035  0.109936  1
  Lu  Lu2  1  0.363226  0.636774  0.749966  1
  Lu  Lu3  1  0.080014  0.919986  0.887153  1
  Lu  Lu4  1  0.079948  0.920052  0.612717  1
  Lu  Lu5  1  0.920704  0.079296  0.390383  1
  Fe  Fe6  1  0.785782  0.214218  0.582173  1
  Fe  Fe7  1  0.211715  0.788285  0.421397  1
  Fe  Fe8  1  0.211799  0.788201  0.078490  1
  Fe  Fe9  1  0.785671  0.214329  0.917595  1
  Si  Si10  1  0.672743  0.327257  0.749993  1
  Si  Si11  1  0.621023  0.378977  0.038504  1
  Si  Si12  1  0.377377  0.622623  0.959512  1
  Si  Si13  1  0.377513  0.622487  0.540252  1
  Si  Si14  1  0.620878  0.379122  0.461473  1
  Ge  Ge15  1  0.332811  0.667189  0.250324  1
