# generated using pymatgen
data_Tb4Ho4SiPBr12
_symmetry_space_group_name_H-M   'P 1'
_cell_length_a   4.03428200
_cell_length_b   13.19879588
_cell_length_c   13.94033516
_cell_angle_alpha   89.91178777
_cell_angle_beta   90.00000000
_cell_angle_gamma   90.00000000
_symmetry_Int_Tables_number   1
_chemical_formula_structural   Tb4Ho4SiPBr12
_chemical_formula_sum   'Tb4 Ho4 Si1 P1 Br12'
_cell_volume   742.28941199
_cell_formula_units_Z   1
loop_
 _symmetry_equiv_pos_site_id
 _symmetry_equiv_pos_as_xyz
  1  'x, y, z'
loop_
 _atom_site_type_symbol
 _atom_site_label
 _atom_site_symmetry_multiplicity
 _atom_site_fract_x
 _atom_site_fract_y
 _atom_site_fract_z
 _atom_site_occupancy
  Tb  Tb0  1  0.000000  0.113907  0.575704  1
  Tb  Tb1  1  0.000000  0.886093  0.424296  1
  Tb  Tb2  1  0.000000  0.619623  0.920282  1
  Tb  Tb3  1  0.000000  0.380377  0.079718  1
  Ho  Ho4  1  0.500000  0.115543  0.344806  1
  Ho  Ho5  1  0.500000  0.884457  0.655194  1
  Ho  Ho6  1  0.500000  0.618539  0.159281  1
  Ho  Ho7  1  0.500000  0.381461  0.840719  1
  Si  Si8  1  0.500000  0.500000  0.000000  1
  P  P9  1  0.500000  0.000000  0.500000  1
  Br  Br10  1  0.500000  0.241873  0.164934  1
  Br  Br11  1  0.500000  0.758127  0.835066  1
  Br  Br12  1  0.500000  0.743851  0.336598  1
  Br  Br13  1  0.500000  0.256149  0.663402  1
  Br  Br14  1  0.000000  0.254243  0.410477  1
  Br  Br15  1  0.000000  0.745757  0.589523  1
  Br  Br16  1  0.000000  0.755906  0.090046  1
  Br  Br17  1  0.000000  0.244094  0.909954  1
  Br  Br18  1  0.000000  0.003288  0.243633  1
  Br  Br19  1  0.000000  0.996712  0.756367  1
  Br  Br20  1  0.000000  0.503326  0.258293  1
  Br  Br21  1  0.000000  0.496674  0.741707  1
