# generated using pymatgen
data_La3MgAg2Au3
_symmetry_space_group_name_H-M   'P 1'
_cell_length_a   7.94114146
_cell_length_b   7.94114209
_cell_length_c   4.15692400
_cell_angle_alpha   90.00000000
_cell_angle_beta   90.00000000
_cell_angle_gamma   121.20967830
_symmetry_Int_Tables_number   1
_chemical_formula_structural   La3MgAg2Au3
_chemical_formula_sum   'La3 Mg1 Ag2 Au3'
_cell_volume   224.20466614
_cell_formula_units_Z   1
loop_
 _symmetry_equiv_pos_site_id
 _symmetry_equiv_pos_as_xyz
  1  'x, y, z'
loop_
 _atom_site_type_symbol
 _atom_site_label
 _atom_site_symmetry_multiplicity
 _atom_site_fract_x
 _atom_site_fract_y
 _atom_site_fract_z
 _atom_site_occupancy
  La  La0  1  0.590099  0.009826  0.000000  1
  La  La1  1  0.009826  0.590099  0.000000  1
  La  La2  1  0.388383  0.388383  0.000000  1
  Mg  Mg3  1  0.761562  0.761562  0.500000  1
  Ag  Ag4  1  0.250804  0.994634  0.500000  1
  Ag  Ag5  1  0.994634  0.250804  0.500000  1
  Au  Au6  1  0.353363  0.670083  0.500000  1
  Au  Au7  1  0.670083  0.353363  0.500000  1
  Au  Au8  1  0.981245  0.981245  0.000000  1
