# generated using pymatgen
data_CeDy3Lu12(CdNi)4
_symmetry_space_group_name_H-M   'P 1'
_cell_length_a   9.38572461
_cell_length_b   9.38572549
_cell_length_c   9.38572549
_cell_angle_alpha   59.73167301
_cell_angle_beta   59.73166632
_cell_angle_gamma   59.73167647
_symmetry_Int_Tables_number   1
_chemical_formula_structural   CeDy3Lu12(CdNi)4
_chemical_formula_sum   'Ce1 Dy3 Lu12 Cd4 Ni4'
_cell_volume   581.07726196
_cell_formula_units_Z   1
loop_
 _symmetry_equiv_pos_site_id
 _symmetry_equiv_pos_as_xyz
  1  'x, y, z'
loop_
 _atom_site_type_symbol
 _atom_site_label
 _atom_site_symmetry_multiplicity
 _atom_site_fract_x
 _atom_site_fract_y
 _atom_site_fract_z
 _atom_site_occupancy
  Ce  Ce0  1  0.347460  0.347460  0.347460  1
  Dy  Dy1  1  0.350340  0.350340  0.947830  1
  Dy  Dy2  1  0.350340  0.947830  0.350340  1
  Dy  Dy3  1  0.947830  0.350340  0.350340  1
  Lu  Lu4  1  0.813022  0.186855  0.186855  1
  Lu  Lu5  1  0.188345  0.812568  0.812568  1
  Lu  Lu6  1  0.186855  0.813022  0.186855  1
  Lu  Lu7  1  0.812568  0.188345  0.812568  1
  Lu  Lu8  1  0.186855  0.186855  0.813022  1
  Lu  Lu9  1  0.812568  0.812568  0.188345  1
  Lu  Lu10  1  0.936621  0.564621  0.564621  1
  Lu  Lu11  1  0.565082  0.935129  0.935129  1
  Lu  Lu12  1  0.564621  0.936621  0.564621  1
  Lu  Lu13  1  0.935129  0.565082  0.935129  1
  Lu  Lu14  1  0.564621  0.564621  0.936621  1
  Lu  Lu15  1  0.935129  0.935129  0.565082  1
  Cd  Cd16  1  0.582421  0.582421  0.582421  1
  Cd  Cd17  1  0.582456  0.582456  0.252604  1
  Cd  Cd18  1  0.582456  0.252604  0.582456  1
  Cd  Cd19  1  0.252604  0.582456  0.582456  1
  Ni  Ni20  1  0.141807  0.141807  0.141807  1
  Ni  Ni21  1  0.143445  0.143445  0.573976  1
  Ni  Ni22  1  0.143445  0.573976  0.143445  1
  Ni  Ni23  1  0.573976  0.143445  0.143445  1
