# generated using pymatgen
data_CaLu2Pu(ReN3)4
_symmetry_space_group_name_H-M   'P 1'
_cell_length_a   7.29947400
_cell_length_b   7.29947338
_cell_length_c   6.23158798
_cell_angle_alpha   73.75391841
_cell_angle_beta   73.75391752
_cell_angle_gamma   83.35002250
_symmetry_Int_Tables_number   1
_chemical_formula_structural   CaLu2Pu(ReN3)4
_chemical_formula_sum   'Ca1 Lu2 Pu1 Re4 N12'
_cell_volume   305.79212251
_cell_formula_units_Z   1
loop_
 _symmetry_equiv_pos_site_id
 _symmetry_equiv_pos_as_xyz
  1  'x, y, z'
loop_
 _atom_site_type_symbol
 _atom_site_label
 _atom_site_symmetry_multiplicity
 _atom_site_fract_x
 _atom_site_fract_y
 _atom_site_fract_z
 _atom_site_occupancy
  Ca  Ca0  1  0.706805  0.293195  0.250000  1
  Lu  Lu1  1  0.910984  0.089016  0.750000  1
  Lu  Lu2  1  0.090384  0.909616  0.250000  1
  Pu  Pu3  1  0.291095  0.708905  0.750000  1
  Re  Re4  1  0.622111  0.794660  0.266907  1
  Re  Re5  1  0.205340  0.377889  0.233093  1
  Re  Re6  1  0.380398  0.202674  0.732847  1
  Re  Re7  1  0.797326  0.619602  0.767153  1
  N  N8  1  0.343849  0.360207  0.937351  1
  N  N9  1  0.011181  0.213230  0.350823  1
  N  N10  1  0.786770  0.988819  0.149177  1
  N  N11  1  0.209969  0.007657  0.847239  1
  N  N12  1  0.652676  0.643811  0.060852  1
  N  N13  1  0.882802  0.377397  0.820507  1
  N  N14  1  0.128734  0.631352  0.155879  1
  N  N15  1  0.992343  0.790031  0.652761  1
  N  N16  1  0.368648  0.871266  0.344121  1
  N  N17  1  0.639793  0.656151  0.562649  1
  N  N18  1  0.622603  0.117198  0.679493  1
  N  N19  1  0.356189  0.347324  0.439148  1
