# generated using pymatgen
data_HfZr9Zn2SnSb5
_symmetry_space_group_name_H-M   'P 1'
_cell_length_a   8.67069482
_cell_length_b   8.67787661
_cell_length_c   5.86765018
_cell_angle_alpha   89.99011212
_cell_angle_beta   90.02818914
_cell_angle_gamma   120.00559406
_symmetry_Int_Tables_number   1
_chemical_formula_structural   HfZr9Zn2SnSb5
_chemical_formula_sum   'Hf1 Zr9 Zn2 Sn1 Sb5'
_cell_volume   382.32938609
_cell_formula_units_Z   1
loop_
 _symmetry_equiv_pos_site_id
 _symmetry_equiv_pos_as_xyz
  1  'x, y, z'
loop_
 _atom_site_type_symbol
 _atom_site_label
 _atom_site_symmetry_multiplicity
 _atom_site_fract_x
 _atom_site_fract_y
 _atom_site_fract_z
 _atom_site_occupancy
  Hf  Hf0  1  0.666227  0.333140  0.000632  1
  Zr  Zr1  1  0.334061  0.667219  0.000383  1
  Zr  Zr2  1  0.334057  0.667223  0.499564  1
  Zr  Zr3  1  0.665830  0.333230  0.499664  1
  Zr  Zr4  1  0.730949  0.730186  0.750125  1
  Zr  Zr5  1  0.269524  0.000341  0.750172  1
  Zr  Zr6  1  0.999582  0.268885  0.750003  1
  Zr  Zr7  1  0.270567  0.269723  0.249835  1
  Zr  Zr8  1  0.729827  0.999952  0.249890  1
  Zr  Zr9  1  0.999438  0.730645  0.249799  1
  Zn  Zn10  1  0.000014  0.000777  0.000634  1
  Zn  Zn11  1  0.000016  0.000776  0.499382  1
  Sn  Sn12  1  0.999348  0.383005  0.249268  1
  Sb  Sb13  1  0.384668  0.384600  0.750767  1
  Sb  Sb14  1  0.615797  0.001087  0.750693  1
  Sb  Sb15  1  0.999485  0.613710  0.750704  1
  Sb  Sb16  1  0.615479  0.614908  0.249262  1
  Sb  Sb17  1  0.385132  0.000595  0.249222  1
