# generated using pymatgen
data_Sm3SiSe2
_symmetry_space_group_name_H-M   'P 1'
_cell_length_a   7.30563453
_cell_length_b   7.30563507
_cell_length_c   7.30563520
_cell_angle_alpha   146.57924528
_cell_angle_beta   132.37433969
_cell_angle_gamma   59.42805071
_symmetry_Int_Tables_number   1
_chemical_formula_structural   Sm3SiSe2
_chemical_formula_sum   'Sm3 Si1 Se2'
_cell_volume   157.25727118
_cell_formula_units_Z   1
loop_
 _symmetry_equiv_pos_site_id
 _symmetry_equiv_pos_as_xyz
  1  'x, y, z'
loop_
 _atom_site_type_symbol
 _atom_site_label
 _atom_site_symmetry_multiplicity
 _atom_site_fract_x
 _atom_site_fract_y
 _atom_site_fract_z
 _atom_site_occupancy
  Sm  Sm0  1  0.842511  0.342511  0.500000  1
  Sm  Sm1  1  0.500000  0.000000  0.500000  1
  Sm  Sm2  1  0.157489  0.657489  0.500000  1
  Si  Si3  1  0.000000  0.000000  0.000000  1
  Se  Se4  1  0.667948  0.667948  0.000000  1
  Se  Se5  1  0.332052  0.332052  0.000000  1
