# generated using pymatgen
data_TbYLu2(GaNi)4
_symmetry_space_group_name_H-M   'P 1'
_cell_length_a   4.27837200
_cell_length_b   6.79444204
_cell_length_c   7.28357004
_cell_angle_alpha   90.01213660
_cell_angle_beta   90.00000000
_cell_angle_gamma   90.00000000
_symmetry_Int_Tables_number   1
_chemical_formula_structural   TbYLu2(GaNi)4
_chemical_formula_sum   'Tb1 Y1 Lu2 Ga4 Ni4'
_cell_volume   211.72718947
_cell_formula_units_Z   1
loop_
 _symmetry_equiv_pos_site_id
 _symmetry_equiv_pos_as_xyz
  1  'x, y, z'
loop_
 _atom_site_type_symbol
 _atom_site_label
 _atom_site_symmetry_multiplicity
 _atom_site_fract_x
 _atom_site_fract_y
 _atom_site_fract_z
 _atom_site_occupancy
  Tb  Tb0  1  0.750000  0.984152  0.193036  1
  Y  Y1  1  0.750000  0.484232  0.306801  1
  Lu  Lu2  1  0.250000  0.018103  0.800528  1
  Lu  Lu3  1  0.250000  0.518077  0.699356  1
  Ga  Ga4  1  0.250000  0.180644  0.424737  1
  Ga  Ga5  1  0.250000  0.680478  0.075335  1
  Ga  Ga6  1  0.750000  0.822686  0.580313  1
  Ga  Ga7  1  0.750000  0.322796  0.919729  1
  Ni  Ni8  1  0.250000  0.787870  0.410313  1
  Ni  Ni9  1  0.250000  0.287634  0.089640  1
  Ni  Ni10  1  0.750000  0.206642  0.598917  1
  Ni  Ni11  1  0.750000  0.706687  0.901293  1
