# generated using pymatgen
data_Er5Tm5IrOs3
_symmetry_space_group_name_H-M   'P 1'
_cell_length_a   6.33080177
_cell_length_b   7.30529841
_cell_length_c   8.30049401
_cell_angle_alpha   96.80146480
_cell_angle_beta   112.32591199
_cell_angle_gamma   90.02093313
_symmetry_Int_Tables_number   1
_chemical_formula_structural   Er5Tm5IrOs3
_chemical_formula_sum   'Er5 Tm5 Ir1 Os3'
_cell_volume   352.17861249
_cell_formula_units_Z   1
loop_
 _symmetry_equiv_pos_site_id
 _symmetry_equiv_pos_as_xyz
  1  'x, y, z'
loop_
 _atom_site_type_symbol
 _atom_site_label
 _atom_site_symmetry_multiplicity
 _atom_site_fract_x
 _atom_site_fract_y
 _atom_site_fract_z
 _atom_site_occupancy
  Er  Er0  1  0.970133  0.915783  0.179706  1
  Er  Er1  1  0.789760  0.581962  0.818132  1
  Er  Er2  1  0.025974  0.083368  0.815112  1
  Er  Er3  1  0.208755  0.419039  0.180139  1
  Er  Er4  1  0.649663  0.817047  0.439543  1
  Tm  Tm5  1  0.210200  0.681822  0.562020  1
  Tm  Tm6  1  0.350909  0.181592  0.563235  1
  Tm  Tm7  1  0.793166  0.319531  0.439269  1
  Tm  Tm8  1  0.422396  0.748819  0.999144  1
  Tm  Tm9  1  0.577862  0.250505  0.999370  1
  Ir  Ir10  1  0.394962  0.076907  0.221138  1
  Os  Os11  1  0.823244  0.575799  0.218163  1
  Os  Os12  1  0.606843  0.924446  0.782101  1
  Os  Os13  1  0.176135  0.423382  0.782930  1
