# generated using pymatgen
data_Ac2CdNi2
_symmetry_space_group_name_H-M   'P 1'
_cell_length_a   7.66027065
_cell_length_b   7.66027013
_cell_length_c   4.14367600
_cell_angle_alpha   90.00000000
_cell_angle_beta   90.00000000
_cell_angle_gamma   148.66861442
_symmetry_Int_Tables_number   1
_chemical_formula_structural   Ac2CdNi2
_chemical_formula_sum   'Ac2 Cd1 Ni2'
_cell_volume   126.43477814
_cell_formula_units_Z   1
loop_
 _symmetry_equiv_pos_site_id
 _symmetry_equiv_pos_as_xyz
  1  'x, y, z'
loop_
 _atom_site_type_symbol
 _atom_site_label
 _atom_site_symmetry_multiplicity
 _atom_site_fract_x
 _atom_site_fract_y
 _atom_site_fract_z
 _atom_site_occupancy
  Ac  Ac0  1  0.634423  0.365577  0.500000  1
  Ac  Ac1  1  0.365577  0.634423  0.500000  1
  Cd  Cd2  1  0.000000  0.000000  0.000000  1
  Ni  Ni3  1  0.793249  0.206751  0.000000  1
  Ni  Ni4  1  0.206751  0.793249  0.000000  1
