# generated using pymatgen
data_Pr2TcB4Ir3
_symmetry_space_group_name_H-M   'P 1'
_cell_length_a   6.98520618
_cell_length_b   6.10680407
_cell_length_c   5.62190871
_cell_angle_alpha   72.97342712
_cell_angle_beta   56.71270557
_cell_angle_gamma   50.69881519
_symmetry_Int_Tables_number   1
_chemical_formula_structural   Pr2TcB4Ir3
_chemical_formula_sum   'Pr2 Tc1 B4 Ir3'
_cell_volume   154.57005856
_cell_formula_units_Z   1
loop_
 _symmetry_equiv_pos_site_id
 _symmetry_equiv_pos_as_xyz
  1  'x, y, z'
loop_
 _atom_site_type_symbol
 _atom_site_label
 _atom_site_symmetry_multiplicity
 _atom_site_fract_x
 _atom_site_fract_y
 _atom_site_fract_z
 _atom_site_occupancy
  Pr  Pr0  1  0.502383  0.502383  0.497617  1
  Pr  Pr1  1  0.753167  0.753167  0.746833  1
  Tc  Tc2  1  0.863442  0.863442  0.136558  1
  B  B3  1  0.168099  0.823075  0.186961  1
  B  B4  1  0.077183  0.427596  0.058791  1
  B  B5  1  0.823075  0.168099  0.821865  1
  B  B6  1  0.427596  0.077183  0.436430  1
  Ir  Ir7  1  0.131792  0.131792  0.868208  1
  Ir  Ir8  1  0.385219  0.385219  0.114781  1
  Ir  Ir9  1  0.118044  0.118044  0.381956  1
