# generated using pymatgen
data_Tb16TcHg4Pt3
_symmetry_space_group_name_H-M   'P 1'
_cell_length_a   9.70305339
_cell_length_b   9.70305262
_cell_length_c   9.70305274
_cell_angle_alpha   59.68916341
_cell_angle_beta   59.68917187
_cell_angle_gamma   59.68917172
_symmetry_Int_Tables_number   1
_chemical_formula_structural   Tb16TcHg4Pt3
_chemical_formula_sum   'Tb16 Tc1 Hg4 Pt3'
_cell_volume   641.40565799
_cell_formula_units_Z   1
loop_
 _symmetry_equiv_pos_site_id
 _symmetry_equiv_pos_as_xyz
  1  'x, y, z'
loop_
 _atom_site_type_symbol
 _atom_site_label
 _atom_site_symmetry_multiplicity
 _atom_site_fract_x
 _atom_site_fract_y
 _atom_site_fract_z
 _atom_site_occupancy
  Tb  Tb0  1  0.353445  0.353445  0.353445  1
  Tb  Tb1  1  0.351392  0.351392  0.944552  1
  Tb  Tb2  1  0.351392  0.944552  0.351392  1
  Tb  Tb3  1  0.944552  0.351392  0.351392  1
  Tb  Tb4  1  0.815048  0.188953  0.188953  1
  Tb  Tb5  1  0.189234  0.808529  0.808529  1
  Tb  Tb6  1  0.188953  0.815048  0.188953  1
  Tb  Tb7  1  0.808529  0.189234  0.808529  1
  Tb  Tb8  1  0.188953  0.188953  0.815048  1
  Tb  Tb9  1  0.808529  0.808529  0.189234  1
  Tb  Tb10  1  0.936363  0.564040  0.564040  1
  Tb  Tb11  1  0.556502  0.938111  0.938111  1
  Tb  Tb12  1  0.564040  0.936363  0.564040  1
  Tb  Tb13  1  0.938111  0.556502  0.938111  1
  Tb  Tb14  1  0.564040  0.564040  0.936363  1
  Tb  Tb15  1  0.938111  0.938111  0.556502  1
  Tc  Tc16  1  0.143859  0.143859  0.143859  1
  Hg  Hg17  1  0.583922  0.583922  0.583922  1
  Hg  Hg18  1  0.585647  0.585647  0.241551  1
  Hg  Hg19  1  0.585647  0.241551  0.585647  1
  Hg  Hg20  1  0.241551  0.585647  0.585647  1
  Pt  Pt21  1  0.144926  0.144926  0.572334  1
  Pt  Pt22  1  0.144926  0.572334  0.144926  1
  Pt  Pt23  1  0.572334  0.144926  0.144926  1
