# generated using pymatgen
data_CsTl(PO3)4
_symmetry_space_group_name_H-M   'P 1'
_cell_length_a   13.94320000
_cell_length_b   5.37831227
_cell_length_c   7.69560900
_cell_angle_alpha   80.14169009
_cell_angle_beta   90.00000000
_cell_angle_gamma   90.00000000
_symmetry_Int_Tables_number   1
_chemical_formula_structural   CsTl(PO3)4
_chemical_formula_sum   'Cs2 Tl2 P8 O24'
_cell_volume   568.57914821
_cell_formula_units_Z   2
loop_
 _symmetry_equiv_pos_site_id
 _symmetry_equiv_pos_as_xyz
  1  'x, y, z'
loop_
 _atom_site_type_symbol
 _atom_site_label
 _atom_site_symmetry_multiplicity
 _atom_site_fract_x
 _atom_site_fract_y
 _atom_site_fract_z
 _atom_site_occupancy
  Cs  Cs0  1  0.005333  0.404478  0.840542  1
  Cs  Cs1  1  0.505333  0.595522  0.159458  1
  Tl  Tl2  1  0.237093  0.503443  0.482943  1
  Tl  Tl3  1  0.737093  0.496557  0.517057  1
  P  P4  1  0.878797  0.015400  0.439105  1
  P  P5  1  0.815933  0.794559  0.132702  1
  P  P6  1  0.378797  0.984600  0.560895  1
  P  P7  1  0.177932  0.869550  0.088671  1
  P  P8  1  0.095310  0.024165  0.420110  1
  P  P9  1  0.595310  0.975835  0.579890  1
  P  P10  1  0.677932  0.130450  0.911329  1
  P  P11  1  0.315933  0.205441  0.867298  1
  O  O12  1  0.152480  0.827911  0.540890  1
  O  O13  1  0.095950  0.286418  0.463862  1
  O  O14  1  0.623499  0.962294  0.781830  1
  O  O15  1  0.987479  0.921305  0.429413  1
  O  O16  1  0.876859  0.275977  0.486379  1
  O  O17  1  0.840642  0.025930  0.243334  1
  O  O18  1  0.123499  0.037706  0.218170  1
  O  O19  1  0.616277  0.135852  0.066373  1
  O  O20  1  0.116277  0.864148  0.933627  1
  O  O21  1  0.232680  0.354834  0.771271  1
  O  O22  1  0.376859  0.724023  0.513621  1
  O  O23  1  0.595950  0.713582  0.536138  1
  O  O24  1  0.652480  0.172089  0.459110  1
  O  O25  1  0.487479  0.078695  0.570587  1
  O  O26  1  0.273718  0.040766  0.044528  1
  O  O27  1  0.904887  0.668179  0.091841  1
  O  O28  1  0.714775  0.375904  0.804477  1
  O  O29  1  0.773718  0.959234  0.955472  1
  O  O30  1  0.404887  0.331821  0.908159  1
  O  O31  1  0.830120  0.811594  0.570319  1
  O  O32  1  0.330120  0.188406  0.429681  1
  O  O33  1  0.340642  0.974070  0.756666  1
  O  O34  1  0.732680  0.645166  0.228729  1
  O  O35  1  0.214775  0.624096  0.195523  1
