# generated using pymatgen
data_Yb2SmSi6Pd17Pt3
_symmetry_space_group_name_H-M   'P 1'
_cell_length_a   8.73075508
_cell_length_b   8.73075590
_cell_length_c   8.74952403
_cell_angle_alpha   59.75315208
_cell_angle_beta   59.75314814
_cell_angle_gamma   59.67828957
_symmetry_Int_Tables_number   1
_chemical_formula_structural   Yb2SmSi6Pd17Pt3
_chemical_formula_sum   'Yb2 Sm1 Si6 Pd17 Pt3'
_cell_volume   468.68754528
_cell_formula_units_Z   1
loop_
 _symmetry_equiv_pos_site_id
 _symmetry_equiv_pos_as_xyz
  1  'x, y, z'
loop_
 _atom_site_type_symbol
 _atom_site_label
 _atom_site_symmetry_multiplicity
 _atom_site_fract_x
 _atom_site_fract_y
 _atom_site_fract_z
 _atom_site_occupancy
  Yb  Yb0  1  0.749853  0.749853  0.750668  1
  Yb  Yb1  1  0.999981  0.999981  0.000081  1
  Sm  Sm2  1  0.250028  0.250028  0.250382  1
  Si  Si3  1  0.730920  0.268669  0.267996  1
  Si  Si4  1  0.269960  0.730396  0.731184  1
  Si  Si5  1  0.268669  0.730920  0.267996  1
  Si  Si6  1  0.730396  0.269960  0.731184  1
  Si  Si7  1  0.269394  0.269394  0.730372  1
  Si  Si8  1  0.731675  0.731675  0.268783  1
  Pd  Pd9  1  0.382802  0.847811  0.383125  1
  Pd  Pd10  1  0.618061  0.618061  0.149311  1
  Pd  Pd11  1  0.619466  0.148685  0.616068  1
  Pd  Pd12  1  0.847811  0.382802  0.383125  1
  Pd  Pd13  1  0.148685  0.619466  0.616068  1
  Pd  Pd14  1  0.343817  0.999944  0.000810  1
  Pd  Pd15  1  0.655299  0.999929  0.000892  1
  Pd  Pd16  1  0.999651  0.343817  0.657013  1
  Pd  Pd17  1  0.999615  0.655991  0.344750  1
  Pd  Pd18  1  0.999944  0.343817  0.000810  1
  Pd  Pd19  1  0.655991  0.999615  0.344750  1
  Pd  Pd20  1  0.999929  0.655299  0.000892  1
  Pd  Pd21  1  0.343817  0.999651  0.657013  1
  Pd  Pd22  1  0.999757  0.999757  0.345219  1
  Pd  Pd23  1  0.999743  0.999743  0.656026  1
  Pd  Pd24  1  0.656048  0.343286  0.000624  1
  Pd  Pd25  1  0.343286  0.656048  0.000624  1
  Pt  Pt26  1  0.384856  0.384856  0.385117  1
  Pt  Pt27  1  0.616980  0.616980  0.613381  1
  Pt  Pt28  1  0.383566  0.383566  0.845738  1
