# generated using pymatgen
data_La4P4Pt3Rh
_symmetry_space_group_name_H-M   'P 1'
_cell_length_a   7.29533301
_cell_length_b   4.23185400
_cell_length_c   8.20610801
_cell_angle_alpha   90.00000000
_cell_angle_beta   90.00530078
_cell_angle_gamma   90.00000000
_symmetry_Int_Tables_number   1
_chemical_formula_structural   La4P4Pt3Rh
_chemical_formula_sum   'La4 P4 Pt3 Rh1'
_cell_volume   253.34540035
_cell_formula_units_Z   1
loop_
 _symmetry_equiv_pos_site_id
 _symmetry_equiv_pos_as_xyz
  1  'x, y, z'
loop_
 _atom_site_type_symbol
 _atom_site_label
 _atom_site_symmetry_multiplicity
 _atom_site_fract_x
 _atom_site_fract_y
 _atom_site_fract_z
 _atom_site_occupancy
  La  La0  1  0.752021  0.000000  0.004270  1
  La  La1  1  0.246246  0.500001  0.496675  1
  La  La2  1  0.753442  0.000000  0.496255  1
  La  La3  1  0.247863  0.500001  0.002703  1
  P  P4  1  0.078061  0.000000  0.248209  1
  P  P5  1  0.585675  0.500001  0.251679  1
  P  P6  1  0.418046  0.000000  0.748084  1
  P  P7  1  0.917428  0.500001  0.751814  1
  Pt  Pt8  1  0.417006  0.000000  0.250186  1
  Pt  Pt9  1  0.582991  0.500001  0.749880  1
  Pt  Pt10  1  0.083372  0.000000  0.750230  1
  Rh  Rh11  1  0.917845  0.500001  0.250015  1
