# generated using pymatgen
data_Zr2Sc(ZnPd2)3
_symmetry_space_group_name_H-M   'P 1'
_cell_length_a   4.10430100
_cell_length_b   7.81662600
_cell_length_c   12.29431400
_cell_angle_alpha   90.00000000
_cell_angle_beta   89.99994416
_cell_angle_gamma   90.00000000
_symmetry_Int_Tables_number   1
_chemical_formula_structural   Zr2Sc(ZnPd2)3
_chemical_formula_sum   'Zr4 Sc2 Zn6 Pd12'
_cell_volume   394.42354964
_cell_formula_units_Z   2
loop_
 _symmetry_equiv_pos_site_id
 _symmetry_equiv_pos_as_xyz
  1  'x, y, z'
loop_
 _atom_site_type_symbol
 _atom_site_label
 _atom_site_symmetry_multiplicity
 _atom_site_fract_x
 _atom_site_fract_y
 _atom_site_fract_z
 _atom_site_occupancy
  Zr  Zr0  1  0.999996  0.500000  0.997999  1
  Zr  Zr1  1  0.500000  0.000000  0.165645  1
  Zr  Zr2  1  0.000004  0.500000  0.334312  1
  Zr  Zr3  1  0.499998  0.000000  0.502004  1
  Sc  Sc4  1  0.999998  0.500000  0.667214  1
  Sc  Sc5  1  0.500010  0.000000  0.832793  1
  Zn  Zn6  1  0.000002  0.000000  0.997794  1
  Zn  Zn7  1  0.500004  0.500000  0.166294  1
  Zn  Zn8  1  0.000002  0.000000  0.333712  1
  Zn  Zn9  1  0.499998  0.500000  0.502266  1
  Zn  Zn10  1  0.999998  0.000000  0.668515  1
  Zn  Zn11  1  0.499991  0.500000  0.831365  1
  Pd  Pd12  1  0.499997  0.249845  0.999144  1
  Pd  Pd13  1  0.499997  0.750155  0.999144  1
  Pd  Pd14  1  0.000003  0.249947  0.166213  1
  Pd  Pd15  1  0.000003  0.750053  0.166213  1
  Pd  Pd16  1  0.500004  0.250074  0.333711  1
  Pd  Pd17  1  0.500004  0.749926  0.333711  1
  Pd  Pd18  1  0.000000  0.250199  0.500850  1
  Pd  Pd19  1  0.000000  0.749801  0.500850  1
  Pd  Pd20  1  0.499996  0.250626  0.667469  1
  Pd  Pd21  1  0.499996  0.749374  0.667469  1
  Pd  Pd22  1  0.999997  0.249241  0.832658  1
  Pd  Pd23  1  0.999997  0.750759  0.832658  1
