# generated using pymatgen
data_SmLu(SeO3)3
_symmetry_space_group_name_H-M   'P 1'
_cell_length_a   7.13390757
_cell_length_b   8.17019925
_cell_length_c   9.08631721
_cell_angle_alpha   71.04457478
_cell_angle_beta   70.19219197
_cell_angle_gamma   66.18395522
_symmetry_Int_Tables_number   1
_chemical_formula_structural   SmLu(SeO3)3
_chemical_formula_sum   'Sm2 Lu2 Se6 O18'
_cell_volume   444.83082900
_cell_formula_units_Z   2
loop_
 _symmetry_equiv_pos_site_id
 _symmetry_equiv_pos_as_xyz
  1  'x, y, z'
loop_
 _atom_site_type_symbol
 _atom_site_label
 _atom_site_symmetry_multiplicity
 _atom_site_fract_x
 _atom_site_fract_y
 _atom_site_fract_z
 _atom_site_occupancy
  Sm  Sm0  1  0.332826  0.729728  0.591900  1
  Sm  Sm1  1  0.667174  0.270272  0.408100  1
  Lu  Lu2  1  0.741232  0.735825  0.800493  1
  Lu  Lu3  1  0.258768  0.264175  0.199507  1
  Se  Se4  1  0.424888  0.782344  0.192771  1
  Se  Se5  1  0.575112  0.217656  0.807229  1
  Se  Se6  1  0.148922  0.746237  0.969178  1
  Se  Se7  1  0.851078  0.253763  0.030822  1
  Se  Se8  1  0.886780  0.754981  0.419226  1
  Se  Se9  1  0.113220  0.245019  0.580774  1
  O  O10  1  0.647025  0.792464  0.045238  1
  O  O11  1  0.352975  0.207536  0.954762  1
  O  O12  1  0.362511  0.951842  0.295662  1
  O  O13  1  0.637489  0.048158  0.704338  1
  O  O14  1  0.514467  0.601187  0.346485  1
  O  O15  1  0.485533  0.398813  0.653515  1
  O  O16  1  0.171861  0.558079  0.122087  1
  O  O17  1  0.828139  0.441921  0.877913  1
  O  O18  1  0.406814  0.710891  0.851518  1
  O  O19  1  0.593186  0.289109  0.148482  1
  O  O20  1  0.342519  0.249695  0.430422  1
  O  O21  1  0.657481  0.750305  0.569578  1
  O  O22  1  0.972500  0.293331  0.438818  1
  O  O23  1  0.027500  0.706669  0.561182  1
  O  O24  1  0.151883  0.019894  0.658860  1
  O  O25  1  0.848117  0.980106  0.341140  1
  O  O26  1  0.941060  0.302770  0.162430  1
  O  O27  1  0.058940  0.697230  0.837570  1
