# generated using pymatgen
data_Li2Er15LuIn2(NiRh)2
_symmetry_space_group_name_H-M   'P 1'
_cell_length_a   9.58177669
_cell_length_b   9.54932363
_cell_length_c   9.53650200
_cell_angle_alpha   60.23780151
_cell_angle_beta   59.92575578
_cell_angle_gamma   59.85845386
_symmetry_Int_Tables_number   1
_chemical_formula_structural   Li2Er15LuIn2(NiRh)2
_chemical_formula_sum   'Li2 Er15 Lu1 In2 Ni2 Rh2'
_cell_volume   617.09800002
_cell_formula_units_Z   1
loop_
 _symmetry_equiv_pos_site_id
 _symmetry_equiv_pos_as_xyz
  1  'x, y, z'
loop_
 _atom_site_type_symbol
 _atom_site_label
 _atom_site_symmetry_multiplicity
 _atom_site_fract_x
 _atom_site_fract_y
 _atom_site_fract_z
 _atom_site_occupancy
  Li  Li0  1  0.428029  0.719387  0.425792  1
  Li  Li1  1  0.427682  0.425785  0.719420  1
  Er  Er2  1  0.437517  0.061336  0.060860  1
  Er  Er3  1  0.433283  0.064010  0.434898  1
  Er  Er4  1  0.065938  0.434618  0.062789  1
  Er  Er5  1  0.652486  0.048912  0.645397  1
  Er  Er6  1  0.182771  0.817960  0.817486  1
  Er  Er7  1  0.065396  0.062557  0.435836  1
  Er  Er8  1  0.809383  0.190456  0.190045  1
  Er  Er9  1  0.811861  0.812808  0.190860  1
  Er  Er10  1  0.653231  0.645322  0.047768  1
  Er  Er11  1  0.656688  0.653320  0.653799  1
  Er  Er12  1  0.064378  0.435082  0.435890  1
  Er  Er13  1  0.039282  0.651525  0.652219  1
  Er  Er14  1  0.812629  0.190637  0.813001  1
  Er  Er15  1  0.433443  0.434004  0.064042  1
  Er  Er16  1  0.184529  0.813752  0.190065  1
  Lu  Lu17  1  0.184723  0.190261  0.812873  1
  In  In18  1  0.746274  0.420475  0.420453  1
  In  In19  1  0.414997  0.419405  0.419248  1
  Ni  Ni20  1  0.859068  0.425522  0.859643  1
  Ni  Ni21  1  0.857049  0.860093  0.426987  1
  Rh  Rh22  1  0.426253  0.862962  0.860638  1
  Rh  Rh23  1  0.853112  0.859816  0.859991  1
