# generated using pymatgen
data_Ca2Er2Ga5Ir9
_symmetry_space_group_name_H-M   'P 1'
_cell_length_a   5.56643800
_cell_length_b   5.56643775
_cell_length_c   23.63938400
_cell_angle_alpha   90.00000000
_cell_angle_beta   90.00000000
_cell_angle_gamma   119.99998963
_symmetry_Int_Tables_number   1
_chemical_formula_structural   Ca2Er2Ga5Ir9
_chemical_formula_sum   'Ca4 Er4 Ga10 Ir18'
_cell_volume   634.33922171
_cell_formula_units_Z   2
loop_
 _symmetry_equiv_pos_site_id
 _symmetry_equiv_pos_as_xyz
  1  'x, y, z'
loop_
 _atom_site_type_symbol
 _atom_site_label
 _atom_site_symmetry_multiplicity
 _atom_site_fract_x
 _atom_site_fract_y
 _atom_site_fract_z
 _atom_site_occupancy
  Ca  Ca0  1  0.333333  0.666667  0.677978  1
  Ca  Ca1  1  0.666667  0.333333  0.322022  1
  Ca  Ca2  1  0.666667  0.333333  0.177978  1
  Ca  Ca3  1  0.333333  0.666667  0.822022  1
  Er  Er4  1  0.333333  0.666667  0.531049  1
  Er  Er5  1  0.666667  0.333333  0.468951  1
  Er  Er6  1  0.666667  0.333333  0.031049  1
  Er  Er7  1  0.333333  0.666667  0.968951  1
  Ga  Ga8  1  0.000000  0.000000  0.000000  1
  Ga  Ga9  1  0.000000  0.000000  0.500000  1
  Ga  Ga10  1  0.333333  0.666667  0.166995  1
  Ga  Ga11  1  0.666667  0.333333  0.833005  1
  Ga  Ga12  1  0.666667  0.333333  0.666995  1
  Ga  Ga13  1  0.333333  0.666667  0.333005  1
  Ga  Ga14  1  0.000000  0.000000  0.164786  1
  Ga  Ga15  1  0.000000  0.000000  0.835214  1
  Ga  Ga16  1  0.000000  0.000000  0.664786  1
  Ga  Ga17  1  0.000000  0.000000  0.335214  1
  Ir  Ir18  1  0.171022  0.342043  0.082243  1
  Ir  Ir19  1  0.828978  0.657957  0.917757  1
  Ir  Ir20  1  0.657957  0.828978  0.082243  1
  Ir  Ir21  1  0.828978  0.657957  0.582243  1
  Ir  Ir22  1  0.342043  0.171022  0.917757  1
  Ir  Ir23  1  0.171022  0.342043  0.417757  1
  Ir  Ir24  1  0.171022  0.828978  0.082243  1
  Ir  Ir25  1  0.342043  0.171022  0.582243  1
  Ir  Ir26  1  0.828978  0.171022  0.917757  1
  Ir  Ir27  1  0.657957  0.828978  0.417757  1
  Ir  Ir28  1  0.828978  0.171022  0.582243  1
  Ir  Ir29  1  0.171022  0.828978  0.417757  1
  Ir  Ir30  1  0.165838  0.331672  0.250000  1
  Ir  Ir31  1  0.834162  0.668328  0.750000  1
  Ir  Ir32  1  0.668328  0.834162  0.250000  1
  Ir  Ir33  1  0.331672  0.165838  0.750000  1
  Ir  Ir34  1  0.165838  0.834162  0.250000  1
  Ir  Ir35  1  0.834162  0.165838  0.750000  1
