# generated using pymatgen
data_Tb2Pa2Zn3CuRh4
_symmetry_space_group_name_H-M   'P 1'
_cell_length_a   3.80715900
_cell_length_b   7.17066653
_cell_length_c   8.39673432
_cell_angle_alpha   91.69628864
_cell_angle_beta   90.00000000
_cell_angle_gamma   90.00000000
_symmetry_Int_Tables_number   1
_chemical_formula_structural   Tb2Pa2Zn3CuRh4
_chemical_formula_sum   'Tb2 Pa2 Zn3 Cu1 Rh4'
_cell_volume   229.12928219
_cell_formula_units_Z   1
loop_
 _symmetry_equiv_pos_site_id
 _symmetry_equiv_pos_as_xyz
  1  'x, y, z'
loop_
 _atom_site_type_symbol
 _atom_site_label
 _atom_site_symmetry_multiplicity
 _atom_site_fract_x
 _atom_site_fract_y
 _atom_site_fract_z
 _atom_site_occupancy
  Tb  Tb0  1  0.250000  0.061117  0.311895  1
  Tb  Tb1  1  0.750000  0.941043  0.692429  1
  Pa  Pa2  1  0.250000  0.555128  0.189441  1
  Pa  Pa3  1  0.750000  0.437526  0.812586  1
  Zn  Zn4  1  0.750000  0.892506  0.058278  1
  Zn  Zn5  1  0.250000  0.628365  0.559203  1
  Zn  Zn6  1  0.750000  0.373882  0.441798  1
  Cu  Cu7  1  0.250000  0.110620  0.936777  1
  Rh  Rh8  1  0.750000  0.748564  0.355575  1
  Rh  Rh9  1  0.250000  0.252954  0.639089  1
  Rh  Rh10  1  0.750000  0.288084  0.122206  1
  Rh  Rh11  1  0.250000  0.710211  0.880722  1
