# generated using pymatgen
data_Ca5CePr2(Si3Pd)4
_symmetry_space_group_name_H-M   'P 1'
_cell_length_a   8.27421100
_cell_length_b   8.26316416
_cell_length_c   8.36321300
_cell_angle_alpha   90.00000000
_cell_angle_beta   90.00000000
_cell_angle_gamma   120.04423742
_symmetry_Int_Tables_number   1
_chemical_formula_structural   Ca5CePr2(Si3Pd)4
_chemical_formula_sum   'Ca5 Ce1 Pr2 Si12 Pd4'
_cell_volume   494.97469400
_cell_formula_units_Z   1
loop_
 _symmetry_equiv_pos_site_id
 _symmetry_equiv_pos_as_xyz
  1  'x, y, z'
loop_
 _atom_site_type_symbol
 _atom_site_label
 _atom_site_symmetry_multiplicity
 _atom_site_fract_x
 _atom_site_fract_y
 _atom_site_fract_z
 _atom_site_occupancy
  Ca  Ca0  1  0.499107  0.500928  0.750000  1
  Ca  Ca1  1  0.500901  0.499330  0.250000  1
  Ca  Ca2  1  0.001820  0.500928  0.750000  1
  Ca  Ca3  1  0.998428  0.499330  0.250000  1
  Ca  Ca4  1  0.498961  0.997924  0.750000  1
  Ce  Ce5  1  0.000006  0.000011  0.250000  1
  Pr  Pr6  1  0.501044  0.002088  0.250000  1
  Pr  Pr7  1  0.999977  0.999954  0.750000  1
  Si  Si8  1  0.836379  0.165599  0.002653  1
  Si  Si9  1  0.163563  0.834405  0.003064  1
  Si  Si10  1  0.329221  0.165599  0.002653  1
  Si  Si11  1  0.163563  0.834405  0.496936  1
  Si  Si12  1  0.670842  0.834405  0.003064  1
  Si  Si13  1  0.836379  0.165599  0.497347  1
  Si  Si14  1  0.834554  0.669109  0.003256  1
  Si  Si15  1  0.670842  0.834405  0.496936  1
  Si  Si16  1  0.165364  0.330727  0.003444  1
  Si  Si17  1  0.329221  0.165599  0.497347  1
  Si  Si18  1  0.165364  0.330727  0.496556  1
  Si  Si19  1  0.834554  0.669109  0.496744  1
  Pd  Pd20  1  0.666484  0.332967  0.995130  1
  Pd  Pd21  1  0.333471  0.666944  0.000770  1
  Pd  Pd22  1  0.333471  0.666944  0.499230  1
  Pd  Pd23  1  0.666484  0.332967  0.504870  1
