# generated using pymatgen
data_Ho5Tm11Ga6FeCo
_symmetry_space_group_name_H-M   'P 1'
_cell_length_a   9.86291700
_cell_length_b   9.86351656
_cell_length_c   6.88226000
_cell_angle_alpha   89.99826048
_cell_angle_beta   90.00113381
_cell_angle_gamma   120.00169526
_symmetry_Int_Tables_number   1
_chemical_formula_structural   Ho5Tm11Ga6FeCo
_chemical_formula_sum   'Ho5 Tm11 Ga6 Fe1 Co1'
_cell_volume   579.81766769
_cell_formula_units_Z   1
loop_
 _symmetry_equiv_pos_site_id
 _symmetry_equiv_pos_as_xyz
  1  'x, y, z'
loop_
 _atom_site_type_symbol
 _atom_site_label
 _atom_site_symmetry_multiplicity
 _atom_site_fract_x
 _atom_site_fract_y
 _atom_site_fract_z
 _atom_site_occupancy
  Ho  Ho0  1  0.535643  0.464342  0.707169  1
  Ho  Ho1  1  0.928715  0.464359  0.707205  1
  Ho  Ho2  1  0.535635  0.071276  0.707194  1
  Ho  Ho3  1  0.999994  0.000000  0.231626  1
  Ho  Ho4  1  0.000000  0.999977  0.732903  1
  Tm  Tm5  1  0.173544  0.826450  0.510230  1
  Tm  Tm6  1  0.652894  0.826442  0.510228  1
  Tm  Tm7  1  0.173552  0.347100  0.510237  1
  Tm  Tm8  1  0.826433  0.173573  0.012654  1
  Tm  Tm9  1  0.347118  0.173565  0.012609  1
  Tm  Tm10  1  0.826435  0.652889  0.012609  1
  Tm  Tm11  1  0.333347  0.666666  0.830254  1
  Tm  Tm12  1  0.666685  0.333323  0.328271  1
  Tm  Tm13  1  0.462590  0.537414  0.207820  1
  Tm  Tm14  1  0.074811  0.537423  0.207826  1
  Tm  Tm15  1  0.462586  0.925188  0.207826  1
  Ga  Ga16  1  0.163495  0.836516  0.958354  1
  Ga  Ga17  1  0.673050  0.836542  0.958397  1
  Ga  Ga18  1  0.163461  0.326952  0.958390  1
  Ga  Ga19  1  0.836157  0.163833  0.457407  1
  Ga  Ga20  1  0.327666  0.163818  0.457427  1
  Ga  Ga21  1  0.836172  0.672326  0.457426  1
  Fe  Fe22  1  0.333349  0.666672  0.445530  1
  Co  Co23  1  0.666668  0.333352  0.944454  1
