# generated using pymatgen
data_Pr7Nd3Rh8
_symmetry_space_group_name_H-M   'P 1'
_cell_length_a   7.65752200
_cell_length_b   7.75255301
_cell_length_c   15.03402400
_cell_angle_alpha   90.15400487
_cell_angle_beta   90.00000000
_cell_angle_gamma   90.00000000
_symmetry_Int_Tables_number   1
_chemical_formula_structural   Pr7Nd3Rh8
_chemical_formula_sum   'Pr14 Nd6 Rh16'
_cell_volume   892.49680035
_cell_formula_units_Z   2
loop_
 _symmetry_equiv_pos_site_id
 _symmetry_equiv_pos_as_xyz
  1  'x, y, z'
loop_
 _atom_site_type_symbol
 _atom_site_label
 _atom_site_symmetry_multiplicity
 _atom_site_fract_x
 _atom_site_fract_y
 _atom_site_fract_z
 _atom_site_occupancy
  Pr  Pr0  1  0.333657  0.831253  0.121636  1
  Pr  Pr1  1  0.833657  0.668747  0.378364  1
  Pr  Pr2  1  0.333976  0.831053  0.378437  1
  Pr  Pr3  1  0.833976  0.668947  0.121563  1
  Pr  Pr4  1  0.665862  0.169163  0.878514  1
  Pr  Pr5  1  0.165862  0.330837  0.621486  1
  Pr  Pr6  1  0.516729  0.681190  0.594823  1
  Pr  Pr7  1  0.016729  0.818810  0.905177  1
  Pr  Pr8  1  0.482821  0.319066  0.094252  1
  Pr  Pr9  1  0.982821  0.180934  0.405748  1
  Pr  Pr10  1  0.483254  0.318440  0.406392  1
  Pr  Pr11  1  0.983254  0.181560  0.093608  1
  Pr  Pr12  1  0.516598  0.681196  0.905368  1
  Pr  Pr13  1  0.016598  0.818804  0.594632  1
  Nd  Nd14  1  0.827899  0.510916  0.749914  1
  Nd  Nd15  1  0.327899  0.989084  0.750086  1
  Nd  Nd16  1  0.172540  0.487957  0.250229  1
  Nd  Nd17  1  0.672540  0.012043  0.249771  1
  Nd  Nd18  1  0.666316  0.168224  0.621982  1
  Nd  Nd19  1  0.166316  0.331776  0.878018  1
  Rh  Rh20  1  0.672000  0.970572  0.458589  1
  Rh  Rh21  1  0.172000  0.529428  0.041411  1
  Rh  Rh22  1  0.325699  0.031113  0.957870  1
  Rh  Rh23  1  0.825699  0.468887  0.542130  1
  Rh  Rh24  1  0.328383  0.029097  0.542687  1
  Rh  Rh25  1  0.828383  0.470903  0.957313  1
  Rh  Rh26  1  0.672210  0.970313  0.042034  1
  Rh  Rh27  1  0.172210  0.529687  0.457966  1
  Rh  Rh28  1  0.461985  0.396122  0.750224  1
  Rh  Rh29  1  0.961985  0.103878  0.749776  1
  Rh  Rh30  1  0.538319  0.601493  0.249888  1
  Rh  Rh31  1  0.038319  0.898507  0.250112  1
  Rh  Rh32  1  0.704242  0.858265  0.750358  1
  Rh  Rh33  1  0.204242  0.641735  0.749642  1
  Rh  Rh34  1  0.297509  0.142718  0.250175  1
  Rh  Rh35  1  0.797509  0.357282  0.249825  1
