# generated using pymatgen
data_LiHf5ZrZn19SiAu3
_symmetry_space_group_name_H-M   'P 1'
_cell_length_a   8.74443272
_cell_length_b   8.74443230
_cell_length_c   8.72791400
_cell_angle_alpha   60.06247578
_cell_angle_beta   60.06247738
_cell_angle_gamma   59.87505884
_symmetry_Int_Tables_number   1
_chemical_formula_structural   LiHf5ZrZn19SiAu3
_chemical_formula_sum   'Li1 Hf5 Zr1 Zn19 Si1 Au3'
_cell_volume   471.90618176
_cell_formula_units_Z   1
loop_
 _symmetry_equiv_pos_site_id
 _symmetry_equiv_pos_as_xyz
  1  'x, y, z'
loop_
 _atom_site_type_symbol
 _atom_site_label
 _atom_site_symmetry_multiplicity
 _atom_site_fract_x
 _atom_site_fract_y
 _atom_site_fract_z
 _atom_site_occupancy
  Li  Li0  1  0.996070  0.996070  0.006116  1
  Hf  Hf1  1  0.711807  0.291089  0.292705  1
  Hf  Hf2  1  0.285421  0.713165  0.708335  1
  Hf  Hf3  1  0.291089  0.711807  0.292705  1
  Hf  Hf4  1  0.713165  0.285421  0.708335  1
  Hf  Hf5  1  0.290759  0.290759  0.710989  1
  Zr  Zr6  1  0.706926  0.706926  0.290876  1
  Zn  Zn7  1  0.122398  0.633774  0.121370  1
  Zn  Zn8  1  0.878775  0.878775  0.364368  1
  Zn  Zn9  1  0.879632  0.363024  0.878589  1
  Zn  Zn10  1  0.633774  0.122398  0.121370  1
  Zn  Zn11  1  0.363024  0.879632  0.878589  1
  Zn  Zn12  1  0.498608  0.001291  0.998305  1
  Zn  Zn13  1  0.999374  0.507700  0.493793  1
  Zn  Zn14  1  0.001291  0.498608  0.998305  1
  Zn  Zn15  1  0.507700  0.999374  0.493793  1
  Zn  Zn16  1  0.999052  0.999052  0.498554  1
  Zn  Zn17  1  0.500481  0.500481  0.998860  1
  Zn  Zn18  1  0.338458  0.338458  0.334712  1
  Zn  Zn19  1  0.663008  0.663008  0.664545  1
  Zn  Zn20  1  0.337997  0.337997  0.989620  1
  Zn  Zn21  1  0.335016  0.996436  0.334344  1
  Zn  Zn22  1  0.663659  0.663659  0.004780  1
  Zn  Zn23  1  0.664273  0.006823  0.662901  1
  Zn  Zn24  1  0.996436  0.335016  0.334344  1
  Zn  Zn25  1  0.006823  0.664273  0.662901  1
  Si  Si26  1  0.498028  0.498028  0.505321  1
  Au  Au27  1  0.115180  0.115180  0.115275  1
  Au  Au28  1  0.880966  0.880966  0.887056  1
  Au  Au29  1  0.120812  0.120812  0.648245  1
