# generated using pymatgen
data_TmLu11Os4
_symmetry_space_group_name_H-M   'P 1'
_cell_length_a   7.31793633
_cell_length_b   8.81159540
_cell_length_c   6.15706025
_cell_angle_alpha   90.11349936
_cell_angle_beta   90.03173188
_cell_angle_gamma   89.98592061
_symmetry_Int_Tables_number   1
_chemical_formula_structural   TmLu11Os4
_chemical_formula_sum   'Tm1 Lu11 Os4'
_cell_volume   397.02298109
_cell_formula_units_Z   1
loop_
 _symmetry_equiv_pos_site_id
 _symmetry_equiv_pos_as_xyz
  1  'x, y, z'
loop_
 _atom_site_type_symbol
 _atom_site_label
 _atom_site_symmetry_multiplicity
 _atom_site_fract_x
 _atom_site_fract_y
 _atom_site_fract_z
 _atom_site_occupancy
  Tm  Tm0  1  0.674981  0.061654  0.334353  1
  Lu  Lu1  1  0.174605  0.438060  0.165346  1
  Lu  Lu2  1  0.325619  0.561616  0.665495  1
  Lu  Lu3  1  0.825641  0.938162  0.834311  1
  Lu  Lu4  1  0.325275  0.937930  0.665801  1
  Lu  Lu5  1  0.825530  0.561687  0.834671  1
  Lu  Lu6  1  0.674304  0.438643  0.334437  1
  Lu  Lu7  1  0.174291  0.061756  0.165463  1
  Lu  Lu8  1  0.539452  0.250383  0.873046  1
  Lu  Lu9  1  0.039856  0.250220  0.627059  1
  Lu  Lu10  1  0.459998  0.749503  0.126544  1
  Lu  Lu11  1  0.960756  0.749391  0.373524  1
  Os  Os12  1  0.882823  0.250340  0.037708  1
  Os  Os13  1  0.382494  0.250795  0.462882  1
  Os  Os14  1  0.116889  0.750654  0.961483  1
  Os  Os15  1  0.617487  0.749205  0.537878  1
