# generated using pymatgen
data_Th3Si4Ir3Rh
_symmetry_space_group_name_H-M   'P 1'
_cell_length_a   4.09277304
_cell_length_b   4.16428241
_cell_length_c   12.73475951
_cell_angle_alpha   80.58983735
_cell_angle_beta   80.75288626
_cell_angle_gamma   89.99999376
_symmetry_Int_Tables_number   1
_chemical_formula_structural   Th3Si4Ir3Rh
_chemical_formula_sum   'Th3 Si4 Ir3 Rh1'
_cell_volume   211.26407236
_cell_formula_units_Z   1
loop_
 _symmetry_equiv_pos_site_id
 _symmetry_equiv_pos_as_xyz
  1  'x, y, z'
loop_
 _atom_site_type_symbol
 _atom_site_label
 _atom_site_symmetry_multiplicity
 _atom_site_fract_x
 _atom_site_fract_y
 _atom_site_fract_z
 _atom_site_occupancy
  Th  Th0  1  0.000089  0.000089  0.999823  1
  Th  Th1  1  0.855746  0.355746  0.288509  1
  Th  Th2  1  0.144203  0.644203  0.711593  1
  Si  Si3  1  0.696946  0.196946  0.606107  1
  Si  Si4  1  0.302916  0.802916  0.394167  1
  Si  Si5  1  0.451592  0.451592  0.096817  1
  Si  Si6  1  0.548499  0.548499  0.903002  1
  Ir  Ir7  1  0.599054  0.099054  0.801891  1
  Ir  Ir8  1  0.400957  0.900957  0.198087  1
  Ir  Ir9  1  0.249888  0.249888  0.500225  1
  Rh  Rh10  1  0.750110  0.750110  0.499779  1
