# generated using pymatgen
data_NaSmZnPt3
_symmetry_space_group_name_H-M   'P 1'
_cell_length_a   5.24979902
_cell_length_b   5.48415503
_cell_length_c   5.48415500
_cell_angle_alpha   59.99999412
_cell_angle_beta   58.51196036
_cell_angle_gamma   58.51196777
_symmetry_Int_Tables_number   1
_chemical_formula_structural   NaSmZnPt3
_chemical_formula_sum   'Na1 Sm1 Zn1 Pt3'
_cell_volume   109.06962080
_cell_formula_units_Z   1
loop_
 _symmetry_equiv_pos_site_id
 _symmetry_equiv_pos_as_xyz
  1  'x, y, z'
loop_
 _atom_site_type_symbol
 _atom_site_label
 _atom_site_symmetry_multiplicity
 _atom_site_fract_x
 _atom_site_fract_y
 _atom_site_fract_z
 _atom_site_occupancy
  Na  Na0  1  0.003928  0.998690  0.998690  1
  Sm  Sm1  1  0.262091  0.245969  0.245969  1
  Zn  Zn2  1  0.119511  0.626830  0.626830  1
  Pt  Pt3  1  0.621491  0.626921  0.626921  1
  Pt  Pt4  1  0.621491  0.626921  0.124668  1
  Pt  Pt5  1  0.621491  0.124668  0.626921  1
