# generated using pymatgen
data_NdIn4HgIr
_symmetry_space_group_name_H-M   'P 1'
_cell_length_a   4.72695000
_cell_length_b   4.72695000
_cell_length_c   7.54757800
_cell_angle_alpha   90.00000000
_cell_angle_beta   90.00000000
_cell_angle_gamma   90.00000000
_symmetry_Int_Tables_number   1
_chemical_formula_structural   NdIn4HgIr
_chemical_formula_sum   'Nd1 In4 Hg1 Ir1'
_cell_volume   168.64350778
_cell_formula_units_Z   1
loop_
 _symmetry_equiv_pos_site_id
 _symmetry_equiv_pos_as_xyz
  1  'x, y, z'
loop_
 _atom_site_type_symbol
 _atom_site_label
 _atom_site_symmetry_multiplicity
 _atom_site_fract_x
 _atom_site_fract_y
 _atom_site_fract_z
 _atom_site_occupancy
  Nd  Nd0  1  0.000000  0.000000  0.000000  1
  In  In1  1  0.000000  0.500000  0.302047  1
  In  In2  1  0.500000  0.000000  0.302047  1
  In  In3  1  0.000000  0.500000  0.697953  1
  In  In4  1  0.500000  0.000000  0.697953  1
  Hg  Hg5  1  0.500000  0.500000  0.000000  1
  Ir  Ir6  1  0.000000  0.000000  0.500000  1
