# generated using pymatgen
data_Sc5Tc3P12(Ir3Ru)4
_symmetry_space_group_name_H-M   'P 1'
_cell_length_a   12.57577064
_cell_length_b   12.56371526
_cell_length_c   3.91444600
_cell_angle_alpha   90.00000000
_cell_angle_beta   90.00000000
_cell_angle_gamma   120.37286716
_symmetry_Int_Tables_number   1
_chemical_formula_structural   Sc5Tc3P12(Ir3Ru)4
_chemical_formula_sum   'Sc5 Tc3 P12 Ir12 Ru4'
_cell_volume   533.59233538
_cell_formula_units_Z   1
loop_
 _symmetry_equiv_pos_site_id
 _symmetry_equiv_pos_as_xyz
  1  'x, y, z'
loop_
 _atom_site_type_symbol
 _atom_site_label
 _atom_site_symmetry_multiplicity
 _atom_site_fract_x
 _atom_site_fract_y
 _atom_site_fract_z
 _atom_site_occupancy
  Sc  Sc0  1  0.333567  0.666782  0.000000  1
  Sc  Sc1  1  0.667966  0.335886  0.000000  1
  Sc  Sc2  1  0.811799  0.998211  0.500000  1
  Sc  Sc3  1  0.999066  0.810043  0.500000  1
  Sc  Sc4  1  0.186402  0.187026  0.500000  1
  Tc  Tc5  1  0.455026  0.004845  0.000000  1
  Tc  Tc6  1  0.997846  0.450877  0.000000  1
  Tc  Tc7  1  0.548499  0.546191  0.000000  1
  P  P8  1  0.174819  0.994576  0.000000  1
  P  P9  1  0.002518  0.178155  0.000000  1
  P  P10  1  0.820700  0.820635  0.000000  1
  P  P11  1  0.171095  0.481402  0.500000  1
  P  P12  1  0.518204  0.689675  0.500000  1
  P  P13  1  0.310998  0.829664  0.500000  1
  P  P14  1  0.689794  0.519488  0.500000  1
  P  P15  1  0.832424  0.316087  0.500000  1
  P  P16  1  0.484351  0.170561  0.500000  1
  P  P17  1  0.635801  0.995115  0.000000  1
  P  P18  1  0.000690  0.639482  0.000000  1
  P  P19  1  0.358858  0.363768  0.000000  1
  Ir  Ir20  1  0.361336  0.492562  0.500000  1
  Ir  Ir21  1  0.507336  0.869587  0.500000  1
  Ir  Ir22  1  0.133362  0.638442  0.500000  1
  Ir  Ir23  1  0.867897  0.508787  0.500000  1
  Ir  Ir24  1  0.642720  0.137080  0.500000  1
  Ir  Ir25  1  0.495016  0.359557  0.500000  1
  Ir  Ir26  1  0.817571  0.188592  0.000000  1
  Ir  Ir27  1  0.370949  0.182630  0.000000  1
  Ir  Ir28  1  0.284106  0.002230  0.500000  1
  Ir  Ir29  1  0.997560  0.281144  0.500000  1
  Ir  Ir30  1  0.717452  0.717760  0.500000  1
  Ir  Ir31  1  0.999942  0.999501  0.000000  1
  Ru  Ru32  1  0.179115  0.374925  0.000000  1
  Ru  Ru33  1  0.622979  0.803707  0.000000  1
  Ru  Ru34  1  0.196126  0.819873  0.000000  1
  Ru  Ru35  1  0.806111  0.625157  0.000000  1
