# generated using pymatgen
data_Er5TlSi2
_symmetry_space_group_name_H-M   'P 1'
_cell_length_a   8.77345341
_cell_length_b   8.77345269
_cell_length_c   8.77345300
_cell_angle_alpha   128.53835625
_cell_angle_beta   128.53836082
_cell_angle_gamma   75.75451823
_symmetry_Int_Tables_number   1
_chemical_formula_structural   Er5TlSi2
_chemical_formula_sum   'Er10 Tl2 Si4'
_cell_volume   401.87977140
_cell_formula_units_Z   2
loop_
 _symmetry_equiv_pos_site_id
 _symmetry_equiv_pos_as_xyz
  1  'x, y, z'
loop_
 _atom_site_type_symbol
 _atom_site_label
 _atom_site_symmetry_multiplicity
 _atom_site_fract_x
 _atom_site_fract_y
 _atom_site_fract_z
 _atom_site_occupancy
  Er  Er0  1  0.000000  0.000000  0.000000  1
  Er  Er1  1  0.500000  0.500000  0.000000  1
  Er  Er2  1  0.805581  0.305581  0.831990  1
  Er  Er3  1  0.194419  0.694419  0.168010  1
  Er  Er4  1  0.473590  0.973590  0.168010  1
  Er  Er5  1  0.305581  0.473590  0.500000  1
  Er  Er6  1  0.026410  0.194419  0.500000  1
  Er  Er7  1  0.526410  0.026410  0.831990  1
  Er  Er8  1  0.694419  0.526410  0.500000  1
  Er  Er9  1  0.973590  0.805581  0.500000  1
  Tl  Tl10  1  0.250000  0.250000  0.000000  1
  Tl  Tl11  1  0.750000  0.750000  0.000000  1
  Si  Si12  1  0.131047  0.631047  0.762093  1
  Si  Si13  1  0.868953  0.368953  0.237907  1
  Si  Si14  1  0.631047  0.868953  0.500000  1
  Si  Si15  1  0.368953  0.131047  0.500000  1
