# generated using pymatgen
data_Sr5As3BrO9
_symmetry_space_group_name_H-M   'P 1'
_cell_length_a   10.68278000
_cell_length_b   10.68277975
_cell_length_c   7.01483000
_cell_angle_alpha   90.00000000
_cell_angle_beta   90.00000000
_cell_angle_gamma   120.00000696
_symmetry_Int_Tables_number   1
_chemical_formula_structural   Sr5As3BrO9
_chemical_formula_sum   'Sr10 As6 Br2 O18'
_cell_volume   693.29219528
_cell_formula_units_Z   2
loop_
 _symmetry_equiv_pos_site_id
 _symmetry_equiv_pos_as_xyz
  1  'x, y, z'
loop_
 _atom_site_type_symbol
 _atom_site_label
 _atom_site_symmetry_multiplicity
 _atom_site_fract_x
 _atom_site_fract_y
 _atom_site_fract_z
 _atom_site_occupancy
  Sr  Sr0  1  0.333333  0.666667  0.986396  1
  Sr  Sr1  1  0.666667  0.333333  0.486396  1
  Sr  Sr2  1  0.666667  0.333333  0.013604  1
  Sr  Sr3  1  0.333333  0.666667  0.513604  1
  Sr  Sr4  1  0.275340  0.040530  0.250000  1
  Sr  Sr5  1  0.234811  0.275340  0.750000  1
  Sr  Sr6  1  0.040530  0.765189  0.750000  1
  Sr  Sr7  1  0.959470  0.234811  0.250000  1
  Sr  Sr8  1  0.765189  0.724660  0.250000  1
  Sr  Sr9  1  0.724660  0.959470  0.750000  1
  As  As10  1  0.414623  0.395740  0.250000  1
  As  As11  1  0.018884  0.414623  0.750000  1
  As  As12  1  0.395740  0.981116  0.750000  1
  As  As13  1  0.604260  0.018884  0.250000  1
  As  As14  1  0.981116  0.585377  0.250000  1
  As  As15  1  0.585377  0.604260  0.750000  1
  Br  Br16  1  0.000000  0.000000  0.000000  1
  Br  Br17  1  0.000000  0.000000  0.500000  1
  O  O18  1  0.606367  0.463364  0.250000  1
  O  O19  1  0.143002  0.606367  0.750000  1
  O  O20  1  0.463364  0.856998  0.750000  1
  O  O21  1  0.536636  0.143002  0.250000  1
  O  O22  1  0.856998  0.393633  0.250000  1
  O  O23  1  0.393633  0.536636  0.750000  1
  O  O24  1  0.371109  0.275488  0.050907  1
  O  O25  1  0.095621  0.371109  0.550907  1
  O  O26  1  0.275488  0.904379  0.550907  1
  O  O27  1  0.724512  0.095621  0.050907  1
  O  O28  1  0.904379  0.628891  0.050907  1
  O  O29  1  0.628891  0.724512  0.550907  1
  O  O30  1  0.628891  0.724512  0.949093  1
  O  O31  1  0.904379  0.628891  0.449093  1
  O  O32  1  0.724512  0.095621  0.449093  1
  O  O33  1  0.275488  0.904379  0.949093  1
  O  O34  1  0.095621  0.371109  0.949093  1
  O  O35  1  0.371109  0.275488  0.449093  1
