# generated using pymatgen
data_MgCo3(WO3)8
_symmetry_space_group_name_H-M   'P 1'
_cell_length_a   4.68917324
_cell_length_b   10.70590293
_cell_length_c   9.37639578
_cell_angle_alpha   64.03258088
_cell_angle_beta   90.05356200
_cell_angle_gamma   90.02293138
_symmetry_Int_Tables_number   1
_chemical_formula_structural   MgCo3(WO3)8
_chemical_formula_sum   'Mg1 Co3 W8 O24'
_cell_volume   423.19046123
_cell_formula_units_Z   1
loop_
 _symmetry_equiv_pos_site_id
 _symmetry_equiv_pos_as_xyz
  1  'x, y, z'
loop_
 _atom_site_type_symbol
 _atom_site_label
 _atom_site_symmetry_multiplicity
 _atom_site_fract_x
 _atom_site_fract_y
 _atom_site_fract_z
 _atom_site_occupancy
  Mg  Mg0  1  0.000092  0.333452  0.333223  1
  Co  Co1  1  0.499835  0.833348  0.833303  1
  Co  Co2  1  0.000058  0.333228  0.833374  1
  Co  Co3  1  0.499903  0.833293  0.333460  1
  W  W4  1  0.999910  0.997431  0.501401  1
  W  W5  1  0.998986  0.997636  0.001111  1
  W  W6  1  0.000103  0.669296  0.165238  1
  W  W7  1  0.000915  0.668992  0.665626  1
  W  W8  1  0.499463  0.169150  0.165625  1
  W  W9  1  0.499503  0.169466  0.665031  1
  W  W10  1  0.500502  0.497201  0.001557  1
  W  W11  1  0.500719  0.497493  0.501124  1
  O  O12  1  0.191994  0.833390  0.679306  1
  O  O13  1  0.191153  0.833515  0.178760  1
  O  O14  1  0.309168  0.333362  0.178822  1
  O  O15  1  0.307608  0.333559  0.678971  1
  O  O16  1  0.692342  0.333065  0.987633  1
  O  O17  1  0.691132  0.333334  0.487866  1
  O  O18  1  0.807725  0.833287  0.987398  1
  O  O19  1  0.808904  0.833161  0.487916  1
  O  O20  1  0.206318  0.158992  0.024236  1
  O  O21  1  0.206470  0.160017  0.522890  1
  O  O22  1  0.208369  0.507390  0.849588  1
  O  O23  1  0.207062  0.507223  0.349669  1
  O  O24  1  0.292659  0.007394  0.349898  1
  O  O25  1  0.291158  0.007904  0.849193  1
  O  O26  1  0.293038  0.659124  0.023680  1
  O  O27  1  0.293700  0.659104  0.524171  1
  O  O28  1  0.706509  0.007508  0.142711  1
  O  O29  1  0.706836  0.007551  0.642886  1
  O  O30  1  0.708340  0.658854  0.817260  1
  O  O31  1  0.707571  0.659222  0.316856  1
  O  O32  1  0.793203  0.159593  0.316925  1
  O  O33  1  0.791283  0.159158  0.817177  1
  O  O34  1  0.793703  0.506772  0.143519  1
  O  O35  1  0.793766  0.507537  0.642593  1
