# generated using pymatgen
data_NaLa11(In2Au)4
_symmetry_space_group_name_H-M   'P 1'
_cell_length_a   14.03873490
_cell_length_b   14.03873348
_cell_length_c   3.86823500
_cell_angle_alpha   90.00000000
_cell_angle_beta   90.00000000
_cell_angle_gamma   68.32928419
_symmetry_Int_Tables_number   1
_chemical_formula_structural   NaLa11(In2Au)4
_chemical_formula_sum   'Na1 La11 In8 Au4'
_cell_volume   708.49159843
_cell_formula_units_Z   1
loop_
 _symmetry_equiv_pos_site_id
 _symmetry_equiv_pos_as_xyz
  1  'x, y, z'
loop_
 _atom_site_type_symbol
 _atom_site_label
 _atom_site_symmetry_multiplicity
 _atom_site_fract_x
 _atom_site_fract_y
 _atom_site_fract_z
 _atom_site_occupancy
  Na  Na0  1  0.500000  0.500000  0.500002  1
  La  La1  1  0.289269  0.710732  0.000000  1
  La  La2  1  0.710732  0.289269  0.000000  1
  La  La3  1  0.000000  0.000000  0.000000  1
  La  La4  1  0.417683  0.931811  0.000000  1
  La  La5  1  0.582317  0.068189  0.000000  1
  La  La6  1  0.068189  0.582317  0.000000  1
  La  La7  1  0.931811  0.417683  0.000000  1
  La  La8  1  0.160434  0.160434  0.000000  1
  La  La9  1  0.839565  0.839565  0.000000  1
  La  La10  1  0.358032  0.358032  0.000000  1
  La  La11  1  0.641968  0.641968  0.000000  1
  In  In12  1  0.364951  0.152616  0.500002  1
  In  In13  1  0.635049  0.847384  0.500002  1
  In  In14  1  0.847384  0.635049  0.500002  1
  In  In15  1  0.152616  0.364951  0.500002  1
  In  In16  1  0.215114  0.931172  0.500002  1
  In  In17  1  0.784886  0.068828  0.500002  1
  In  In18  1  0.068828  0.784886  0.500002  1
  In  In19  1  0.931172  0.215114  0.500002  1
  Au  Au20  1  0.451506  0.745136  0.500002  1
  Au  Au21  1  0.548494  0.254864  0.500002  1
  Au  Au22  1  0.254864  0.548494  0.500002  1
  Au  Au23  1  0.745136  0.451506  0.500002  1
