# generated using pymatgen
data_Pr2Zn2Ni5
_symmetry_space_group_name_H-M   'P 1'
_cell_length_a   5.20876841
_cell_length_b   5.20876794
_cell_length_c   12.44242201
_cell_angle_alpha   77.91779332
_cell_angle_beta   77.91779528
_cell_angle_gamma   60.00000443
_symmetry_Int_Tables_number   1
_chemical_formula_structural   Pr2Zn2Ni5
_chemical_formula_sum   'Pr4 Zn4 Ni10'
_cell_volume   283.68406973
_cell_formula_units_Z   2
loop_
 _symmetry_equiv_pos_site_id
 _symmetry_equiv_pos_as_xyz
  1  'x, y, z'
loop_
 _atom_site_type_symbol
 _atom_site_label
 _atom_site_symmetry_multiplicity
 _atom_site_fract_x
 _atom_site_fract_y
 _atom_site_fract_z
 _atom_site_occupancy
  Pr  Pr0  1  0.950196  0.950196  0.149412  1
  Pr  Pr1  1  0.049804  0.049804  0.850588  1
  Pr  Pr2  1  0.852506  0.852506  0.442483  1
  Pr  Pr3  1  0.147494  0.147494  0.557517  1
  Zn  Zn4  1  0.722237  0.722237  0.833287  1
  Zn  Zn5  1  0.277763  0.277763  0.166713  1
  Zn  Zn6  1  0.611863  0.611863  0.164411  1
  Zn  Zn7  1  0.388137  0.388137  0.835589  1
  Ni  Ni8  1  0.500000  0.500000  0.500000  1
  Ni  Ni9  1  0.000000  0.500000  0.000000  1
  Ni  Ni10  1  0.500000  0.000000  0.000000  1
  Ni  Ni11  1  0.500000  0.500000  0.000000  1
  Ni  Ni12  1  0.392047  0.392047  0.329767  1
  Ni  Ni13  1  0.886140  0.392047  0.329767  1
  Ni  Ni14  1  0.392047  0.886140  0.329767  1
  Ni  Ni15  1  0.607953  0.607953  0.670233  1
  Ni  Ni16  1  0.113860  0.607953  0.670233  1
  Ni  Ni17  1  0.607953  0.113860  0.670233  1
