# generated using pymatgen
data_MgSi6(Pd10Pb)2
_symmetry_space_group_name_H-M   'P 1'
_cell_length_a   8.69617658
_cell_length_b   8.69617609
_cell_length_c   8.69617600
_cell_angle_alpha   60.00000033
_cell_angle_beta   60.00000220
_cell_angle_gamma   59.99999960
_symmetry_Int_Tables_number   1
_chemical_formula_structural   MgSi6(Pd10Pb)2
_chemical_formula_sum   'Mg1 Si6 Pd20 Pb2'
_cell_volume   465.01825781
_cell_formula_units_Z   1
loop_
 _symmetry_equiv_pos_site_id
 _symmetry_equiv_pos_as_xyz
  1  'x, y, z'
loop_
 _atom_site_type_symbol
 _atom_site_label
 _atom_site_symmetry_multiplicity
 _atom_site_fract_x
 _atom_site_fract_y
 _atom_site_fract_z
 _atom_site_occupancy
  Mg  Mg0  1  0.000000  0.000000  0.000000  1
  Si  Si1  1  0.730673  0.269327  0.269327  1
  Si  Si2  1  0.269327  0.730673  0.730673  1
  Si  Si3  1  0.269327  0.730673  0.269327  1
  Si  Si4  1  0.730673  0.269327  0.730673  1
  Si  Si5  1  0.269327  0.269327  0.730673  1
  Si  Si6  1  0.730673  0.730673  0.269327  1
  Pd  Pd7  1  0.383093  0.383093  0.383093  1
  Pd  Pd8  1  0.616907  0.616907  0.616907  1
  Pd  Pd9  1  0.383093  0.383093  0.850722  1
  Pd  Pd10  1  0.383093  0.850722  0.383093  1
  Pd  Pd11  1  0.616907  0.616907  0.149278  1
  Pd  Pd12  1  0.616907  0.149278  0.616907  1
  Pd  Pd13  1  0.850722  0.383093  0.383093  1
  Pd  Pd14  1  0.149278  0.616907  0.616907  1
  Pd  Pd15  1  0.340834  0.000000  0.000000  1
  Pd  Pd16  1  0.659166  0.000000  0.000000  1
  Pd  Pd17  1  0.000000  0.340834  0.659166  1
  Pd  Pd18  1  0.000000  0.659166  0.340834  1
  Pd  Pd19  1  0.000000  0.340834  0.000000  1
  Pd  Pd20  1  0.659166  0.000000  0.340834  1
  Pd  Pd21  1  0.000000  0.659166  0.000000  1
  Pd  Pd22  1  0.340834  0.000000  0.659166  1
  Pd  Pd23  1  0.000000  0.000000  0.340834  1
  Pd  Pd24  1  0.000000  0.000000  0.659166  1
  Pd  Pd25  1  0.659166  0.340834  0.000000  1
  Pd  Pd26  1  0.340834  0.659166  0.000000  1
  Pb  Pb27  1  0.250000  0.250000  0.250000  1
  Pb  Pb28  1  0.750000  0.750000  0.750000  1
