# generated using pymatgen
data_Tb2YTm3(RuI3)2
_symmetry_space_group_name_H-M   'P 1'
_cell_length_a   4.20770500
_cell_length_b   8.87795065
_cell_length_c   12.33221423
_cell_angle_alpha   94.31550594
_cell_angle_beta   90.00000000
_cell_angle_gamma   90.00000000
_symmetry_Int_Tables_number   1
_chemical_formula_structural   Tb2YTm3(RuI3)2
_chemical_formula_sum   'Tb2 Y1 Tm3 Ru2 I6'
_cell_volume   459.37357909
_cell_formula_units_Z   1
loop_
 _symmetry_equiv_pos_site_id
 _symmetry_equiv_pos_as_xyz
  1  'x, y, z'
loop_
 _atom_site_type_symbol
 _atom_site_label
 _atom_site_symmetry_multiplicity
 _atom_site_fract_x
 _atom_site_fract_y
 _atom_site_fract_z
 _atom_site_occupancy
  Tb  Tb0  1  0.750000  0.264862  0.601308  1
  Tb  Tb1  1  0.250000  0.735080  0.397414  1
  Y  Y2  1  0.250000  0.101797  0.814889  1
  Tm  Tm3  1  0.750000  0.875332  0.624359  1
  Tm  Tm4  1  0.250000  0.124574  0.374701  1
  Tm  Tm5  1  0.750000  0.898067  0.189431  1
  Ru  Ru6  1  0.750000  0.944479  0.407783  1
  Ru  Ru7  1  0.250000  0.055317  0.591265  1
  I  I8  1  0.750000  0.421027  0.365628  1
  I  I9  1  0.250000  0.579322  0.633654  1
  I  I10  1  0.750000  0.861617  0.889133  1
  I  I11  1  0.250000  0.134561  0.110975  1
  I  I12  1  0.750000  0.356026  0.864567  1
  I  I13  1  0.250000  0.647940  0.134894  1
