# generated using pymatgen
data_Tb2Tm2GaRu7
_symmetry_space_group_name_H-M   'P 1'
_cell_length_a   5.35173002
_cell_length_b   5.35172946
_cell_length_c   8.64635300
_cell_angle_alpha   89.99805701
_cell_angle_beta   90.00194336
_cell_angle_gamma   120.00740129
_symmetry_Int_Tables_number   1
_chemical_formula_structural   Tb2Tm2GaRu7
_chemical_formula_sum   'Tb2 Tm2 Ga1 Ru7'
_cell_volume   214.44678829
_cell_formula_units_Z   1
loop_
 _symmetry_equiv_pos_site_id
 _symmetry_equiv_pos_as_xyz
  1  'x, y, z'
loop_
 _atom_site_type_symbol
 _atom_site_label
 _atom_site_symmetry_multiplicity
 _atom_site_fract_x
 _atom_site_fract_y
 _atom_site_fract_z
 _atom_site_occupancy
  Tb  Tb0  1  0.666663  0.333337  0.571213  1
  Tb  Tb1  1  0.333337  0.666663  0.428787  1
  Tm  Tm2  1  0.333340  0.666660  0.063827  1
  Tm  Tm3  1  0.666660  0.333340  0.936173  1
  Ga  Ga4  1  0.000000  0.000000  0.500000  1
  Ru  Ru5  1  0.000000  0.000000  0.000000  1
  Ru  Ru6  1  0.171474  0.342978  0.751588  1
  Ru  Ru7  1  0.171470  0.828530  0.751569  1
  Ru  Ru8  1  0.657022  0.828526  0.751588  1
  Ru  Ru9  1  0.828526  0.657022  0.248412  1
  Ru  Ru10  1  0.828530  0.171470  0.248431  1
  Ru  Ru11  1  0.342978  0.171474  0.248412  1
