# generated using pymatgen
data_Ho10GaSn4Bi
_symmetry_space_group_name_H-M   'P 1'
_cell_length_a   8.90533837
_cell_length_b   8.89424037
_cell_length_c   6.50993000
_cell_angle_alpha   90.00000000
_cell_angle_beta   90.00000000
_cell_angle_gamma   119.97762198
_symmetry_Int_Tables_number   1
_chemical_formula_structural   Ho10GaSn4Bi
_chemical_formula_sum   'Ho10 Ga1 Sn4 Bi1'
_cell_volume   446.64669638
_cell_formula_units_Z   1
loop_
 _symmetry_equiv_pos_site_id
 _symmetry_equiv_pos_as_xyz
  1  'x, y, z'
loop_
 _atom_site_type_symbol
 _atom_site_label
 _atom_site_symmetry_multiplicity
 _atom_site_fract_x
 _atom_site_fract_y
 _atom_site_fract_z
 _atom_site_occupancy
  Ho  Ho0  1  0.993790  0.752106  0.750000  1
  Ho  Ho1  1  0.000692  0.239798  0.250000  1
  Ho  Ho2  1  0.761252  0.760356  0.250000  1
  Ho  Ho3  1  0.770984  0.009956  0.750000  1
  Ho  Ho4  1  0.230110  0.246495  0.750000  1
  Ho  Ho5  1  0.237718  0.999812  0.250000  1
  Ho  Ho6  1  0.325868  0.656483  0.500430  1
  Ho  Ho7  1  0.677229  0.338605  0.999589  1
  Ho  Ho8  1  0.677229  0.338605  0.500411  1
  Ho  Ho9  1  0.325868  0.656483  0.999570  1
  Ga  Ga10  1  0.999483  0.396224  0.750000  1
  Sn  Sn11  1  0.396884  0.393069  0.250000  1
  Sn  Sn12  1  0.002037  0.606559  0.250000  1
  Sn  Sn13  1  0.604466  0.606013  0.750000  1
  Sn  Sn14  1  0.604130  0.998178  0.250000  1
  Bi  Bi15  1  0.392261  0.001258  0.750000  1
