# generated using pymatgen
data_Cs2V2Cu3Te8Au
_symmetry_space_group_name_H-M   'P 1'
_cell_length_a   5.99219000
_cell_length_b   8.45081774
_cell_length_c   20.94461401
_cell_angle_alpha   88.62296463
_cell_angle_beta   90.00000000
_cell_angle_gamma   90.00000000
_symmetry_Int_Tables_number   1
_chemical_formula_structural   Cs2V2Cu3Te8Au
_chemical_formula_sum   'Cs4 V4 Cu6 Te16 Au2'
_cell_volume   1060.30602769
_cell_formula_units_Z   2
loop_
 _symmetry_equiv_pos_site_id
 _symmetry_equiv_pos_as_xyz
  1  'x, y, z'
loop_
 _atom_site_type_symbol
 _atom_site_label
 _atom_site_symmetry_multiplicity
 _atom_site_fract_x
 _atom_site_fract_y
 _atom_site_fract_z
 _atom_site_occupancy
  Cs  Cs0  1  0.019370  0.707859  0.437868  1
  Cs  Cs1  1  0.519370  0.292141  0.562132  1
  Cs  Cs2  1  0.519296  0.790248  0.937688  1
  Cs  Cs3  1  0.019296  0.209752  0.062312  1
  V  V4  1  0.258746  0.704405  0.148733  1
  V  V5  1  0.758746  0.295595  0.851267  1
  V  V6  1  0.758503  0.792966  0.648674  1
  V  V7  1  0.258503  0.207034  0.351326  1
  Cu  Cu8  1  0.767776  0.537926  0.747360  1
  Cu  Cu9  1  0.267776  0.462074  0.252640  1
  Cu  Cu10  1  0.257346  0.787598  0.645100  1
  Cu  Cu11  1  0.757346  0.212402  0.354900  1
  Cu  Cu12  1  0.757052  0.701539  0.145529  1
  Cu  Cu13  1  0.257052  0.298461  0.854471  1
  Te  Te14  1  0.507196  0.950602  0.135126  1
  Te  Te15  1  0.007196  0.049398  0.864874  1
  Te  Te16  1  0.999744  0.542725  0.643411  1
  Te  Te17  1  0.499744  0.457275  0.356589  1
  Te  Te18  1  0.508384  0.962637  0.358681  1
  Te  Te19  1  0.008384  0.037363  0.641319  1
  Te  Te20  1  0.001439  0.543722  0.850475  1
  Te  Te21  1  0.501439  0.456278  0.149525  1
  Te  Te22  1  0.998919  0.701006  0.247777  1
  Te  Te23  1  0.498919  0.298994  0.752223  1
  Te  Te24  1  0.498367  0.776548  0.747573  1
  Te  Te25  1  0.998367  0.223452  0.252427  1
  Te  Te26  1  0.023016  0.692521  0.049044  1
  Te  Te27  1  0.523016  0.307479  0.950956  1
  Te  Te28  1  0.523498  0.804892  0.548468  1
  Te  Te29  1  0.023498  0.195108  0.451532  1
  Au  Au30  1  0.272152  0.963148  0.246892  1
  Au  Au31  1  0.772152  0.036852  0.753108  1
