# generated using pymatgen
data_La11Pr8Si16Ag
_symmetry_space_group_name_H-M   'P 1'
_cell_length_a   8.00357247
_cell_length_b   8.00357290
_cell_length_c   15.34598800
_cell_angle_alpha   89.91665751
_cell_angle_beta   90.08334250
_cell_angle_gamma   90.17299857
_symmetry_Int_Tables_number   1
_chemical_formula_structural   La11Pr8Si16Ag
_chemical_formula_sum   'La11 Pr8 Si16 Ag1'
_cell_volume   983.01409493
_cell_formula_units_Z   1
loop_
 _symmetry_equiv_pos_site_id
 _symmetry_equiv_pos_as_xyz
  1  'x, y, z'
loop_
 _atom_site_type_symbol
 _atom_site_label
 _atom_site_symmetry_multiplicity
 _atom_site_fract_x
 _atom_site_fract_y
 _atom_site_fract_z
 _atom_site_occupancy
  La  La0  1  0.307715  0.307715  0.000000  1
  La  La1  1  0.188783  0.807154  0.249805  1
  La  La2  1  0.807154  0.188783  0.750195  1
  La  La3  1  0.383714  0.003134  0.449772  1
  La  La4  1  0.493655  0.876759  0.692859  1
  La  La5  1  0.511761  0.125128  0.201426  1
  La  La6  1  0.876759  0.493655  0.307141  1
  La  La7  1  0.125128  0.511761  0.798574  1
  La  La8  1  0.622905  0.987473  0.949021  1
  La  La9  1  0.003134  0.383714  0.550228  1
  La  La10  1  0.987473  0.622905  0.050979  1
  Pr  Pr11  1  0.128273  0.983699  0.874897  1
  Pr  Pr12  1  0.519086  0.626114  0.125909  1
  Pr  Pr13  1  0.492202  0.380269  0.622788  1
  Pr  Pr14  1  0.626114  0.519086  0.874091  1
  Pr  Pr15  1  0.380269  0.492202  0.377212  1
  Pr  Pr16  1  0.867778  0.004265  0.380367  1
  Pr  Pr17  1  0.983699  0.128273  0.125103  1
  Pr  Pr18  1  0.004265  0.867778  0.619633  1
  Si  Si19  1  0.198660  0.167885  0.696378  1
  Si  Si20  1  0.332127  0.698458  0.950375  1
  Si  Si21  1  0.662879  0.291451  0.446783  1
  Si  Si22  1  0.698458  0.332127  0.049625  1
  Si  Si23  1  0.291451  0.662879  0.553217  1
  Si  Si24  1  0.802561  0.831392  0.202550  1
  Si  Si25  1  0.167885  0.198660  0.303622  1
  Si  Si26  1  0.831392  0.802561  0.797450  1
  Si  Si27  1  0.289464  0.920514  0.059400  1
  Si  Si28  1  0.578865  0.789591  0.308775  1
  Si  Si29  1  0.418773  0.212256  0.805673  1
  Si  Si30  1  0.789591  0.578865  0.691225  1
  Si  Si31  1  0.212256  0.418773  0.194327  1
  Si  Si32  1  0.715476  0.091671  0.561158  1
  Si  Si33  1  0.920514  0.289464  0.940600  1
  Si  Si34  1  0.091671  0.715476  0.438842  1
  Ag  Ag35  1  0.688111  0.688111  0.500000  1
