# generated using pymatgen
data_Er6Fe7Co16
_symmetry_space_group_name_H-M   'P 1'
_cell_length_a   8.35889352
_cell_length_b   8.35889374
_cell_length_c   8.35889400
_cell_angle_alpha   59.99999897
_cell_angle_beta   59.99999811
_cell_angle_gamma   59.99999732
_symmetry_Int_Tables_number   1
_chemical_formula_structural   Er6Fe7Co16
_chemical_formula_sum   'Er6 Fe7 Co16'
_cell_volume   412.98226254
_cell_formula_units_Z   1
loop_
 _symmetry_equiv_pos_site_id
 _symmetry_equiv_pos_as_xyz
  1  'x, y, z'
loop_
 _atom_site_type_symbol
 _atom_site_label
 _atom_site_symmetry_multiplicity
 _atom_site_fract_x
 _atom_site_fract_y
 _atom_site_fract_z
 _atom_site_occupancy
  Er  Er0  1  0.713663  0.713663  0.286337  1
  Er  Er1  1  0.286337  0.713663  0.286337  1
  Er  Er2  1  0.713663  0.286337  0.286337  1
  Er  Er3  1  0.286337  0.286337  0.713663  1
  Er  Er4  1  0.713663  0.286337  0.713663  1
  Er  Er5  1  0.286337  0.713663  0.713663  1
  Fe  Fe6  1  0.000000  0.000000  0.000000  1
  Fe  Fe7  1  0.000000  0.000000  0.500000  1
  Fe  Fe8  1  0.500000  0.000000  0.500000  1
  Fe  Fe9  1  0.000000  0.500000  0.500000  1
  Fe  Fe10  1  0.500000  0.500000  0.000000  1
  Fe  Fe11  1  0.000000  0.500000  0.000000  1
  Fe  Fe12  1  0.500000  0.000000  0.000000  1
  Co  Co13  1  0.877022  0.877022  0.368932  1
  Co  Co14  1  0.877022  0.368932  0.877022  1
  Co  Co15  1  0.368932  0.877022  0.877022  1
  Co  Co16  1  0.877022  0.877022  0.877022  1
  Co  Co17  1  0.122978  0.122978  0.631068  1
  Co  Co18  1  0.122978  0.631068  0.122978  1
  Co  Co19  1  0.631068  0.122978  0.122978  1
  Co  Co20  1  0.122978  0.122978  0.122978  1
  Co  Co21  1  0.676463  0.676463  0.970610  1
  Co  Co22  1  0.676463  0.970610  0.676463  1
  Co  Co23  1  0.970610  0.676463  0.676463  1
  Co  Co24  1  0.676463  0.676463  0.676463  1
  Co  Co25  1  0.323537  0.323537  0.029390  1
  Co  Co26  1  0.323537  0.029390  0.323537  1
  Co  Co27  1  0.029390  0.323537  0.323537  1
  Co  Co28  1  0.323537  0.323537  0.323537  1
