# generated using pymatgen
data_YTl11F20
_symmetry_space_group_name_H-M   'P 1'
_cell_length_a   6.96959192
_cell_length_b   7.46212400
_cell_length_c   11.55254700
_cell_angle_alpha   90.00000000
_cell_angle_beta   89.95744902
_cell_angle_gamma   90.00000000
_symmetry_Int_Tables_number   1
_chemical_formula_structural   YTl11F20
_chemical_formula_sum   'Y1 Tl11 F20'
_cell_volume   600.82422678
_cell_formula_units_Z   1
loop_
 _symmetry_equiv_pos_site_id
 _symmetry_equiv_pos_as_xyz
  1  'x, y, z'
loop_
 _atom_site_type_symbol
 _atom_site_label
 _atom_site_symmetry_multiplicity
 _atom_site_fract_x
 _atom_site_fract_y
 _atom_site_fract_z
 _atom_site_occupancy
  Y  Y0  1  0.942050  0.750000  0.001455  1
  Tl  Tl1  1  0.528074  0.498387  0.827635  1
  Tl  Tl2  1  0.467904  0.502413  0.172075  1
  Tl  Tl3  1  0.028843  0.502230  0.670651  1
  Tl  Tl4  1  0.467904  0.997587  0.172075  1
  Tl  Tl5  1  0.970950  0.498652  0.329469  1
  Tl  Tl6  1  0.528074  0.001613  0.827635  1
  Tl  Tl7  1  0.970950  0.001348  0.329469  1
  Tl  Tl8  1  0.028843  0.997770  0.670651  1
  Tl  Tl9  1  0.557835  0.750000  0.500875  1
  Tl  Tl10  1  0.442388  0.250000  0.498988  1
  Tl  Tl11  1  0.059093  0.250000  0.998711  1
  F  F12  1  0.849643  0.750000  0.816324  1
  F  F13  1  0.150268  0.250000  0.182166  1
  F  F14  1  0.348565  0.250000  0.682423  1
  F  F15  1  0.652377  0.750000  0.317314  1
  F  F16  1  0.379145  0.750000  0.656456  1
  F  F17  1  0.620734  0.250000  0.343829  1
  F  F18  1  0.879511  0.250000  0.844338  1
  F  F19  1  0.122714  0.750000  0.159422  1
  F  F20  1  0.877720  0.750000  0.516935  1
  F  F21  1  0.122846  0.250000  0.482542  1
  F  F22  1  0.377398  0.250000  0.982603  1
  F  F23  1  0.623219  0.750000  0.019181  1
  F  F24  1  0.646327  0.036635  0.574347  1
  F  F25  1  0.353831  0.963019  0.425936  1
  F  F26  1  0.143897  0.960963  0.926766  1
  F  F27  1  0.353831  0.536981  0.425936  1
  F  F28  1  0.857422  0.032286  0.071340  1
  F  F29  1  0.646327  0.463365  0.574347  1
  F  F30  1  0.857422  0.467714  0.071340  1
  F  F31  1  0.143897  0.539037  0.926766  1
