# generated using pymatgen
data_Zr9Zn(In7Co3)2
_symmetry_space_group_name_H-M   'P 1'
_cell_length_a   9.45911548
_cell_length_b   9.45908346
_cell_length_c   9.45904491
_cell_angle_alpha   60.28855526
_cell_angle_beta   60.28827531
_cell_angle_gamma   60.28803597
_symmetry_Int_Tables_number   1
_chemical_formula_structural   Zr9Zn(In7Co3)2
_chemical_formula_sum   'Zr9 Zn1 In14 Co6'
_cell_volume   602.35998608
_cell_formula_units_Z   1
loop_
 _symmetry_equiv_pos_site_id
 _symmetry_equiv_pos_as_xyz
  1  'x, y, z'
loop_
 _atom_site_type_symbol
 _atom_site_label
 _atom_site_symmetry_multiplicity
 _atom_site_fract_x
 _atom_site_fract_y
 _atom_site_fract_z
 _atom_site_occupancy
  Zr  Zr0  1  0.122557  0.632441  0.122555  1
  Zr  Zr1  1  0.367559  0.877442  0.877447  1
  Zr  Zr2  1  0.877223  0.877230  0.877220  1
  Zr  Zr3  1  0.632441  0.122558  0.122553  1
  Zr  Zr4  1  0.500000  0.500000  0.500000  1
  Zr  Zr5  1  0.877448  0.877445  0.367559  1
  Zr  Zr6  1  0.122777  0.122770  0.122780  1
  Zr  Zr7  1  0.877443  0.367559  0.877445  1
  Zr  Zr8  1  0.122552  0.122555  0.632441  1
  Zn  Zn9  1  0.000000  0.000000  0.000000  1
  In  In10  1  0.500000  0.841620  0.158379  1
  In  In11  1  0.499988  0.840583  0.500002  1
  In  In12  1  0.500012  0.159417  0.499998  1
  In  In13  1  0.499988  0.500002  0.840582  1
  In  In14  1  0.159419  0.500006  0.500005  1
  In  In15  1  0.841615  0.158386  0.499992  1
  In  In16  1  0.158385  0.841614  0.500008  1
  In  In17  1  0.500000  0.158380  0.841621  1
  In  In18  1  0.158384  0.500008  0.841616  1
  In  In19  1  0.500012  0.499998  0.159418  1
  In  In20  1  0.840581  0.499994  0.499995  1
  In  In21  1  0.841616  0.499992  0.158384  1
  In  In22  1  0.249986  0.249983  0.249982  1
  In  In23  1  0.750014  0.750017  0.750018  1
  Co  Co24  1  0.780587  0.780587  0.220239  1
  Co  Co25  1  0.219411  0.779763  0.219412  1
  Co  Co26  1  0.220242  0.780582  0.780581  1
  Co  Co27  1  0.219413  0.219413  0.779761  1
  Co  Co28  1  0.780589  0.220237  0.780588  1
  Co  Co29  1  0.779758  0.219418  0.219419  1
