# generated using pymatgen
data_Lu8Re3TcB24
_symmetry_space_group_name_H-M   'P 1'
_cell_length_a   3.61874800
_cell_length_b   9.06121524
_cell_length_c   11.41123131
_cell_angle_alpha   90.02652391
_cell_angle_beta   90.00000000
_cell_angle_gamma   90.00000000
_symmetry_Int_Tables_number   1
_chemical_formula_structural   Lu8Re3TcB24
_chemical_formula_sum   'Lu8 Re3 Tc1 B24'
_cell_volume   374.17713900
_cell_formula_units_Z   1
loop_
 _symmetry_equiv_pos_site_id
 _symmetry_equiv_pos_as_xyz
  1  'x, y, z'
loop_
 _atom_site_type_symbol
 _atom_site_label
 _atom_site_symmetry_multiplicity
 _atom_site_fract_x
 _atom_site_fract_y
 _atom_site_fract_z
 _atom_site_occupancy
  Lu  Lu0  1  0.000000  0.323756  0.413593  1
  Lu  Lu1  1  0.000000  0.676740  0.586029  1
  Lu  Lu2  1  0.000000  0.823239  0.086359  1
  Lu  Lu3  1  0.000000  0.176815  0.913772  1
  Lu  Lu4  1  0.000000  0.942712  0.370293  1
  Lu  Lu5  1  0.000000  0.056175  0.629298  1
  Lu  Lu6  1  0.000000  0.444355  0.130114  1
  Lu  Lu7  1  0.000000  0.556244  0.870708  1
  Re  Re8  1  0.000000  0.360771  0.679319  1
  Re  Re9  1  0.000000  0.139311  0.179467  1
  Re  Re10  1  0.000000  0.860771  0.820632  1
  Tc  Tc11  1  0.000000  0.639400  0.320545  1
  B  B12  1  0.500000  0.553298  0.433478  1
  B  B13  1  0.500000  0.446974  0.566163  1
  B  B14  1  0.500000  0.053201  0.066302  1
  B  B15  1  0.500000  0.946961  0.933698  1
  B  B16  1  0.500000  0.750279  0.419621  1
  B  B17  1  0.500000  0.249230  0.580128  1
  B  B18  1  0.500000  0.250889  0.080271  1
  B  B19  1  0.500000  0.749314  0.919813  1
  B  B20  1  0.500000  0.793308  0.264831  1
  B  B21  1  0.500000  0.206313  0.734991  1
  B  B22  1  0.500000  0.293729  0.235266  1
  B  B23  1  0.500000  0.706309  0.764915  1
  B  B24  1  0.500000  0.631054  0.184530  1
  B  B25  1  0.500000  0.369181  0.815627  1
  B  B26  1  0.500000  0.130654  0.315701  1
  B  B27  1  0.500000  0.869100  0.684292  1
  B  B28  1  0.500000  0.980950  0.212012  1
  B  B29  1  0.500000  0.018909  0.787877  1
  B  B30  1  0.500000  0.481466  0.288100  1
  B  B31  1  0.500000  0.518914  0.712093  1
  B  B32  1  0.500000  0.599531  0.027887  1
  B  B33  1  0.500000  0.400728  0.972525  1
  B  B34  1  0.500000  0.099033  0.472125  1
  B  B35  1  0.500000  0.900387  0.527626  1
