# generated using pymatgen
data_HfZr3(GeH)2
_symmetry_space_group_name_H-M   'P 1'
_cell_length_a   5.48171818
_cell_length_b   5.48170918
_cell_length_c   5.47161075
_cell_angle_alpha   105.17390097
_cell_angle_beta   105.17381869
_cell_angle_gamma   118.52129674
_symmetry_Int_Tables_number   1
_chemical_formula_structural   HfZr3(GeH)2
_chemical_formula_sum   'Hf1 Zr3 Ge2 H2'
_cell_volume   124.08402030
_cell_formula_units_Z   1
loop_
 _symmetry_equiv_pos_site_id
 _symmetry_equiv_pos_as_xyz
  1  'x, y, z'
loop_
 _atom_site_type_symbol
 _atom_site_label
 _atom_site_symmetry_multiplicity
 _atom_site_fract_x
 _atom_site_fract_y
 _atom_site_fract_z
 _atom_site_occupancy
  Hf  Hf0  1  0.661714  0.838287  0.500000  1
  Zr  Zr1  1  0.161087  0.662397  0.823515  1
  Zr  Zr2  1  0.837603  0.338914  0.176485  1
  Zr  Zr3  1  0.337894  0.162106  0.500000  1
  Ge  Ge4  1  0.249219  0.250781  0.000001  1
  Ge  Ge5  1  0.749194  0.750804  0.999999  1
  H  H6  1  0.748272  0.244983  0.499978  1
  H  H7  1  0.255018  0.751728  0.500022  1
