# generated using pymatgen
data_La5Nd5(Cd2Ru3)2
_symmetry_space_group_name_H-M   'P 1'
_cell_length_a   8.74401686
_cell_length_b   8.74401732
_cell_length_c   8.68360314
_cell_angle_alpha   109.58613058
_cell_angle_beta   109.51235550
_cell_angle_gamma   109.59626910
_symmetry_Int_Tables_number   1
_chemical_formula_structural   La5Nd5(Cd2Ru3)2
_chemical_formula_sum   'La5 Nd5 Cd4 Ru6'
_cell_volume   509.31218821
_cell_formula_units_Z   1
loop_
 _symmetry_equiv_pos_site_id
 _symmetry_equiv_pos_as_xyz
  1  'x, y, z'
loop_
 _atom_site_type_symbol
 _atom_site_label
 _atom_site_symmetry_multiplicity
 _atom_site_fract_x
 _atom_site_fract_y
 _atom_site_fract_z
 _atom_site_occupancy
  La  La0  1  0.813374  0.063374  0.750000  1
  La  La1  1  0.211589  0.210642  0.210046  1
  La  La2  1  0.500598  0.001543  0.289954  1
  La  La3  1  0.288654  0.500144  0.000422  1
  La  La4  1  0.999721  0.288232  0.499579  1
  Nd  Nd5  1  0.249423  0.681938  0.432270  1
  Nd  Nd6  1  0.749669  0.817155  0.067731  1
  Nd  Nd7  1  0.431671  0.249993  0.682874  1
  Nd  Nd8  1  0.682850  0.432851  0.250000  1
  Nd  Nd9  1  0.067119  0.748796  0.817126  1
  Cd  Cd10  1  0.498054  0.998749  0.907192  1
  Cd  Cd11  1  0.591557  0.590860  0.592808  1
  Cd  Cd12  1  0.905965  0.502148  0.000259  1
  Cd  Cd13  1  0.001888  0.905706  0.499742  1
  Ru  Ru14  1  0.254081  0.144161  0.895149  1
  Ru  Ru15  1  0.749012  0.358930  0.604850  1
  Ru  Ru16  1  0.891770  0.247178  0.134705  1
  Ru  Ru17  1  0.143237  0.893237  0.250001  1
  Ru  Ru18  1  0.612471  0.757065  0.365294  1
  Ru  Ru19  1  0.357299  0.607299  0.750000  1
