# generated using pymatgen
data_Lu4Sc2B4Ir9Ru
_symmetry_space_group_name_H-M   'P 1'
_cell_length_a   3.12175500
_cell_length_b   9.73052944
_cell_length_c   9.73052904
_cell_angle_alpha   90.40536798
_cell_angle_beta   90.00000000
_cell_angle_gamma   90.00000000
_symmetry_Int_Tables_number   1
_chemical_formula_structural   Lu4Sc2B4Ir9Ru
_chemical_formula_sum   'Lu4 Sc2 B4 Ir9 Ru1'
_cell_volume   295.57035326
_cell_formula_units_Z   1
loop_
 _symmetry_equiv_pos_site_id
 _symmetry_equiv_pos_as_xyz
  1  'x, y, z'
loop_
 _atom_site_type_symbol
 _atom_site_label
 _atom_site_symmetry_multiplicity
 _atom_site_fract_x
 _atom_site_fract_y
 _atom_site_fract_z
 _atom_site_occupancy
  Lu  Lu0  1  0.000000  0.173640  0.673640  1
  Lu  Lu1  1  0.000000  0.826360  0.326360  1
  Lu  Lu2  1  0.000000  0.322786  0.177214  1
  Lu  Lu3  1  0.000000  0.677214  0.822786  1
  Sc  Sc4  1  0.000000  0.000000  0.000000  1
  Sc  Sc5  1  0.000000  0.500000  0.500000  1
  B  B6  1  0.000000  0.622107  0.122107  1
  B  B7  1  0.000000  0.377893  0.877893  1
  B  B8  1  0.000000  0.881145  0.618855  1
  B  B9  1  0.000000  0.118855  0.381145  1
  Ir  Ir10  1  0.500000  0.070556  0.223080  1
  Ir  Ir11  1  0.500000  0.929444  0.776920  1
  Ir  Ir12  1  0.500000  0.776375  0.070519  1
  Ir  Ir13  1  0.500000  0.429481  0.723625  1
  Ir  Ir14  1  0.500000  0.223625  0.929481  1
  Ir  Ir15  1  0.500000  0.570519  0.276375  1
  Ir  Ir16  1  0.500000  0.723080  0.570556  1
  Ir  Ir17  1  0.500000  0.276920  0.429444  1
  Ir  Ir18  1  0.500000  0.500000  0.000000  1
  Ru  Ru19  1  0.500000  0.000000  0.500000  1
