# generated using pymatgen
data_La4Mg2Si3Ge
_symmetry_space_group_name_H-M   'P 1'
_cell_length_a   7.54126354
_cell_length_b   7.54126354
_cell_length_c   4.49273600
_cell_angle_alpha   90.00000000
_cell_angle_beta   90.00000000
_cell_angle_gamma   89.80838752
_symmetry_Int_Tables_number   1
_chemical_formula_structural   La4Mg2Si3Ge
_chemical_formula_sum   'La4 Mg2 Si3 Ge1'
_cell_volume   255.50341396
_cell_formula_units_Z   1
loop_
 _symmetry_equiv_pos_site_id
 _symmetry_equiv_pos_as_xyz
  1  'x, y, z'
loop_
 _atom_site_type_symbol
 _atom_site_label
 _atom_site_symmetry_multiplicity
 _atom_site_fract_x
 _atom_site_fract_y
 _atom_site_fract_z
 _atom_site_occupancy
  La  La0  1  0.679537  0.179537  0.500000  1
  La  La1  1  0.321639  0.821639  0.500000  1
  La  La2  1  0.179976  0.318733  0.500000  1
  La  La3  1  0.818733  0.679976  0.500000  1
  Mg  Mg4  1  0.999164  0.001722  0.000000  1
  Mg  Mg5  1  0.501722  0.499164  0.000000  1
  Si  Si6  1  0.883187  0.383187  0.000000  1
  Si  Si7  1  0.613564  0.886453  0.000000  1
  Si  Si8  1  0.386453  0.113564  0.000000  1
  Ge  Ge9  1  0.116026  0.616026  0.000000  1
