# generated using pymatgen
data_Eu5Np3O14
_symmetry_space_group_name_H-M   'P 1'
_cell_length_a   8.04456195
_cell_length_b   7.94923177
_cell_length_c   8.04456300
_cell_angle_alpha   59.60249588
_cell_angle_beta   59.99999981
_cell_angle_gamma   59.60249595
_symmetry_Int_Tables_number   1
_chemical_formula_structural   Eu5Np3O14
_chemical_formula_sum   'Eu5 Np3 O14'
_cell_volume   361.55915332
_cell_formula_units_Z   1
loop_
 _symmetry_equiv_pos_site_id
 _symmetry_equiv_pos_as_xyz
  1  'x, y, z'
loop_
 _atom_site_type_symbol
 _atom_site_label
 _atom_site_symmetry_multiplicity
 _atom_site_fract_x
 _atom_site_fract_y
 _atom_site_fract_z
 _atom_site_occupancy
  Eu  Eu0  1  0.125000  0.625000  0.125000  1
  Eu  Eu1  1  0.125000  0.125000  0.625000  1
  Eu  Eu2  1  0.625000  0.125000  0.125000  1
  Eu  Eu3  1  0.125000  0.125000  0.125000  1
  Eu  Eu4  1  0.625000  0.125000  0.625000  1
  Np  Np5  1  0.625000  0.625000  0.625000  1
  Np  Np6  1  0.125000  0.625000  0.625000  1
  Np  Np7  1  0.625000  0.625000  0.125000  1
  O  O8  1  0.305062  0.676709  0.713168  1
  O  O9  1  0.534852  0.941715  0.988579  1
  O  O10  1  0.713168  0.676709  0.305062  1
  O  O11  1  0.261421  0.308285  0.715148  1
  O  O12  1  0.000796  0.997615  0.000796  1
  O  O13  1  0.305062  0.676709  0.305062  1
  O  O14  1  0.715148  0.308285  0.715148  1
  O  O15  1  0.944938  0.573291  0.944938  1
  O  O16  1  0.536832  0.573291  0.944938  1
  O  O17  1  0.988579  0.941715  0.534852  1
  O  O18  1  0.249204  0.252385  0.249204  1
  O  O19  1  0.534852  0.941715  0.534852  1
  O  O20  1  0.715148  0.308285  0.261421  1
  O  O21  1  0.944938  0.573291  0.536832  1
