# generated using pymatgen
data_SmHo9(In2Pt)4
_symmetry_space_group_name_H-M   'P 1'
_cell_length_a   3.61620700
_cell_length_b   8.15842309
_cell_length_c   18.26550601
_cell_angle_alpha   90.10006680
_cell_angle_beta   90.00000000
_cell_angle_gamma   90.00000000
_symmetry_Int_Tables_number   1
_chemical_formula_structural   SmHo9(In2Pt)4
_chemical_formula_sum   'Sm1 Ho9 In8 Pt4'
_cell_volume   538.87812199
_cell_formula_units_Z   1
loop_
 _symmetry_equiv_pos_site_id
 _symmetry_equiv_pos_as_xyz
  1  'x, y, z'
loop_
 _atom_site_type_symbol
 _atom_site_label
 _atom_site_symmetry_multiplicity
 _atom_site_fract_x
 _atom_site_fract_y
 _atom_site_fract_z
 _atom_site_occupancy
  Sm  Sm0  1  0.000000  0.500000  0.500000  1
  Ho  Ho1  1  0.000000  0.117351  0.414360  1
  Ho  Ho2  1  0.000000  0.882649  0.585640  1
  Ho  Ho3  1  0.000000  0.383574  0.914566  1
  Ho  Ho4  1  0.000000  0.616426  0.085434  1
  Ho  Ho5  1  0.000000  0.242760  0.219783  1
  Ho  Ho6  1  0.000000  0.757240  0.780217  1
  Ho  Ho7  1  0.000000  0.257106  0.720182  1
  Ho  Ho8  1  0.000000  0.742894  0.279818  1
  Ho  Ho9  1  0.000000  0.000000  0.000000  1
  In  In10  1  0.500000  0.422464  0.349785  1
  In  In11  1  0.500000  0.577536  0.650215  1
  In  In12  1  0.500000  0.076698  0.851343  1
  In  In13  1  0.500000  0.923302  0.148657  1
  In  In14  1  0.500000  0.292032  0.066618  1
  In  In15  1  0.500000  0.707968  0.933382  1
  In  In16  1  0.500000  0.204999  0.567462  1
  In  In17  1  0.500000  0.795001  0.432538  1
  Pt  Pt18  1  0.500000  0.025032  0.303296  1
  Pt  Pt19  1  0.500000  0.974968  0.696704  1
  Pt  Pt20  1  0.500000  0.474796  0.803411  1
  Pt  Pt21  1  0.500000  0.525204  0.196589  1
