# generated using pymatgen
data_Ta15Ti9AsP7
_symmetry_space_group_name_H-M   'P 1'
_cell_length_a   7.61410310
_cell_length_b   7.62531583
_cell_length_c   14.23156039
_cell_angle_alpha   89.38751702
_cell_angle_beta   89.45368297
_cell_angle_gamma   38.83957093
_symmetry_Int_Tables_number   1
_chemical_formula_structural   Ta15Ti9AsP7
_chemical_formula_sum   'Ta15 Ti9 As1 P7'
_cell_volume   518.16647375
_cell_formula_units_Z   1
loop_
 _symmetry_equiv_pos_site_id
 _symmetry_equiv_pos_as_xyz
  1  'x, y, z'
loop_
 _atom_site_type_symbol
 _atom_site_label
 _atom_site_symmetry_multiplicity
 _atom_site_fract_x
 _atom_site_fract_y
 _atom_site_fract_z
 _atom_site_occupancy
  Ta  Ta0  1  0.009934  0.520386  0.300417  1
  Ta  Ta1  1  0.519644  0.011315  0.799628  1
  Ta  Ta2  1  0.987895  0.479818  0.699643  1
  Ta  Ta3  1  0.804154  0.296103  0.985462  1
  Ta  Ta4  1  0.705461  0.192194  0.515253  1
  Ta  Ta5  1  0.191226  0.708900  0.012491  1
  Ta  Ta6  1  0.293857  0.808638  0.485865  1
  Ta  Ta7  1  0.888900  0.422082  0.492511  1
  Ta  Ta8  1  0.579491  0.105811  0.005225  1
  Ta  Ta9  1  0.109128  0.578339  0.507957  1
  Ta  Ta10  1  0.421937  0.890727  0.991727  1
  Ta  Ta11  1  0.021670  0.495509  0.906095  1
  Ta  Ta12  1  0.504250  0.978554  0.593226  1
  Ta  Ta13  1  0.973243  0.505063  0.093922  1
  Ta  Ta14  1  0.493008  0.024373  0.404964  1
  Ti  Ti15  1  0.576834  0.550251  0.168403  1
  Ti  Ti16  1  0.455184  0.432854  0.338197  1
  Ti  Ti17  1  0.428328  0.453886  0.832356  1
  Ti  Ti18  1  0.545815  0.571164  0.666632  1
  Ti  Ti19  1  0.065785  0.095013  0.311443  1
  Ti  Ti20  1  0.907530  0.934585  0.189274  1
  Ti  Ti21  1  0.934402  0.905655  0.687731  1
  Ti  Ti22  1  0.094294  0.064716  0.811734  1
  Ti  Ti23  1  0.480988  0.981719  0.199723  1
  As  As24  1  0.365456  0.397870  0.168024  1
  P  P25  1  0.069291  0.103988  0.633313  1
  P  P26  1  0.896455  0.930012  0.865622  1
  P  P27  1  0.928371  0.897326  0.366906  1
  P  P28  1  0.106783  0.065991  0.132528  1
  P  P29  1  0.403893  0.358375  0.666386  1
  P  P30  1  0.642249  0.594328  0.833048  1
  P  P31  1  0.594544  0.644455  0.334295  1
