# generated using pymatgen
data_TlV3O9
_symmetry_space_group_name_H-M   'P 1'
_cell_length_a   8.42053558
_cell_length_b   8.42053537
_cell_length_c   10.79254800
_cell_angle_alpha   57.68608752
_cell_angle_beta   57.68608038
_cell_angle_gamma   51.85644807
_symmetry_Int_Tables_number   1
_chemical_formula_structural   TlV3O9
_chemical_formula_sum   'Tl2 V6 O18'
_cell_volume   483.98954109
_cell_formula_units_Z   2
loop_
 _symmetry_equiv_pos_site_id
 _symmetry_equiv_pos_as_xyz
  1  'x, y, z'
loop_
 _atom_site_type_symbol
 _atom_site_label
 _atom_site_symmetry_multiplicity
 _atom_site_fract_x
 _atom_site_fract_y
 _atom_site_fract_z
 _atom_site_occupancy
  Tl  Tl0  1  0.201977  0.685941  0.753745  1
  Tl  Tl1  1  0.685941  0.201977  0.253745  1
  V  V2  1  0.199056  0.412194  0.579366  1
  V  V3  1  0.656761  0.741221  0.998674  1
  V  V4  1  0.179397  0.982684  0.926311  1
  V  V5  1  0.412194  0.199056  0.079366  1
  V  V6  1  0.741221  0.656761  0.498674  1
  V  V7  1  0.982684  0.179397  0.426311  1
  O  O8  1  0.199209  0.170235  0.251520  1
  O  O9  1  0.361165  0.318359  0.426950  1
  O  O10  1  0.938688  0.601135  0.556904  1
  O  O11  1  0.445439  0.840207  0.934450  1
  O  O12  1  0.526703  0.295505  0.093043  1
  O  O13  1  0.318359  0.361165  0.926950  1
  O  O14  1  0.887484  0.693218  0.852320  1
  O  O15  1  0.826523  0.121343  0.421214  1
  O  O16  1  0.295505  0.526703  0.593043  1
  O  O17  1  0.005645  0.075172  0.079151  1
  O  O18  1  0.672643  0.518896  0.151253  1
  O  O19  1  0.693218  0.887484  0.352320  1
  O  O20  1  0.121343  0.826523  0.921214  1
  O  O21  1  0.518896  0.672643  0.651253  1
  O  O22  1  0.170235  0.199209  0.751520  1
  O  O23  1  0.075172  0.005645  0.579151  1
  O  O24  1  0.840207  0.445439  0.434450  1
  O  O25  1  0.601135  0.938688  0.056904  1
