# generated using pymatgen
data_PrNdSm2(Mo2O7)2
_symmetry_space_group_name_H-M   'P 1'
_cell_length_a   7.49970641
_cell_length_b   7.50166050
_cell_length_c   7.49966213
_cell_angle_alpha   119.95158294
_cell_angle_beta   119.91750703
_cell_angle_gamma   90.11224177
_symmetry_Int_Tables_number   1
_chemical_formula_structural   PrNdSm2(Mo2O7)2
_chemical_formula_sum   'Pr1 Nd1 Sm2 Mo4 O14'
_cell_volume   298.64916005
_cell_formula_units_Z   1
loop_
 _symmetry_equiv_pos_site_id
 _symmetry_equiv_pos_as_xyz
  1  'x, y, z'
loop_
 _atom_site_type_symbol
 _atom_site_label
 _atom_site_symmetry_multiplicity
 _atom_site_fract_x
 _atom_site_fract_y
 _atom_site_fract_z
 _atom_site_occupancy
  Pr  Pr0  1  0.375000  0.625000  0.750000  1
  Nd  Nd1  1  0.375000  0.125000  0.750000  1
  Sm  Sm2  1  0.375000  0.625000  0.250000  1
  Sm  Sm3  1  0.875000  0.625000  0.250000  1
  Mo  Mo4  1  0.875000  0.625000  0.750000  1
  Mo  Mo5  1  0.375000  0.125000  0.250000  1
  Mo  Mo6  1  0.875000  0.125000  0.250000  1
  Mo  Mo7  1  0.875000  0.125000  0.750000  1
  O  O8  1  0.783766  0.202759  0.998442  1
  O  O9  1  0.544763  0.464880  0.494690  1
  O  O10  1  0.208388  0.209813  0.000594  1
  O  O11  1  0.956889  0.459224  0.498872  1
  O  O12  1  0.798425  0.794876  0.579580  1
  O  O13  1  0.535872  0.034334  0.081620  1
  O  O14  1  0.246432  0.748178  0.493077  1
  O  O15  1  0.951575  0.455124  0.920420  1
  O  O16  1  0.966234  0.047241  0.501558  1
  O  O17  1  0.541612  0.040187  0.499406  1
  O  O18  1  0.214128  0.215666  0.418380  1
  O  O19  1  0.503568  0.501822  0.006923  1
  O  O20  1  0.793111  0.790776  0.001128  1
  O  O21  1  0.205237  0.785120  0.005310  1
