# generated using pymatgen
data_Ho4NbCrOs6
_symmetry_space_group_name_H-M   'P 1'
_cell_length_a   5.22976059
_cell_length_b   5.22975988
_cell_length_c   8.92698100
_cell_angle_alpha   90.00000000
_cell_angle_beta   90.00000000
_cell_angle_gamma   116.20042970
_symmetry_Int_Tables_number   1
_chemical_formula_structural   Ho4NbCrOs6
_chemical_formula_sum   'Ho4 Nb1 Cr1 Os6'
_cell_volume   219.07059232
_cell_formula_units_Z   1
loop_
 _symmetry_equiv_pos_site_id
 _symmetry_equiv_pos_as_xyz
  1  'x, y, z'
loop_
 _atom_site_type_symbol
 _atom_site_label
 _atom_site_symmetry_multiplicity
 _atom_site_fract_x
 _atom_site_fract_y
 _atom_site_fract_z
 _atom_site_occupancy
  Ho  Ho0  1  0.328231  0.671769  0.439853  1
  Ho  Ho1  1  0.667825  0.332175  0.568807  1
  Ho  Ho2  1  0.667825  0.332175  0.931193  1
  Ho  Ho3  1  0.328231  0.671769  0.060147  1
  Nb  Nb4  1  0.840255  0.159745  0.250000  1
  Cr  Cr5  1  0.167988  0.832012  0.750000  1
  Os  Os6  1  0.003896  0.996104  0.510349  1
  Os  Os7  1  0.003896  0.996104  0.989651  1
  Os  Os8  1  0.822703  0.652780  0.250000  1
  Os  Os9  1  0.347220  0.177297  0.250000  1
  Os  Os10  1  0.174068  0.352137  0.750000  1
  Os  Os11  1  0.647863  0.825932  0.750000  1
