# generated using pymatgen
data_NaCu5F12
_symmetry_space_group_name_H-M   'P 1'
_cell_length_a   4.80582413
_cell_length_b   4.80582397
_cell_length_c   9.34283200
_cell_angle_alpha   90.00000000
_cell_angle_beta   90.00000000
_cell_angle_gamma   91.35736630
_symmetry_Int_Tables_number   1
_chemical_formula_structural   NaCu5F12
_chemical_formula_sum   'Na1 Cu5 F12'
_cell_volume   215.72098231
_cell_formula_units_Z   1
loop_
 _symmetry_equiv_pos_site_id
 _symmetry_equiv_pos_as_xyz
  1  'x, y, z'
loop_
 _atom_site_type_symbol
 _atom_site_label
 _atom_site_symmetry_multiplicity
 _atom_site_fract_x
 _atom_site_fract_y
 _atom_site_fract_z
 _atom_site_occupancy
  Na  Na0  1  0.000000  0.000000  0.000000  1
  Cu  Cu1  1  0.000000  0.000000  0.334985  1
  Cu  Cu2  1  0.000000  0.000000  0.665015  1
  Cu  Cu3  1  0.500000  0.500000  0.169585  1
  Cu  Cu4  1  0.500000  0.500000  0.500000  1
  Cu  Cu5  1  0.500000  0.500000  0.830415  1
  F  F6  1  0.191090  0.191090  0.500000  1
  F  F7  1  0.205131  0.205131  0.187894  1
  F  F8  1  0.205131  0.205131  0.812106  1
  F  F9  1  0.690938  0.309062  0.337912  1
  F  F10  1  0.690938  0.309062  0.662088  1
  F  F11  1  0.676928  0.323072  0.000000  1
  F  F12  1  0.323072  0.676928  0.000000  1
  F  F13  1  0.309062  0.690938  0.337912  1
  F  F14  1  0.309062  0.690938  0.662088  1
  F  F15  1  0.794869  0.794869  0.187894  1
  F  F16  1  0.794869  0.794869  0.812106  1
  F  F17  1  0.808910  0.808910  0.500000  1
