# generated using pymatgen
data_Tb6Dy4(GaSb)3
_symmetry_space_group_name_H-M   'P 1'
_cell_length_a   8.81780100
_cell_length_b   8.81606384
_cell_length_c   6.49030300
_cell_angle_alpha   90.00000000
_cell_angle_beta   90.00000000
_cell_angle_gamma   120.00651464
_symmetry_Int_Tables_number   1
_chemical_formula_structural   Tb6Dy4(GaSb)3
_chemical_formula_sum   'Tb6 Dy4 Ga3 Sb3'
_cell_volume   436.92018687
_cell_formula_units_Z   1
loop_
 _symmetry_equiv_pos_site_id
 _symmetry_equiv_pos_as_xyz
  1  'x, y, z'
loop_
 _atom_site_type_symbol
 _atom_site_label
 _atom_site_symmetry_multiplicity
 _atom_site_fract_x
 _atom_site_fract_y
 _atom_site_fract_z
 _atom_site_occupancy
  Tb  Tb0  1  0.010391  0.767695  0.750000  1
  Tb  Tb1  1  0.012013  0.248922  0.250000  1
  Tb  Tb2  1  0.763091  0.751078  0.250000  1
  Tb  Tb3  1  0.754588  0.000000  0.750000  1
  Tb  Tb4  1  0.242696  0.232305  0.750000  1
  Tb  Tb5  1  0.235874  0.000000  0.250000  1
  Dy  Dy6  1  0.327341  0.666736  0.497536  1
  Dy  Dy7  1  0.660607  0.333264  0.002464  1
  Dy  Dy8  1  0.660607  0.333264  0.497536  1
  Dy  Dy9  1  0.327341  0.666736  0.002464  1
  Ga  Ga10  1  0.397945  0.000000  0.750000  1
  Ga  Ga11  1  0.395749  0.396376  0.250000  1
  Ga  Ga12  1  0.999373  0.603624  0.250000  1
  Sb  Sb13  1  0.997586  0.392704  0.750000  1
  Sb  Sb14  1  0.604882  0.607296  0.750000  1
  Sb  Sb15  1  0.609916  0.000000  0.250000  1
