# generated using pymatgen
data_TbHoBeSiI2
_symmetry_space_group_name_H-M   'P 1'
_cell_length_a   3.97012600
_cell_length_b   3.97012552
_cell_length_c   11.78402400
_cell_angle_alpha   90.00000000
_cell_angle_beta   90.00000000
_cell_angle_gamma   119.99998730
_symmetry_Int_Tables_number   1
_chemical_formula_structural   TbHoBeSiI2
_chemical_formula_sum   'Tb1 Ho1 Be1 Si1 I2'
_cell_volume   160.85435884
_cell_formula_units_Z   1
loop_
 _symmetry_equiv_pos_site_id
 _symmetry_equiv_pos_as_xyz
  1  'x, y, z'
loop_
 _atom_site_type_symbol
 _atom_site_label
 _atom_site_symmetry_multiplicity
 _atom_site_fract_x
 _atom_site_fract_y
 _atom_site_fract_z
 _atom_site_occupancy
  Tb  Tb0  1  0.000000  0.000000  0.834301  1
  Ho  Ho1  1  0.000000  0.000000  0.163777  1
  Be  Be2  1  0.333333  0.666667  0.011450  1
  Si  Si3  1  0.666667  0.333333  0.992830  1
  I  I4  1  0.333333  0.666667  0.657288  1
  I  I5  1  0.666667  0.333333  0.340354  1
