# generated using pymatgen
data_Cs2Al(WO4)3
_symmetry_space_group_name_H-M   'P 1'
_cell_length_a   7.24522750
_cell_length_b   7.24522817
_cell_length_c   7.24522831
_cell_angle_alpha   61.28219831
_cell_angle_beta   61.28219265
_cell_angle_gamma   61.28220283
_symmetry_Int_Tables_number   1
_chemical_formula_structural   Cs2Al(WO4)3
_chemical_formula_sum   'Cs2 Al1 W3 O12'
_cell_volume   276.68331592
_cell_formula_units_Z   1
loop_
 _symmetry_equiv_pos_site_id
 _symmetry_equiv_pos_as_xyz
  1  'x, y, z'
loop_
 _atom_site_type_symbol
 _atom_site_label
 _atom_site_symmetry_multiplicity
 _atom_site_fract_x
 _atom_site_fract_y
 _atom_site_fract_z
 _atom_site_occupancy
  Cs  Cs0  1  0.631463  0.631463  0.631463  1
  Cs  Cs1  1  0.368537  0.368537  0.368537  1
  Al  Al2  1  0.000000  0.000000  0.000000  1
  W  W3  1  0.500000  0.000000  0.000000  1
  W  W4  1  0.000000  0.000000  0.500000  1
  W  W5  1  0.000000  0.500000  0.000000  1
  O  O6  1  0.943059  0.316157  0.316157  1
  O  O7  1  0.303303  0.944520  0.944520  1
  O  O8  1  0.316157  0.316157  0.943059  1
  O  O9  1  0.944520  0.944520  0.303303  1
  O  O10  1  0.944520  0.303303  0.944520  1
  O  O11  1  0.316157  0.943059  0.316157  1
  O  O12  1  0.056941  0.683843  0.683843  1
  O  O13  1  0.696697  0.055480  0.055480  1
  O  O14  1  0.683843  0.683843  0.056941  1
  O  O15  1  0.055480  0.055480  0.696697  1
  O  O16  1  0.055480  0.696697  0.055480  1
  O  O17  1  0.683843  0.056941  0.683843  1
