# generated using pymatgen
data_Tb6Ho4Si5Pb
_symmetry_space_group_name_H-M   'P 1'
_cell_length_a   8.54228200
_cell_length_b   8.57531068
_cell_length_c   6.41780700
_cell_angle_alpha   90.00000000
_cell_angle_beta   90.00000000
_cell_angle_gamma   119.87267163
_symmetry_Int_Tables_number   1
_chemical_formula_structural   Tb6Ho4Si5Pb
_chemical_formula_sum   'Tb6 Ho4 Si5 Pb1'
_cell_volume   407.65881961
_cell_formula_units_Z   1
loop_
 _symmetry_equiv_pos_site_id
 _symmetry_equiv_pos_as_xyz
  1  'x, y, z'
loop_
 _atom_site_type_symbol
 _atom_site_label
 _atom_site_symmetry_multiplicity
 _atom_site_fract_x
 _atom_site_fract_y
 _atom_site_fract_z
 _atom_site_occupancy
  Tb  Tb0  1  0.987763  0.746757  0.750000  1
  Tb  Tb1  1  0.998455  0.243262  0.250000  1
  Tb  Tb2  1  0.755192  0.756738  0.250000  1
  Tb  Tb3  1  0.766384  0.000000  0.750000  1
  Tb  Tb4  1  0.241006  0.253243  0.750000  1
  Tb  Tb5  1  0.241057  0.000000  0.250000  1
  Ho  Ho6  1  0.331163  0.656074  0.496186  1
  Ho  Ho7  1  0.675088  0.343926  0.003814  1
  Ho  Ho8  1  0.675088  0.343926  0.496186  1
  Ho  Ho9  1  0.331163  0.656074  0.003814  1
  Si  Si10  1  0.394323  0.392612  0.250000  1
  Si  Si11  1  0.001709  0.607388  0.250000  1
  Si  Si12  1  0.998285  0.395068  0.750000  1
  Si  Si13  1  0.603218  0.604932  0.750000  1
  Si  Si14  1  0.605175  0.000000  0.250000  1
  Pb  Pb15  1  0.394932  0.000000  0.750000  1
