# generated using pymatgen
data_Tm20Ru11Se
_symmetry_space_group_name_H-M   'P 1'
_cell_length_a   10.72760541
_cell_length_b   10.72760488
_cell_length_c   6.31303634
_cell_angle_alpha   89.99258451
_cell_angle_beta   89.99258822
_cell_angle_gamma   89.56658813
_symmetry_Int_Tables_number   1
_chemical_formula_structural   Tm20Ru11Se
_chemical_formula_sum   'Tm20 Ru11 Se1'
_cell_volume   726.49296994
_cell_formula_units_Z   1
loop_
 _symmetry_equiv_pos_site_id
 _symmetry_equiv_pos_as_xyz
  1  'x, y, z'
loop_
 _atom_site_type_symbol
 _atom_site_label
 _atom_site_symmetry_multiplicity
 _atom_site_fract_x
 _atom_site_fract_y
 _atom_site_fract_z
 _atom_site_occupancy
  Tm  Tm0  1  0.291809  0.086296  0.376387  1
  Tm  Tm1  1  0.292098  0.922961  0.874336  1
  Tm  Tm2  1  0.709326  0.087093  0.876145  1
  Tm  Tm3  1  0.709018  0.914030  0.377406  1
  Tm  Tm4  1  0.595040  0.796739  0.877249  1
  Tm  Tm5  1  0.586688  0.205714  0.372690  1
  Tm  Tm6  1  0.417033  0.798878  0.369208  1
  Tm  Tm7  1  0.414162  0.210104  0.874509  1
  Tm  Tm8  1  0.203261  0.404960  0.622751  1
  Tm  Tm9  1  0.201122  0.582967  0.130792  1
  Tm  Tm10  1  0.794286  0.413312  0.127310  1
  Tm  Tm11  1  0.789896  0.585838  0.625491  1
  Tm  Tm12  1  0.913704  0.708191  0.123613  1
  Tm  Tm13  1  0.912907  0.290674  0.623855  1
  Tm  Tm14  1  0.077039  0.707902  0.625664  1
  Tm  Tm15  1  0.085970  0.290982  0.122594  1
  Tm  Tm16  1  0.000432  0.000060  0.499476  1
  Tm  Tm17  1  0.999940  0.999568  0.000524  1
  Tm  Tm18  1  0.504096  0.495862  0.004048  1
  Tm  Tm19  1  0.504138  0.495904  0.495952  1
  Ru  Ru20  1  0.846032  0.153968  0.250000  1
  Ru  Ru21  1  0.847012  0.845636  0.751483  1
  Ru  Ru22  1  0.154364  0.152988  0.748517  1
  Ru  Ru23  1  0.154703  0.845297  0.250000  1
  Ru  Ru24  1  0.653441  0.346559  0.750000  1
  Ru  Ru25  1  0.647053  0.651595  0.251895  1
  Ru  Ru26  1  0.348405  0.352947  0.248105  1
  Ru  Ru27  1  0.500271  0.997919  0.122634  1
  Ru  Ru28  1  0.500753  0.000826  0.625794  1
  Ru  Ru29  1  0.999174  0.499247  0.874206  1
  Ru  Ru30  1  0.002081  0.499729  0.377366  1
  Se  Se31  1  0.344747  0.655253  0.750000  1
