# generated using pymatgen
data_Dy3HoFe(NiO4)3
_symmetry_space_group_name_H-M   'P 1'
_cell_length_a   5.22871221
_cell_length_b   5.66781150
_cell_length_c   7.53152808
_cell_angle_alpha   89.57706300
_cell_angle_beta   90.11970135
_cell_angle_gamma   89.94086691
_symmetry_Int_Tables_number   1
_chemical_formula_structural   Dy3HoFe(NiO4)3
_chemical_formula_sum   'Dy3 Ho1 Fe1 Ni3 O12'
_cell_volume   223.19281908
_cell_formula_units_Z   1
loop_
 _symmetry_equiv_pos_site_id
 _symmetry_equiv_pos_as_xyz
  1  'x, y, z'
loop_
 _atom_site_type_symbol
 _atom_site_label
 _atom_site_symmetry_multiplicity
 _atom_site_fract_x
 _atom_site_fract_y
 _atom_site_fract_z
 _atom_site_occupancy
  Dy  Dy0  1  0.520601  0.576121  0.244412  1
  Dy  Dy1  1  0.479457  0.423834  0.755587  1
  Dy  Dy2  1  0.977901  0.082574  0.244221  1
  Ho  Ho3  1  0.022019  0.916954  0.755928  1
  Fe  Fe4  1  0.499993  0.999939  0.500191  1
  Ni  Ni5  1  0.999982  0.500039  0.500098  1
  Ni  Ni6  1  0.999978  0.500062  0.999886  1
  Ni  Ni7  1  0.500009  0.999939  0.999820  1
  O  O8  1  0.689612  0.302604  0.443134  1
  O  O9  1  0.200614  0.183269  0.554596  1
  O  O10  1  0.802083  0.813982  0.052938  1
  O  O11  1  0.305952  0.690625  0.947756  1
  O  O12  1  0.309857  0.697813  0.557196  1
  O  O13  1  0.798921  0.815998  0.446216  1
  O  O14  1  0.197488  0.185309  0.946130  1
  O  O15  1  0.693490  0.309868  0.051871  1
  O  O16  1  0.106741  0.468865  0.248374  1
  O  O17  1  0.611077  0.033551  0.749168  1
  O  O18  1  0.390640  0.966246  0.250862  1
  O  O19  1  0.893586  0.532408  0.751616  1
