# generated using pymatgen
data_Tb19DySi15P
_symmetry_space_group_name_H-M   'P 1'
_cell_length_a   7.48867948
_cell_length_b   7.61731897
_cell_length_c   14.58693600
_cell_angle_alpha   89.89194208
_cell_angle_beta   85.59506748
_cell_angle_gamma   89.97277174
_symmetry_Int_Tables_number   1
_chemical_formula_structural   Tb19DySi15P
_chemical_formula_sum   'Tb19 Dy1 Si15 P1'
_cell_volume   829.63281942
_cell_formula_units_Z   1
loop_
 _symmetry_equiv_pos_site_id
 _symmetry_equiv_pos_as_xyz
  1  'x, y, z'
loop_
 _atom_site_type_symbol
 _atom_site_label
 _atom_site_symmetry_multiplicity
 _atom_site_fract_x
 _atom_site_fract_y
 _atom_site_fract_z
 _atom_site_occupancy
  Tb  Tb0  1  0.672814  0.995069  0.245373  1
  Tb  Tb1  1  0.171384  0.504256  0.245250  1
  Tb  Tb2  1  0.827813  0.495373  0.753748  1
  Tb  Tb3  1  0.327417  0.005097  0.754608  1
  Tb  Tb4  1  0.010175  0.823051  0.102424  1
  Tb  Tb5  1  0.473785  0.684739  0.398862  1
  Tb  Tb6  1  0.493290  0.320801  0.899781  1
  Tb  Tb7  1  0.026245  0.185298  0.602118  1
  Tb  Tb8  1  0.992491  0.181460  0.899033  1
  Tb  Tb9  1  0.525601  0.314875  0.601522  1
  Tb  Tb10  1  0.509005  0.681122  0.100363  1
  Tb  Tb11  1  0.973118  0.813535  0.398427  1
  Tb  Tb12  1  0.638170  0.832986  0.882320  1
  Tb  Tb13  1  0.173837  0.677720  0.622234  1
  Tb  Tb14  1  0.860785  0.341240  0.113629  1
  Tb  Tb15  1  0.326752  0.177838  0.378270  1
  Tb  Tb16  1  0.361904  0.162758  0.118572  1
  Tb  Tb17  1  0.826498  0.322017  0.378472  1
  Tb  Tb18  1  0.133534  0.663473  0.884099  1
  Dy  Dy19  1  0.673835  0.822519  0.622519  1
  Si  Si20  1  0.785367  0.626552  0.251689  1
  Si  Si21  1  0.285651  0.871911  0.252162  1
  Si  Si22  1  0.713698  0.127408  0.748425  1
  Si  Si23  1  0.214313  0.373410  0.748714  1
  Si  Si24  1  0.047070  0.107518  0.251723  1
  Si  Si25  1  0.548339  0.393085  0.250911  1
  Si  Si26  1  0.451756  0.607624  0.749511  1
  Si  Si27  1  0.952048  0.893300  0.748752  1
  Si  Si28  1  0.357118  0.970998  0.542253  1
  Si  Si29  1  0.711460  0.032904  0.042246  1
  Si  Si30  1  0.144110  0.471039  0.458727  1
  Si  Si31  1  0.215355  0.467687  0.043233  1
  Si  Si32  1  0.644387  0.027237  0.458286  1
  Si  Si33  1  0.290857  0.966876  0.956613  1
  Si  Si34  1  0.855326  0.528324  0.542426  1
  P  P35  1  0.784695  0.528901  0.952712  1
