# generated using pymatgen
data_Cs6SmErI12
_symmetry_space_group_name_H-M   'P 1'
_cell_length_a   10.69643429
_cell_length_b   10.69336733
_cell_length_c   8.91320000
_cell_angle_alpha   90.00000000
_cell_angle_beta   90.00000000
_cell_angle_gamma   89.84087743
_symmetry_Int_Tables_number   1
_chemical_formula_structural   Cs6SmErI12
_chemical_formula_sum   'Cs6 Sm1 Er1 I12'
_cell_volume   1019.49591521
_cell_formula_units_Z   1
loop_
 _symmetry_equiv_pos_site_id
 _symmetry_equiv_pos_as_xyz
  1  'x, y, z'
loop_
 _atom_site_type_symbol
 _atom_site_label
 _atom_site_symmetry_multiplicity
 _atom_site_fract_x
 _atom_site_fract_y
 _atom_site_fract_z
 _atom_site_occupancy
  Cs  Cs0  1  0.000000  0.000000  0.500000  1
  Cs  Cs1  1  0.000000  0.000000  0.000000  1
  Cs  Cs2  1  0.232912  0.586434  0.500000  1
  Cs  Cs3  1  0.767088  0.413566  0.500000  1
  Cs  Cs4  1  0.413042  0.234287  0.000000  1
  Cs  Cs5  1  0.586958  0.765713  0.000000  1
  Sm  Sm6  1  0.500000  0.000000  0.500000  1
  Er  Er7  1  0.000000  0.500000  0.000000  1
  I  I8  1  0.697286  0.059616  0.746743  1
  I  I9  1  0.302714  0.940384  0.746743  1
  I  I10  1  0.941714  0.692953  0.241630  1
  I  I11  1  0.058286  0.307047  0.241630  1
  I  I12  1  0.302714  0.940384  0.253257  1
  I  I13  1  0.697286  0.059616  0.253257  1
  I  I14  1  0.058286  0.307047  0.758370  1
  I  I15  1  0.941714  0.692953  0.758370  1
  I  I16  1  0.571840  0.720690  0.500000  1
  I  I17  1  0.428160  0.279310  0.500000  1
  I  I18  1  0.273158  0.570156  0.000000  1
  I  I19  1  0.726842  0.429844  0.000000  1
