# generated using pymatgen
data_Pr2SbPdI2
_symmetry_space_group_name_H-M   'P 1'
_cell_length_a   4.54436700
_cell_length_b   4.54436739
_cell_length_c   12.31977600
_cell_angle_alpha   90.00000000
_cell_angle_beta   90.00000000
_cell_angle_gamma   119.99998991
_symmetry_Int_Tables_number   1
_chemical_formula_structural   Pr2SbPdI2
_chemical_formula_sum   'Pr2 Sb1 Pd1 I2'
_cell_volume   220.33339132
_cell_formula_units_Z   1
loop_
 _symmetry_equiv_pos_site_id
 _symmetry_equiv_pos_as_xyz
  1  'x, y, z'
loop_
 _atom_site_type_symbol
 _atom_site_label
 _atom_site_symmetry_multiplicity
 _atom_site_fract_x
 _atom_site_fract_y
 _atom_site_fract_z
 _atom_site_occupancy
  Pr  Pr0  1  0.000000  0.000000  0.161458  1
  Pr  Pr1  1  0.000000  0.000000  0.833457  1
  Sb  Sb2  1  0.666667  0.333333  0.984767  1
  Pd  Pd3  1  0.333333  0.666667  0.019708  1
  I  I4  1  0.333333  0.666667  0.673127  1
  I  I5  1  0.666667  0.333333  0.327481  1
