# generated using pymatgen
data_ErTm2(FeCo2)3
_symmetry_space_group_name_H-M   'P 1'
_cell_length_a   5.05724737
_cell_length_b   5.05724845
_cell_length_c   8.38599624
_cell_angle_alpha   72.45051455
_cell_angle_beta   72.45051128
_cell_angle_gamma   59.99999439
_symmetry_Int_Tables_number   1
_chemical_formula_structural   ErTm2(FeCo2)3
_chemical_formula_sum   'Er1 Tm2 Fe3 Co6'
_cell_volume   174.12141842
_cell_formula_units_Z   1
loop_
 _symmetry_equiv_pos_site_id
 _symmetry_equiv_pos_as_xyz
  1  'x, y, z'
loop_
 _atom_site_type_symbol
 _atom_site_label
 _atom_site_symmetry_multiplicity
 _atom_site_fract_x
 _atom_site_fract_y
 _atom_site_fract_z
 _atom_site_occupancy
  Er  Er0  1  0.000000  0.000000  0.000000  1
  Tm  Tm1  1  0.140854  0.140854  0.577435  1
  Tm  Tm2  1  0.859146  0.859146  0.422565  1
  Fe  Fe3  1  0.333845  0.333845  0.998465  1
  Fe  Fe4  1  0.666155  0.666155  0.001535  1
  Fe  Fe5  1  0.500000  0.500000  0.500000  1
  Co  Co6  1  0.079785  0.583753  0.752707  1
  Co  Co7  1  0.583753  0.583753  0.752707  1
  Co  Co8  1  0.583753  0.079785  0.752707  1
  Co  Co9  1  0.920215  0.416247  0.247293  1
  Co  Co10  1  0.416247  0.416247  0.247293  1
  Co  Co11  1  0.416247  0.920215  0.247293  1
