# generated using pymatgen
data_AcBi2Pd3
_symmetry_space_group_name_H-M   'P 1'
_cell_length_a   5.08193100
_cell_length_b   10.93241900
_cell_length_c   10.14096400
_cell_angle_alpha   90.00000000
_cell_angle_beta   90.00000000
_cell_angle_gamma   90.00000000
_symmetry_Int_Tables_number   1
_chemical_formula_structural   AcBi2Pd3
_chemical_formula_sum   'Ac4 Bi8 Pd12'
_cell_volume   563.40963979
_cell_formula_units_Z   4
loop_
 _symmetry_equiv_pos_site_id
 _symmetry_equiv_pos_as_xyz
  1  'x, y, z'
loop_
 _atom_site_type_symbol
 _atom_site_label
 _atom_site_symmetry_multiplicity
 _atom_site_fract_x
 _atom_site_fract_y
 _atom_site_fract_z
 _atom_site_occupancy
  Ac  Ac0  1  0.250000  0.430988  0.734427  1
  Ac  Ac1  1  0.250000  0.069012  0.234427  1
  Ac  Ac2  1  0.750000  0.569012  0.265573  1
  Ac  Ac3  1  0.750000  0.930988  0.765573  1
  Bi  Bi4  1  0.250000  0.867612  0.518463  1
  Bi  Bi5  1  0.250000  0.632388  0.018463  1
  Bi  Bi6  1  0.750000  0.132388  0.481537  1
  Bi  Bi7  1  0.750000  0.367612  0.981537  1
  Bi  Bi8  1  0.250000  0.148720  0.883793  1
  Bi  Bi9  1  0.250000  0.351280  0.383793  1
  Bi  Bi10  1  0.750000  0.851280  0.116207  1
  Bi  Bi11  1  0.750000  0.648720  0.616207  1
  Pd  Pd12  1  0.250000  0.155461  0.600674  1
  Pd  Pd13  1  0.250000  0.344539  0.100674  1
  Pd  Pd14  1  0.750000  0.844539  0.399326  1
  Pd  Pd15  1  0.750000  0.655461  0.899326  1
  Pd  Pd16  1  0.250000  0.724539  0.756701  1
  Pd  Pd17  1  0.250000  0.775461  0.256701  1
  Pd  Pd18  1  0.750000  0.275461  0.243299  1
  Pd  Pd19  1  0.750000  0.224539  0.743299  1
  Pd  Pd20  1  0.250000  0.910412  0.977997  1
  Pd  Pd21  1  0.250000  0.589588  0.477997  1
  Pd  Pd22  1  0.750000  0.089588  0.022003  1
  Pd  Pd23  1  0.750000  0.410412  0.522003  1
