# generated using pymatgen
data_Y8SnPd5Pt19
_symmetry_space_group_name_H-M   'P 1'
_cell_length_a   8.42859200
_cell_length_b   8.44273600
_cell_length_c   8.43925800
_cell_angle_alpha   90.00000000
_cell_angle_beta   90.00000000
_cell_angle_gamma   90.00000000
_symmetry_Int_Tables_number   1
_chemical_formula_structural   Y8SnPd5Pt19
_chemical_formula_sum   'Y8 Sn1 Pd5 Pt19'
_cell_volume   600.54078179
_cell_formula_units_Z   1
loop_
 _symmetry_equiv_pos_site_id
 _symmetry_equiv_pos_as_xyz
  1  'x, y, z'
loop_
 _atom_site_type_symbol
 _atom_site_label
 _atom_site_symmetry_multiplicity
 _atom_site_fract_x
 _atom_site_fract_y
 _atom_site_fract_z
 _atom_site_occupancy
  Y  Y0  1  0.250859  0.250861  0.251302  1
  Y  Y1  1  0.749380  0.749181  0.748680  1
  Y  Y2  1  0.749380  0.749181  0.251320  1
  Y  Y3  1  0.749141  0.250861  0.748698  1
  Y  Y4  1  0.250859  0.250861  0.748698  1
  Y  Y5  1  0.250620  0.749181  0.251320  1
  Y  Y6  1  0.250620  0.749181  0.748680  1
  Y  Y7  1  0.749141  0.250861  0.251302  1
  Sn  Sn8  1  0.000000  0.000416  0.000000  1
  Pd  Pd9  1  0.000000  0.499958  0.266828  1
  Pd  Pd10  1  0.000000  0.499958  0.733172  1
  Pd  Pd11  1  0.500000  0.743790  0.500000  1
  Pd  Pd12  1  0.500000  0.500015  0.255742  1
  Pd  Pd13  1  0.500000  0.500015  0.744258  1
  Pt  Pt14  1  0.266561  0.500055  0.000000  1
  Pt  Pt15  1  0.733439  0.500055  0.000000  1
  Pt  Pt16  1  0.000000  0.267672  0.500000  1
  Pt  Pt17  1  0.500000  0.268089  0.000000  1
  Pt  Pt18  1  0.000000  0.731681  0.500000  1
  Pt  Pt19  1  0.500000  0.731667  0.000000  1
  Pt  Pt20  1  0.500000  0.000015  0.267239  1
  Pt  Pt21  1  0.267672  0.000290  0.500000  1
  Pt  Pt22  1  0.500000  0.000015  0.732761  1
  Pt  Pt23  1  0.732328  0.000290  0.500000  1
  Pt  Pt24  1  0.254664  0.499632  0.500000  1
  Pt  Pt25  1  0.745336  0.499632  0.500000  1
  Pt  Pt26  1  0.500000  0.256210  0.500000  1
  Pt  Pt27  1  0.314422  0.999928  0.000000  1
  Pt  Pt28  1  0.685578  0.999928  0.000000  1
  Pt  Pt29  1  0.000000  0.313784  0.000000  1
  Pt  Pt30  1  0.000000  0.686891  0.000000  1
  Pt  Pt31  1  0.000000  0.999926  0.313344  1
  Pt  Pt32  1  0.000000  0.999926  0.686656  1
