# generated using pymatgen
data_Zr5GaSb2
_symmetry_space_group_name_H-M   'P 1'
_cell_length_a   5.54533270
_cell_length_b   8.36539502
_cell_length_c   8.36539493
_cell_angle_alpha   83.69301039
_cell_angle_beta   70.64351072
_cell_angle_gamma   70.64351116
_symmetry_Int_Tables_number   1
_chemical_formula_structural   Zr5GaSb2
_chemical_formula_sum   'Zr10 Ga2 Sb4'
_cell_volume   345.43072540
_cell_formula_units_Z   2
loop_
 _symmetry_equiv_pos_site_id
 _symmetry_equiv_pos_as_xyz
  1  'x, y, z'
loop_
 _atom_site_type_symbol
 _atom_site_label
 _atom_site_symmetry_multiplicity
 _atom_site_fract_x
 _atom_site_fract_y
 _atom_site_fract_z
 _atom_site_occupancy
  Zr  Zr0  1  0.250000  0.500000  0.500000  1
  Zr  Zr1  1  0.750000  0.500000  0.500000  1
  Zr  Zr2  1  0.075701  0.137771  0.710827  1
  Zr  Zr3  1  0.924299  0.862229  0.289173  1
  Zr  Zr4  1  0.786528  0.289173  0.137771  1
  Zr  Zr5  1  0.424299  0.289173  0.862229  1
  Zr  Zr6  1  0.213472  0.710827  0.862229  1
  Zr  Zr7  1  0.575701  0.710827  0.137771  1
  Zr  Zr8  1  0.713472  0.862229  0.710827  1
  Zr  Zr9  1  0.286528  0.137771  0.289173  1
  Ga  Ga10  1  0.250000  0.000000  0.000000  1
  Ga  Ga11  1  0.750000  0.000000  0.000000  1
  Sb  Sb12  1  0.163759  0.500000  0.172482  1
  Sb  Sb13  1  0.836241  0.500000  0.827518  1
  Sb  Sb14  1  0.336241  0.827518  0.500000  1
  Sb  Sb15  1  0.663759  0.172482  0.500000  1
