# generated using pymatgen
data_MnCu2Ir2RhS8
_symmetry_space_group_name_H-M   'P 1'
_cell_length_a   7.12343588
_cell_length_b   6.87528511
_cell_length_c   7.08355863
_cell_angle_alpha   58.68511821
_cell_angle_beta   59.81359923
_cell_angle_gamma   58.79868694
_symmetry_Int_Tables_number   1
_chemical_formula_structural   MnCu2Ir2RhS8
_chemical_formula_sum   'Mn1 Cu2 Ir2 Rh1 S8'
_cell_volume   240.21432509
_cell_formula_units_Z   1
loop_
 _symmetry_equiv_pos_site_id
 _symmetry_equiv_pos_as_xyz
  1  'x, y, z'
loop_
 _atom_site_type_symbol
 _atom_site_label
 _atom_site_symmetry_multiplicity
 _atom_site_fract_x
 _atom_site_fract_y
 _atom_site_fract_z
 _atom_site_occupancy
  Mn  Mn0  1  0.625000  0.125000  0.625000  1
  Cu  Cu1  1  0.004474  0.992707  0.998344  1
  Cu  Cu2  1  0.245526  0.257293  0.251656  1
  Ir  Ir3  1  0.625000  0.625000  0.625000  1
  Ir  Ir4  1  0.125000  0.625000  0.625000  1
  Rh  Rh5  1  0.625000  0.625000  0.125000  1
  S  S6  1  0.383550  0.384659  0.848243  1
  S  S7  1  0.384484  0.382039  0.385085  1
  S  S8  1  0.865516  0.867961  0.864915  1
  S  S9  1  0.866450  0.865341  0.401757  1
  S  S10  1  0.384751  0.843196  0.387304  1
  S  S11  1  0.848393  0.382039  0.385085  1
  S  S12  1  0.401607  0.867961  0.864915  1
  S  S13  1  0.865249  0.406804  0.862696  1
