# generated using pymatgen
data_Er4Ga18Co2RuRh3
_symmetry_space_group_name_H-M   'P 1'
_cell_length_a   7.50676837
_cell_length_b   7.50676715
_cell_length_c   9.49371444
_cell_angle_alpha   90.06637287
_cell_angle_beta   90.06636846
_cell_angle_gamma   120.51901519
_symmetry_Int_Tables_number   1
_chemical_formula_structural   Er4Ga18Co2RuRh3
_chemical_formula_sum   'Er4 Ga18 Co2 Ru1 Rh3'
_cell_volume   460.86783213
_cell_formula_units_Z   1
loop_
 _symmetry_equiv_pos_site_id
 _symmetry_equiv_pos_as_xyz
  1  'x, y, z'
loop_
 _atom_site_type_symbol
 _atom_site_label
 _atom_site_symmetry_multiplicity
 _atom_site_fract_x
 _atom_site_fract_y
 _atom_site_fract_z
 _atom_site_occupancy
  Er  Er0  1  0.995772  0.657472  0.249536  1
  Er  Er1  1  0.002684  0.341770  0.750348  1
  Er  Er2  1  0.658230  0.997316  0.249652  1
  Er  Er3  1  0.342528  0.004228  0.750464  1
  Ga  Ga4  1  0.106752  0.107125  0.250256  1
  Ga  Ga5  1  0.892875  0.893248  0.749744  1
  Ga  Ga6  1  0.998754  0.323610  0.077359  1
  Ga  Ga7  1  0.999004  0.674972  0.922650  1
  Ga  Ga8  1  0.000028  0.675948  0.577757  1
  Ga  Ga9  1  0.324052  0.999972  0.422243  1
  Ga  Ga10  1  0.999789  0.324123  0.422917  1
  Ga  Ga11  1  0.675877  0.000211  0.577083  1
  Ga  Ga12  1  0.676390  0.001246  0.922641  1
  Ga  Ga13  1  0.325028  0.000996  0.077350  1
  Ga  Ga14  1  0.325399  0.325493  0.562859  1
  Ga  Ga15  1  0.674507  0.674601  0.437141  1
  Ga  Ga16  1  0.673819  0.672262  0.062196  1
  Ga  Ga17  1  0.327738  0.326181  0.937804  1
  Ga  Ga18  1  0.337044  0.541442  0.250417  1
  Ga  Ga19  1  0.662472  0.457827  0.750417  1
  Ga  Ga20  1  0.542173  0.337528  0.249583  1
  Ga  Ga21  1  0.458558  0.662956  0.749583  1
  Co  Co22  1  0.000086  0.999914  0.000000  1
  Co  Co23  1  0.000095  0.999905  0.500000  1
  Ru  Ru24  1  0.672412  0.327588  0.000000  1
  Rh  Rh25  1  0.327899  0.672101  0.000000  1
  Rh  Rh26  1  0.328135  0.671865  0.500000  1
  Rh  Rh27  1  0.671897  0.328103  0.500000  1
