# generated using pymatgen
data_Hf8MnNi2Pt
_symmetry_space_group_name_H-M   'P 1'
_cell_length_a   8.59195018
_cell_length_b   8.59194929
_cell_length_c   8.58537100
_cell_angle_alpha   60.02533529
_cell_angle_beta   60.02533870
_cell_angle_gamma   60.27462336
_symmetry_Int_Tables_number   1
_chemical_formula_structural   Hf8MnNi2Pt
_chemical_formula_sum   'Hf16 Mn2 Ni4 Pt2'
_cell_volume   449.24959709
_cell_formula_units_Z   2
loop_
 _symmetry_equiv_pos_site_id
 _symmetry_equiv_pos_as_xyz
  1  'x, y, z'
loop_
 _atom_site_type_symbol
 _atom_site_label
 _atom_site_symmetry_multiplicity
 _atom_site_fract_x
 _atom_site_fract_y
 _atom_site_fract_z
 _atom_site_occupancy
  Hf  Hf0  1  0.669899  0.108894  0.110603  1
  Hf  Hf1  1  0.108894  0.669899  0.110603  1
  Hf  Hf2  1  0.106422  0.106422  0.677942  1
  Hf  Hf3  1  0.106422  0.106422  0.109212  1
  Hf  Hf4  1  0.316712  0.316712  0.683288  1
  Hf  Hf5  1  0.687517  0.687517  0.312483  1
  Hf  Hf6  1  0.316453  0.696594  0.313768  1
  Hf  Hf7  1  0.696594  0.316453  0.673185  1
  Hf  Hf8  1  0.696594  0.316453  0.313768  1
  Hf  Hf9  1  0.316453  0.696594  0.673185  1
  Hf  Hf10  1  0.955360  0.955360  0.544640  1
  Hf  Hf11  1  0.553652  0.553652  0.946348  1
  Hf  Hf12  1  0.945034  0.552928  0.948954  1
  Hf  Hf13  1  0.552928  0.945034  0.553085  1
  Hf  Hf14  1  0.552928  0.945034  0.948954  1
  Hf  Hf15  1  0.945034  0.552928  0.553085  1
  Mn  Mn16  1  0.991781  0.329867  0.339175  1
  Mn  Mn17  1  0.329867  0.991781  0.339175  1
  Ni  Ni18  1  0.318305  0.890598  0.895548  1
  Ni  Ni19  1  0.890598  0.318305  0.895548  1
  Ni  Ni20  1  0.893027  0.893027  0.315198  1
  Ni  Ni21  1  0.893027  0.893027  0.898749  1
  Pt  Pt22  1  0.328248  0.328248  0.004435  1
  Pt  Pt23  1  0.328248  0.328248  0.339067  1
