# generated using pymatgen
data_Er3Tm2(GaSb)2
_symmetry_space_group_name_H-M   'P 1'
_cell_length_a   8.55007695
_cell_length_b   8.54997396
_cell_length_c   7.84508700
_cell_angle_alpha   90.00269786
_cell_angle_beta   89.99757418
_cell_angle_gamma   125.40660496
_symmetry_Int_Tables_number   1
_chemical_formula_structural   Er3Tm2(GaSb)2
_chemical_formula_sum   'Er6 Tm4 Ga4 Sb4'
_cell_volume   467.43658291
_cell_formula_units_Z   2
loop_
 _symmetry_equiv_pos_site_id
 _symmetry_equiv_pos_as_xyz
  1  'x, y, z'
loop_
 _atom_site_type_symbol
 _atom_site_label
 _atom_site_symmetry_multiplicity
 _atom_site_fract_x
 _atom_site_fract_y
 _atom_site_fract_z
 _atom_site_occupancy
  Er  Er0  1  0.538845  0.797551  0.166874  1
  Er  Er1  1  0.297561  0.038848  0.333132  1
  Er  Er2  1  0.202453  0.461165  0.833139  1
  Er  Er3  1  0.961156  0.702440  0.666850  1
  Er  Er4  1  0.702497  0.961226  0.666774  1
  Er  Er5  1  0.461223  0.202500  0.833243  1
  Tm  Tm6  1  0.797220  0.538877  0.166704  1
  Tm  Tm7  1  0.038889  0.297243  0.333299  1
  Tm  Tm8  1  0.499947  0.499949  0.499814  1
  Tm  Tm9  1  0.999953  0.999952  0.000178  1
  Ga  Ga10  1  0.627299  0.627204  0.873212  1
  Ga  Ga11  1  0.127221  0.127310  0.626798  1
  Ga  Ga12  1  0.872822  0.872816  0.372917  1
  Ga  Ga13  1  0.372831  0.372837  0.127072  1
  Sb  Sb14  1  0.294187  0.705345  0.499864  1
  Sb  Sb15  1  0.205341  0.794185  0.000137  1
  Sb  Sb16  1  0.705971  0.294583  0.499649  1
  Sb  Sb17  1  0.794585  0.205969  0.000347  1
