# generated using pymatgen
data_Cs2U2SnSe6
_symmetry_space_group_name_H-M   'P 1'
_cell_length_a   7.38822100
_cell_length_b   7.38822158
_cell_length_c   8.82368500
_cell_angle_alpha   90.00000000
_cell_angle_beta   90.00000000
_cell_angle_gamma   120.00000892
_symmetry_Int_Tables_number   1
_chemical_formula_structural   Cs2U2SnSe6
_chemical_formula_sum   'Cs2 U2 Sn1 Se6'
_cell_volume   417.11938919
_cell_formula_units_Z   1
loop_
 _symmetry_equiv_pos_site_id
 _symmetry_equiv_pos_as_xyz
  1  'x, y, z'
loop_
 _atom_site_type_symbol
 _atom_site_label
 _atom_site_symmetry_multiplicity
 _atom_site_fract_x
 _atom_site_fract_y
 _atom_site_fract_z
 _atom_site_occupancy
  Cs  Cs0  1  0.333333  0.666666  0.501853  1
  Cs  Cs1  1  0.666667  0.333334  0.498147  1
  U  U2  1  0.666667  0.333334  0.998928  1
  U  U3  1  0.333333  0.666666  0.001072  1
  Sn  Sn4  1  0.000000  0.000000  0.000000  1
  Se  Se5  1  0.646517  0.000233  0.176757  1
  Se  Se6  1  0.353716  0.353484  0.176757  1
  Se  Se7  1  0.999767  0.646283  0.176757  1
  Se  Se8  1  0.000233  0.353717  0.823242  1
  Se  Se9  1  0.646284  0.646516  0.823242  1
  Se  Se10  1  0.353483  0.999767  0.823242  1
