# generated using pymatgen
data_AcHoPdS3
_symmetry_space_group_name_H-M   'P 1'
_cell_length_a   6.90542607
_cell_length_b   6.90542602
_cell_length_c   9.94626900
_cell_angle_alpha   90.00000000
_cell_angle_beta   90.00000000
_cell_angle_gamma   146.15959336
_symmetry_Int_Tables_number   1
_chemical_formula_structural   AcHoPdS3
_chemical_formula_sum   'Ac2 Ho2 Pd2 S6'
_cell_volume   264.12162307
_cell_formula_units_Z   2
loop_
 _symmetry_equiv_pos_site_id
 _symmetry_equiv_pos_as_xyz
  1  'x, y, z'
loop_
 _atom_site_type_symbol
 _atom_site_label
 _atom_site_symmetry_multiplicity
 _atom_site_fract_x
 _atom_site_fract_y
 _atom_site_fract_z
 _atom_site_occupancy
  Ac  Ac0  1  0.248784  0.751218  0.250000  1
  Ac  Ac1  1  0.751218  0.248784  0.750000  1
  Ho  Ho2  1  0.500001  0.500001  0.000000  1
  Ho  Ho3  1  0.500001  0.500001  0.500000  1
  Pd  Pd4  1  0.972361  0.027642  0.250000  1
  Pd  Pd5  1  0.027642  0.972361  0.750000  1
  S  S6  1  0.855659  0.144344  0.055555  1
  S  S7  1  0.585442  0.414560  0.250000  1
  S  S8  1  0.855659  0.144344  0.444445  1
  S  S9  1  0.144344  0.855659  0.555554  1
  S  S10  1  0.414560  0.585442  0.750000  1
  S  S11  1  0.144344  0.855659  0.944446  1
