# generated using pymatgen
data_Eu2Ga6CoCuRu2
_symmetry_space_group_name_H-M   'P 1'
_cell_length_a   6.40263855
_cell_length_b   6.40263876
_cell_length_c   5.45854578
_cell_angle_alpha   90.07025310
_cell_angle_beta   90.07025901
_cell_angle_gamma   102.42933014
_symmetry_Int_Tables_number   1
_chemical_formula_structural   Eu2Ga6CoCuRu2
_chemical_formula_sum   'Eu2 Ga6 Co1 Cu1 Ru2'
_cell_volume   218.52142827
_cell_formula_units_Z   1
loop_
 _symmetry_equiv_pos_site_id
 _symmetry_equiv_pos_as_xyz
  1  'x, y, z'
loop_
 _atom_site_type_symbol
 _atom_site_label
 _atom_site_symmetry_multiplicity
 _atom_site_fract_x
 _atom_site_fract_y
 _atom_site_fract_z
 _atom_site_occupancy
  Eu  Eu0  1  0.342524  0.339573  0.247472  1
  Eu  Eu1  1  0.660427  0.657476  0.752528  1
  Ga  Ga2  1  0.921452  0.537825  0.256179  1
  Ga  Ga3  1  0.096551  0.473795  0.737754  1
  Ga  Ga4  1  0.050494  0.048786  0.744862  1
  Ga  Ga5  1  0.951214  0.949506  0.255138  1
  Ga  Ga6  1  0.462175  0.078548  0.743821  1
  Ga  Ga7  1  0.526205  0.903449  0.262246  1
  Co  Co8  1  0.205123  0.794877  0.500000  1
  Cu  Cu9  1  0.785739  0.214261  0.000000  1
  Ru  Ru10  1  0.205643  0.794357  0.000000  1
  Ru  Ru11  1  0.792453  0.207547  0.500000  1
