# generated using pymatgen
data_Ce4MgB4Ir8Rh
_symmetry_space_group_name_H-M   'P 1'
_cell_length_a   10.95779204
_cell_length_b   10.95779096
_cell_length_c   10.95574545
_cell_angle_alpha   29.30727972
_cell_angle_beta   29.30727655
_cell_angle_gamma   29.34065499
_symmetry_Int_Tables_number   1
_chemical_formula_structural   Ce4MgB4Ir8Rh
_chemical_formula_sum   'Ce4 Mg1 B4 Ir8 Rh1'
_cell_volume   279.10914865
_cell_formula_units_Z   1
loop_
 _symmetry_equiv_pos_site_id
 _symmetry_equiv_pos_as_xyz
  1  'x, y, z'
loop_
 _atom_site_type_symbol
 _atom_site_label
 _atom_site_symmetry_multiplicity
 _atom_site_fract_x
 _atom_site_fract_y
 _atom_site_fract_z
 _atom_site_occupancy
  Ce  Ce0  1  0.148222  0.148222  0.149248  1
  Ce  Ce1  1  0.949309  0.949309  0.949496  1
  Ce  Ce2  1  0.851778  0.851778  0.850752  1
  Ce  Ce3  1  0.050691  0.050691  0.050504  1
  Mg  Mg4  1  0.500000  0.500000  0.500000  1
  B  B5  1  0.617196  0.617196  0.613581  1
  B  B6  1  0.718463  0.718463  0.714846  1
  B  B7  1  0.382804  0.382804  0.386419  1
  B  B8  1  0.281537  0.281537  0.285154  1
  Ir  Ir9  1  0.402181  0.904897  0.402322  1
  Ir  Ir10  1  0.904897  0.402181  0.402322  1
  Ir  Ir11  1  0.500000  0.000000  0.500000  1
  Ir  Ir12  1  0.000000  0.500000  0.500000  1
  Ir  Ir13  1  0.597819  0.095103  0.597678  1
  Ir  Ir14  1  0.597171  0.597171  0.094852  1
  Ir  Ir15  1  0.095103  0.597819  0.597678  1
  Ir  Ir16  1  0.402829  0.402829  0.905148  1
  Rh  Rh17  1  0.500000  0.500000  0.000000  1
