# generated using pymatgen
data_LiY3(P3Rh4)2
_symmetry_space_group_name_H-M   'P 1'
_cell_length_a   3.93730400
_cell_length_b   11.25683600
_cell_length_c   12.78476500
_cell_angle_alpha   90.00000000
_cell_angle_beta   90.00000000
_cell_angle_gamma   90.00000000
_symmetry_Int_Tables_number   1
_chemical_formula_structural   LiY3(P3Rh4)2
_chemical_formula_sum   'Li2 Y6 P12 Rh16'
_cell_volume   566.64105390
_cell_formula_units_Z   2
loop_
 _symmetry_equiv_pos_site_id
 _symmetry_equiv_pos_as_xyz
  1  'x, y, z'
loop_
 _atom_site_type_symbol
 _atom_site_label
 _atom_site_symmetry_multiplicity
 _atom_site_fract_x
 _atom_site_fract_y
 _atom_site_fract_z
 _atom_site_occupancy
  Li  Li0  1  0.500000  0.500000  0.156673  1
  Li  Li1  1  0.000000  0.000000  0.843327  1
  Y  Y2  1  0.000000  0.500000  0.516072  1
  Y  Y3  1  0.500000  0.000000  0.483928  1
  Y  Y4  1  0.500000  0.819034  0.204425  1
  Y  Y5  1  0.500000  0.180966  0.204425  1
  Y  Y6  1  0.000000  0.680966  0.795575  1
  Y  Y7  1  0.000000  0.319034  0.795575  1
  P  P8  1  0.500000  0.500000  0.881884  1
  P  P9  1  0.000000  0.000000  0.118116  1
  P  P10  1  0.500000  0.500000  0.345014  1
  P  P11  1  0.000000  0.000000  0.654986  1
  P  P12  1  0.500000  0.313150  0.618486  1
  P  P13  1  0.500000  0.686850  0.618486  1
  P  P14  1  0.000000  0.186850  0.381514  1
  P  P15  1  0.000000  0.813150  0.381514  1
  P  P16  1  0.500000  0.841862  0.891716  1
  P  P17  1  0.500000  0.158138  0.891716  1
  P  P18  1  0.000000  0.658138  0.108284  1
  P  P19  1  0.000000  0.341862  0.108284  1
  Rh  Rh20  1  0.500000  0.500000  0.701360  1
  Rh  Rh21  1  0.000000  0.000000  0.298640  1
  Rh  Rh22  1  0.000000  0.500000  0.984689  1
  Rh  Rh23  1  0.500000  0.000000  0.015311  1
  Rh  Rh24  1  0.500000  0.332953  0.997513  1
  Rh  Rh25  1  0.500000  0.667047  0.997513  1
  Rh  Rh26  1  0.000000  0.167047  0.002487  1
  Rh  Rh27  1  0.000000  0.832953  0.002487  1
  Rh  Rh28  1  0.500000  0.291367  0.430658  1
  Rh  Rh29  1  0.500000  0.708633  0.430658  1
  Rh  Rh30  1  0.000000  0.208633  0.569342  1
  Rh  Rh31  1  0.000000  0.791367  0.569342  1
  Rh  Rh32  1  0.500000  0.874902  0.709982  1
  Rh  Rh33  1  0.500000  0.125098  0.709982  1
  Rh  Rh34  1  0.000000  0.625098  0.290018  1
  Rh  Rh35  1  0.000000  0.374902  0.290018  1
