# generated using pymatgen
data_LaDy4(RhO6)2
_symmetry_space_group_name_H-M   'P 1'
_cell_length_a   6.94076810
_cell_length_b   6.94076723
_cell_length_c   7.38381836
_cell_angle_alpha   74.64171056
_cell_angle_beta   74.64171437
_cell_angle_gamma   50.65240087
_symmetry_Int_Tables_number   1
_chemical_formula_structural   LaDy4(RhO6)2
_chemical_formula_sum   'La1 Dy4 Rh2 O12'
_cell_volume   263.00158884
_cell_formula_units_Z   1
loop_
 _symmetry_equiv_pos_site_id
 _symmetry_equiv_pos_as_xyz
  1  'x, y, z'
loop_
 _atom_site_type_symbol
 _atom_site_label
 _atom_site_symmetry_multiplicity
 _atom_site_fract_x
 _atom_site_fract_y
 _atom_site_fract_z
 _atom_site_occupancy
  La  La0  1  0.000000  0.000000  0.500000  1
  Dy  Dy1  1  0.303635  0.303635  0.359032  1
  Dy  Dy2  1  0.696365  0.696365  0.640968  1
  Dy  Dy3  1  0.305353  0.305353  0.833662  1
  Dy  Dy4  1  0.694647  0.694647  0.166338  1
  Rh  Rh5  1  0.750003  0.249997  0.000000  1
  Rh  Rh6  1  0.249997  0.750003  0.000000  1
  O  O7  1  0.898634  0.430845  0.918233  1
  O  O8  1  0.430845  0.898634  0.918233  1
  O  O9  1  0.101366  0.569155  0.081767  1
  O  O10  1  0.569155  0.101366  0.081767  1
  O  O11  1  0.094669  0.585975  0.580291  1
  O  O12  1  0.585975  0.094669  0.580291  1
  O  O13  1  0.905331  0.414025  0.419709  1
  O  O14  1  0.414025  0.905331  0.419709  1
  O  O15  1  0.000114  0.000114  0.826024  1
  O  O16  1  0.999886  0.999886  0.173976  1
  O  O17  1  0.499384  0.499384  0.809223  1
  O  O18  1  0.500616  0.500616  0.190777  1
