# generated using pymatgen
data_Mn2AlPd5
_symmetry_space_group_name_H-M   'P 1'
_cell_length_a   4.10420600
_cell_length_b   5.46807700
_cell_length_c   10.71257600
_cell_angle_alpha   90.00000000
_cell_angle_beta   90.00000000
_cell_angle_gamma   90.00000000
_symmetry_Int_Tables_number   1
_chemical_formula_structural   Mn2AlPd5
_chemical_formula_sum   'Mn4 Al2 Pd10'
_cell_volume   240.41285645
_cell_formula_units_Z   2
loop_
 _symmetry_equiv_pos_site_id
 _symmetry_equiv_pos_as_xyz
  1  'x, y, z'
loop_
 _atom_site_type_symbol
 _atom_site_label
 _atom_site_symmetry_multiplicity
 _atom_site_fract_x
 _atom_site_fract_y
 _atom_site_fract_z
 _atom_site_occupancy
  Mn  Mn0  1  0.500000  0.175562  0.362268  1
  Mn  Mn1  1  0.500000  0.824438  0.637732  1
  Mn  Mn2  1  0.500000  0.675562  0.137732  1
  Mn  Mn3  1  0.500000  0.324438  0.862268  1
  Al  Al4  1  0.000000  0.000000  0.000000  1
  Al  Al5  1  0.000000  0.500000  0.500000  1
  Pd  Pd6  1  0.500000  0.183258  0.108013  1
  Pd  Pd7  1  0.500000  0.816742  0.891987  1
  Pd  Pd8  1  0.500000  0.683258  0.391987  1
  Pd  Pd9  1  0.500000  0.316742  0.608013  1
  Pd  Pd10  1  0.000000  0.000000  0.500000  1
  Pd  Pd11  1  0.000000  0.500000  0.000000  1
  Pd  Pd12  1  0.000000  0.916758  0.239643  1
  Pd  Pd13  1  0.000000  0.083242  0.760357  1
  Pd  Pd14  1  0.000000  0.416758  0.260357  1
  Pd  Pd15  1  0.000000  0.583242  0.739643  1
