# generated using pymatgen
data_Y10Ga3CoBi2
_symmetry_space_group_name_H-M   'P 1'
_cell_length_a   8.66356535
_cell_length_b   8.66356625
_cell_length_c   8.82314147
_cell_angle_alpha   124.94229380
_cell_angle_beta   124.94229431
_cell_angle_gamma   80.40971915
_symmetry_Int_Tables_number   1
_chemical_formula_structural   Y10Ga3CoBi2
_chemical_formula_sum   'Y10 Ga3 Co1 Bi2'
_cell_volume   431.96314270
_cell_formula_units_Z   1
loop_
 _symmetry_equiv_pos_site_id
 _symmetry_equiv_pos_as_xyz
  1  'x, y, z'
loop_
 _atom_site_type_symbol
 _atom_site_label
 _atom_site_symmetry_multiplicity
 _atom_site_fract_x
 _atom_site_fract_y
 _atom_site_fract_z
 _atom_site_occupancy
  Y  Y0  1  0.702923  0.517051  0.500000  1
  Y  Y1  1  0.481457  0.000573  0.203907  1
  Y  Y2  1  0.777550  0.296666  0.796093  1
  Y  Y3  1  0.499427  0.018543  0.796093  1
  Y  Y4  1  0.997194  0.998404  0.995599  1
  Y  Y5  1  0.047723  0.191431  0.500000  1
  Y  Y6  1  0.308569  0.452277  0.500000  1
  Y  Y7  1  0.203334  0.722450  0.203907  1
  Y  Y8  1  0.982949  0.797077  0.500000  1
  Y  Y9  1  0.501596  0.502806  0.004401  1
  Ga  Ga10  1  0.140407  0.641427  0.781833  1
  Ga  Ga11  1  0.858573  0.359593  0.218167  1
  Ga  Ga12  1  0.632904  0.867096  0.500000  1
  Co  Co13  1  0.378667  0.121333  0.500000  1
  Bi  Bi14  1  0.243363  0.256637  0.000000  1
  Bi  Bi15  1  0.743363  0.756637  0.000000  1
