# generated using pymatgen
data_SrZnGaPd2
_symmetry_space_group_name_H-M   'P 1'
_cell_length_a   4.44643400
_cell_length_b   4.44643400
_cell_length_c   10.33408100
_cell_angle_alpha   90.00000000
_cell_angle_beta   90.00000000
_cell_angle_gamma   90.00000000
_symmetry_Int_Tables_number   1
_chemical_formula_structural   SrZnGaPd2
_chemical_formula_sum   'Sr2 Zn2 Ga2 Pd4'
_cell_volume   204.31279355
_cell_formula_units_Z   2
loop_
 _symmetry_equiv_pos_site_id
 _symmetry_equiv_pos_as_xyz
  1  'x, y, z'
loop_
 _atom_site_type_symbol
 _atom_site_label
 _atom_site_symmetry_multiplicity
 _atom_site_fract_x
 _atom_site_fract_y
 _atom_site_fract_z
 _atom_site_occupancy
  Sr  Sr0  1  0.000000  0.500000  0.251151  1
  Sr  Sr1  1  0.500000  0.000000  0.748849  1
  Zn  Zn2  1  0.000000  0.000000  0.500000  1
  Zn  Zn3  1  0.500000  0.500000  0.500000  1
  Ga  Ga4  1  0.500000  0.000000  0.122992  1
  Ga  Ga5  1  0.000000  0.500000  0.877008  1
  Pd  Pd6  1  0.000000  0.000000  0.000000  1
  Pd  Pd7  1  0.500000  0.500000  0.000000  1
  Pd  Pd8  1  0.500000  0.000000  0.368553  1
  Pd  Pd9  1  0.000000  0.500000  0.631448  1
