# generated using pymatgen
data_Li13Ca6Cd3N
_symmetry_space_group_name_H-M   'P 1'
_cell_length_a   8.85516102
_cell_length_b   8.85516027
_cell_length_c   8.85515954
_cell_angle_alpha   109.41997903
_cell_angle_beta   109.41998296
_cell_angle_gamma   109.41996771
_symmetry_Int_Tables_number   1
_chemical_formula_structural   Li13Ca6Cd3N
_chemical_formula_sum   'Li13 Ca6 Cd3 N1'
_cell_volume   535.53595105
_cell_formula_units_Z   1
loop_
 _symmetry_equiv_pos_site_id
 _symmetry_equiv_pos_as_xyz
  1  'x, y, z'
loop_
 _atom_site_type_symbol
 _atom_site_label
 _atom_site_symmetry_multiplicity
 _atom_site_fract_x
 _atom_site_fract_y
 _atom_site_fract_z
 _atom_site_occupancy
  Li  Li0  1  0.500000  0.500000  0.500000  1
  Li  Li1  1  0.685985  0.340018  0.340018  1
  Li  Li2  1  0.342989  0.000000  0.657011  1
  Li  Li3  1  0.340018  0.685985  0.340018  1
  Li  Li4  1  0.340018  0.340018  0.685985  1
  Li  Li5  1  0.342989  0.657011  0.000000  1
  Li  Li6  1  0.000000  0.342989  0.657011  1
  Li  Li7  1  0.000000  0.657011  0.342989  1
  Li  Li8  1  0.659982  0.659982  0.314015  1
  Li  Li9  1  0.657011  0.000000  0.342989  1
  Li  Li10  1  0.657011  0.342989  0.000000  1
  Li  Li11  1  0.659982  0.314015  0.659982  1
  Li  Li12  1  0.314015  0.659982  0.659982  1
  Ca  Ca13  1  0.994710  0.237924  0.237924  1
  Ca  Ca14  1  0.237924  0.994710  0.237924  1
  Ca  Ca15  1  0.762076  0.005290  0.762076  1
  Ca  Ca16  1  0.762076  0.762076  0.005290  1
  Ca  Ca17  1  0.237924  0.237924  0.994710  1
  Ca  Ca18  1  0.005290  0.762076  0.762076  1
  Cd  Cd19  1  0.500000  0.000000  0.000000  1
  Cd  Cd20  1  0.000000  0.500000  0.000000  1
  Cd  Cd21  1  0.000000  0.000000  0.500000  1
  N  N22  1  0.000000  0.000000  0.000000  1
