# generated using pymatgen
data_Lu2SiB2Ir4Rh
_symmetry_space_group_name_H-M   'P 1'
_cell_length_a   9.33498602
_cell_length_b   9.32413202
_cell_length_c   3.20479800
_cell_angle_alpha   90.00000000
_cell_angle_beta   90.00000000
_cell_angle_gamma   89.89362624
_symmetry_Int_Tables_number   1
_chemical_formula_structural   Lu2SiB2Ir4Rh
_chemical_formula_sum   'Lu4 Si2 B4 Ir8 Rh2'
_cell_volume   278.94719481
_cell_formula_units_Z   2
loop_
 _symmetry_equiv_pos_site_id
 _symmetry_equiv_pos_as_xyz
  1  'x, y, z'
loop_
 _atom_site_type_symbol
 _atom_site_label
 _atom_site_symmetry_multiplicity
 _atom_site_fract_x
 _atom_site_fract_y
 _atom_site_fract_z
 _atom_site_occupancy
  Lu  Lu0  1  0.176869  0.674932  0.000000  1
  Lu  Lu1  1  0.676261  0.822631  0.000000  1
  Lu  Lu2  1  0.323739  0.177369  0.000000  1
  Lu  Lu3  1  0.823131  0.325068  0.000000  1
  Si  Si4  1  0.000000  0.000000  0.000000  1
  Si  Si5  1  0.500000  0.500000  0.000000  1
  B  B6  1  0.377376  0.877938  0.000000  1
  B  B7  1  0.881071  0.624263  0.000000  1
  B  B8  1  0.118929  0.375737  0.000000  1
  B  B9  1  0.622624  0.122062  0.000000  1
  Ir  Ir10  1  0.000000  0.500000  0.500000  1
  Ir  Ir11  1  0.500000  0.000000  0.500000  1
  Ir  Ir12  1  0.568995  0.286435  0.500000  1
  Ir  Ir13  1  0.431005  0.713566  0.500000  1
  Ir  Ir14  1  0.931299  0.785555  0.500000  1
  Ir  Ir15  1  0.786389  0.068358  0.500000  1
  Ir  Ir16  1  0.213610  0.931642  0.500000  1
  Ir  Ir17  1  0.068701  0.214444  0.500000  1
  Rh  Rh18  1  0.286493  0.430956  0.500000  1
  Rh  Rh19  1  0.713508  0.569044  0.500000  1
