# generated using pymatgen
data_Ac2NpPa3N8
_symmetry_space_group_name_H-M   'P 1'
_cell_length_a   7.17570146
_cell_length_b   7.17571594
_cell_length_c   7.10050182
_cell_angle_alpha   120.34488191
_cell_angle_beta   90.01350016
_cell_angle_gamma   119.99389950
_symmetry_Int_Tables_number   1
_chemical_formula_structural   Ac2NpPa3N8
_chemical_formula_sum   'Ac2 Np1 Pa3 N8'
_cell_volume   257.16279957
_cell_formula_units_Z   1
loop_
 _symmetry_equiv_pos_site_id
 _symmetry_equiv_pos_as_xyz
  1  'x, y, z'
loop_
 _atom_site_type_symbol
 _atom_site_label
 _atom_site_symmetry_multiplicity
 _atom_site_fract_x
 _atom_site_fract_y
 _atom_site_fract_z
 _atom_site_occupancy
  Ac  Ac0  1  0.997434  0.994856  0.992288  1
  Ac  Ac1  1  0.752567  0.505144  0.257712  1
  Np  Np2  1  0.375000  0.750000  0.125000  1
  Pa  Pa3  1  0.375000  0.750000  0.624999  1
  Pa  Pa4  1  0.375000  0.249999  0.624999  1
  Pa  Pa5  1  0.874999  0.249999  0.625000  1
  N  N6  1  0.610583  0.221285  0.405835  1
  N  N7  1  0.184536  0.795225  0.405932  1
  N  N8  1  0.610736  0.795291  0.405920  1
  N  N9  1  0.145159  0.290385  0.435556  1
  N  N10  1  0.604840  0.209616  0.814444  1
  N  N11  1  0.139264  0.704708  0.844078  1
  N  N12  1  0.139418  0.278716  0.844165  1
  N  N13  1  0.565464  0.704774  0.844068  1
