# generated using pymatgen
data_PrNdAs7Rh12
_symmetry_space_group_name_H-M   'P 1'
_cell_length_a   10.01536000
_cell_length_b   10.01536170
_cell_length_c   3.98329700
_cell_angle_alpha   90.00000000
_cell_angle_beta   90.00000000
_cell_angle_gamma   120.00000759
_symmetry_Int_Tables_number   1
_chemical_formula_structural   PrNdAs7Rh12
_chemical_formula_sum   'Pr1 Nd1 As7 Rh12'
_cell_volume   346.02421385
_cell_formula_units_Z   1
loop_
 _symmetry_equiv_pos_site_id
 _symmetry_equiv_pos_as_xyz
  1  'x, y, z'
loop_
 _atom_site_type_symbol
 _atom_site_label
 _atom_site_symmetry_multiplicity
 _atom_site_fract_x
 _atom_site_fract_y
 _atom_site_fract_z
 _atom_site_occupancy
  Pr  Pr0  1  0.666667  0.333333  0.252795  1
  Nd  Nd1  1  0.333333  0.666667  0.747177  1
  As  As2  1  0.000000  0.000000  0.500068  1
  As  As3  1  0.884499  0.596975  0.751868  1
  As  As4  1  0.403025  0.287524  0.751868  1
  As  As5  1  0.712476  0.115501  0.751868  1
  As  As6  1  0.115826  0.403443  0.248116  1
  As  As7  1  0.596557  0.712383  0.248116  1
  As  As8  1  0.287617  0.884174  0.248116  1
  Rh  Rh9  1  0.618357  0.555914  0.750670  1
  Rh  Rh10  1  0.444086  0.062444  0.750670  1
  Rh  Rh11  1  0.937556  0.381643  0.750670  1
  Rh  Rh12  1  0.381473  0.444518  0.249337  1
  Rh  Rh13  1  0.555482  0.936954  0.249337  1
  Rh  Rh14  1  0.063046  0.618527  0.249337  1
  Rh  Rh15  1  0.114475  0.851660  0.751824  1
  Rh  Rh16  1  0.148340  0.262815  0.751824  1
  Rh  Rh17  1  0.737185  0.885525  0.751824  1
  Rh  Rh18  1  0.885610  0.148356  0.248172  1
  Rh  Rh19  1  0.851644  0.737254  0.248172  1
  Rh  Rh20  1  0.262746  0.114390  0.248172  1
