# generated using pymatgen
data_SrInSnPd
_symmetry_space_group_name_H-M   'P 1'
_cell_length_a   6.20684788
_cell_length_b   6.20684791
_cell_length_c   7.70897421
_cell_angle_alpha   91.29567421
_cell_angle_beta   88.70432836
_cell_angle_gamma   136.49804212
_symmetry_Int_Tables_number   1
_chemical_formula_structural   SrInSnPd
_chemical_formula_sum   'Sr2 In2 Sn2 Pd2'
_cell_volume   204.37976820
_cell_formula_units_Z   2
loop_
 _symmetry_equiv_pos_site_id
 _symmetry_equiv_pos_as_xyz
  1  'x, y, z'
loop_
 _atom_site_type_symbol
 _atom_site_label
 _atom_site_symmetry_multiplicity
 _atom_site_fract_x
 _atom_site_fract_y
 _atom_site_fract_z
 _atom_site_occupancy
  Sr  Sr0  1  0.936786  0.063214  0.750177  1
  Sr  Sr1  1  0.063214  0.936786  0.249823  1
  In  In2  1  0.348142  0.651858  0.448597  1
  In  In3  1  0.651858  0.348142  0.551403  1
  Sn  Sn4  1  0.646216  0.353784  0.944814  1
  Sn  Sn5  1  0.353784  0.646216  0.055186  1
  Pd  Pd6  1  0.214891  0.785109  0.761022  1
  Pd  Pd7  1  0.785109  0.214891  0.238978  1
