# generated using pymatgen
data_Y4Al13Si5(Ir2Os)2
_symmetry_space_group_name_H-M   'P 1'
_cell_length_a   7.50062429
_cell_length_b   7.48276191
_cell_length_c   9.36714387
_cell_angle_alpha   89.98140137
_cell_angle_beta   89.96925431
_cell_angle_gamma   119.80374760
_symmetry_Int_Tables_number   1
_chemical_formula_structural   Y4Al13Si5(Ir2Os)2
_chemical_formula_sum   'Y4 Al13 Si5 Ir4 Os2'
_cell_volume   456.19702891
_cell_formula_units_Z   1
loop_
 _symmetry_equiv_pos_site_id
 _symmetry_equiv_pos_as_xyz
  1  'x, y, z'
loop_
 _atom_site_type_symbol
 _atom_site_label
 _atom_site_symmetry_multiplicity
 _atom_site_fract_x
 _atom_site_fract_y
 _atom_site_fract_z
 _atom_site_occupancy
  Y  Y0  1  0.998349  0.673040  0.249439  1
  Y  Y1  1  0.004593  0.340435  0.753646  1
  Y  Y2  1  0.673544  0.997464  0.250575  1
  Y  Y3  1  0.320921  0.992508  0.746193  1
  Al  Al4  1  0.874149  0.873709  0.749840  1
  Al  Al5  1  0.001882  0.329842  0.426955  1
  Al  Al6  1  0.671858  0.000002  0.576620  1
  Al  Al7  1  0.664098  0.996605  0.923614  1
  Al  Al8  1  0.340645  0.005139  0.072771  1
  Al  Al9  1  0.331117  0.332799  0.559756  1
  Al  Al10  1  0.662457  0.666413  0.443491  1
  Al  Al11  1  0.661736  0.666837  0.056775  1
  Al  Al12  1  0.334042  0.330118  0.940053  1
  Al  Al13  1  0.335042  0.547201  0.249873  1
  Al  Al14  1  0.659782  0.451114  0.751072  1
  Al  Al15  1  0.548365  0.340733  0.249958  1
  Al  Al16  1  0.454525  0.659880  0.749382  1
  Si  Si17  1  0.131726  0.128506  0.250077  1
  Si  Si18  1  0.002271  0.328103  0.075480  1
  Si  Si19  1  0.996216  0.674006  0.932652  1
  Si  Si20  1  0.991063  0.662133  0.566499  1
  Si  Si21  1  0.341699  0.006869  0.424987  1
  Ir  Ir22  1  0.687982  0.336499  0.002838  1
  Ir  Ir23  1  0.309791  0.661519  0.998531  1
  Ir  Ir24  1  0.318556  0.677565  0.499600  1
  Ir  Ir25  1  0.671478  0.327838  0.499493  1
  Os  Os26  1  0.002030  0.000844  0.007984  1
  Os  Os27  1  0.010084  0.992278  0.491846  1
