# generated using pymatgen
data_Zr3Nb2B4Ru10W
_symmetry_space_group_name_H-M   'P 1'
_cell_length_a   9.49583726
_cell_length_b   9.49256303
_cell_length_c   3.08185000
_cell_angle_alpha   90.00000000
_cell_angle_beta   90.00000000
_cell_angle_gamma   90.05634938
_symmetry_Int_Tables_number   1
_chemical_formula_structural   Zr3Nb2B4Ru10W
_chemical_formula_sum   'Zr3 Nb2 B4 Ru10 W1'
_cell_volume   277.79731208
_cell_formula_units_Z   1
loop_
 _symmetry_equiv_pos_site_id
 _symmetry_equiv_pos_as_xyz
  1  'x, y, z'
loop_
 _atom_site_type_symbol
 _atom_site_label
 _atom_site_symmetry_multiplicity
 _atom_site_fract_x
 _atom_site_fract_y
 _atom_site_fract_z
 _atom_site_occupancy
  Zr  Zr0  1  0.824134  0.676749  0.000000  1
  Zr  Zr1  1  0.176551  0.323749  0.000000  1
  Zr  Zr2  1  0.324254  0.824619  0.000000  1
  Nb  Nb3  1  0.677248  0.176404  0.000000  1
  Nb  Nb4  1  0.000088  0.999875  0.000000  1
  B  B5  1  0.621899  0.880779  0.000000  1
  B  B6  1  0.378646  0.120059  0.000000  1
  B  B7  1  0.119419  0.621408  0.000000  1
  B  B8  1  0.879207  0.377206  0.000000  1
  Ru  Ru9  1  0.569637  0.716661  0.500000  1
  Ru  Ru10  1  0.434345  0.283489  0.500000  1
  Ru  Ru11  1  0.071592  0.780772  0.500000  1
  Ru  Ru12  1  0.922965  0.216921  0.500000  1
  Ru  Ru13  1  0.283684  0.568093  0.500000  1
  Ru  Ru14  1  0.714159  0.426730  0.500000  1
  Ru  Ru15  1  0.219463  0.072711  0.500000  1
  Ru  Ru16  1  0.780436  0.931234  0.500000  1
  Ru  Ru17  1  0.503699  0.003980  0.500000  1
  Ru  Ru18  1  0.998750  0.498495  0.500000  1
  W  W19  1  0.499824  0.500064  0.000000  1
