# generated using pymatgen
data_DyEr3(ReB6)2
_symmetry_space_group_name_H-M   'P 1'
_cell_length_a   3.66384700
_cell_length_b   9.14119901
_cell_length_c   11.51889501
_cell_angle_alpha   89.99428674
_cell_angle_beta   90.00000000
_cell_angle_gamma   90.00000000
_symmetry_Int_Tables_number   1
_chemical_formula_structural   DyEr3(ReB6)2
_chemical_formula_sum   'Dy2 Er6 Re4 B24'
_cell_volume   385.79030665
_cell_formula_units_Z   2
loop_
 _symmetry_equiv_pos_site_id
 _symmetry_equiv_pos_as_xyz
  1  'x, y, z'
loop_
 _atom_site_type_symbol
 _atom_site_label
 _atom_site_symmetry_multiplicity
 _atom_site_fract_x
 _atom_site_fract_y
 _atom_site_fract_z
 _atom_site_occupancy
  Dy  Dy0  1  0.000000  0.323327  0.413722  1
  Dy  Dy1  1  0.000000  0.676673  0.586278  1
  Er  Er2  1  0.000000  0.823562  0.086101  1
  Er  Er3  1  0.000000  0.176438  0.913899  1
  Er  Er4  1  0.000000  0.943374  0.369943  1
  Er  Er5  1  0.000000  0.056626  0.630057  1
  Er  Er6  1  0.000000  0.443354  0.129596  1
  Er  Er7  1  0.000000  0.556646  0.870404  1
  Re  Re8  1  0.000000  0.639219  0.320200  1
  Re  Re9  1  0.000000  0.360781  0.679800  1
  Re  Re10  1  0.000000  0.138645  0.178896  1
  Re  Re11  1  0.000000  0.861355  0.821104  1
  B  B12  1  0.500000  0.553503  0.432745  1
  B  B13  1  0.500000  0.446497  0.567255  1
  B  B14  1  0.500000  0.053168  0.066709  1
  B  B15  1  0.500000  0.946832  0.933291  1
  B  B16  1  0.500000  0.749813  0.418464  1
  B  B17  1  0.500000  0.250187  0.581536  1
  B  B18  1  0.500000  0.249547  0.080831  1
  B  B19  1  0.500000  0.750453  0.919169  1
  B  B20  1  0.500000  0.792809  0.265146  1
  B  B21  1  0.500000  0.207191  0.734854  1
  B  B22  1  0.500000  0.292484  0.234114  1
  B  B23  1  0.500000  0.707516  0.765886  1
  B  B24  1  0.500000  0.631053  0.185020  1
  B  B25  1  0.500000  0.368947  0.814980  1
  B  B26  1  0.500000  0.130620  0.314320  1
  B  B27  1  0.500000  0.869380  0.685680  1
  B  B28  1  0.500000  0.981901  0.211773  1
  B  B29  1  0.500000  0.018099  0.788227  1
  B  B30  1  0.500000  0.482340  0.287570  1
  B  B31  1  0.500000  0.517660  0.712430  1
  B  B32  1  0.500000  0.600058  0.027954  1
  B  B33  1  0.500000  0.399942  0.972046  1
  B  B34  1  0.500000  0.099299  0.472217  1
  B  B35  1  0.500000  0.900701  0.527783  1
