# generated using pymatgen
data_Tm6Sc4ZnSb5
_symmetry_space_group_name_H-M   'P 1'
_cell_length_a   8.63686500
_cell_length_b   8.65703718
_cell_length_c   6.10867900
_cell_angle_alpha   90.00000000
_cell_angle_beta   90.00000000
_cell_angle_gamma   119.92295302
_symmetry_Int_Tables_number   1
_chemical_formula_structural   Tm6Sc4ZnSb5
_chemical_formula_sum   'Tm6 Sc4 Zn1 Sb5'
_cell_volume   395.85852567
_cell_formula_units_Z   1
loop_
 _symmetry_equiv_pos_site_id
 _symmetry_equiv_pos_as_xyz
  1  'x, y, z'
loop_
 _atom_site_type_symbol
 _atom_site_label
 _atom_site_symmetry_multiplicity
 _atom_site_fract_x
 _atom_site_fract_y
 _atom_site_fract_z
 _atom_site_occupancy
  Tm  Tm0  1  0.250251  0.000000  0.250000  1
  Tm  Tm1  1  0.758195  0.000000  0.750000  1
  Tm  Tm2  1  0.985686  0.232489  0.250000  1
  Tm  Tm3  1  0.753196  0.767511  0.250000  1
  Tm  Tm4  1  0.242930  0.241035  0.750000  1
  Tm  Tm5  1  0.001895  0.758965  0.750000  1
  Sc  Sc6  1  0.340007  0.674822  0.000968  1
  Sc  Sc7  1  0.665185  0.325178  0.499032  1
  Sc  Sc8  1  0.665185  0.325178  0.000968  1
  Sc  Sc9  1  0.340007  0.674822  0.499032  1
  Zn  Zn10  1  0.600237  0.000000  0.250000  1
  Sb  Sb11  1  0.399635  0.000000  0.750000  1
  Sb  Sb12  1  0.997334  0.605314  0.250000  1
  Sb  Sb13  1  0.392021  0.394686  0.250000  1
  Sb  Sb14  1  0.605260  0.602284  0.750000  1
  Sb  Sb15  1  0.002976  0.397716  0.750000  1
