# generated using pymatgen
data_NpPaO6
_symmetry_space_group_name_H-M   'P 1'
_cell_length_a   5.91381673
_cell_length_b   5.91381804
_cell_length_c   5.91381747
_cell_angle_alpha   59.94348008
_cell_angle_beta   59.94348253
_cell_angle_gamma   59.94346834
_symmetry_Int_Tables_number   1
_chemical_formula_structural   NpPaO6
_chemical_formula_sum   'Np1 Pa1 O6'
_cell_volume   146.06011126
_cell_formula_units_Z   1
loop_
 _symmetry_equiv_pos_site_id
 _symmetry_equiv_pos_as_xyz
  1  'x, y, z'
loop_
 _atom_site_type_symbol
 _atom_site_label
 _atom_site_symmetry_multiplicity
 _atom_site_fract_x
 _atom_site_fract_y
 _atom_site_fract_z
 _atom_site_occupancy
  Np  Np0  1  0.000000  0.000000  0.000000  1
  Pa  Pa1  1  0.500000  0.500000  0.500000  1
  O  O2  1  0.733808  0.784201  0.240682  1
  O  O3  1  0.784201  0.240682  0.733808  1
  O  O4  1  0.759318  0.266192  0.215799  1
  O  O5  1  0.215799  0.759318  0.266192  1
  O  O6  1  0.266192  0.215799  0.759318  1
  O  O7  1  0.240682  0.733808  0.784201  1
