# generated using pymatgen
data_Tb16Cd4FePt2Rh
_symmetry_space_group_name_H-M   'P 1'
_cell_length_a   9.69528376
_cell_length_b   9.69528324
_cell_length_c   9.69397008
_cell_angle_alpha   59.86686658
_cell_angle_beta   59.86686844
_cell_angle_gamma   59.91702065
_symmetry_Int_Tables_number   1
_chemical_formula_structural   Tb16Cd4FePt2Rh
_chemical_formula_sum   'Tb16 Cd4 Fe1 Pt2 Rh1'
_cell_volume   642.62681414
_cell_formula_units_Z   1
loop_
 _symmetry_equiv_pos_site_id
 _symmetry_equiv_pos_as_xyz
  1  'x, y, z'
loop_
 _atom_site_type_symbol
 _atom_site_label
 _atom_site_symmetry_multiplicity
 _atom_site_fract_x
 _atom_site_fract_y
 _atom_site_fract_z
 _atom_site_occupancy
  Tb  Tb0  1  0.350217  0.350217  0.353851  1
  Tb  Tb1  1  0.346369  0.346369  0.951413  1
  Tb  Tb2  1  0.344485  0.953768  0.347382  1
  Tb  Tb3  1  0.953768  0.344485  0.347382  1
  Tb  Tb4  1  0.820075  0.188849  0.188360  1
  Tb  Tb5  1  0.188448  0.812978  0.807467  1
  Tb  Tb6  1  0.188849  0.820075  0.188360  1
  Tb  Tb7  1  0.812978  0.188448  0.807467  1
  Tb  Tb8  1  0.188144  0.188144  0.818056  1
  Tb  Tb9  1  0.809262  0.809262  0.189541  1
  Tb  Tb10  1  0.936529  0.562907  0.564286  1
  Tb  Tb11  1  0.560029  0.936931  0.937011  1
  Tb  Tb12  1  0.562907  0.936529  0.564286  1
  Tb  Tb13  1  0.936931  0.560029  0.937011  1
  Tb  Tb14  1  0.563379  0.563379  0.936669  1
  Tb  Tb15  1  0.937092  0.937092  0.560902  1
  Cd  Cd16  1  0.579783  0.579783  0.579847  1
  Cd  Cd17  1  0.581258  0.581258  0.255328  1
  Cd  Cd18  1  0.581481  0.254853  0.581393  1
  Cd  Cd19  1  0.254853  0.581481  0.581393  1
  Fe  Fe20  1  0.142792  0.142792  0.141405  1
  Pt  Pt21  1  0.144170  0.572681  0.143771  1
  Pt  Pt22  1  0.572681  0.144170  0.143771  1
  Rh  Rh23  1  0.143521  0.143521  0.573653  1
