# generated using pymatgen
data_AcZn10Pd
_symmetry_space_group_name_H-M   'P 1'
_cell_length_a   8.42530751
_cell_length_b   8.40085847
_cell_length_c   8.42615978
_cell_angle_alpha   99.68494119
_cell_angle_beta   99.81876444
_cell_angle_gamma   131.36870269
_symmetry_Int_Tables_number   1
_chemical_formula_structural   AcZn10Pd
_chemical_formula_sum   'Ac2 Zn20 Pd2'
_cell_volume   407.96036536
_cell_formula_units_Z   2
loop_
 _symmetry_equiv_pos_site_id
 _symmetry_equiv_pos_as_xyz
  1  'x, y, z'
loop_
 _atom_site_type_symbol
 _atom_site_label
 _atom_site_symmetry_multiplicity
 _atom_site_fract_x
 _atom_site_fract_y
 _atom_site_fract_z
 _atom_site_occupancy
  Ac  Ac0  1  0.503133  0.503189  0.006369  1
  Ac  Ac1  1  0.746867  0.246811  0.493631  1
  Zn  Zn2  1  0.852352  0.435725  0.170297  1
  Zn  Zn3  1  0.319705  0.151063  0.585905  1
  Zn  Zn4  1  0.266263  0.434869  0.585933  1
  Zn  Zn5  1  0.317900  0.734590  0.170269  1
  Zn  Zn6  1  0.983737  0.315131  0.914067  1
  Zn  Zn7  1  0.262717  0.679801  0.829239  1
  Zn  Zn8  1  0.255962  0.755992  0.511746  1
  Zn  Zn9  1  0.987283  0.070199  0.670761  1
  Zn  Zn10  1  0.994038  0.994008  0.988254  1
  Zn  Zn11  1  0.684276  0.010477  0.080096  1
  Zn  Zn12  1  0.397648  0.314275  0.329703  1
  Zn  Zn13  1  0.932100  0.015410  0.329731  1
  Zn  Zn14  1  0.854169  0.680297  0.419952  1
  Zn  Zn15  1  0.565724  0.739523  0.419904  1
  Zn  Zn16  1  0.683467  0.600506  0.670783  1
  Zn  Zn17  1  0.395831  0.069703  0.080048  1
  Zn  Zn18  1  0.930295  0.598937  0.914095  1
  Zn  Zn19  1  0.566533  0.149494  0.829217  1
  Zn  Zn20  1  0.125000  0.875000  0.250000  1
  Zn  Zn21  1  0.125000  0.375000  0.250000  1
  Pd  Pd22  1  0.125000  0.875000  0.750000  1
  Pd  Pd23  1  0.625000  0.875000  0.750000  1
