# generated using pymatgen
data_Pr12CoPI17
_symmetry_space_group_name_H-M   'P 1'
_cell_length_a   10.02686972
_cell_length_b   12.03168852
_cell_length_c   11.97645493
_cell_angle_alpha   93.42173174
_cell_angle_beta   104.67924018
_cell_angle_gamma   114.97232618
_symmetry_Int_Tables_number   1
_chemical_formula_structural   Pr12CoPI17
_chemical_formula_sum   'Pr12 Co1 P1 I17'
_cell_volume   1243.91998800
_cell_formula_units_Z   1
loop_
 _symmetry_equiv_pos_site_id
 _symmetry_equiv_pos_as_xyz
  1  'x, y, z'
loop_
 _atom_site_type_symbol
 _atom_site_label
 _atom_site_symmetry_multiplicity
 _atom_site_fract_x
 _atom_site_fract_y
 _atom_site_fract_z
 _atom_site_occupancy
  Pr  Pr0  1  0.056529  0.510139  0.323962  1
  Pr  Pr1  1  0.988233  0.809884  0.579940  1
  Pr  Pr2  1  0.645587  0.239706  0.282357  1
  Pr  Pr3  1  0.009736  0.189912  0.417732  1
  Pr  Pr4  1  0.217733  0.665593  0.990869  1
  Pr  Pr5  1  0.268214  0.989305  0.898023  1
  Pr  Pr6  1  0.357631  0.759951  0.717355  1
  Pr  Pr7  1  0.942834  0.486902  0.674511  1
  Pr  Pr8  1  0.736978  0.016399  0.105423  1
  Pr  Pr9  1  0.148618  0.288235  0.149538  1
  Pr  Pr10  1  0.781544  0.331284  0.011249  1
  Pr  Pr11  1  0.848428  0.712477  0.851927  1
  Co  Co12  1  0.896651  0.262114  0.215970  1
  P  P13  1  0.103897  0.738579  0.784857  1
  I  I14  1  0.781182  0.530662  0.419914  1
  I  I15  1  0.640775  0.419953  0.756345  1
  I  I16  1  0.841994  0.892736  0.324221  1
  I  I17  1  0.326850  0.212366  0.369653  1
  I  I18  1  0.157814  0.103182  0.677429  1
  I  I19  1  0.584717  0.051037  0.834777  1
  I  I20  1  0.752165  0.180815  0.540291  1
  I  I21  1  0.544525  0.704638  0.953409  1
  I  I22  1  0.364333  0.584441  0.242896  1
  I  I23  1  0.221062  0.473837  0.586674  1
  I  I24  1  0.057653  0.366265  0.890174  1
  I  I25  1  0.449661  0.294786  0.044914  1
  I  I26  1  0.999803  0.997384  0.997180  1
  I  I27  1  0.247674  0.819978  0.463545  1
  I  I28  1  0.406128  0.941353  0.158897  1
  I  I29  1  0.676301  0.787336  0.630870  1
  I  I30  1  0.944747  0.638753  0.105100  1
