# generated using pymatgen
data_Sm3YSe3O4
_symmetry_space_group_name_H-M   'P 1'
_cell_length_a   6.66241990
_cell_length_b   6.66241926
_cell_length_c   8.42116500
_cell_angle_alpha   90.00000000
_cell_angle_beta   90.00000000
_cell_angle_gamma   145.49535250
_symmetry_Int_Tables_number   1
_chemical_formula_structural   Sm3YSe3O4
_chemical_formula_sum   'Sm3 Y1 Se3 O4'
_cell_volume   211.74609741
_cell_formula_units_Z   1
loop_
 _symmetry_equiv_pos_site_id
 _symmetry_equiv_pos_as_xyz
  1  'x, y, z'
loop_
 _atom_site_type_symbol
 _atom_site_label
 _atom_site_symmetry_multiplicity
 _atom_site_fract_x
 _atom_site_fract_y
 _atom_site_fract_z
 _atom_site_occupancy
  Sm  Sm0  1  0.318662  0.681338  0.237852  1
  Sm  Sm1  1  0.318662  0.681338  0.762148  1
  Sm  Sm2  1  0.984883  0.015117  0.500000  1
  Y  Y3  1  0.994513  0.005487  0.000000  1
  Se  Se4  1  0.679910  0.320090  0.000000  1
  Se  Se5  1  0.646641  0.353359  0.651298  1
  Se  Se6  1  0.646641  0.353359  0.348702  1
  O  O7  1  0.385704  0.614296  0.500000  1
  O  O8  1  0.914977  0.085023  0.757763  1
  O  O9  1  0.411862  0.588138  0.000000  1
  O  O10  1  0.914977  0.085023  0.242237  1
