# generated using pymatgen
data_Hf15Sc3Cu2(Re3W)2
_symmetry_space_group_name_H-M   'P 1'
_cell_length_a   8.70457400
_cell_length_b   8.70457518
_cell_length_c   8.43389500
_cell_angle_alpha   90.00000000
_cell_angle_beta   90.00000000
_cell_angle_gamma   120.00000311
_symmetry_Int_Tables_number   1
_chemical_formula_structural   Hf15Sc3Cu2(Re3W)2
_chemical_formula_sum   'Hf15 Sc3 Cu2 Re6 W2'
_cell_volume   553.41880247
_cell_formula_units_Z   1
loop_
 _symmetry_equiv_pos_site_id
 _symmetry_equiv_pos_as_xyz
  1  'x, y, z'
loop_
 _atom_site_type_symbol
 _atom_site_label
 _atom_site_symmetry_multiplicity
 _atom_site_fract_x
 _atom_site_fract_y
 _atom_site_fract_z
 _atom_site_occupancy
  Hf  Hf0  1  0.196702  0.803298  0.446582  1
  Hf  Hf1  1  0.196702  0.393404  0.446582  1
  Hf  Hf2  1  0.606596  0.803298  0.446582  1
  Hf  Hf3  1  0.803841  0.196159  0.554165  1
  Hf  Hf4  1  0.803841  0.607682  0.554165  1
  Hf  Hf5  1  0.392318  0.196159  0.554165  1
  Hf  Hf6  1  0.803841  0.196159  0.945835  1
  Hf  Hf7  1  0.803841  0.607682  0.945835  1
  Hf  Hf8  1  0.392318  0.196159  0.945835  1
  Hf  Hf9  1  0.196702  0.803298  0.053418  1
  Hf  Hf10  1  0.196702  0.393404  0.053418  1
  Hf  Hf11  1  0.606596  0.803298  0.053418  1
  Hf  Hf12  1  0.458627  0.541373  0.750000  1
  Hf  Hf13  1  0.458627  0.917254  0.750000  1
  Hf  Hf14  1  0.082746  0.541373  0.750000  1
  Sc  Sc15  1  0.540841  0.459159  0.250000  1
  Sc  Sc16  1  0.540841  0.081682  0.250000  1
  Sc  Sc17  1  0.918318  0.459159  0.250000  1
  Cu  Cu18  1  0.333333  0.666667  0.250000  1
  Cu  Cu19  1  0.666667  0.333333  0.750000  1
  Re  Re20  1  0.889130  0.110870  0.250000  1
  Re  Re21  1  0.889130  0.778260  0.250000  1
  Re  Re22  1  0.221740  0.110870  0.250000  1
  Re  Re23  1  0.111108  0.888892  0.750000  1
  Re  Re24  1  0.111108  0.222214  0.750000  1
  Re  Re25  1  0.777786  0.888892  0.750000  1
  W  W26  1  0.000000  0.000000  0.496221  1
  W  W27  1  0.000000  0.000000  0.003779  1
