# generated using pymatgen
data_U2Si5RuPt2
_symmetry_space_group_name_H-M   'P 1'
_cell_length_a   8.15857010
_cell_length_b   8.15857030
_cell_length_c   5.97357647
_cell_angle_alpha   68.44612222
_cell_angle_beta   68.44612293
_cell_angle_gamma   88.96488548
_symmetry_Int_Tables_number   1
_chemical_formula_structural   U2Si5RuPt2
_chemical_formula_sum   'U4 Si10 Ru2 Pt4'
_cell_volume   340.79549469
_cell_formula_units_Z   2
loop_
 _symmetry_equiv_pos_site_id
 _symmetry_equiv_pos_as_xyz
  1  'x, y, z'
loop_
 _atom_site_type_symbol
 _atom_site_label
 _atom_site_symmetry_multiplicity
 _atom_site_fract_x
 _atom_site_fract_y
 _atom_site_fract_z
 _atom_site_occupancy
  U  U0  1  0.864023  0.600854  0.766575  1
  U  U1  1  0.399146  0.135977  0.733425  1
  U  U2  1  0.135977  0.399146  0.233425  1
  U  U3  1  0.600854  0.864023  0.266575  1
  Si  Si4  1  0.046113  0.255920  0.848923  1
  Si  Si5  1  0.744080  0.953887  0.651077  1
  Si  Si6  1  0.953887  0.744080  0.151077  1
  Si  Si7  1  0.255920  0.046113  0.348923  1
  Si  Si8  1  0.221700  0.778300  0.750000  1
  Si  Si9  1  0.778300  0.221700  0.250000  1
  Si  Si10  1  0.499883  0.500117  0.750000  1
  Si  Si11  1  0.500117  0.499883  0.250000  1
  Si  Si12  1  0.778387  0.221613  0.750000  1
  Si  Si13  1  0.221613  0.778387  0.250000  1
  Ru  Ru14  1  0.999813  0.000187  0.750000  1
  Ru  Ru15  1  0.000187  0.999813  0.250000  1
  Pt  Pt16  1  0.249673  0.528624  0.611223  1
  Pt  Pt17  1  0.471376  0.750327  0.888777  1
  Pt  Pt18  1  0.750327  0.471376  0.388777  1
  Pt  Pt19  1  0.528624  0.249673  0.111223  1
