# generated using pymatgen
data_Sr6Y13ThSn16
_symmetry_space_group_name_H-M   'P 1'
_cell_length_a   8.10883177
_cell_length_b   8.43319836
_cell_length_c   16.06131437
_cell_angle_alpha   90.04642305
_cell_angle_beta   91.62162805
_cell_angle_gamma   89.72467604
_symmetry_Int_Tables_number   1
_chemical_formula_structural   Sr6Y13ThSn16
_chemical_formula_sum   'Sr6 Y13 Th1 Sn16'
_cell_volume   1097.87427192
_cell_formula_units_Z   1
loop_
 _symmetry_equiv_pos_site_id
 _symmetry_equiv_pos_as_xyz
  1  'x, y, z'
loop_
 _atom_site_type_symbol
 _atom_site_label
 _atom_site_symmetry_multiplicity
 _atom_site_fract_x
 _atom_site_fract_y
 _atom_site_fract_z
 _atom_site_occupancy
  Sr  Sr0  1  0.006881  0.174778  0.598823  1
  Sr  Sr1  1  0.496986  0.675326  0.408121  1
  Sr  Sr2  1  0.990974  0.818786  0.089831  1
  Sr  Sr3  1  0.489504  0.679857  0.089374  1
  Sr  Sr4  1  0.997314  0.825011  0.408078  1
  Sr  Sr5  1  0.505704  0.326571  0.597054  1
  Y  Y6  1  0.349694  0.837968  0.877143  1
  Y  Y7  1  0.835809  0.667837  0.627877  1
  Y  Y8  1  0.662545  0.166997  0.377083  1
  Y  Y9  1  0.146756  0.342441  0.119501  1
  Y  Y10  1  0.646890  0.158073  0.119980  1
  Y  Y11  1  0.161842  0.333071  0.377094  1
  Y  Y12  1  0.336211  0.833351  0.628579  1
  Y  Y13  1  0.849091  0.658818  0.878556  1
  Y  Y14  1  0.515325  0.316516  0.902474  1
  Y  Y15  1  0.179597  0.496680  0.753327  1
  Y  Y16  1  0.676789  0.003863  0.752370  1
  Y  Y17  1  0.818519  0.503214  0.247130  1
  Y  Y18  1  0.320290  0.996404  0.247845  1
  Th  Th19  1  0.009527  0.182655  0.903101  1
  Sn  Sn20  1  0.306430  0.055406  0.035259  1
  Sn  Sn21  1  0.835626  0.459312  0.459203  1
  Sn  Sn22  1  0.665748  0.961290  0.544472  1
  Sn  Sn23  1  0.198368  0.526877  0.950041  1
  Sn  Sn24  1  0.692789  0.970013  0.951282  1
  Sn  Sn25  1  0.164737  0.540825  0.544598  1
  Sn  Sn26  1  0.335647  0.040980  0.459370  1
  Sn  Sn27  1  0.803826  0.443142  0.035637  1
  Sn  Sn28  1  0.542474  0.627564  0.752879  1
  Sn  Sn29  1  0.040029  0.872831  0.754865  1
  Sn  Sn30  1  0.454143  0.368308  0.249142  1
  Sn  Sn31  1  0.955264  0.131429  0.248956  1
  Sn  Sn32  1  0.313614  0.142800  0.757364  1
  Sn  Sn33  1  0.809513  0.361771  0.755303  1
  Sn  Sn34  1  0.692429  0.866420  0.249239  1
  Sn  Sn35  1  0.193116  0.632819  0.249048  1
