# generated using pymatgen
data_PuHg4Se2Cl5
_symmetry_space_group_name_H-M   'P 1'
_cell_length_a   8.54642702
_cell_length_b   10.62710400
_cell_length_c   9.17145600
_cell_angle_alpha   90.00000000
_cell_angle_beta   113.25635140
_cell_angle_gamma   90.00000000
_symmetry_Int_Tables_number   1
_chemical_formula_structural   PuHg4Se2Cl5
_chemical_formula_sum   'Pu2 Hg8 Se4 Cl10'
_cell_volume   765.30394320
_cell_formula_units_Z   2
loop_
 _symmetry_equiv_pos_site_id
 _symmetry_equiv_pos_as_xyz
  1  'x, y, z'
loop_
 _atom_site_type_symbol
 _atom_site_label
 _atom_site_symmetry_multiplicity
 _atom_site_fract_x
 _atom_site_fract_y
 _atom_site_fract_z
 _atom_site_occupancy
  Pu  Pu0  1  0.499562  0.430475  0.502357  1
  Pu  Pu1  1  0.500438  0.930475  0.497643  1
  Hg  Hg2  1  0.927676  0.180736  0.329780  1
  Hg  Hg3  1  0.072324  0.680736  0.670220  1
  Hg  Hg4  1  0.953373  0.667955  0.358839  1
  Hg  Hg5  1  0.046627  0.167955  0.641161  1
  Hg  Hg6  1  0.496487  0.182641  0.988574  1
  Hg  Hg7  1  0.503513  0.682641  0.011426  1
  Hg  Hg8  1  0.807270  0.432421  0.012775  1
  Hg  Hg9  1  0.192730  0.932421  0.987225  1
  Se  Se10  1  0.804303  0.192264  0.019733  1
  Se  Se11  1  0.195697  0.692264  0.980267  1
  Se  Se12  1  0.187292  0.170754  0.951081  1
  Se  Se13  1  0.812708  0.670754  0.048919  1
  Cl  Cl14  1  0.836467  0.925574  0.684071  1
  Cl  Cl15  1  0.163533  0.425574  0.315929  1
  Cl  Cl16  1  0.836967  0.438261  0.701402  1
  Cl  Cl17  1  0.163033  0.938261  0.298598  1
  Cl  Cl18  1  0.418169  0.457400  0.761353  1
  Cl  Cl19  1  0.581831  0.957400  0.238647  1
  Cl  Cl20  1  0.593668  0.395144  0.256910  1
  Cl  Cl21  1  0.406332  0.895144  0.743090  1
  Cl  Cl22  1  0.494792  0.179976  0.559771  1
  Cl  Cl23  1  0.505208  0.679976  0.440229  1
