# generated using pymatgen
data_Nd4Y3Ag10
_symmetry_space_group_name_H-M   'P 1'
_cell_length_a   8.95814697
_cell_length_b   8.95814672
_cell_length_c   10.71277800
_cell_angle_alpha   90.00000000
_cell_angle_beta   90.00000000
_cell_angle_gamma   106.65630446
_symmetry_Int_Tables_number   1
_chemical_formula_structural   Nd4Y3Ag10
_chemical_formula_sum   'Nd8 Y6 Ag20'
_cell_volume   823.61210582
_cell_formula_units_Z   2
loop_
 _symmetry_equiv_pos_site_id
 _symmetry_equiv_pos_as_xyz
  1  'x, y, z'
loop_
 _atom_site_type_symbol
 _atom_site_label
 _atom_site_symmetry_multiplicity
 _atom_site_fract_x
 _atom_site_fract_y
 _atom_site_fract_z
 _atom_site_occupancy
  Nd  Nd0  1  0.701547  0.298453  0.000000  1
  Nd  Nd1  1  0.298453  0.701547  0.000000  1
  Nd  Nd2  1  0.798453  0.201547  0.500000  1
  Nd  Nd3  1  0.201547  0.798453  0.500000  1
  Nd  Nd4  1  0.307692  0.307692  0.198284  1
  Nd  Nd5  1  0.692308  0.692308  0.801716  1
  Nd  Nd6  1  0.192308  0.192308  0.698284  1
  Nd  Nd7  1  0.807692  0.807692  0.301716  1
  Y  Y8  1  0.011668  0.511668  0.250000  1
  Y  Y9  1  0.988332  0.488332  0.750000  1
  Y  Y10  1  0.488332  0.988332  0.750000  1
  Y  Y11  1  0.511668  0.011668  0.250000  1
  Y  Y12  1  0.000000  0.000000  0.000000  1
  Y  Y13  1  0.500000  0.500000  0.500000  1
  Ag  Ag14  1  0.101301  0.101301  0.403031  1
  Ag  Ag15  1  0.898699  0.898699  0.596969  1
  Ag  Ag16  1  0.398699  0.398699  0.903031  1
  Ag  Ag17  1  0.601301  0.601301  0.096969  1
  Ag  Ag18  1  0.879116  0.162133  0.210556  1
  Ag  Ag19  1  0.120884  0.837867  0.789444  1
  Ag  Ag20  1  0.620884  0.337867  0.710556  1
  Ag  Ag21  1  0.662133  0.379116  0.289444  1
  Ag  Ag22  1  0.379116  0.662133  0.289444  1
  Ag  Ag23  1  0.337867  0.620884  0.710556  1
  Ag  Ag24  1  0.837867  0.120884  0.789444  1
  Ag  Ag25  1  0.162133  0.879116  0.210556  1
  Ag  Ag26  1  0.932275  0.646902  0.008542  1
  Ag  Ag27  1  0.067725  0.353098  0.991458  1
  Ag  Ag28  1  0.567725  0.853098  0.508542  1
  Ag  Ag29  1  0.146902  0.432275  0.491458  1
  Ag  Ag30  1  0.432275  0.146902  0.491458  1
  Ag  Ag31  1  0.853098  0.567725  0.508542  1
  Ag  Ag32  1  0.353098  0.067725  0.991458  1
  Ag  Ag33  1  0.646902  0.932275  0.008542  1
