# generated using pymatgen
data_NdTmMn2F14
_symmetry_space_group_name_H-M   'P 1'
_cell_length_a   5.49340776
_cell_length_b   8.86988534
_cell_length_c   11.88929200
_cell_angle_alpha   62.13521565
_cell_angle_beta   89.79911941
_cell_angle_gamma   89.93565726
_symmetry_Int_Tables_number   1
_chemical_formula_structural   NdTmMn2F14
_chemical_formula_sum   'Nd2 Tm2 Mn4 F28'
_cell_volume   512.14322025
_cell_formula_units_Z   2
loop_
 _symmetry_equiv_pos_site_id
 _symmetry_equiv_pos_as_xyz
  1  'x, y, z'
loop_
 _atom_site_type_symbol
 _atom_site_label
 _atom_site_symmetry_multiplicity
 _atom_site_fract_x
 _atom_site_fract_y
 _atom_site_fract_z
 _atom_site_occupancy
  Nd  Nd0  1  0.260812  0.813319  0.263947  1
  Nd  Nd1  1  0.739188  0.186681  0.736053  1
  Tm  Tm2  1  0.764403  0.193040  0.235782  1
  Tm  Tm3  1  0.235597  0.806960  0.764218  1
  Mn  Mn4  1  0.758488  0.720475  0.040822  1
  Mn  Mn5  1  0.241512  0.279525  0.959178  1
  Mn  Mn6  1  0.259559  0.269946  0.454228  1
  Mn  Mn7  1  0.740441  0.730054  0.545772  1
  F  F8  1  0.928512  0.709670  0.425254  1
  F  F9  1  0.071488  0.290330  0.574746  1
  F  F10  1  0.431666  0.295043  0.079941  1
  F  F11  1  0.568334  0.704957  0.920059  1
  F  F12  1  0.483408  0.725011  0.128400  1
  F  F13  1  0.516592  0.274989  0.871600  1
  F  F14  1  0.982492  0.268390  0.365903  1
  F  F15  1  0.017508  0.731610  0.634097  1
  F  F16  1  0.942551  0.735892  0.166029  1
  F  F17  1  0.057449  0.264108  0.833971  1
  F  F18  1  0.452380  0.253952  0.330508  1
  F  F19  1  0.547620  0.746048  0.669492  1
  F  F20  1  0.770446  0.484350  0.135729  1
  F  F21  1  0.229554  0.515650  0.864271  1
  F  F22  1  0.270076  0.505048  0.361747  1
  F  F23  1  0.729924  0.494952  0.638253  1
  F  F24  1  0.957054  0.282628  0.043756  1
  F  F25  1  0.042946  0.717372  0.956244  1
  F  F26  1  0.460482  0.719942  0.463518  1
  F  F27  1  0.539518  0.280058  0.536482  1
  F  F28  1  0.739756  0.963153  0.452783  1
  F  F29  1  0.260244  0.036847  0.547217  1
  F  F30  1  0.240831  0.045419  0.046244  1
  F  F31  1  0.759169  0.954581  0.953756  1
  F  F32  1  0.603988  0.980497  0.227190  1
  F  F33  1  0.396012  0.019503  0.772810  1
  F  F34  1  0.086198  0.041410  0.271416  1
  F  F35  1  0.913802  0.958590  0.728584  1
