# generated using pymatgen
data_Ho9Cd5Ir4
_symmetry_space_group_name_H-M   'P 1'
_cell_length_a   10.76605700
_cell_length_b   10.76605700
_cell_length_c   3.66284100
_cell_angle_alpha   90.00000000
_cell_angle_beta   90.00000000
_cell_angle_gamma   90.00000000
_symmetry_Int_Tables_number   1
_chemical_formula_structural   Ho9Cd5Ir4
_chemical_formula_sum   'Ho9 Cd5 Ir4'
_cell_volume   424.55251356
_cell_formula_units_Z   1
loop_
 _symmetry_equiv_pos_site_id
 _symmetry_equiv_pos_as_xyz
  1  'x, y, z'
loop_
 _atom_site_type_symbol
 _atom_site_label
 _atom_site_symmetry_multiplicity
 _atom_site_fract_x
 _atom_site_fract_y
 _atom_site_fract_z
 _atom_site_occupancy
  Ho  Ho0  1  0.326794  0.326794  0.500000  1
  Ho  Ho1  1  0.673206  0.673206  0.500000  1
  Ho  Ho2  1  0.326794  0.673206  0.500000  1
  Ho  Ho3  1  0.673206  0.326794  0.500000  1
  Ho  Ho4  1  0.000000  0.284526  0.500000  1
  Ho  Ho5  1  0.000000  0.715474  0.500000  1
  Ho  Ho6  1  0.284526  0.000000  0.500000  1
  Ho  Ho7  1  0.715474  0.000000  0.500000  1
  Ho  Ho8  1  0.000000  0.000000  0.000000  1
  Cd  Cd9  1  0.500000  0.145919  0.000000  1
  Cd  Cd10  1  0.500000  0.854081  0.000000  1
  Cd  Cd11  1  0.145919  0.500000  0.000000  1
  Cd  Cd12  1  0.854081  0.500000  0.000000  1
  Cd  Cd13  1  0.500000  0.500000  0.000000  1
  Ir  Ir14  1  0.189646  0.189646  0.000000  1
  Ir  Ir15  1  0.810354  0.810354  0.000000  1
  Ir  Ir16  1  0.189646  0.810354  0.000000  1
  Ir  Ir17  1  0.810354  0.189646  0.000000  1
