# generated using pymatgen
data_Na6AlCrH12
_symmetry_space_group_name_H-M   'P 1'
_cell_length_a   5.53177967
_cell_length_b   5.37341550
_cell_length_c   9.37066577
_cell_angle_alpha   55.00419991
_cell_angle_beta   89.63073423
_cell_angle_gamma   89.49360677
_symmetry_Int_Tables_number   1
_chemical_formula_structural   Na6AlCrH12
_chemical_formula_sum   'Na6 Al1 Cr1 H12'
_cell_volume   228.16812785
_cell_formula_units_Z   1
loop_
 _symmetry_equiv_pos_site_id
 _symmetry_equiv_pos_as_xyz
  1  'x, y, z'
loop_
 _atom_site_type_symbol
 _atom_site_label
 _atom_site_symmetry_multiplicity
 _atom_site_fract_x
 _atom_site_fract_y
 _atom_site_fract_z
 _atom_site_occupancy
  Na  Na0  1  0.000000  0.500000  0.500000  1
  Na  Na1  1  0.500000  0.500000  0.000000  1
  Na  Na2  1  0.045694  0.263838  0.246952  1
  Na  Na3  1  0.542699  0.738745  0.253344  1
  Na  Na4  1  0.954306  0.736162  0.753048  1
  Na  Na5  1  0.457301  0.261255  0.746656  1
  Al  Al6  1  0.500000  0.000000  0.500000  1
  Cr  Cr7  1  0.000000  0.000000  0.000000  1
  H  H8  1  0.232150  0.782834  0.556895  1
  H  H9  1  0.741210  0.224526  0.939150  1
  H  H10  1  0.767850  0.217166  0.443105  1
  H  H11  1  0.258790  0.775474  0.060850  1
  H  H12  1  0.172767  0.303609  0.957396  1
  H  H13  1  0.668561  0.687674  0.538941  1
  H  H14  1  0.827233  0.696391  0.042604  1
  H  H15  1  0.331439  0.312326  0.461059  1
  H  H16  1  0.046355  0.115357  0.786873  1
  H  H17  1  0.542853  0.870961  0.718242  1
  H  H18  1  0.953645  0.884643  0.213127  1
  H  H19  1  0.457147  0.129039  0.281758  1
