# generated using pymatgen
data_Ho4ErIn2(NiHg)2
_symmetry_space_group_name_H-M   'P 1'
_cell_length_a   7.77215900
_cell_length_b   17.97060801
_cell_length_c   3.59185700
_cell_angle_alpha   90.00000000
_cell_angle_beta   90.00000000
_cell_angle_gamma   90.00336549
_symmetry_Int_Tables_number   1
_chemical_formula_structural   Ho4ErIn2(NiHg)2
_chemical_formula_sum   'Ho8 Er2 In4 Ni4 Hg4'
_cell_volume   501.67618508
_cell_formula_units_Z   2
loop_
 _symmetry_equiv_pos_site_id
 _symmetry_equiv_pos_as_xyz
  1  'x, y, z'
loop_
 _atom_site_type_symbol
 _atom_site_label
 _atom_site_symmetry_multiplicity
 _atom_site_fract_x
 _atom_site_fract_y
 _atom_site_fract_z
 _atom_site_occupancy
  Ho  Ho0  1  0.500000  0.500000  0.000000  1
  Ho  Ho1  1  0.000000  0.000000  0.000000  1
  Ho  Ho2  1  0.749935  0.781078  0.000000  1
  Ho  Ho3  1  0.250065  0.218922  0.000000  1
  Ho  Ho4  1  0.610893  0.088351  0.000000  1
  Ho  Ho5  1  0.389107  0.911649  0.000000  1
  Ho  Ho6  1  0.889326  0.588342  0.000000  1
  Ho  Ho7  1  0.110674  0.411658  0.000000  1
  Er  Er8  1  0.750139  0.281094  0.000000  1
  Er  Er9  1  0.249861  0.718906  0.000000  1
  In  In10  1  0.574183  0.652215  0.500000  1
  In  In11  1  0.425817  0.347785  0.500000  1
  In  In12  1  0.925025  0.152284  0.500000  1
  In  In13  1  0.074975  0.847716  0.500000  1
  Ni  Ni14  1  0.536867  0.197606  0.500000  1
  Ni  Ni15  1  0.463133  0.802394  0.500000  1
  Ni  Ni16  1  0.964925  0.697146  0.500000  1
  Ni  Ni17  1  0.035075  0.302854  0.500000  1
  Hg  Hg18  1  0.711035  0.931079  0.500000  1
  Hg  Hg19  1  0.288965  0.068921  0.500000  1
  Hg  Hg20  1  0.788658  0.430762  0.500000  1
  Hg  Hg21  1  0.211342  0.569238  0.500000  1
