# generated using pymatgen
data_U3Co6NiB2
_symmetry_space_group_name_H-M   'P 1'
_cell_length_a   4.97061100
_cell_length_b   4.97061177
_cell_length_c   13.83344700
_cell_angle_alpha   90.00000000
_cell_angle_beta   90.00000000
_cell_angle_gamma   120.00000152
_symmetry_Int_Tables_number   1
_chemical_formula_structural   U3Co6NiB2
_chemical_formula_sum   'U6 Co12 Ni2 B4'
_cell_volume   295.99246541
_cell_formula_units_Z   2
loop_
 _symmetry_equiv_pos_site_id
 _symmetry_equiv_pos_as_xyz
  1  'x, y, z'
loop_
 _atom_site_type_symbol
 _atom_site_label
 _atom_site_symmetry_multiplicity
 _atom_site_fract_x
 _atom_site_fract_y
 _atom_site_fract_z
 _atom_site_occupancy
  U  U0  1  0.333333  0.666667  0.250000  1
  U  U1  1  0.666667  0.333333  0.750000  1
  U  U2  1  0.333333  0.666667  0.031610  1
  U  U3  1  0.666667  0.333333  0.531610  1
  U  U4  1  0.666667  0.333333  0.968390  1
  U  U5  1  0.333333  0.666667  0.468390  1
  Co  Co6  1  0.834028  0.668055  0.146299  1
  Co  Co7  1  0.165972  0.834028  0.646299  1
  Co  Co8  1  0.668055  0.834028  0.646299  1
  Co  Co9  1  0.331945  0.165972  0.146299  1
  Co  Co10  1  0.834028  0.165972  0.146299  1
  Co  Co11  1  0.165972  0.331945  0.853701  1
  Co  Co12  1  0.165972  0.834028  0.853701  1
  Co  Co13  1  0.165972  0.331945  0.646299  1
  Co  Co14  1  0.668055  0.834028  0.853701  1
  Co  Co15  1  0.331945  0.165972  0.353701  1
  Co  Co16  1  0.834028  0.668055  0.353701  1
  Co  Co17  1  0.834028  0.165972  0.353701  1
  Ni  Ni18  1  0.000000  0.000000  0.000000  1
  Ni  Ni19  1  0.000000  0.000000  0.500000  1
  B  B20  1  0.000000  0.000000  0.250000  1
  B  B21  1  0.000000  0.000000  0.750000  1
  B  B22  1  0.333333  0.666667  0.750000  1
  B  B23  1  0.666667  0.333333  0.250000  1
