# generated using pymatgen
data_Ho6Tm6ZnCo4Sn
_symmetry_space_group_name_H-M   'P 1'
_cell_length_a   8.23296478
_cell_length_b   8.23296465
_cell_length_c   8.23846412
_cell_angle_alpha   112.11695457
_cell_angle_beta   109.33014620
_cell_angle_gamma   106.97881726
_symmetry_Int_Tables_number   1
_chemical_formula_structural   Ho6Tm6ZnCo4Sn
_chemical_formula_sum   'Ho6 Tm6 Zn1 Co4 Sn1'
_cell_volume   429.15387480
_cell_formula_units_Z   1
loop_
 _symmetry_equiv_pos_site_id
 _symmetry_equiv_pos_as_xyz
  1  'x, y, z'
loop_
 _atom_site_type_symbol
 _atom_site_label
 _atom_site_symmetry_multiplicity
 _atom_site_fract_x
 _atom_site_fract_y
 _atom_site_fract_z
 _atom_site_occupancy
  Ho  Ho0  1  0.430085  0.228741  0.200061  1
  Ho  Ho1  1  0.569915  0.771259  0.799939  1
  Ho  Ho2  1  0.028681  0.230025  0.799939  1
  Ho  Ho3  1  0.971319  0.769975  0.200061  1
  Ho  Ho4  1  0.181201  0.283633  0.464833  1
  Ho  Ho5  1  0.818799  0.716367  0.535167  1
  Tm  Tm6  1  0.181479  0.716546  0.898024  1
  Tm  Tm7  1  0.818521  0.283454  0.101976  1
  Tm  Tm8  1  0.323898  0.636581  0.311457  1
  Tm  Tm9  1  0.676102  0.363419  0.688543  1
  Tm  Tm10  1  0.325122  0.012441  0.688543  1
  Tm  Tm11  1  0.674878  0.987559  0.311457  1
  Zn  Zn12  1  0.000000  0.000000  0.000000  1
  Co  Co13  1  0.345970  0.999300  0.345270  1
  Co  Co14  1  0.654030  0.000700  0.654730  1
  Co  Co15  1  0.115153  0.615153  0.500000  1
  Co  Co16  1  0.884847  0.384847  0.500000  1
  Sn  Sn17  1  0.500000  0.500000  0.000000  1
