# generated using pymatgen
data_Tb4Lu4Ti5Si16Mo7
_symmetry_space_group_name_H-M   'P 1'
_cell_length_a   6.92036018
_cell_length_b   6.91181242
_cell_length_c   12.79117553
_cell_angle_alpha   89.84448080
_cell_angle_beta   90.00725332
_cell_angle_gamma   89.96994719
_symmetry_Int_Tables_number   1
_chemical_formula_structural   Tb4Lu4Ti5Si16Mo7
_chemical_formula_sum   'Tb4 Lu4 Ti5 Si16 Mo7'
_cell_volume   611.82812516
_cell_formula_units_Z   1
loop_
 _symmetry_equiv_pos_site_id
 _symmetry_equiv_pos_as_xyz
  1  'x, y, z'
loop_
 _atom_site_type_symbol
 _atom_site_label
 _atom_site_symmetry_multiplicity
 _atom_site_fract_x
 _atom_site_fract_y
 _atom_site_fract_z
 _atom_site_occupancy
  Tb  Tb0  1  0.160971  0.502223  0.782201  1
  Tb  Tb1  1  0.659753  0.997490  0.968903  1
  Tb  Tb2  1  0.003309  0.339579  0.531291  1
  Tb  Tb3  1  0.995598  0.661193  0.031715  1
  Lu  Lu4  1  0.342087  0.002177  0.467251  1
  Lu  Lu5  1  0.499363  0.841181  0.718563  1
  Lu  Lu6  1  0.500163  0.160267  0.219663  1
  Lu  Lu7  1  0.839985  0.497965  0.280822  1
  Ti  Ti8  1  0.330176  0.329892  0.000006  1
  Ti  Ti9  1  0.169097  0.830144  0.250639  1
  Ti  Ti10  1  0.828256  0.170564  0.749709  1
  Ti  Ti11  1  0.669900  0.667533  0.498647  1
  Ti  Ti12  1  0.994041  0.841424  0.624656  1
  Si  Si13  1  0.204804  0.126357  0.682739  1
  Si  Si14  1  0.372682  0.702236  0.933842  1
  Si  Si15  1  0.630311  0.298504  0.431648  1
  Si  Si16  1  0.698632  0.369911  0.068599  1
  Si  Si17  1  0.301931  0.632465  0.565372  1
  Si  Si18  1  0.796826  0.871493  0.184836  1
  Si  Si19  1  0.129333  0.200877  0.317405  1
  Si  Si20  1  0.871255  0.799666  0.814920  1
  Si  Si21  1  0.289328  0.960517  0.064102  1
  Si  Si22  1  0.540083  0.791360  0.313155  1
  Si  Si23  1  0.459387  0.208959  0.811786  1
  Si  Si24  1  0.787485  0.542725  0.687259  1
  Si  Si25  1  0.209389  0.458186  0.187875  1
  Si  Si26  1  0.707845  0.041065  0.563064  1
  Si  Si27  1  0.958778  0.288542  0.937714  1
  Si  Si28  1  0.043552  0.711216  0.436202  1
  Mo  Mo29  1  0.161583  0.007307  0.874707  1
  Mo  Mo30  1  0.492204  0.658096  0.125764  1
  Mo  Mo31  1  0.506500  0.340263  0.621780  1
  Mo  Mo32  1  0.656976  0.491087  0.877636  1
  Mo  Mo33  1  0.343990  0.504924  0.374267  1
  Mo  Mo34  1  0.839141  0.992762  0.373105  1
  Mo  Mo35  1  0.005285  0.159852  0.128158  1
