# generated using pymatgen
data_ErNbSnB2Ru5
_symmetry_space_group_name_H-M   'P 1'
_cell_length_a   9.62749876
_cell_length_b   9.62749905
_cell_length_c   3.09211000
_cell_angle_alpha   90.00000000
_cell_angle_beta   90.00000000
_cell_angle_gamma   88.25854693
_symmetry_Int_Tables_number   1
_chemical_formula_structural   ErNbSnB2Ru5
_chemical_formula_sum   'Er2 Nb2 Sn2 B4 Ru10'
_cell_volume   286.47139264
_cell_formula_units_Z   2
loop_
 _symmetry_equiv_pos_site_id
 _symmetry_equiv_pos_as_xyz
  1  'x, y, z'
loop_
 _atom_site_type_symbol
 _atom_site_label
 _atom_site_symmetry_multiplicity
 _atom_site_fract_x
 _atom_site_fract_y
 _atom_site_fract_z
 _atom_site_occupancy
  Er  Er0  1  0.176157  0.176157  0.000000  1
  Er  Er1  1  0.823843  0.823843  0.000000  1
  Nb  Nb2  1  0.674254  0.325746  0.000000  1
  Nb  Nb3  1  0.325746  0.674254  0.000000  1
  Sn  Sn4  1  0.500000  0.000000  0.000000  1
  Sn  Sn5  1  0.000000  0.500000  0.000000  1
  B  B6  1  0.379917  0.379917  0.000000  1
  B  B7  1  0.620083  0.620083  0.000000  1
  B  B8  1  0.878142  0.121858  0.000000  1
  B  B9  1  0.121858  0.878142  0.000000  1
  Ru  Ru10  1  0.500000  0.500000  0.500000  1
  Ru  Ru11  1  0.000000  0.000000  0.500000  1
  Ru  Ru12  1  0.443932  0.227989  0.500000  1
  Ru  Ru13  1  0.556068  0.772011  0.500000  1
  Ru  Ru14  1  0.914278  0.282454  0.500000  1
  Ru  Ru15  1  0.085722  0.717546  0.500000  1
  Ru  Ru16  1  0.717546  0.085722  0.500000  1
  Ru  Ru17  1  0.282454  0.914278  0.500000  1
  Ru  Ru18  1  0.772011  0.556068  0.500000  1
  Ru  Ru19  1  0.227989  0.443932  0.500000  1
