# generated using pymatgen
data_Gd4Al7Os
_symmetry_space_group_name_H-M   'P 1'
_cell_length_a   5.63889400
_cell_length_b   5.63889347
_cell_length_c   8.83360400
_cell_angle_alpha   90.00000000
_cell_angle_beta   90.00000000
_cell_angle_gamma   119.99997962
_symmetry_Int_Tables_number   1
_chemical_formula_structural   Gd4Al7Os
_chemical_formula_sum   'Gd4 Al7 Os1'
_cell_volume   243.25202726
_cell_formula_units_Z   1
loop_
 _symmetry_equiv_pos_site_id
 _symmetry_equiv_pos_as_xyz
  1  'x, y, z'
loop_
 _atom_site_type_symbol
 _atom_site_label
 _atom_site_symmetry_multiplicity
 _atom_site_fract_x
 _atom_site_fract_y
 _atom_site_fract_z
 _atom_site_occupancy
  Gd  Gd0  1  0.333333  0.666667  0.443744  1
  Gd  Gd1  1  0.666667  0.333333  0.936685  1
  Gd  Gd2  1  0.666667  0.333333  0.556256  1
  Gd  Gd3  1  0.333333  0.666667  0.063315  1
  Al  Al4  1  0.167180  0.334358  0.760679  1
  Al  Al5  1  0.832820  0.167180  0.239321  1
  Al  Al6  1  0.334358  0.167180  0.239321  1
  Al  Al7  1  0.665642  0.832820  0.760679  1
  Al  Al8  1  0.000000  0.000000  0.500000  1
  Al  Al9  1  0.832820  0.665642  0.239321  1
  Al  Al10  1  0.167180  0.832820  0.760679  1
  Os  Os11  1  0.000000  0.000000  0.000000  1
