# generated using pymatgen
data_Th2Re2TcOs
_symmetry_space_group_name_H-M   'P 1'
_cell_length_a   5.28159939
_cell_length_b   5.28159938
_cell_length_c   9.66581900
_cell_angle_alpha   90.00000000
_cell_angle_beta   90.00000000
_cell_angle_gamma   118.69137597
_symmetry_Int_Tables_number   1
_chemical_formula_structural   Th2Re2TcOs
_chemical_formula_sum   'Th4 Re4 Tc2 Os2'
_cell_volume   236.52514732
_cell_formula_units_Z   2
loop_
 _symmetry_equiv_pos_site_id
 _symmetry_equiv_pos_as_xyz
  1  'x, y, z'
loop_
 _atom_site_type_symbol
 _atom_site_label
 _atom_site_symmetry_multiplicity
 _atom_site_fract_x
 _atom_site_fract_y
 _atom_site_fract_z
 _atom_site_occupancy
  Th  Th0  1  0.333454  0.666546  0.438035  1
  Th  Th1  1  0.667220  0.332780  0.561995  1
  Th  Th2  1  0.667220  0.332780  0.938005  1
  Th  Th3  1  0.333454  0.666546  0.061965  1
  Re  Re4  1  0.831681  0.168319  0.250000  1
  Re  Re5  1  0.830323  0.660057  0.250000  1
  Re  Re6  1  0.339943  0.169677  0.250000  1
  Re  Re7  1  0.164875  0.835125  0.750000  1
  Tc  Tc8  1  0.167417  0.343010  0.750000  1
  Tc  Tc9  1  0.656990  0.832583  0.750000  1
  Os  Os10  1  0.003712  0.996288  0.499692  1
  Os  Os11  1  0.003712  0.996288  0.000308  1
