# generated using pymatgen
data_Tb8Dy12Co3Bi8Os
_symmetry_space_group_name_H-M   'P 1'
_cell_length_a   8.02064042
_cell_length_b   8.92812000
_cell_length_c   12.44498601
_cell_angle_alpha   90.00000000
_cell_angle_beta   90.26749848
_cell_angle_gamma   90.00000000
_symmetry_Int_Tables_number   1
_chemical_formula_structural   Tb8Dy12Co3Bi8Os
_chemical_formula_sum   'Tb8 Dy12 Co3 Bi8 Os1'
_cell_volume   891.16627976
_cell_formula_units_Z   1
loop_
 _symmetry_equiv_pos_site_id
 _symmetry_equiv_pos_as_xyz
  1  'x, y, z'
loop_
 _atom_site_type_symbol
 _atom_site_label
 _atom_site_symmetry_multiplicity
 _atom_site_fract_x
 _atom_site_fract_y
 _atom_site_fract_z
 _atom_site_occupancy
  Tb  Tb0  1  0.846392  0.750000  0.800269  1
  Tb  Tb1  1  0.153016  0.250000  0.198426  1
  Tb  Tb2  1  0.347155  0.250000  0.699086  1
  Tb  Tb3  1  0.655048  0.750000  0.294599  1
  Tb  Tb4  1  0.376530  0.750000  0.694015  1
  Tb  Tb5  1  0.620385  0.250000  0.310517  1
  Tb  Tb6  1  0.879354  0.250000  0.811237  1
  Tb  Tb7  1  0.120156  0.750000  0.187078  1
  Dy  Dy8  1  0.946016  0.750000  0.504147  1
  Dy  Dy9  1  0.049857  0.250000  0.496587  1
  Dy  Dy10  1  0.452176  0.250000  0.997043  1
  Dy  Dy11  1  0.547559  0.750000  0.002713  1
  Dy  Dy12  1  0.676717  0.041037  0.564952  1
  Dy  Dy13  1  0.323730  0.965145  0.436328  1
  Dy  Dy14  1  0.176044  0.966218  0.936739  1
  Dy  Dy15  1  0.323730  0.534855  0.436328  1
  Dy  Dy16  1  0.823456  0.035768  0.063189  1
  Dy  Dy17  1  0.676717  0.458963  0.564952  1
  Dy  Dy18  1  0.823456  0.464232  0.063189  1
  Dy  Dy19  1  0.176044  0.533782  0.936739  1
  Co  Co20  1  0.434269  0.250000  0.491116  1
  Co  Co21  1  0.060536  0.250000  0.992065  1
  Co  Co22  1  0.938383  0.750000  0.007288  1
  Bi  Bi23  1  0.570298  0.492008  0.827720  1
  Bi  Bi24  1  0.429413  0.507092  0.172767  1
  Bi  Bi25  1  0.069916  0.507215  0.674019  1
  Bi  Bi26  1  0.429413  0.992908  0.172767  1
  Bi  Bi27  1  0.931973  0.492414  0.326240  1
  Bi  Bi28  1  0.570298  0.007992  0.827720  1
  Bi  Bi29  1  0.931973  0.007586  0.326240  1
  Bi  Bi30  1  0.069916  0.992785  0.674019  1
  Os  Os31  1  0.570075  0.750000  0.509905  1
