# generated using pymatgen
data_Gd2Ta3Si4
_symmetry_space_group_name_H-M   'P 1'
_cell_length_a   6.88966700
_cell_length_b   7.08039000
_cell_length_c   13.41427200
_cell_angle_alpha   90.00000000
_cell_angle_beta   90.00000000
_cell_angle_gamma   90.00000000
_symmetry_Int_Tables_number   1
_chemical_formula_structural   Gd2Ta3Si4
_chemical_formula_sum   'Gd8 Ta12 Si16'
_cell_volume   654.36870301
_cell_formula_units_Z   4
loop_
 _symmetry_equiv_pos_site_id
 _symmetry_equiv_pos_as_xyz
  1  'x, y, z'
loop_
 _atom_site_type_symbol
 _atom_site_label
 _atom_site_symmetry_multiplicity
 _atom_site_fract_x
 _atom_site_fract_y
 _atom_site_fract_z
 _atom_site_occupancy
  Gd  Gd0  1  0.503557  0.670194  0.595537  1
  Gd  Gd1  1  0.003557  0.829806  0.904463  1
  Gd  Gd2  1  0.496443  0.329806  0.095537  1
  Gd  Gd3  1  0.996443  0.170194  0.404463  1
  Gd  Gd4  1  0.496443  0.329806  0.404463  1
  Gd  Gd5  1  0.996443  0.170194  0.095537  1
  Gd  Gd6  1  0.503557  0.670194  0.904463  1
  Gd  Gd7  1  0.003557  0.829806  0.595537  1
  Ta  Ta8  1  0.661862  0.175371  0.625719  1
  Ta  Ta9  1  0.161862  0.324629  0.874281  1
  Ta  Ta10  1  0.338138  0.824629  0.125719  1
  Ta  Ta11  1  0.838138  0.675371  0.374281  1
  Ta  Ta12  1  0.338138  0.824629  0.374281  1
  Ta  Ta13  1  0.838138  0.675371  0.125719  1
  Ta  Ta14  1  0.661862  0.175371  0.874281  1
  Ta  Ta15  1  0.161862  0.324629  0.625719  1
  Ta  Ta16  1  0.837893  0.489984  0.750000  1
  Ta  Ta17  1  0.337893  0.010016  0.750000  1
  Ta  Ta18  1  0.162107  0.510016  0.250000  1
  Ta  Ta19  1  0.662107  0.989984  0.250000  1
  Si  Si20  1  0.662631  0.962888  0.458315  1
  Si  Si21  1  0.162631  0.537112  0.041685  1
  Si  Si22  1  0.337369  0.037112  0.958315  1
  Si  Si23  1  0.837369  0.462888  0.541685  1
  Si  Si24  1  0.337369  0.037112  0.541685  1
  Si  Si25  1  0.837369  0.462888  0.958315  1
  Si  Si26  1  0.662631  0.962888  0.041685  1
  Si  Si27  1  0.162631  0.537112  0.458315  1
  Si  Si28  1  0.458305  0.376328  0.750000  1
  Si  Si29  1  0.958305  0.123672  0.750000  1
  Si  Si30  1  0.541695  0.623672  0.250000  1
  Si  Si31  1  0.041695  0.876328  0.250000  1
  Si  Si32  1  0.704113  0.874787  0.750000  1
  Si  Si33  1  0.204113  0.625213  0.750000  1
  Si  Si34  1  0.295887  0.125213  0.250000  1
  Si  Si35  1  0.795887  0.374787  0.250000  1
