# generated using pymatgen
data_Sm2BiSb9O26
_symmetry_space_group_name_H-M   'P 1'
_cell_length_a   7.45827400
_cell_length_b   7.38162526
_cell_length_c   10.33161220
_cell_angle_alpha   88.95511637
_cell_angle_beta   90.00000000
_cell_angle_gamma   90.00000000
_symmetry_Int_Tables_number   1
_chemical_formula_structural   Sm2BiSb9O26
_chemical_formula_sum   'Sm2 Bi1 Sb9 O26'
_cell_volume   568.70389468
_cell_formula_units_Z   1
loop_
 _symmetry_equiv_pos_site_id
 _symmetry_equiv_pos_as_xyz
  1  'x, y, z'
loop_
 _atom_site_type_symbol
 _atom_site_label
 _atom_site_symmetry_multiplicity
 _atom_site_fract_x
 _atom_site_fract_y
 _atom_site_fract_z
 _atom_site_occupancy
  Sm  Sm0  1  0.499859  0.497583  0.001744  1
  Sm  Sm1  1  0.000141  0.497583  0.001744  1
  Bi  Bi2  1  0.250000  0.753080  0.737557  1
  Sb  Sb3  1  0.750000  0.269664  0.278806  1
  Sb  Sb4  1  0.501058  0.999533  0.999549  1
  Sb  Sb5  1  0.750000  0.757545  0.745293  1
  Sb  Sb6  1  0.250000  0.749142  0.253505  1
  Sb  Sb7  1  0.497213  0.500937  0.500466  1
  Sb  Sb8  1  0.002787  0.500937  0.500466  1
  Sb  Sb9  1  0.750000  0.251671  0.746224  1
  Sb  Sb10  1  0.250000  0.240755  0.252532  1
  Sb  Sb11  1  0.998942  0.999533  0.999549  1
  O  O12  1  0.449694  0.689657  0.370536  1
  O  O13  1  0.750000  0.450364  0.136822  1
  O  O14  1  0.250000  0.493266  0.165563  1
  O  O15  1  0.455616  0.308175  0.365863  1
  O  O16  1  0.558869  0.212157  0.883702  1
  O  O17  1  0.941131  0.212157  0.883702  1
  O  O18  1  0.443490  0.203253  0.119370  1
  O  O19  1  0.750000  0.993819  0.070743  1
  O  O20  1  0.250000  0.993167  0.921885  1
  O  O21  1  0.750000  0.004410  0.682306  1
  O  O22  1  0.549759  0.796160  0.874685  1
  O  O23  1  0.950241  0.796160  0.874685  1
  O  O24  1  0.440543  0.788002  0.115195  1
  O  O25  1  0.050306  0.689657  0.370536  1
  O  O26  1  0.547785  0.694595  0.630083  1
  O  O27  1  0.952215  0.694595  0.630083  1
  O  O28  1  0.250000  0.516100  0.576589  1
  O  O29  1  0.750000  0.507057  0.836345  1
  O  O30  1  0.750000  0.478815  0.421893  1
  O  O31  1  0.044384  0.308175  0.365863  1
  O  O32  1  0.551449  0.310984  0.628118  1
  O  O33  1  0.948551  0.310984  0.628118  1
  O  O34  1  0.056510  0.203253  0.119370  1
  O  O35  1  0.250000  0.996001  0.319047  1
  O  O36  1  0.059457  0.788002  0.115195  1
  O  O37  1  0.250000  0.543074  0.876270  1
