# generated using pymatgen
data_Dy2Er2Lu2FeBi2
_symmetry_space_group_name_H-M   'P 1'
_cell_length_a   8.21801100
_cell_length_b   8.21801217
_cell_length_c   4.15077900
_cell_angle_alpha   90.00000000
_cell_angle_beta   90.00000000
_cell_angle_gamma   120.15050020
_symmetry_Int_Tables_number   1
_chemical_formula_structural   Dy2Er2Lu2FeBi2
_chemical_formula_sum   'Dy2 Er2 Lu2 Fe1 Bi2'
_cell_volume   242.40027938
_cell_formula_units_Z   1
loop_
 _symmetry_equiv_pos_site_id
 _symmetry_equiv_pos_as_xyz
  1  'x, y, z'
loop_
 _atom_site_type_symbol
 _atom_site_label
 _atom_site_symmetry_multiplicity
 _atom_site_fract_x
 _atom_site_fract_y
 _atom_site_fract_z
 _atom_site_occupancy
  Dy  Dy0  1  0.611351  0.999817  0.000000  1
  Dy  Dy1  1  0.999817  0.611351  0.000000  1
  Er  Er2  1  0.771036  0.771036  0.500000  1
  Er  Er3  1  0.385142  0.385142  0.000000  1
  Lu  Lu4  1  0.229613  0.000528  0.500000  1
  Lu  Lu5  1  0.000528  0.229613  0.500000  1
  Fe  Fe6  1  0.004730  0.004730  0.000000  1
  Bi  Bi7  1  0.331978  0.665806  0.500000  1
  Bi  Bi8  1  0.665806  0.331978  0.500000  1
