# generated using pymatgen
data_Tb3Al12(TcRh)2
_symmetry_space_group_name_H-M   'P 1'
_cell_length_a   8.87254039
_cell_length_b   8.83435754
_cell_length_c   9.66234700
_cell_angle_alpha   90.00000000
_cell_angle_beta   90.00000000
_cell_angle_gamma   119.85774913
_symmetry_Int_Tables_number   1
_chemical_formula_structural   Tb3Al12(TcRh)2
_chemical_formula_sum   'Tb6 Al24 Tc4 Rh4'
_cell_volume   656.83601830
_cell_formula_units_Z   2
loop_
 _symmetry_equiv_pos_site_id
 _symmetry_equiv_pos_as_xyz
  1  'x, y, z'
loop_
 _atom_site_type_symbol
 _atom_site_label
 _atom_site_symmetry_multiplicity
 _atom_site_fract_x
 _atom_site_fract_y
 _atom_site_fract_z
 _atom_site_occupancy
  Tb  Tb0  1  0.381900  0.190950  0.250000  1
  Tb  Tb1  1  0.810887  0.197796  0.250000  1
  Tb  Tb2  1  0.810887  0.613091  0.250000  1
  Tb  Tb3  1  0.618100  0.809050  0.750000  1
  Tb  Tb4  1  0.189113  0.802204  0.750000  1
  Tb  Tb5  1  0.189113  0.386909  0.750000  1
  Al  Al6  1  0.439168  0.876334  0.250000  1
  Al  Al7  1  0.129035  0.564518  0.250000  1
  Al  Al8  1  0.439168  0.562835  0.250000  1
  Al  Al9  1  0.560832  0.123666  0.750000  1
  Al  Al10  1  0.870965  0.435482  0.750000  1
  Al  Al11  1  0.560832  0.437165  0.750000  1
  Al  Al12  1  0.162239  0.836296  0.424062  1
  Al  Al13  1  0.162239  0.325944  0.424062  1
  Al  Al14  1  0.674621  0.837311  0.422649  1
  Al  Al15  1  0.837761  0.163704  0.575938  1
  Al  Al16  1  0.837761  0.674056  0.575938  1
  Al  Al17  1  0.325379  0.162689  0.577351  1
  Al  Al18  1  0.837761  0.163704  0.924062  1
  Al  Al19  1  0.837761  0.674056  0.924062  1
  Al  Al20  1  0.325379  0.162689  0.922649  1
  Al  Al21  1  0.162239  0.836296  0.075938  1
  Al  Al22  1  0.162239  0.325944  0.075938  1
  Al  Al23  1  0.674621  0.837311  0.077351  1
  Al  Al24  1  0.332943  0.666472  0.520645  1
  Al  Al25  1  0.667057  0.333528  0.479355  1
  Al  Al26  1  0.667057  0.333528  0.020645  1
  Al  Al27  1  0.332943  0.666472  0.979355  1
  Al  Al28  1  0.000116  0.000057  0.250000  1
  Al  Al29  1  0.999884  0.999943  0.750000  1
  Tc  Tc30  1  0.000000  0.000000  0.500000  1
  Tc  Tc31  1  0.000000  0.000000  0.000000  1
  Tc  Tc32  1  0.000000  0.500000  0.500000  1
  Tc  Tc33  1  0.000000  0.500000  0.000000  1
  Rh  Rh34  1  0.500000  0.000000  0.500000  1
  Rh  Rh35  1  0.500000  0.500000  0.500000  1
  Rh  Rh36  1  0.500000  0.000000  0.000000  1
  Rh  Rh37  1  0.500000  0.500000  0.000000  1
