# generated using pymatgen
data_Tb6HoErAl4
_symmetry_space_group_name_H-M   'P 1'
_cell_length_a   5.12082200
_cell_length_b   6.56112112
_cell_length_c   9.45897700
_cell_angle_alpha   90.39271774
_cell_angle_beta   90.00000000
_cell_angle_gamma   90.00000000
_symmetry_Int_Tables_number   1
_chemical_formula_structural   Tb6HoErAl4
_chemical_formula_sum   'Tb6 Ho1 Er1 Al4'
_cell_volume   317.79839742
_cell_formula_units_Z   1
loop_
 _symmetry_equiv_pos_site_id
 _symmetry_equiv_pos_as_xyz
  1  'x, y, z'
loop_
 _atom_site_type_symbol
 _atom_site_label
 _atom_site_symmetry_multiplicity
 _atom_site_fract_x
 _atom_site_fract_y
 _atom_site_fract_z
 _atom_site_occupancy
  Tb  Tb0  1  0.750000  0.690622  0.427564  1
  Tb  Tb1  1  0.250000  0.309086  0.573744  1
  Tb  Tb2  1  0.750000  0.186978  0.073019  1
  Tb  Tb3  1  0.250000  0.813110  0.925726  1
  Tb  Tb4  1  0.750000  0.527359  0.790977  1
  Tb  Tb5  1  0.250000  0.472570  0.209150  1
  Ho  Ho6  1  0.250000  0.972020  0.289404  1
  Er  Er7  1  0.750000  0.027490  0.709575  1
  Al  Al8  1  0.750000  0.207008  0.399393  1
  Al  Al9  1  0.250000  0.793646  0.601530  1
  Al  Al10  1  0.750000  0.708339  0.102985  1
  Al  Al11  1  0.250000  0.291773  0.896935  1
