# generated using pymatgen
data_Pr16Y3InIr12
_symmetry_space_group_name_H-M   'P 1'
_cell_length_a   11.31338300
_cell_length_b   11.31338300
_cell_length_c   6.48566800
_cell_angle_alpha   90.00000000
_cell_angle_beta   90.00000000
_cell_angle_gamma   90.00000000
_symmetry_Int_Tables_number   1
_chemical_formula_structural   Pr16Y3InIr12
_chemical_formula_sum   'Pr16 Y3 In1 Ir12'
_cell_volume   830.11773644
_cell_formula_units_Z   1
loop_
 _symmetry_equiv_pos_site_id
 _symmetry_equiv_pos_as_xyz
  1  'x, y, z'
loop_
 _atom_site_type_symbol
 _atom_site_label
 _atom_site_symmetry_multiplicity
 _atom_site_fract_x
 _atom_site_fract_y
 _atom_site_fract_z
 _atom_site_occupancy
  Pr  Pr0  1  0.280206  0.084768  0.383215  1
  Pr  Pr1  1  0.289424  0.912049  0.882832  1
  Pr  Pr2  1  0.710576  0.087951  0.882832  1
  Pr  Pr3  1  0.719794  0.915232  0.383215  1
  Pr  Pr4  1  0.588723  0.789497  0.884901  1
  Pr  Pr5  1  0.587127  0.210469  0.381386  1
  Pr  Pr6  1  0.412873  0.789531  0.381386  1
  Pr  Pr7  1  0.411277  0.210503  0.884901  1
  Pr  Pr8  1  0.210469  0.412873  0.618614  1
  Pr  Pr9  1  0.210503  0.588723  0.115099  1
  Pr  Pr10  1  0.789497  0.411277  0.115099  1
  Pr  Pr11  1  0.789531  0.587127  0.618614  1
  Pr  Pr12  1  0.912049  0.710576  0.117168  1
  Pr  Pr13  1  0.915232  0.280206  0.616785  1
  Pr  Pr14  1  0.084768  0.719794  0.616785  1
  Pr  Pr15  1  0.087951  0.289424  0.117168  1
  Y  Y16  1  0.000000  0.000000  0.000000  1
  Y  Y17  1  0.500000  0.500000  0.000000  1
  Y  Y18  1  0.500000  0.500000  0.500000  1
  In  In19  1  0.000000  0.000000  0.500000  1
  Ir  Ir20  1  0.850472  0.152397  0.243842  1
  Ir  Ir21  1  0.847603  0.850472  0.756158  1
  Ir  Ir22  1  0.152397  0.149528  0.756158  1
  Ir  Ir23  1  0.149528  0.847603  0.243842  1
  Ir  Ir24  1  0.650270  0.351300  0.746773  1
  Ir  Ir25  1  0.648700  0.650270  0.253227  1
  Ir  Ir26  1  0.351300  0.349730  0.253227  1
  Ir  Ir27  1  0.349730  0.648700  0.746773  1
  Ir  Ir28  1  0.500000  0.000000  0.122355  1
  Ir  Ir29  1  0.500000  0.000000  0.616264  1
  Ir  Ir30  1  0.000000  0.500000  0.877645  1
  Ir  Ir31  1  0.000000  0.500000  0.383736  1
