# generated using pymatgen
data_Cs11K6Rb(GaSb4)2
_symmetry_space_group_name_H-M   'P 1'
_cell_length_a   11.16691526
_cell_length_b   11.15665493
_cell_length_c   11.68952290
_cell_angle_alpha   90.00007467
_cell_angle_beta   89.96097955
_cell_angle_gamma   119.96873631
_symmetry_Int_Tables_number   1
_chemical_formula_structural   Cs11K6Rb(GaSb4)2
_chemical_formula_sum   'Cs11 K6 Rb1 Ga2 Sb8'
_cell_volume   1261.62775999
_cell_formula_units_Z   1
loop_
 _symmetry_equiv_pos_site_id
 _symmetry_equiv_pos_as_xyz
  1  'x, y, z'
loop_
 _atom_site_type_symbol
 _atom_site_label
 _atom_site_symmetry_multiplicity
 _atom_site_fract_x
 _atom_site_fract_y
 _atom_site_fract_z
 _atom_site_occupancy
  Cs  Cs0  1  0.790706  0.209115  0.041602  1
  Cs  Cs1  1  0.790709  0.581595  0.041601  1
  Cs  Cs2  1  0.790914  0.581774  0.458404  1
  Cs  Cs3  1  0.418192  0.209097  0.458262  1
  Cs  Cs4  1  0.790912  0.209143  0.458401  1
  Cs  Cs5  1  0.209063  0.790884  0.541617  1
  Cs  Cs6  1  0.581795  0.790898  0.541635  1
  Cs  Cs7  1  0.209061  0.418176  0.541615  1
  Cs  Cs8  1  0.209164  0.418117  0.958425  1
  Cs  Cs9  1  0.209167  0.791046  0.958423  1
  Cs  Cs10  1  0.581788  0.790895  0.958437  1
  K  K11  1  0.119237  0.238187  0.249897  1
  K  K12  1  0.119244  0.881053  0.249897  1
  K  K13  1  0.761821  0.880910  0.249997  1
  K  K14  1  0.238403  0.119199  0.750261  1
  K  K15  1  0.880920  0.119173  0.750005  1
  K  K16  1  0.880919  0.761746  0.750005  1
  Rb  Rb17  1  0.417569  0.208783  0.041237  1
  Ga  Ga18  1  0.332930  0.666455  0.249685  1
  Ga  Ga19  1  0.666654  0.333338  0.750211  1
  Sb  Sb20  1  0.000636  0.000318  0.000060  1
  Sb  Sb21  1  0.054981  0.527488  0.250035  1
  Sb  Sb22  1  0.472813  0.527243  0.249812  1
  Sb  Sb23  1  0.472799  0.945536  0.249813  1
  Sb  Sb24  1  0.999917  0.999959  0.500015  1
  Sb  Sb25  1  0.527351  0.055014  0.750343  1
  Sb  Sb26  1  0.527337  0.472360  0.750344  1
  Sb  Sb27  1  0.945000  0.472503  0.749961  1
