# generated using pymatgen
data_Sm4Ga18Co3Pt2Rh
_symmetry_space_group_name_H-M   'P 1'
_cell_length_a   7.55002667
_cell_length_b   7.55002657
_cell_length_c   9.52486542
_cell_angle_alpha   89.87071281
_cell_angle_beta   89.87071304
_cell_angle_gamma   119.57427884
_symmetry_Int_Tables_number   1
_chemical_formula_structural   Sm4Ga18Co3Pt2Rh
_chemical_formula_sum   'Sm4 Ga18 Co3 Pt2 Rh1'
_cell_volume   472.20349595
_cell_formula_units_Z   1
loop_
 _symmetry_equiv_pos_site_id
 _symmetry_equiv_pos_as_xyz
  1  'x, y, z'
loop_
 _atom_site_type_symbol
 _atom_site_label
 _atom_site_symmetry_multiplicity
 _atom_site_fract_x
 _atom_site_fract_y
 _atom_site_fract_z
 _atom_site_occupancy
  Sm  Sm0  1  0.502619  0.830932  0.250192  1
  Sm  Sm1  1  0.496402  0.168614  0.751248  1
  Sm  Sm2  1  0.169068  0.497381  0.749808  1
  Sm  Sm3  1  0.831386  0.503598  0.248752  1
  Ga  Ga4  1  0.160483  0.953619  0.241174  1
  Ga  Ga5  1  0.838875  0.046347  0.743449  1
  Ga  Ga6  1  0.046381  0.839517  0.758826  1
  Ga  Ga7  1  0.953653  0.161125  0.256551  1
  Ga  Ga8  1  0.624168  0.624615  0.754814  1
  Ga  Ga9  1  0.375385  0.375832  0.245186  1
  Ga  Ga10  1  0.161732  0.168653  0.561926  1
  Ga  Ga11  1  0.830407  0.824406  0.058841  1
  Ga  Ga12  1  0.831347  0.838268  0.438074  1
  Ga  Ga13  1  0.175594  0.169593  0.941159  1
  Ga  Ga14  1  0.511945  0.840235  0.576920  1
  Ga  Ga15  1  0.490296  0.165443  0.074779  1
  Ga  Ga16  1  0.159765  0.488055  0.423080  1
  Ga  Ga17  1  0.834557  0.509704  0.925221  1
  Ga  Ga18  1  0.510955  0.169627  0.423148  1
  Ga  Ga19  1  0.489327  0.825673  0.925602  1
  Ga  Ga20  1  0.830373  0.489045  0.576852  1
  Ga  Ga21  1  0.174327  0.510673  0.074398  1
  Co  Co22  1  0.499659  0.500341  0.000000  1
  Co  Co23  1  0.830473  0.169527  0.500000  1
  Co  Co24  1  0.169942  0.830058  0.000000  1
  Pt  Pt25  1  0.171607  0.828393  0.500000  1
  Pt  Pt26  1  0.828743  0.171257  0.000000  1
  Rh  Rh27  1  0.500533  0.499467  0.500000  1
