# generated using pymatgen
data_Y20Cd3Re2Ag3
_symmetry_space_group_name_H-M   'P 1'
_cell_length_a   9.54886500
_cell_length_b   9.54886417
_cell_length_c   9.93995900
_cell_angle_alpha   90.00000000
_cell_angle_beta   90.00000000
_cell_angle_gamma   119.99999940
_symmetry_Int_Tables_number   1
_chemical_formula_structural   Y20Cd3Re2Ag3
_chemical_formula_sum   'Y20 Cd3 Re2 Ag3'
_cell_volume   784.90789329
_cell_formula_units_Z   1
loop_
 _symmetry_equiv_pos_site_id
 _symmetry_equiv_pos_as_xyz
  1  'x, y, z'
loop_
 _atom_site_type_symbol
 _atom_site_label
 _atom_site_symmetry_multiplicity
 _atom_site_fract_x
 _atom_site_fract_y
 _atom_site_fract_z
 _atom_site_occupancy
  Y  Y0  1  0.000000  0.000000  0.478324  1
  Y  Y1  1  0.000000  0.000000  0.021676  1
  Y  Y2  1  0.210110  0.789890  0.443828  1
  Y  Y3  1  0.210110  0.420222  0.443828  1
  Y  Y4  1  0.579778  0.789890  0.443828  1
  Y  Y5  1  0.790753  0.209247  0.557924  1
  Y  Y6  1  0.790753  0.581505  0.557924  1
  Y  Y7  1  0.418495  0.209247  0.557924  1
  Y  Y8  1  0.790753  0.209247  0.942076  1
  Y  Y9  1  0.790753  0.581505  0.942076  1
  Y  Y10  1  0.418495  0.209247  0.942076  1
  Y  Y11  1  0.210110  0.789890  0.056172  1
  Y  Y12  1  0.210110  0.420222  0.056172  1
  Y  Y13  1  0.579778  0.789890  0.056172  1
  Y  Y14  1  0.538243  0.461757  0.250000  1
  Y  Y15  1  0.538243  0.076486  0.250000  1
  Y  Y16  1  0.923514  0.461757  0.250000  1
  Y  Y17  1  0.461724  0.538276  0.750000  1
  Y  Y18  1  0.461724  0.923447  0.750000  1
  Y  Y19  1  0.076553  0.538276  0.750000  1
  Cd  Cd20  1  0.109968  0.890032  0.750000  1
  Cd  Cd21  1  0.109968  0.219934  0.750000  1
  Cd  Cd22  1  0.780066  0.890032  0.750000  1
  Re  Re23  1  0.333333  0.666667  0.250000  1
  Re  Re24  1  0.666667  0.333333  0.750000  1
  Ag  Ag25  1  0.879280  0.120720  0.250000  1
  Ag  Ag26  1  0.879280  0.758563  0.250000  1
  Ag  Ag27  1  0.241437  0.120720  0.250000  1
