# generated using pymatgen
data_DyY7(ScGa5)4
_symmetry_space_group_name_H-M   'P 1'
_cell_length_a   6.00948400
_cell_length_b   9.47497201
_cell_length_c   11.41225801
_cell_angle_alpha   90.00499973
_cell_angle_beta   89.99937408
_cell_angle_gamma   90.00058583
_symmetry_Int_Tables_number   1
_chemical_formula_structural   DyY7(ScGa5)4
_chemical_formula_sum   'Dy1 Y7 Sc4 Ga20'
_cell_volume   649.81046151
_cell_formula_units_Z   1
loop_
 _symmetry_equiv_pos_site_id
 _symmetry_equiv_pos_as_xyz
  1  'x, y, z'
loop_
 _atom_site_type_symbol
 _atom_site_label
 _atom_site_symmetry_multiplicity
 _atom_site_fract_x
 _atom_site_fract_y
 _atom_site_fract_z
 _atom_site_occupancy
  Dy  Dy0  1  0.890930  0.508661  0.351850  1
  Y  Y1  1  0.609130  0.991287  0.851761  1
  Y  Y2  1  0.109175  0.008693  0.648200  1
  Y  Y3  1  0.390868  0.491302  0.148239  1
  Y  Y4  1  0.109144  0.491318  0.648165  1
  Y  Y5  1  0.390819  0.008706  0.148284  1
  Y  Y6  1  0.890796  0.991324  0.351773  1
  Y  Y7  1  0.609151  0.508676  0.851752  1
  Sc  Sc8  1  0.849973  0.749985  0.074142  1
  Sc  Sc9  1  0.650037  0.749975  0.574110  1
  Sc  Sc10  1  0.149987  0.250010  0.925841  1
  Sc  Sc11  1  0.349935  0.250065  0.425818  1
  Ga  Ga12  1  0.878723  0.051328  0.089116  1
  Ga  Ga13  1  0.621371  0.448744  0.588893  1
  Ga  Ga14  1  0.121286  0.551248  0.910911  1
  Ga  Ga15  1  0.378670  0.948757  0.410906  1
  Ga  Ga16  1  0.121338  0.948755  0.910928  1
  Ga  Ga17  1  0.378589  0.551133  0.410802  1
  Ga  Ga18  1  0.878711  0.448769  0.089341  1
  Ga  Ga19  1  0.621315  0.051329  0.589066  1
  Ga  Ga20  1  0.161704  0.749753  0.249188  1
  Ga  Ga21  1  0.338094  0.749975  0.749048  1
  Ga  Ga22  1  0.838075  0.249982  0.750965  1
  Ga  Ga23  1  0.662088  0.250262  0.251092  1
  Ga  Ga24  1  0.381362  0.749989  0.001115  1
  Ga  Ga25  1  0.118350  0.749882  0.500913  1
  Ga  Ga26  1  0.618648  0.250012  0.998857  1
  Ga  Ga27  1  0.881355  0.250216  0.498676  1
  Ga  Ga28  1  0.602927  0.749705  0.294712  1
  Ga  Ga29  1  0.897522  0.749995  0.794594  1
  Ga  Ga30  1  0.397498  0.250023  0.705401  1
  Ga  Ga31  1  0.102428  0.250140  0.205540  1
