# generated using pymatgen
data_Er4Al2Zn2Pt3Rh
_symmetry_space_group_name_H-M   'P 1'
_cell_length_a   4.23236800
_cell_length_b   6.85740888
_cell_length_c   7.98733910
_cell_angle_alpha   89.49666224
_cell_angle_beta   90.00000000
_cell_angle_gamma   90.00000000
_symmetry_Int_Tables_number   1
_chemical_formula_structural   Er4Al2Zn2Pt3Rh
_chemical_formula_sum   'Er4 Al2 Zn2 Pt3 Rh1'
_cell_volume   231.80821994
_cell_formula_units_Z   1
loop_
 _symmetry_equiv_pos_site_id
 _symmetry_equiv_pos_as_xyz
  1  'x, y, z'
loop_
 _atom_site_type_symbol
 _atom_site_label
 _atom_site_symmetry_multiplicity
 _atom_site_fract_x
 _atom_site_fract_y
 _atom_site_fract_z
 _atom_site_occupancy
  Er  Er0  1  0.250000  0.535681  0.179055  1
  Er  Er1  1  0.750000  0.463059  0.819298  1
  Er  Er2  1  0.750000  0.970279  0.686402  1
  Er  Er3  1  0.250000  0.034480  0.316595  1
  Al  Al4  1  0.250000  0.634485  0.560853  1
  Al  Al5  1  0.750000  0.360413  0.441296  1
  Zn  Zn6  1  0.750000  0.860069  0.064655  1
  Zn  Zn7  1  0.250000  0.141983  0.934570  1
  Pt  Pt8  1  0.250000  0.755364  0.869757  1
  Pt  Pt9  1  0.750000  0.246633  0.129986  1
  Pt  Pt10  1  0.750000  0.735454  0.387617  1
  Rh  Rh11  1  0.250000  0.262100  0.609917  1
