# generated using pymatgen
data_TmLu7Hg4
_symmetry_space_group_name_H-M   'P 1'
_cell_length_a   5.02142000
_cell_length_b   6.87016862
_cell_length_c   9.06090138
_cell_angle_alpha   89.93355003
_cell_angle_beta   90.00000000
_cell_angle_gamma   90.00000000
_symmetry_Int_Tables_number   1
_chemical_formula_structural   TmLu7Hg4
_chemical_formula_sum   'Tm1 Lu7 Hg4'
_cell_volume   312.58278479
_cell_formula_units_Z   1
loop_
 _symmetry_equiv_pos_site_id
 _symmetry_equiv_pos_as_xyz
  1  'x, y, z'
loop_
 _atom_site_type_symbol
 _atom_site_label
 _atom_site_symmetry_multiplicity
 _atom_site_fract_x
 _atom_site_fract_y
 _atom_site_fract_z
 _atom_site_occupancy
  Tm  Tm0  1  0.250000  0.831957  0.929679  1
  Lu  Lu1  1  0.250000  0.479610  0.192410  1
  Lu  Lu2  1  0.750000  0.519033  0.805714  1
  Lu  Lu3  1  0.250000  0.980564  0.306870  1
  Lu  Lu4  1  0.750000  0.020902  0.694996  1
  Lu  Lu5  1  0.750000  0.668357  0.428433  1
  Lu  Lu6  1  0.250000  0.334294  0.570185  1
  Lu  Lu7  1  0.750000  0.167854  0.072527  1
  Hg  Hg8  1  0.250000  0.263018  0.892513  1
  Hg  Hg9  1  0.750000  0.733342  0.104467  1
  Hg  Hg10  1  0.250000  0.766722  0.608017  1
  Hg  Hg11  1  0.750000  0.234348  0.394189  1
