# generated using pymatgen
data_Y4Er16Cd3Ru2Au3
_symmetry_space_group_name_H-M   'P 1'
_cell_length_a   9.52015311
_cell_length_b   9.52267931
_cell_length_c   9.53508200
_cell_angle_alpha   90.00000000
_cell_angle_beta   90.00000000
_cell_angle_gamma   120.00878318
_symmetry_Int_Tables_number   1
_chemical_formula_structural   Y4Er16Cd3Ru2Au3
_chemical_formula_sum   'Y4 Er16 Cd3 Ru2 Au3'
_cell_volume   748.54809986
_cell_formula_units_Z   1
loop_
 _symmetry_equiv_pos_site_id
 _symmetry_equiv_pos_as_xyz
  1  'x, y, z'
loop_
 _atom_site_type_symbol
 _atom_site_label
 _atom_site_symmetry_multiplicity
 _atom_site_fract_x
 _atom_site_fract_y
 _atom_site_fract_z
 _atom_site_occupancy
  Y  Y0  1  0.918979  0.459489  0.250000  1
  Y  Y1  1  0.459104  0.540840  0.750000  1
  Y  Y2  1  0.459104  0.918265  0.750000  1
  Y  Y3  1  0.081689  0.540845  0.750000  1
  Er  Er4  1  0.000106  0.000053  0.461947  1
  Er  Er5  1  0.000106  0.000053  0.038053  1
  Er  Er6  1  0.209558  0.791097  0.440093  1
  Er  Er7  1  0.209558  0.418462  0.440093  1
  Er  Er8  1  0.581474  0.790738  0.439980  1
  Er  Er9  1  0.791517  0.208065  0.558225  1
  Er  Er10  1  0.791517  0.583450  0.558225  1
  Er  Er11  1  0.416701  0.208350  0.557967  1
  Er  Er12  1  0.791517  0.208065  0.941775  1
  Er  Er13  1  0.791517  0.583450  0.941775  1
  Er  Er14  1  0.416701  0.208350  0.942033  1
  Er  Er15  1  0.209558  0.791097  0.059907  1
  Er  Er16  1  0.209558  0.418462  0.059907  1
  Er  Er17  1  0.581474  0.790738  0.060020  1
  Er  Er18  1  0.540222  0.459628  0.250000  1
  Er  Er19  1  0.540222  0.080593  0.250000  1
  Cd  Cd20  1  0.109862  0.890081  0.750000  1
  Cd  Cd21  1  0.109862  0.219780  0.750000  1
  Cd  Cd22  1  0.780323  0.890161  0.750000  1
  Ru  Ru23  1  0.333519  0.666760  0.250000  1
  Ru  Ru24  1  0.666654  0.333326  0.750000  1
  Au  Au25  1  0.869589  0.129051  0.250000  1
  Au  Au26  1  0.869589  0.740538  0.250000  1
  Au  Au27  1  0.260421  0.130211  0.250000  1
