# generated using pymatgen
data_Ho7ErTa10(TiSi8)2
_symmetry_space_group_name_H-M   'P 1'
_cell_length_a   7.03617500
_cell_length_b   7.02924210
_cell_length_c   12.94043900
_cell_angle_alpha   90.00221555
_cell_angle_beta   90.00107761
_cell_angle_gamma   89.99061768
_symmetry_Int_Tables_number   1
_chemical_formula_structural   Ho7ErTa10(TiSi8)2
_chemical_formula_sum   'Ho7 Er1 Ta10 Ti2 Si16'
_cell_volume   640.02087323
_cell_formula_units_Z   1
loop_
 _symmetry_equiv_pos_site_id
 _symmetry_equiv_pos_as_xyz
  1  'x, y, z'
loop_
 _atom_site_type_symbol
 _atom_site_label
 _atom_site_symmetry_multiplicity
 _atom_site_fract_x
 _atom_site_fract_y
 _atom_site_fract_z
 _atom_site_occupancy
  Ho  Ho0  1  0.341913  0.002200  0.467694  1
  Ho  Ho1  1  0.498535  0.841939  0.717898  1
  Ho  Ho2  1  0.501480  0.158062  0.217856  1
  Ho  Ho3  1  0.841998  0.498522  0.282321  1
  Ho  Ho4  1  0.157983  0.501509  0.782452  1
  Ho  Ho5  1  0.658153  0.997760  0.967733  1
  Ho  Ho6  1  0.002399  0.340878  0.531961  1
  Er  Er7  1  0.997760  0.659012  0.032050  1
  Ta  Ta8  1  0.328964  0.329354  0.999640  1
  Ta  Ta9  1  0.172892  0.826576  0.249981  1
  Ta  Ta10  1  0.827056  0.173453  0.750146  1
  Ta  Ta11  1  0.670877  0.670699  0.499627  1
  Ta  Ta12  1  0.152334  0.007341  0.873889  1
  Ta  Ta13  1  0.492880  0.652090  0.124109  1
  Ta  Ta14  1  0.507138  0.347891  0.624173  1
  Ta  Ta15  1  0.651910  0.491925  0.876148  1
  Ta  Ta16  1  0.348158  0.508118  0.376057  1
  Ta  Ta17  1  0.847592  0.992601  0.373786  1
  Ti  Ti18  1  0.007886  0.152907  0.126100  1
  Ti  Ti19  1  0.992152  0.847025  0.626147  1
  Si  Si20  1  0.202225  0.132249  0.681460  1
  Si  Si21  1  0.365303  0.704915  0.931637  1
  Si  Si22  1  0.634500  0.295066  0.431582  1
  Si  Si23  1  0.705197  0.364366  0.068878  1
  Si  Si24  1  0.294986  0.635728  0.568862  1
  Si  Si25  1  0.797992  0.867668  0.181295  1
  Si  Si26  1  0.134428  0.203034  0.317902  1
  Si  Si27  1  0.865565  0.796917  0.818021  1
  Si  Si28  1  0.292239  0.954612  0.064430  1
  Si  Si29  1  0.546644  0.794619  0.313656  1
  Si  Si30  1  0.453385  0.205343  0.813664  1
  Si  Si31  1  0.796087  0.547531  0.685292  1
  Si  Si32  1  0.203772  0.452529  0.185174  1
  Si  Si33  1  0.707589  0.045319  0.564425  1
  Si  Si34  1  0.954108  0.294319  0.937027  1
  Si  Si35  1  0.045921  0.705920  0.436928  1
