# generated using pymatgen
data_DyTm5(Al3Ru)8
_symmetry_space_group_name_H-M   'P 1'
_cell_length_a   8.78396302
_cell_length_b   8.78396281
_cell_length_c   9.59168500
_cell_angle_alpha   90.00000000
_cell_angle_beta   90.00000000
_cell_angle_gamma   119.99310442
_symmetry_Int_Tables_number   1
_chemical_formula_structural   DyTm5(Al3Ru)8
_chemical_formula_sum   'Dy1 Tm5 Al24 Ru8'
_cell_volume   640.96851731
_cell_formula_units_Z   1
loop_
 _symmetry_equiv_pos_site_id
 _symmetry_equiv_pos_as_xyz
  1  'x, y, z'
loop_
 _atom_site_type_symbol
 _atom_site_label
 _atom_site_symmetry_multiplicity
 _atom_site_fract_x
 _atom_site_fract_y
 _atom_site_fract_z
 _atom_site_occupancy
  Dy  Dy0  1  0.806570  0.193430  0.750000  1
  Tm  Tm1  1  0.194437  0.805563  0.250000  1
  Tm  Tm2  1  0.388705  0.194492  0.750000  1
  Tm  Tm3  1  0.611084  0.805523  0.250000  1
  Tm  Tm4  1  0.805508  0.611295  0.750000  1
  Tm  Tm5  1  0.194477  0.388916  0.250000  1
  Al  Al6  1  0.666452  0.333548  0.982472  1
  Al  Al7  1  0.333333  0.666667  0.018249  1
  Al  Al8  1  0.333333  0.666667  0.481751  1
  Al  Al9  1  0.666452  0.333548  0.517528  1
  Al  Al10  1  0.837239  0.162761  0.421643  1
  Al  Al11  1  0.162707  0.837293  0.577597  1
  Al  Al12  1  0.325412  0.162769  0.422104  1
  Al  Al13  1  0.162707  0.837293  0.922403  1
  Al  Al14  1  0.674209  0.836705  0.577452  1
  Al  Al15  1  0.837239  0.162761  0.078357  1
  Al  Al16  1  0.837231  0.674588  0.422104  1
  Al  Al17  1  0.674209  0.836705  0.922548  1
  Al  Al18  1  0.163295  0.325791  0.577452  1
  Al  Al19  1  0.325412  0.162769  0.077896  1
  Al  Al20  1  0.163295  0.325791  0.922548  1
  Al  Al21  1  0.837231  0.674588  0.077896  1
  Al  Al22  1  0.438947  0.561053  0.750000  1
  Al  Al23  1  0.561056  0.438944  0.250000  1
  Al  Al24  1  0.123023  0.562020  0.750000  1
  Al  Al25  1  0.877692  0.438961  0.250000  1
  Al  Al26  1  0.437980  0.876977  0.750000  1
  Al  Al27  1  0.561039  0.122308  0.250000  1
  Al  Al28  1  0.000716  0.999284  0.750000  1
  Al  Al29  1  0.999960  0.000040  0.250000  1
  Ru  Ru30  1  0.499877  0.500123  0.000091  1
  Ru  Ru31  1  0.000376  0.500716  0.000471  1
  Ru  Ru32  1  0.499877  0.500123  0.499909  1
  Ru  Ru33  1  0.499284  0.999624  0.000471  1
  Ru  Ru34  1  0.000376  0.500716  0.499529  1
  Ru  Ru35  1  0.499284  0.999624  0.499529  1
  Ru  Ru36  1  0.999988  0.000012  0.000043  1
  Ru  Ru37  1  0.999988  0.000012  0.499957  1
