# generated using pymatgen
data_SrSm2Y4FeI12
_symmetry_space_group_name_H-M   'P 1'
_cell_length_a   9.82229003
_cell_length_b   9.89588754
_cell_length_c   9.82665611
_cell_angle_alpha   106.48774353
_cell_angle_beta   106.15217784
_cell_angle_gamma   106.08235130
_symmetry_Int_Tables_number   1
_chemical_formula_structural   SrSm2Y4FeI12
_chemical_formula_sum   'Sr1 Sm2 Y4 Fe1 I12'
_cell_volume   811.36361547
_cell_formula_units_Z   1
loop_
 _symmetry_equiv_pos_site_id
 _symmetry_equiv_pos_as_xyz
  1  'x, y, z'
loop_
 _atom_site_type_symbol
 _atom_site_label
 _atom_site_symmetry_multiplicity
 _atom_site_fract_x
 _atom_site_fract_y
 _atom_site_fract_z
 _atom_site_occupancy
  Sr  Sr0  1  0.499985  0.499875  0.500128  1
  Sm  Sm1  1  0.714319  0.980796  0.910296  1
  Sm  Sm2  1  0.980638  0.909503  0.713656  1
  Y  Y3  1  0.094526  0.296850  0.020626  1
  Y  Y4  1  0.282451  0.019813  0.090152  1
  Y  Y5  1  0.907004  0.703740  0.980307  1
  Y  Y6  1  0.019979  0.089538  0.283311  1
  Fe  Fe7  1  0.999104  0.999969  0.998651  1
  I  I8  1  0.074704  0.225939  0.680885  1
  I  I9  1  0.365451  0.135222  0.444591  1
  I  I10  1  0.630051  0.862025  0.549989  1
  I  I11  1  0.224128  0.680874  0.074327  1
  I  I12  1  0.778804  0.323695  0.927031  1
  I  I13  1  0.682698  0.075444  0.228049  1
  I  I14  1  0.554227  0.631561  0.865455  1
  I  I15  1  0.864021  0.551366  0.633740  1
  I  I16  1  0.926793  0.778621  0.318549  1
  I  I17  1  0.321523  0.926725  0.779572  1
  I  I18  1  0.445487  0.364338  0.134520  1
  I  I19  1  0.134108  0.444109  0.366167  1
