# generated using pymatgen
data_Pr4Nd2SnHg9
_symmetry_space_group_name_H-M   'P 1'
_cell_length_a   6.53350058
_cell_length_b   6.53350162
_cell_length_c   10.73776602
_cell_angle_alpha   91.25904164
_cell_angle_beta   91.25904376
_cell_angle_gamma   104.77158015
_symmetry_Int_Tables_number   1
_chemical_formula_structural   Pr4Nd2SnHg9
_chemical_formula_sum   'Pr4 Nd2 Sn1 Hg9'
_cell_volume   442.92303268
_cell_formula_units_Z   1
loop_
 _symmetry_equiv_pos_site_id
 _symmetry_equiv_pos_as_xyz
  1  'x, y, z'
loop_
 _atom_site_type_symbol
 _atom_site_label
 _atom_site_symmetry_multiplicity
 _atom_site_fract_x
 _atom_site_fract_y
 _atom_site_fract_z
 _atom_site_occupancy
  Pr  Pr0  1  0.204908  0.804224  0.495886  1
  Pr  Pr1  1  0.204462  0.796404  0.997718  1
  Pr  Pr2  1  0.804224  0.204908  0.495886  1
  Pr  Pr3  1  0.796404  0.204462  0.997718  1
  Nd  Nd4  1  0.606181  0.606181  0.248433  1
  Nd  Nd5  1  0.392087  0.392087  0.756018  1
  Sn  Sn6  1  0.684151  0.684151  0.544042  1
  Hg  Hg7  1  0.002048  0.002048  0.242712  1
  Hg  Hg8  1  0.999346  0.999346  0.751139  1
  Hg  Hg9  1  0.301622  0.301622  0.036964  1
  Hg  Hg10  1  0.693078  0.693078  0.968218  1
  Hg  Hg11  1  0.309668  0.309668  0.463054  1
  Hg  Hg12  1  0.488631  0.061638  0.248464  1
  Hg  Hg13  1  0.938220  0.513334  0.752643  1
  Hg  Hg14  1  0.513334  0.938220  0.752643  1
  Hg  Hg15  1  0.061638  0.488631  0.248464  1
