# generated using pymatgen
data_Pr3NdHo12(CdIr)4
_symmetry_space_group_name_H-M   'P 1'
_cell_length_a   9.69850937
_cell_length_b   9.69418414
_cell_length_c   9.69283577
_cell_angle_alpha   60.03308643
_cell_angle_beta   59.99250895
_cell_angle_gamma   59.97397963
_symmetry_Int_Tables_number   1
_chemical_formula_structural   Pr3NdHo12(CdIr)4
_chemical_formula_sum   'Pr3 Nd1 Ho12 Cd4 Ir4'
_cell_volume   644.39249557
_cell_formula_units_Z   1
loop_
 _symmetry_equiv_pos_site_id
 _symmetry_equiv_pos_as_xyz
  1  'x, y, z'
loop_
 _atom_site_type_symbol
 _atom_site_label
 _atom_site_symmetry_multiplicity
 _atom_site_fract_x
 _atom_site_fract_y
 _atom_site_fract_z
 _atom_site_occupancy
  Pr  Pr0  1  0.937672  0.562329  0.937662  1
  Pr  Pr1  1  0.562323  0.562544  0.937447  1
  Pr  Pr2  1  0.937449  0.937675  0.562313  1
  Nd  Nd3  1  0.562126  0.937874  0.562121  1
  Ho  Ho4  1  0.349920  0.346772  0.347013  1
  Ho  Ho5  1  0.346964  0.349821  0.956357  1
  Ho  Ho6  1  0.347007  0.956288  0.349937  1
  Ho  Ho7  1  0.956347  0.346863  0.346974  1
  Ho  Ho8  1  0.813580  0.186180  0.186536  1
  Ho  Ho9  1  0.186551  0.813694  0.813586  1
  Ho  Ho10  1  0.188488  0.811517  0.188481  1
  Ho  Ho11  1  0.811510  0.188499  0.811498  1
  Ho  Ho12  1  0.188707  0.188358  0.811404  1
  Ho  Ho13  1  0.811410  0.811528  0.188709  1
  Ho  Ho14  1  0.945536  0.554485  0.554187  1
  Ho  Ho15  1  0.554183  0.945793  0.945548  1
  Cd  Cd16  1  0.582717  0.578651  0.578229  1
  Cd  Cd17  1  0.578243  0.582737  0.260771  1
  Cd  Cd18  1  0.578229  0.260398  0.582715  1
  Cd  Cd19  1  0.260776  0.578243  0.578245  1
  Ir  Ir20  1  0.146092  0.139252  0.139098  1
  Ir  Ir21  1  0.139523  0.145936  0.575546  1
  Ir  Ir22  1  0.139102  0.575557  0.146096  1
  Ir  Ir23  1  0.575541  0.139004  0.139524  1
