# generated using pymatgen
data_Ho3Al5Rh
_symmetry_space_group_name_H-M   'P 1'
_cell_length_a   6.97146200
_cell_length_b   6.97146183
_cell_length_c   4.36907800
_cell_angle_alpha   90.00000000
_cell_angle_beta   90.00000000
_cell_angle_gamma   120.00000080
_symmetry_Int_Tables_number   1
_chemical_formula_structural   Ho3Al5Rh
_chemical_formula_sum   'Ho3 Al5 Rh1'
_cell_volume   183.89424783
_cell_formula_units_Z   1
loop_
 _symmetry_equiv_pos_site_id
 _symmetry_equiv_pos_as_xyz
  1  'x, y, z'
loop_
 _atom_site_type_symbol
 _atom_site_label
 _atom_site_symmetry_multiplicity
 _atom_site_fract_x
 _atom_site_fract_y
 _atom_site_fract_z
 _atom_site_occupancy
  Ho  Ho0  1  0.592282  0.000000  0.500000  1
  Ho  Ho1  1  0.407718  0.407718  0.500000  1
  Ho  Ho2  1  0.000000  0.592282  0.500000  1
  Al  Al3  1  0.230406  0.000000  0.000000  1
  Al  Al4  1  0.000000  0.230406  0.000000  1
  Al  Al5  1  0.666667  0.333333  0.000000  1
  Al  Al6  1  0.333333  0.666667  0.000000  1
  Al  Al7  1  0.769594  0.769594  0.000000  1
  Rh  Rh8  1  0.000000  0.000000  0.500000  1
