# generated using pymatgen
data_Er9Tm(SiSn3)2
_symmetry_space_group_name_H-M   'P 1'
_cell_length_a   9.13790500
_cell_length_b   9.13790623
_cell_length_c   6.38949300
_cell_angle_alpha   90.00000000
_cell_angle_beta   90.00000000
_cell_angle_gamma   119.99999916
_symmetry_Int_Tables_number   1
_chemical_formula_structural   Er9Tm(SiSn3)2
_chemical_formula_sum   'Er9 Tm1 Si2 Sn6'
_cell_volume   462.05148455
_cell_formula_units_Z   1
loop_
 _symmetry_equiv_pos_site_id
 _symmetry_equiv_pos_as_xyz
  1  'x, y, z'
loop_
 _atom_site_type_symbol
 _atom_site_label
 _atom_site_symmetry_multiplicity
 _atom_site_fract_x
 _atom_site_fract_y
 _atom_site_fract_z
 _atom_site_occupancy
  Er  Er0  1  0.666667  0.333333  0.000000  1
  Er  Er1  1  0.333333  0.666667  0.000000  1
  Er  Er2  1  0.333333  0.666667  0.500000  1
  Er  Er3  1  0.747288  0.747236  0.750051  1
  Er  Er4  1  0.252764  0.000052  0.750051  1
  Er  Er5  1  0.999948  0.252712  0.750051  1
  Er  Er6  1  0.252764  0.252712  0.249949  1
  Er  Er7  1  0.747288  0.000052  0.249949  1
  Er  Er8  1  0.999948  0.747236  0.249949  1
  Tm  Tm9  1  0.666667  0.333333  0.500000  1
  Si  Si10  1  0.000000  0.000000  0.000000  1
  Si  Si11  1  0.000000  0.000000  0.500000  1
  Sn  Sn12  1  0.392476  0.392358  0.749949  1
  Sn  Sn13  1  0.607642  0.000117  0.749949  1
  Sn  Sn14  1  0.999883  0.607524  0.749949  1
  Sn  Sn15  1  0.607642  0.607524  0.250051  1
  Sn  Sn16  1  0.392476  0.000117  0.250051  1
  Sn  Sn17  1  0.999883  0.392358  0.250051  1
