# generated using pymatgen
data_Tb2DyAl12CuRu3
_symmetry_space_group_name_H-M   'P 1'
_cell_length_a   8.82561484
_cell_length_b   8.82561480
_cell_length_c   9.49856700
_cell_angle_alpha   90.00000000
_cell_angle_beta   90.00000000
_cell_angle_gamma   119.43917327
_symmetry_Int_Tables_number   1
_chemical_formula_structural   Tb2DyAl12CuRu3
_chemical_formula_sum   'Tb4 Dy2 Al24 Cu2 Ru6'
_cell_volume   644.32552515
_cell_formula_units_Z   2
loop_
 _symmetry_equiv_pos_site_id
 _symmetry_equiv_pos_as_xyz
  1  'x, y, z'
loop_
 _atom_site_type_symbol
 _atom_site_label
 _atom_site_symmetry_multiplicity
 _atom_site_fract_x
 _atom_site_fract_y
 _atom_site_fract_z
 _atom_site_occupancy
  Tb  Tb0  1  0.193278  0.806722  0.250000  1
  Tb  Tb1  1  0.188422  0.383191  0.250000  1
  Tb  Tb2  1  0.616809  0.811578  0.250000  1
  Tb  Tb3  1  0.806624  0.193376  0.750000  1
  Dy  Dy4  1  0.811349  0.616363  0.750000  1
  Dy  Dy5  1  0.383637  0.188651  0.750000  1
  Al  Al6  1  0.561008  0.438992  0.250000  1
  Al  Al7  1  0.560499  0.122515  0.250000  1
  Al  Al8  1  0.877485  0.439501  0.250000  1
  Al  Al9  1  0.439351  0.560649  0.750000  1
  Al  Al10  1  0.439683  0.877998  0.750000  1
  Al  Al11  1  0.122002  0.560317  0.750000  1
  Al  Al12  1  0.324083  0.157281  0.422265  1
  Al  Al13  1  0.836295  0.163705  0.423033  1
  Al  Al14  1  0.842719  0.675917  0.422265  1
  Al  Al15  1  0.676038  0.842609  0.578029  1
  Al  Al16  1  0.163622  0.836378  0.576944  1
  Al  Al17  1  0.157391  0.323962  0.578029  1
  Al  Al18  1  0.676038  0.842609  0.921971  1
  Al  Al19  1  0.163622  0.836378  0.923056  1
  Al  Al20  1  0.157391  0.323962  0.921971  1
  Al  Al21  1  0.324083  0.157281  0.077735  1
  Al  Al22  1  0.836295  0.163705  0.076967  1
  Al  Al23  1  0.842719  0.675917  0.077735  1
  Al  Al24  1  0.667886  0.332114  0.519968  1
  Al  Al25  1  0.331975  0.668025  0.480394  1
  Al  Al26  1  0.331975  0.668025  0.019606  1
  Al  Al27  1  0.667886  0.332114  0.980032  1
  Al  Al28  1  0.998048  0.001952  0.250000  1
  Al  Al29  1  0.001948  0.998052  0.750000  1
  Cu  Cu30  1  0.500010  0.499990  0.500070  1
  Cu  Cu31  1  0.500010  0.499990  0.999930  1
  Ru  Ru32  1  0.000049  0.999951  0.500142  1
  Ru  Ru33  1  0.000049  0.999951  0.999858  1
  Ru  Ru34  1  0.499898  0.000038  0.500292  1
  Ru  Ru35  1  0.999962  0.500102  0.500292  1
  Ru  Ru36  1  0.499898  0.000038  0.999708  1
  Ru  Ru37  1  0.999962  0.500102  0.999708  1
