# generated using pymatgen
data_Cs2Rb6La3CeBr20
_symmetry_space_group_name_H-M   'P 1'
_cell_length_a   8.98701703
_cell_length_b   9.53773944
_cell_length_c   14.36622757
_cell_angle_alpha   90.28590638
_cell_angle_beta   90.20084680
_cell_angle_gamma   89.28614864
_symmetry_Int_Tables_number   1
_chemical_formula_structural   Cs2Rb6La3CeBr20
_chemical_formula_sum   'Cs2 Rb6 La3 Ce1 Br20'
_cell_volume   1231.29486907
_cell_formula_units_Z   1
loop_
 _symmetry_equiv_pos_site_id
 _symmetry_equiv_pos_as_xyz
  1  'x, y, z'
loop_
 _atom_site_type_symbol
 _atom_site_label
 _atom_site_symmetry_multiplicity
 _atom_site_fract_x
 _atom_site_fract_y
 _atom_site_fract_z
 _atom_site_occupancy
  Cs  Cs0  1  0.944275  0.005226  0.828795  1
  Cs  Cs1  1  0.055893  0.994097  0.171272  1
  Rb  Rb2  1  0.447079  0.996110  0.671945  1
  Rb  Rb3  1  0.052928  0.503592  0.173395  1
  Rb  Rb4  1  0.553084  0.003960  0.328162  1
  Rb  Rb5  1  0.946548  0.496700  0.826898  1
  Rb  Rb6  1  0.553345  0.496154  0.328840  1
  Rb  Rb7  1  0.446706  0.504037  0.671256  1
  La  La8  1  0.927452  0.749389  0.504269  1
  La  La9  1  0.072808  0.250750  0.495885  1
  La  La10  1  0.429939  0.253268  0.996362  1
  Ce  Ce11  1  0.569772  0.747119  0.003035  1
  Br  Br12  1  0.122824  0.744421  0.672264  1
  Br  Br13  1  0.877176  0.255589  0.327946  1
  Br  Br14  1  0.614724  0.253110  0.824078  1
  Br  Br15  1  0.387427  0.747616  0.173748  1
  Br  Br16  1  0.838861  0.044418  0.571909  1
  Br  Br17  1  0.161470  0.955674  0.428104  1
  Br  Br18  1  0.339898  0.959526  0.928021  1
  Br  Br19  1  0.160635  0.540808  0.425237  1
  Br  Br20  1  0.659641  0.037302  0.071808  1
  Br  Br21  1  0.839606  0.459293  0.574774  1
  Br  Br22  1  0.660711  0.454996  0.072275  1
  Br  Br23  1  0.339326  0.546927  0.927098  1
  Br  Br24  1  0.590019  0.751974  0.511956  1
  Br  Br25  1  0.410129  0.248240  0.488506  1
  Br  Br26  1  0.094324  0.261332  0.989735  1
  Br  Br27  1  0.903799  0.738567  0.010819  1
  Br  Br28  1  0.651111  0.743517  0.803151  1
  Br  Br29  1  0.348531  0.256205  0.198100  1
  Br  Br30  1  0.160149  0.255114  0.695826  1
  Br  Br31  1  0.839815  0.744966  0.304531  1
