# generated using pymatgen
data_Gd4MgNi2Hg
_symmetry_space_group_name_H-M   'P 1'
_cell_length_a   8.94542963
_cell_length_b   8.94543136
_cell_length_c   8.94622600
_cell_angle_alpha   130.81876809
_cell_angle_beta   130.81877765
_cell_angle_gamma   72.10112506
_symmetry_Int_Tables_number   1
_chemical_formula_structural   Gd4MgNi2Hg
_chemical_formula_sum   'Gd8 Mg2 Ni4 Hg2'
_cell_volume   400.90655492
_cell_formula_units_Z   2
loop_
 _symmetry_equiv_pos_site_id
 _symmetry_equiv_pos_as_xyz
  1  'x, y, z'
loop_
 _atom_site_type_symbol
 _atom_site_label
 _atom_site_symmetry_multiplicity
 _atom_site_fract_x
 _atom_site_fract_y
 _atom_site_fract_z
 _atom_site_occupancy
  Gd  Gd0  1  0.697904  0.550023  0.499808  1
  Gd  Gd1  1  0.450487  0.950487  0.148672  1
  Gd  Gd2  1  0.802084  0.302084  0.852692  1
  Gd  Gd3  1  0.549513  0.049513  0.851328  1
  Gd  Gd4  1  0.050023  0.197904  0.499808  1
  Gd  Gd5  1  0.302096  0.449977  0.500192  1
  Gd  Gd6  1  0.197916  0.697916  0.147308  1
  Gd  Gd7  1  0.949977  0.802096  0.500192  1
  Mg  Mg8  1  0.000000  0.000000  0.000000  1
  Mg  Mg9  1  0.500000  0.500000  0.000000  1
  Ni  Ni10  1  0.122637  0.622637  0.744061  1
  Ni  Ni11  1  0.877363  0.377363  0.255939  1
  Ni  Ni12  1  0.622274  0.877726  0.500000  1
  Ni  Ni13  1  0.377726  0.122274  0.500000  1
  Hg  Hg14  1  0.249942  0.250058  0.000000  1
  Hg  Hg15  1  0.750058  0.749942  0.000000  1
