# generated using pymatgen
data_GaBi3(MoO6)2
_symmetry_space_group_name_H-M   'P 1'
_cell_length_a   10.40764480
_cell_length_b   10.40764474
_cell_length_c   5.31875348
_cell_angle_alpha   75.38609378
_cell_angle_beta   75.38610094
_cell_angle_gamma   69.41998391
_symmetry_Int_Tables_number   1
_chemical_formula_structural   GaBi3(MoO6)2
_chemical_formula_sum   'Ga2 Bi6 Mo4 O24'
_cell_volume   513.32327308
_cell_formula_units_Z   2
loop_
 _symmetry_equiv_pos_site_id
 _symmetry_equiv_pos_as_xyz
  1  'x, y, z'
loop_
 _atom_site_type_symbol
 _atom_site_label
 _atom_site_symmetry_multiplicity
 _atom_site_fract_x
 _atom_site_fract_y
 _atom_site_fract_z
 _atom_site_occupancy
  Ga  Ga0  1  0.880012  0.119988  0.250000  1
  Ga  Ga1  1  0.119988  0.880012  0.750000  1
  Bi  Bi2  1  0.037799  0.262602  0.592283  1
  Bi  Bi3  1  0.344807  0.655193  0.250000  1
  Bi  Bi4  1  0.655193  0.344807  0.750000  1
  Bi  Bi5  1  0.962201  0.737398  0.407717  1
  Bi  Bi6  1  0.262602  0.037799  0.092283  1
  Bi  Bi7  1  0.737398  0.962201  0.907717  1
  Mo  Mo8  1  0.460791  0.202961  0.424204  1
  Mo  Mo9  1  0.202961  0.460791  0.924204  1
  Mo  Mo10  1  0.539209  0.797039  0.575796  1
  Mo  Mo11  1  0.797039  0.539209  0.075796  1
  O  O12  1  0.070510  0.495090  0.736749  1
  O  O13  1  0.593613  0.174889  0.625340  1
  O  O14  1  0.870680  0.957109  0.499907  1
  O  O15  1  0.362030  0.457624  0.694661  1
  O  O16  1  0.153654  0.746382  0.535513  1
  O  O17  1  0.825111  0.406387  0.874660  1
  O  O18  1  0.746382  0.153654  0.035513  1
  O  O19  1  0.637970  0.542376  0.305339  1
  O  O20  1  0.929490  0.504910  0.263251  1
  O  O21  1  0.788547  0.705239  0.857875  1
  O  O22  1  0.174889  0.593613  0.125340  1
  O  O23  1  0.504910  0.929490  0.763251  1
  O  O24  1  0.846346  0.253618  0.464487  1
  O  O25  1  0.129320  0.042891  0.500093  1
  O  O26  1  0.211453  0.294761  0.142125  1
  O  O27  1  0.542376  0.637970  0.805339  1
  O  O28  1  0.294761  0.211453  0.642125  1
  O  O29  1  0.406387  0.825111  0.374660  1
  O  O30  1  0.253618  0.846346  0.964487  1
  O  O31  1  0.457624  0.362030  0.194661  1
  O  O32  1  0.495090  0.070510  0.236749  1
  O  O33  1  0.042891  0.129320  0.000093  1
  O  O34  1  0.957109  0.870680  0.999907  1
  O  O35  1  0.705239  0.788547  0.357875  1
