# generated using pymatgen
data_Ac2Se4O15
_symmetry_space_group_name_H-M   'P 1'
_cell_length_a   6.06363850
_cell_length_b   7.07277159
_cell_length_c   9.98249008
_cell_angle_alpha   90.19647143
_cell_angle_beta   110.96185726
_cell_angle_gamma   104.11441503
_symmetry_Int_Tables_number   1
_chemical_formula_structural   Ac2Se4O15
_chemical_formula_sum   'Ac2 Se4 O15'
_cell_volume   385.76592187
_cell_formula_units_Z   1
loop_
 _symmetry_equiv_pos_site_id
 _symmetry_equiv_pos_as_xyz
  1  'x, y, z'
loop_
 _atom_site_type_symbol
 _atom_site_label
 _atom_site_symmetry_multiplicity
 _atom_site_fract_x
 _atom_site_fract_y
 _atom_site_fract_z
 _atom_site_occupancy
  Ac  Ac0  1  0.990477  0.226056  0.562627  1
  Ac  Ac1  1  0.894910  0.930415  0.951186  1
  Se  Se2  1  0.690770  0.344488  0.853619  1
  Se  Se3  1  0.536806  0.795458  0.208594  1
  Se  Se4  1  0.362484  0.347333  0.300499  1
  Se  Se5  1  0.187657  0.815676  0.662143  1
  O  O6  1  0.031431  0.928982  0.735003  1
  O  O7  1  0.026977  0.586319  0.603500  1
  O  O8  1  0.856010  0.574721  0.903166  1
  O  O9  1  0.274104  0.397594  0.431488  1
  O  O10  1  0.823677  0.227407  0.765926  1
  O  O11  1  0.161470  0.167812  0.183981  1
  O  O12  1  0.338996  0.546107  0.187518  1
  O  O13  1  0.756182  0.773509  0.153264  1
  O  O14  1  0.460214  0.820573  0.784686  1
  O  O15  1  0.646987  0.331184  0.356245  1
  O  O16  1  0.207644  0.955266  0.530400  1
  O  O17  1  0.405472  0.338949  0.749244  1
  O  O18  1  0.634401  0.889782  0.376630  1
  O  O19  1  0.697793  0.213780  0.992189  1
  O  O20  1  0.333152  0.883782  0.087413  1
