# generated using pymatgen
data_Ho5TcMoO12
_symmetry_space_group_name_H-M   'P 1'
_cell_length_a   6.79775304
_cell_length_b   6.79775201
_cell_length_c   7.49063158
_cell_angle_alpha   73.86848939
_cell_angle_beta   73.86849059
_cell_angle_gamma   50.11753654
_symmetry_Int_Tables_number   1
_chemical_formula_structural   Ho5TcMoO12
_chemical_formula_sum   'Ho5 Tc1 Mo1 O12'
_cell_volume   252.81089865
_cell_formula_units_Z   1
loop_
 _symmetry_equiv_pos_site_id
 _symmetry_equiv_pos_as_xyz
  1  'x, y, z'
loop_
 _atom_site_type_symbol
 _atom_site_label
 _atom_site_symmetry_multiplicity
 _atom_site_fract_x
 _atom_site_fract_y
 _atom_site_fract_z
 _atom_site_occupancy
  Ho  Ho0  1  0.312986  0.294603  0.360414  1
  Ho  Ho1  1  0.705397  0.687014  0.639586  1
  Ho  Ho2  1  0.316827  0.309141  0.823746  1
  Ho  Ho3  1  0.690859  0.683173  0.176254  1
  Ho  Ho4  1  0.005907  0.994093  0.500000  1
  Tc  Tc5  1  0.766587  0.233413  0.000000  1
  Mo  Mo6  1  0.210943  0.789057  0.000000  1
  O  O7  1  0.910523  0.429859  0.914085  1
  O  O8  1  0.418697  0.904214  0.915541  1
  O  O9  1  0.095786  0.581303  0.084459  1
  O  O10  1  0.570141  0.089477  0.085915  1
  O  O11  1  0.104323  0.591330  0.571565  1
  O  O12  1  0.597042  0.090949  0.576325  1
  O  O13  1  0.909051  0.402958  0.423675  1
  O  O14  1  0.408670  0.895677  0.428435  1
  O  O15  1  0.992036  0.004710  0.797001  1
  O  O16  1  0.995290  0.007964  0.202999  1
  O  O17  1  0.494551  0.505615  0.817810  1
  O  O18  1  0.494385  0.505449  0.182190  1
