# generated using pymatgen
data_Dy2Tm(Ga2Co3)3
_symmetry_space_group_name_H-M   'P 1'
_cell_length_a   4.05572800
_cell_length_b   8.73217270
_cell_length_c   8.73217402
_cell_angle_alpha   59.97653041
_cell_angle_beta   90.00000000
_cell_angle_gamma   90.00000000
_symmetry_Int_Tables_number   1
_chemical_formula_structural   Dy2Tm(Ga2Co3)3
_chemical_formula_sum   'Dy2 Tm1 Ga6 Co9'
_cell_volume   267.75734567
_cell_formula_units_Z   1
loop_
 _symmetry_equiv_pos_site_id
 _symmetry_equiv_pos_as_xyz
  1  'x, y, z'
loop_
 _atom_site_type_symbol
 _atom_site_label
 _atom_site_symmetry_multiplicity
 _atom_site_fract_x
 _atom_site_fract_y
 _atom_site_fract_z
 _atom_site_occupancy
  Dy  Dy0  1  0.500000  0.333425  0.333156  1
  Dy  Dy1  1  0.500000  0.666844  0.666575  1
  Tm  Tm2  1  0.000000  0.999918  0.000082  1
  Ga  Ga3  1  0.000000  0.496264  0.503736  1
  Ga  Ga4  1  0.000000  0.503879  0.000009  1
  Ga  Ga5  1  0.000000  0.999991  0.496121  1
  Ga  Ga6  1  0.500000  0.729638  0.270362  1
  Ga  Ga7  1  0.500000  0.270456  0.000194  1
  Ga  Ga8  1  0.500000  0.999806  0.729544  1
  Co  Co9  1  0.000000  0.179349  0.180256  1
  Co  Co10  1  0.000000  0.180145  0.640378  1
  Co  Co11  1  0.000000  0.640424  0.179351  1
  Co  Co12  1  0.000000  0.819744  0.820651  1
  Co  Co13  1  0.000000  0.359622  0.819855  1
  Co  Co14  1  0.000000  0.820649  0.359576  1
  Co  Co15  1  0.500000  0.296308  0.703692  1
  Co  Co16  1  0.500000  0.703444  0.000004  1
  Co  Co17  1  0.500000  0.999996  0.296556  1
