# generated using pymatgen
data_Tb5Dy(Tm2Si3)2
_symmetry_space_group_name_H-M   'P 1'
_cell_length_a   8.42937271
_cell_length_b   8.43228391
_cell_length_c   6.31105300
_cell_angle_alpha   90.00000000
_cell_angle_beta   90.00000000
_cell_angle_gamma   120.01142539
_symmetry_Int_Tables_number   1
_chemical_formula_structural   Tb5Dy(Tm2Si3)2
_chemical_formula_sum   'Tb5 Dy1 Tm4 Si6'
_cell_volume   388.43908705
_cell_formula_units_Z   1
loop_
 _symmetry_equiv_pos_site_id
 _symmetry_equiv_pos_as_xyz
  1  'x, y, z'
loop_
 _atom_site_type_symbol
 _atom_site_label
 _atom_site_symmetry_multiplicity
 _atom_site_fract_x
 _atom_site_fract_y
 _atom_site_fract_z
 _atom_site_occupancy
  Tb  Tb0  1  0.755978  0.755660  0.250000  1
  Tb  Tb1  1  0.244022  0.999682  0.250000  1
  Tb  Tb2  1  0.000000  0.244956  0.250000  1
  Tb  Tb3  1  0.244287  0.244234  0.750000  1
  Tb  Tb4  1  0.755713  0.999947  0.750000  1
  Dy  Dy5  1  0.000000  0.755236  0.750000  1
  Tm  Tm6  1  0.666871  0.333553  0.500071  1
  Tm  Tm7  1  0.333129  0.666683  0.500071  1
  Tm  Tm8  1  0.333129  0.666683  0.999929  1
  Tm  Tm9  1  0.666871  0.333553  0.999929  1
  Si  Si10  1  0.395241  0.395059  0.250000  1
  Si  Si11  1  0.604759  0.999817  0.250000  1
  Si  Si12  1  0.000000  0.604654  0.250000  1
  Si  Si13  1  0.605945  0.605179  0.750000  1
  Si  Si14  1  0.394055  0.999234  0.750000  1
  Si  Si15  1  0.000000  0.395871  0.750000  1
