# generated using pymatgen
data_Tb2Yb6Zn3Si12Ir
_symmetry_space_group_name_H-M   'P 1'
_cell_length_a   8.17425600
_cell_length_b   8.17425619
_cell_length_c   8.29488100
_cell_angle_alpha   90.00000000
_cell_angle_beta   90.00000000
_cell_angle_gamma   120.00000731
_symmetry_Int_Tables_number   1
_chemical_formula_structural   Tb2Yb6Zn3Si12Ir
_chemical_formula_sum   'Tb2 Yb6 Zn3 Si12 Ir1'
_cell_volume   479.99558137
_cell_formula_units_Z   1
loop_
 _symmetry_equiv_pos_site_id
 _symmetry_equiv_pos_as_xyz
  1  'x, y, z'
loop_
 _atom_site_type_symbol
 _atom_site_label
 _atom_site_symmetry_multiplicity
 _atom_site_fract_x
 _atom_site_fract_y
 _atom_site_fract_z
 _atom_site_occupancy
  Tb  Tb0  1  0.000000  0.000000  0.249235  1
  Tb  Tb1  1  0.000000  0.000000  0.750885  1
  Yb  Yb2  1  0.497045  0.994092  0.242939  1
  Yb  Yb3  1  0.494880  0.989761  0.757334  1
  Yb  Yb4  1  0.005908  0.502955  0.242939  1
  Yb  Yb5  1  0.010239  0.505120  0.757334  1
  Yb  Yb6  1  0.497045  0.502955  0.242939  1
  Yb  Yb7  1  0.494880  0.505120  0.757334  1
  Zn  Zn8  1  0.666667  0.333333  0.996495  1
  Zn  Zn9  1  0.666667  0.333333  0.504209  1
  Zn  Zn10  1  0.333333  0.666667  0.494584  1
  Si  Si11  1  0.167836  0.335673  0.001777  1
  Si  Si12  1  0.838751  0.677502  0.998967  1
  Si  Si13  1  0.664327  0.832164  0.001777  1
  Si  Si14  1  0.835166  0.670331  0.501511  1
  Si  Si15  1  0.322498  0.161249  0.998967  1
  Si  Si16  1  0.164385  0.328769  0.498578  1
  Si  Si17  1  0.167836  0.832164  0.001777  1
  Si  Si18  1  0.329669  0.164834  0.501511  1
  Si  Si19  1  0.838751  0.161249  0.998967  1
  Si  Si20  1  0.671231  0.835615  0.498578  1
  Si  Si21  1  0.835166  0.164834  0.501511  1
  Si  Si22  1  0.164385  0.835615  0.498578  1
  Ir  Ir23  1  0.333333  0.666667  0.001278  1
