# generated using pymatgen
data_Y6Tm2Sc12Si15Ag
_symmetry_space_group_name_H-M   'P 1'
_cell_length_a   7.11521132
_cell_length_b   7.36540799
_cell_length_c   14.05070808
_cell_angle_alpha   89.81464326
_cell_angle_beta   89.57335292
_cell_angle_gamma   90.23347870
_symmetry_Int_Tables_number   1
_chemical_formula_structural   Y6Tm2Sc12Si15Ag
_chemical_formula_sum   'Y6 Tm2 Sc12 Si15 Ag1'
_cell_volume   736.31705521
_cell_formula_units_Z   1
loop_
 _symmetry_equiv_pos_site_id
 _symmetry_equiv_pos_as_xyz
  1  'x, y, z'
loop_
 _atom_site_type_symbol
 _atom_site_label
 _atom_site_symmetry_multiplicity
 _atom_site_fract_x
 _atom_site_fract_y
 _atom_site_fract_z
 _atom_site_occupancy
  Y  Y0  1  0.011331  0.175186  0.097612  1
  Y  Y1  1  0.988565  0.826052  0.904086  1
  Y  Y2  1  0.488048  0.676933  0.904231  1
  Y  Y3  1  0.989699  0.830671  0.597521  1
  Y  Y4  1  0.511468  0.323735  0.096129  1
  Y  Y5  1  0.007699  0.171608  0.398980  1
  Tm  Tm6  1  0.511051  0.322126  0.400125  1
  Tm  Tm7  1  0.494728  0.678825  0.600015  1
  Sc  Sc8  1  0.163910  0.501541  0.752881  1
  Sc  Sc9  1  0.836536  0.498790  0.251280  1
  Sc  Sc10  1  0.337352  0.999730  0.249184  1
  Sc  Sc11  1  0.665340  0.996591  0.751057  1
  Sc  Sc12  1  0.343311  0.174170  0.626851  1
  Sc  Sc13  1  0.663165  0.822700  0.373566  1
  Sc  Sc14  1  0.166702  0.674596  0.371537  1
  Sc  Sc15  1  0.668980  0.824152  0.125152  1
  Sc  Sc16  1  0.826403  0.326070  0.625501  1
  Sc  Sc17  1  0.329480  0.175221  0.875855  1
  Sc  Sc18  1  0.830911  0.323131  0.875594  1
  Sc  Sc19  1  0.168854  0.676107  0.125558  1
  Si  Si20  1  0.037087  0.121282  0.749983  1
  Si  Si21  1  0.964266  0.883164  0.248671  1
  Si  Si22  1  0.466265  0.613718  0.248457  1
  Si  Si23  1  0.534805  0.387183  0.751947  1
  Si  Si24  1  0.286899  0.873401  0.750345  1
  Si  Si25  1  0.711009  0.127957  0.249039  1
  Si  Si26  1  0.214766  0.370614  0.248932  1
  Si  Si27  1  0.787983  0.627886  0.752029  1
  Si  Si28  1  0.832715  0.536749  0.459282  1
  Si  Si29  1  0.337366  0.961532  0.461060  1
  Si  Si30  1  0.843710  0.535631  0.039171  1
  Si  Si31  1  0.659447  0.036307  0.537629  1
  Si  Si32  1  0.155385  0.464330  0.961892  1
  Si  Si33  1  0.657381  0.035379  0.960719  1
  Si  Si34  1  0.342416  0.964188  0.039908  1
  Ag  Ag35  1  0.164965  0.462740  0.538224  1
