# generated using pymatgen
data_NaTm5(Si2Rh3)6
_symmetry_space_group_name_H-M   'P 1'
_cell_length_a   3.92242700
_cell_length_b   11.20763100
_cell_length_c   12.79535200
_cell_angle_alpha   90.00000000
_cell_angle_beta   90.00000000
_cell_angle_gamma   90.00000000
_symmetry_Int_Tables_number   1
_chemical_formula_structural   NaTm5(Si2Rh3)6
_chemical_formula_sum   'Na1 Tm5 Si12 Rh18'
_cell_volume   562.49793358
_cell_formula_units_Z   1
loop_
 _symmetry_equiv_pos_site_id
 _symmetry_equiv_pos_as_xyz
  1  'x, y, z'
loop_
 _atom_site_type_symbol
 _atom_site_label
 _atom_site_symmetry_multiplicity
 _atom_site_fract_x
 _atom_site_fract_y
 _atom_site_fract_z
 _atom_site_occupancy
  Na  Na0  1  0.000000  0.500000  0.520344  1
  Tm  Tm1  1  0.500000  0.000000  0.476007  1
  Tm  Tm2  1  0.500000  0.814350  0.206273  1
  Tm  Tm3  1  0.500000  0.185650  0.206273  1
  Tm  Tm4  1  0.000000  0.684538  0.793543  1
  Tm  Tm5  1  0.000000  0.315462  0.793543  1
  Si  Si6  1  0.500000  0.500000  0.870988  1
  Si  Si7  1  0.000000  0.000000  0.127273  1
  Si  Si8  1  0.500000  0.500000  0.337128  1
  Si  Si9  1  0.000000  0.000000  0.661187  1
  Si  Si10  1  0.500000  0.304088  0.617961  1
  Si  Si11  1  0.500000  0.695912  0.617961  1
  Si  Si12  1  0.000000  0.197488  0.384024  1
  Si  Si13  1  0.000000  0.802512  0.384024  1
  Si  Si14  1  0.500000  0.852836  0.897304  1
  Si  Si15  1  0.500000  0.147164  0.897304  1
  Si  Si16  1  0.000000  0.646299  0.102360  1
  Si  Si17  1  0.000000  0.353701  0.102360  1
  Rh  Rh18  1  0.500000  0.500000  0.152495  1
  Rh  Rh19  1  0.000000  0.000000  0.846956  1
  Rh  Rh20  1  0.500000  0.500000  0.690973  1
  Rh  Rh21  1  0.000000  0.000000  0.311391  1
  Rh  Rh22  1  0.000000  0.500000  0.972411  1
  Rh  Rh23  1  0.500000  0.000000  0.027643  1
  Rh  Rh24  1  0.500000  0.331748  0.984454  1
  Rh  Rh25  1  0.500000  0.668252  0.984454  1
  Rh  Rh26  1  0.000000  0.168865  0.015512  1
  Rh  Rh27  1  0.000000  0.831135  0.015512  1
  Rh  Rh28  1  0.500000  0.305235  0.432128  1
  Rh  Rh29  1  0.500000  0.694765  0.432128  1
  Rh  Rh30  1  0.000000  0.194047  0.569115  1
  Rh  Rh31  1  0.000000  0.805953  0.569115  1
  Rh  Rh32  1  0.500000  0.877784  0.714057  1
  Rh  Rh33  1  0.500000  0.122216  0.714057  1
  Rh  Rh34  1  0.000000  0.622484  0.285870  1
  Rh  Rh35  1  0.000000  0.377516  0.285870  1
