# generated using pymatgen
data_Sr4Fe2PdWO12
_symmetry_space_group_name_H-M   'P 1'
_cell_length_a   5.60367526
_cell_length_b   5.64822556
_cell_length_c   9.75153584
_cell_angle_alpha   89.59032126
_cell_angle_beta   106.57963223
_cell_angle_gamma   119.57437105
_symmetry_Int_Tables_number   1
_chemical_formula_structural   Sr4Fe2PdWO12
_chemical_formula_sum   'Sr4 Fe2 Pd1 W1 O12'
_cell_volume   253.94211913
_cell_formula_units_Z   1
loop_
 _symmetry_equiv_pos_site_id
 _symmetry_equiv_pos_as_xyz
  1  'x, y, z'
loop_
 _atom_site_type_symbol
 _atom_site_label
 _atom_site_symmetry_multiplicity
 _atom_site_fract_x
 _atom_site_fract_y
 _atom_site_fract_z
 _atom_site_occupancy
  Sr  Sr0  1  0.754029  0.628500  0.388012  1
  Sr  Sr1  1  0.743044  0.121660  0.859332  1
  Sr  Sr2  1  0.256956  0.878340  0.140668  1
  Sr  Sr3  1  0.245971  0.371500  0.611988  1
  Fe  Fe4  1  0.003499  0.251526  0.255229  1
  Fe  Fe5  1  0.996501  0.748474  0.744771  1
  Pd  Pd6  1  0.500000  0.000000  0.500000  1
  W  W7  1  0.500000  0.500000  0.000000  1
  O  O8  1  0.742291  0.864946  0.119379  1
  O  O9  1  0.730398  0.375160  0.629314  1
  O  O10  1  0.269602  0.624840  0.370686  1
  O  O11  1  0.257709  0.135054  0.880621  1
  O  O12  1  0.192111  0.084009  0.386924  1
  O  O13  1  0.219477  0.606510  0.899226  1
  O  O14  1  0.807889  0.915991  0.613076  1
  O  O15  1  0.780523  0.393490  0.100774  1
  O  O16  1  0.707083  0.640652  0.860955  1
  O  O17  1  0.714772  0.160422  0.354279  1
  O  O18  1  0.285228  0.839578  0.645721  1
  O  O19  1  0.292917  0.359348  0.139045  1
