# generated using pymatgen
data_CeEu2(Zn3Ir2)3
_symmetry_space_group_name_H-M   'P 1'
_cell_length_a   9.33493300
_cell_length_b   9.33493128
_cell_length_c   4.43863800
_cell_angle_alpha   90.00000000
_cell_angle_beta   90.00000000
_cell_angle_gamma   119.99999547
_symmetry_Int_Tables_number   1
_chemical_formula_structural   CeEu2(Zn3Ir2)3
_chemical_formula_sum   'Ce1 Eu2 Zn9 Ir6'
_cell_volume   334.96752845
_cell_formula_units_Z   1
loop_
 _symmetry_equiv_pos_site_id
 _symmetry_equiv_pos_as_xyz
  1  'x, y, z'
loop_
 _atom_site_type_symbol
 _atom_site_label
 _atom_site_symmetry_multiplicity
 _atom_site_fract_x
 _atom_site_fract_y
 _atom_site_fract_z
 _atom_site_occupancy
  Ce  Ce0  1  0.000000  0.000000  0.500000  1
  Eu  Eu1  1  0.333333  0.666667  0.000000  1
  Eu  Eu2  1  0.666667  0.333333  0.000000  1
  Zn  Zn3  1  0.500000  0.000000  0.500000  1
  Zn  Zn4  1  0.500000  0.500000  0.500000  1
  Zn  Zn5  1  0.000000  0.500000  0.500000  1
  Zn  Zn6  1  0.291211  0.000000  0.000000  1
  Zn  Zn7  1  0.291211  0.291211  0.000000  1
  Zn  Zn8  1  0.000000  0.708789  0.000000  1
  Zn  Zn9  1  0.000000  0.291211  0.000000  1
  Zn  Zn10  1  0.708789  0.708789  0.000000  1
  Zn  Zn11  1  0.708789  0.000000  0.000000  1
  Ir  Ir12  1  0.176102  0.352204  0.500000  1
  Ir  Ir13  1  0.823898  0.176102  0.500000  1
  Ir  Ir14  1  0.352204  0.176102  0.500000  1
  Ir  Ir15  1  0.647796  0.823898  0.500000  1
  Ir  Ir16  1  0.176102  0.823898  0.500000  1
  Ir  Ir17  1  0.823898  0.647796  0.500000  1
