# generated using pymatgen
data_Na2La6CdAu9
_symmetry_space_group_name_H-M   'P 1'
_cell_length_a   8.26505436
_cell_length_b   8.26505350
_cell_length_c   8.26505400
_cell_angle_alpha   65.58719729
_cell_angle_beta   65.58719997
_cell_angle_gamma   65.58718687
_symmetry_Int_Tables_number   1
_chemical_formula_structural   Na2La6CdAu9
_chemical_formula_sum   'Na2 La6 Cd1 Au9'
_cell_volume   447.68330385
_cell_formula_units_Z   1
loop_
 _symmetry_equiv_pos_site_id
 _symmetry_equiv_pos_as_xyz
  1  'x, y, z'
loop_
 _atom_site_type_symbol
 _atom_site_label
 _atom_site_symmetry_multiplicity
 _atom_site_fract_x
 _atom_site_fract_y
 _atom_site_fract_z
 _atom_site_occupancy
  Na  Na0  1  0.657836  0.657836  0.657836  1
  Na  Na1  1  0.342164  0.342164  0.342164  1
  La  La2  1  0.901307  0.189867  0.621829  1
  La  La3  1  0.621829  0.901307  0.189867  1
  La  La4  1  0.189867  0.621829  0.901307  1
  La  La5  1  0.098693  0.810133  0.378171  1
  La  La6  1  0.378171  0.098693  0.810133  1
  La  La7  1  0.810133  0.378171  0.098693  1
  Cd  Cd8  1  0.500000  0.500000  0.500000  1
  Au  Au9  1  0.000000  0.000000  0.000000  1
  Au  Au10  1  0.804430  0.804430  0.804430  1
  Au  Au11  1  0.195570  0.195570  0.195570  1
  Au  Au12  1  0.933652  0.548300  0.313265  1
  Au  Au13  1  0.313265  0.933652  0.548300  1
  Au  Au14  1  0.548300  0.313265  0.933652  1
  Au  Au15  1  0.066348  0.451700  0.686735  1
  Au  Au16  1  0.686735  0.066348  0.451700  1
  Au  Au17  1  0.451700  0.686735  0.066348  1
