# generated using pymatgen
data_Tc2Ag6RuF18
_symmetry_space_group_name_H-M   'P 1'
_cell_length_a   9.90535825
_cell_length_b   9.90865890
_cell_length_c   5.33610000
_cell_angle_alpha   90.10735601
_cell_angle_beta   89.87322492
_cell_angle_gamma   119.97928037
_symmetry_Int_Tables_number   1
_chemical_formula_structural   Tc2Ag6RuF18
_chemical_formula_sum   'Tc2 Ag6 Ru1 F18'
_cell_volume   453.65850715
_cell_formula_units_Z   1
loop_
 _symmetry_equiv_pos_site_id
 _symmetry_equiv_pos_as_xyz
  1  'x, y, z'
loop_
 _atom_site_type_symbol
 _atom_site_label
 _atom_site_symmetry_multiplicity
 _atom_site_fract_x
 _atom_site_fract_y
 _atom_site_fract_z
 _atom_site_occupancy
  Tc  Tc0  1  0.333383  0.666563  0.500432  1
  Tc  Tc1  1  0.000023  0.000397  0.998690  1
  Ag  Ag2  1  0.995755  0.621832  0.000861  1
  Ag  Ag3  1  0.000015  0.292229  0.498081  1
  Ag  Ag4  1  0.377417  0.374476  0.999317  1
  Ag  Ag5  1  0.292927  0.001994  0.499904  1
  Ag  Ag6  1  0.709723  0.708620  0.503152  1
  Ag  Ag7  1  0.624515  0.002174  0.003669  1
  Ru  Ru8  1  0.666185  0.332865  0.500226  1
  F  F9  1  0.084866  0.894413  0.793199  1
  F  F10  1  0.223673  0.744990  0.290468  1
  F  F11  1  0.145191  0.551933  0.710878  1
  F  F12  1  0.407622  0.854048  0.711993  1
  F  F13  1  0.255835  0.478031  0.289468  1
  F  F14  1  0.105322  0.190829  0.792765  1
  F  F15  1  0.190840  0.105717  0.203123  1
  F  F16  1  0.447515  0.592571  0.710755  1
  F  F17  1  0.522416  0.775666  0.290715  1
  F  F18  1  0.478387  0.253051  0.712927  1
  F  F19  1  0.596749  0.445549  0.289686  1
  F  F20  1  0.808925  0.916522  0.794678  1
  F  F21  1  0.550540  0.144093  0.289215  1
  F  F22  1  0.776259  0.523664  0.709115  1
  F  F23  1  0.913378  0.809626  0.203991  1
  F  F24  1  0.742934  0.225920  0.709037  1
  F  F25  1  0.854439  0.405671  0.288757  1
  F  F26  1  0.895167  0.086554  0.204901  1
