# generated using pymatgen
data_Dy5As12Ru9Rh10
_symmetry_space_group_name_H-M   'P 1'
_cell_length_a   13.08271900
_cell_length_b   13.08271788
_cell_length_c   4.01542900
_cell_angle_alpha   90.00000000
_cell_angle_beta   90.00000000
_cell_angle_gamma   120.00000030
_symmetry_Int_Tables_number   1
_chemical_formula_structural   Dy5As12Ru9Rh10
_chemical_formula_sum   'Dy5 As12 Ru9 Rh10'
_cell_volume   595.19403653
_cell_formula_units_Z   1
loop_
 _symmetry_equiv_pos_site_id
 _symmetry_equiv_pos_as_xyz
  1  'x, y, z'
loop_
 _atom_site_type_symbol
 _atom_site_label
 _atom_site_symmetry_multiplicity
 _atom_site_fract_x
 _atom_site_fract_y
 _atom_site_fract_z
 _atom_site_occupancy
  Dy  Dy0  1  0.000000  0.186836  0.500000  1
  Dy  Dy1  1  0.813164  0.813164  0.500000  1
  Dy  Dy2  1  0.186836  0.000000  0.500000  1
  Dy  Dy3  1  0.666667  0.333333  0.000000  1
  Dy  Dy4  1  0.333333  0.666667  0.000000  1
  As  As5  1  0.000000  0.819629  0.000000  1
  As  As6  1  0.180371  0.180371  0.000000  1
  As  As7  1  0.819629  0.000000  0.000000  1
  As  As8  1  0.685664  0.169701  0.500000  1
  As  As9  1  0.830299  0.515963  0.500000  1
  As  As10  1  0.484037  0.314336  0.500000  1
  As  As11  1  0.169701  0.685664  0.500000  1
  As  As12  1  0.515963  0.830299  0.500000  1
  As  As13  1  0.314336  0.484037  0.500000  1
  As  As14  1  0.000000  0.368536  0.000000  1
  As  As15  1  0.631464  0.631464  0.000000  1
  As  As16  1  0.368536  0.000000  0.000000  1
  Ru  Ru17  1  0.000000  0.715533  0.500000  1
  Ru  Ru18  1  0.284467  0.284467  0.500000  1
  Ru  Ru19  1  0.715533  0.000000  0.500000  1
  Ru  Ru20  1  0.874498  0.359088  0.500000  1
  Ru  Ru21  1  0.640912  0.515409  0.500000  1
  Ru  Ru22  1  0.484591  0.125502  0.500000  1
  Ru  Ru23  1  0.359088  0.874498  0.500000  1
  Ru  Ru24  1  0.515409  0.640912  0.500000  1
  Ru  Ru25  1  0.125502  0.484591  0.500000  1
  Rh  Rh26  1  0.000000  0.553445  0.000000  1
  Rh  Rh27  1  0.446555  0.446555  0.000000  1
  Rh  Rh28  1  0.553445  0.000000  0.000000  1
  Rh  Rh29  1  0.807341  0.181495  0.000000  1
  Rh  Rh30  1  0.818505  0.625845  0.000000  1
  Rh  Rh31  1  0.374155  0.192659  0.000000  1
  Rh  Rh32  1  0.181495  0.807341  0.000000  1
  Rh  Rh33  1  0.625845  0.818505  0.000000  1
  Rh  Rh34  1  0.192659  0.374155  0.000000  1
  Rh  Rh35  1  0.000000  0.000000  0.000000  1
