# generated using pymatgen
data_Pa3(Al3Ru)4
_symmetry_space_group_name_H-M   'P 1'
_cell_length_a   8.87468900
_cell_length_b   8.87468828
_cell_length_c   9.42869400
_cell_angle_alpha   90.00000000
_cell_angle_beta   90.00000000
_cell_angle_gamma   120.00000643
_symmetry_Int_Tables_number   1
_chemical_formula_structural   Pa3(Al3Ru)4
_chemical_formula_sum   'Pa6 Al24 Ru8'
_cell_volume   643.11463852
_cell_formula_units_Z   2
loop_
 _symmetry_equiv_pos_site_id
 _symmetry_equiv_pos_as_xyz
  1  'x, y, z'
loop_
 _atom_site_type_symbol
 _atom_site_label
 _atom_site_symmetry_multiplicity
 _atom_site_fract_x
 _atom_site_fract_y
 _atom_site_fract_z
 _atom_site_occupancy
  Pa  Pa0  1  0.802037  0.197963  0.750000  1
  Pa  Pa1  1  0.197963  0.802037  0.250000  1
  Pa  Pa2  1  0.395926  0.197963  0.750000  1
  Pa  Pa3  1  0.604074  0.802037  0.250000  1
  Pa  Pa4  1  0.802037  0.604074  0.750000  1
  Pa  Pa5  1  0.197963  0.395926  0.250000  1
  Al  Al6  1  0.666667  0.333333  0.982433  1
  Al  Al7  1  0.333333  0.666667  0.017567  1
  Al  Al8  1  0.333333  0.666667  0.482433  1
  Al  Al9  1  0.666667  0.333333  0.517567  1
  Al  Al10  1  0.838411  0.161589  0.420902  1
  Al  Al11  1  0.161589  0.838411  0.579098  1
  Al  Al12  1  0.323178  0.161589  0.420902  1
  Al  Al13  1  0.161589  0.838411  0.920902  1
  Al  Al14  1  0.676822  0.838411  0.579098  1
  Al  Al15  1  0.838411  0.161589  0.079098  1
  Al  Al16  1  0.838411  0.676822  0.420902  1
  Al  Al17  1  0.676822  0.838411  0.920902  1
  Al  Al18  1  0.161589  0.323178  0.579098  1
  Al  Al19  1  0.323178  0.161589  0.079098  1
  Al  Al20  1  0.161589  0.323178  0.920902  1
  Al  Al21  1  0.838411  0.676822  0.079098  1
  Al  Al22  1  0.437468  0.562532  0.750000  1
  Al  Al23  1  0.562532  0.437468  0.250000  1
  Al  Al24  1  0.125062  0.562532  0.750000  1
  Al  Al25  1  0.874938  0.437468  0.250000  1
  Al  Al26  1  0.437468  0.874938  0.750000  1
  Al  Al27  1  0.562532  0.125062  0.250000  1
  Al  Al28  1  0.000000  0.000000  0.750000  1
  Al  Al29  1  0.000000  0.000000  0.250000  1
  Ru  Ru30  1  0.500000  0.500000  0.000000  1
  Ru  Ru31  1  0.000000  0.500000  0.000000  1
  Ru  Ru32  1  0.500000  0.500000  0.500000  1
  Ru  Ru33  1  0.500000  0.000000  0.000000  1
  Ru  Ru34  1  0.000000  0.500000  0.500000  1
  Ru  Ru35  1  0.500000  0.000000  0.500000  1
  Ru  Ru36  1  0.000000  0.000000  0.000000  1
  Ru  Ru37  1  0.000000  0.000000  0.500000  1
