# generated using pymatgen
data_Sc24Tc7P
_symmetry_space_group_name_H-M   'P 1'
_cell_length_a   5.75962566
_cell_length_b   8.52541100
_cell_length_c   13.98291858
_cell_angle_alpha   90.00000000
_cell_angle_beta   89.88381552
_cell_angle_gamma   90.00000000
_symmetry_Int_Tables_number   1
_chemical_formula_structural   Sc24Tc7P
_chemical_formula_sum   'Sc24 Tc7 P1'
_cell_volume   686.60429996
_cell_formula_units_Z   1
loop_
 _symmetry_equiv_pos_site_id
 _symmetry_equiv_pos_as_xyz
  1  'x, y, z'
loop_
 _atom_site_type_symbol
 _atom_site_label
 _atom_site_symmetry_multiplicity
 _atom_site_fract_x
 _atom_site_fract_y
 _atom_site_fract_z
 _atom_site_occupancy
  Sc  Sc0  1  0.528460  0.750000  0.354010  1
  Sc  Sc1  1  0.027546  0.250000  0.145492  1
  Sc  Sc2  1  0.473396  0.250000  0.646679  1
  Sc  Sc3  1  0.968102  0.750000  0.855314  1
  Sc  Sc4  1  0.793240  0.750000  0.111635  1
  Sc  Sc5  1  0.287617  0.250000  0.388157  1
  Sc  Sc6  1  0.204422  0.250000  0.886027  1
  Sc  Sc7  1  0.725871  0.750000  0.609668  1
  Sc  Sc8  1  0.448204  0.936642  0.793713  1
  Sc  Sc9  1  0.933825  0.064471  0.709084  1
  Sc  Sc10  1  0.558558  0.436611  0.209586  1
  Sc  Sc11  1  0.060637  0.563969  0.288589  1
  Sc  Sc12  1  0.558558  0.063389  0.209586  1
  Sc  Sc13  1  0.060637  0.936031  0.288589  1
  Sc  Sc14  1  0.448204  0.563358  0.793713  1
  Sc  Sc15  1  0.933825  0.435529  0.709084  1
  Sc  Sc16  1  0.239994  0.938402  0.531457  1
  Sc  Sc17  1  0.745297  0.061338  0.967634  1
  Sc  Sc18  1  0.748306  0.437022  0.466378  1
  Sc  Sc19  1  0.250370  0.560478  0.033359  1
  Sc  Sc20  1  0.748306  0.062978  0.466378  1
  Sc  Sc21  1  0.250370  0.939522  0.033359  1
  Sc  Sc22  1  0.239994  0.561598  0.531457  1
  Sc  Sc23  1  0.745297  0.438662  0.967634  1
  Tc  Tc24  1  0.928037  0.750000  0.442911  1
  Tc  Tc25  1  0.423735  0.250000  0.054849  1
  Tc  Tc26  1  0.073373  0.250000  0.558837  1
  Tc  Tc27  1  0.570540  0.750000  0.943786  1
  Tc  Tc28  1  0.352787  0.750000  0.181588  1
  Tc  Tc29  1  0.850778  0.250000  0.317607  1
  Tc  Tc30  1  0.650827  0.250000  0.818135  1
  P  P31  1  0.170885  0.750000  0.685705  1
