# generated using pymatgen
data_La3Pr13Cd4Pd3Ru
_symmetry_space_group_name_H-M   'P 1'
_cell_length_a   10.14101156
_cell_length_b   10.15938002
_cell_length_c   10.15937880
_cell_angle_alpha   59.41122923
_cell_angle_beta   59.53977616
_cell_angle_gamma   59.53977773
_symmetry_Int_Tables_number   1
_chemical_formula_structural   La3Pr13Cd4Pd3Ru
_chemical_formula_sum   'La3 Pr13 Cd4 Pd3 Ru1'
_cell_volume   731.64695172
_cell_formula_units_Z   1
loop_
 _symmetry_equiv_pos_site_id
 _symmetry_equiv_pos_as_xyz
  1  'x, y, z'
loop_
 _atom_site_type_symbol
 _atom_site_label
 _atom_site_symmetry_multiplicity
 _atom_site_fract_x
 _atom_site_fract_y
 _atom_site_fract_z
 _atom_site_occupancy
  La  La0  1  0.351427  0.352216  0.352216  1
  La  La1  1  0.345326  0.345794  0.953335  1
  La  La2  1  0.345326  0.953335  0.345794  1
  Pr  Pr3  1  0.948272  0.348696  0.348696  1
  Pr  Pr4  1  0.818594  0.188422  0.188422  1
  Pr  Pr5  1  0.189543  0.808404  0.808404  1
  Pr  Pr6  1  0.188513  0.817842  0.188072  1
  Pr  Pr7  1  0.808423  0.189527  0.807930  1
  Pr  Pr8  1  0.188513  0.188072  0.817842  1
  Pr  Pr9  1  0.808423  0.807930  0.189527  1
  Pr  Pr10  1  0.935535  0.564914  0.564914  1
  Pr  Pr11  1  0.559270  0.936296  0.936296  1
  Pr  Pr12  1  0.565058  0.935131  0.565359  1
  Pr  Pr13  1  0.936451  0.559361  0.936553  1
  Pr  Pr14  1  0.565058  0.565359  0.935131  1
  Pr  Pr15  1  0.936451  0.936553  0.559361  1
  Cd  Cd16  1  0.580129  0.579651  0.579651  1
  Cd  Cd17  1  0.581099  0.580128  0.258049  1
  Cd  Cd18  1  0.581099  0.258049  0.580128  1
  Cd  Cd19  1  0.257882  0.580387  0.580387  1
  Pd  Pd20  1  0.145715  0.145245  0.570403  1
  Pd  Pd21  1  0.145715  0.570403  0.145245  1
  Pd  Pd22  1  0.570745  0.145559  0.145559  1
  Ru  Ru23  1  0.147437  0.142727  0.142727  1
