# generated using pymatgen
data_SmPa(FeB)8
_symmetry_space_group_name_H-M   'P 1'
_cell_length_a   6.98265700
_cell_length_b   6.98265700
_cell_length_c   3.80939700
_cell_angle_alpha   90.00000000
_cell_angle_beta   90.00000000
_cell_angle_gamma   90.00000000
_symmetry_Int_Tables_number   1
_chemical_formula_structural   SmPa(FeB)8
_chemical_formula_sum   'Sm1 Pa1 Fe8 B8'
_cell_volume   185.73666958
_cell_formula_units_Z   1
loop_
 _symmetry_equiv_pos_site_id
 _symmetry_equiv_pos_as_xyz
  1  'x, y, z'
loop_
 _atom_site_type_symbol
 _atom_site_label
 _atom_site_symmetry_multiplicity
 _atom_site_fract_x
 _atom_site_fract_y
 _atom_site_fract_z
 _atom_site_occupancy
  Sm  Sm0  1  0.500000  0.500000  0.500000  1
  Pa  Pa1  1  0.000000  0.000000  0.000000  1
  Fe  Fe2  1  0.129604  0.382910  0.897748  1
  Fe  Fe3  1  0.870396  0.617090  0.897748  1
  Fe  Fe4  1  0.888543  0.365579  0.394168  1
  Fe  Fe5  1  0.111457  0.634421  0.394168  1
  Fe  Fe6  1  0.365579  0.111457  0.605832  1
  Fe  Fe7  1  0.634421  0.888543  0.605832  1
  Fe  Fe8  1  0.617090  0.129604  0.102252  1
  Fe  Fe9  1  0.382910  0.870396  0.102252  1
  B  B10  1  0.664719  0.798881  0.105963  1
  B  B11  1  0.335281  0.201119  0.105963  1
  B  B12  1  0.292971  0.835736  0.601811  1
  B  B13  1  0.707029  0.164264  0.601811  1
  B  B14  1  0.835736  0.707029  0.398189  1
  B  B15  1  0.164264  0.292971  0.398189  1
  B  B16  1  0.201119  0.664719  0.894037  1
  B  B17  1  0.798881  0.335281  0.894037  1
