# generated using pymatgen
data_Th10Sn6BiSb
_symmetry_space_group_name_H-M   'P 1'
_cell_length_a   9.70278261
_cell_length_b   9.70413491
_cell_length_c   6.57912800
_cell_angle_alpha   90.00000000
_cell_angle_beta   90.00000000
_cell_angle_gamma   120.06140095
_symmetry_Int_Tables_number   1
_chemical_formula_structural   Th10Sn6BiSb
_chemical_formula_sum   'Th10 Sn6 Bi1 Sb1'
_cell_volume   536.14598303
_cell_formula_units_Z   1
loop_
 _symmetry_equiv_pos_site_id
 _symmetry_equiv_pos_as_xyz
  1  'x, y, z'
loop_
 _atom_site_type_symbol
 _atom_site_label
 _atom_site_symmetry_multiplicity
 _atom_site_fract_x
 _atom_site_fract_y
 _atom_site_fract_z
 _atom_site_occupancy
  Th  Th0  1  0.002903  0.720105  0.750000  1
  Th  Th1  1  0.276790  0.277589  0.750000  1
  Th  Th2  1  0.330913  0.666723  0.498714  1
  Th  Th3  1  0.667082  0.331800  0.498711  1
  Th  Th4  1  0.721024  0.720641  0.250000  1
  Th  Th5  1  0.722570  0.003740  0.750000  1
  Th  Th6  1  0.000265  0.280738  0.250000  1
  Th  Th7  1  0.280365  0.999841  0.250000  1
  Th  Th8  1  0.330913  0.666723  0.001286  1
  Th  Th9  1  0.667082  0.331800  0.001289  1
  Sn  Sn10  1  0.380311  0.000074  0.750000  1
  Sn  Sn11  1  0.619523  0.999698  0.250000  1
  Sn  Sn12  1  0.380336  0.379791  0.250000  1
  Sn  Sn13  1  0.000083  0.999607  0.000857  1
  Sn  Sn14  1  0.000130  0.620461  0.250000  1
  Sn  Sn15  1  0.000083  0.999607  0.499143  1
  Bi  Bi16  1  0.619517  0.619521  0.750000  1
  Sb  Sb17  1  0.000109  0.381540  0.750000  1
