# generated using pymatgen
data_MgPa4FeO12
_symmetry_space_group_name_H-M   'P 1'
_cell_length_a   5.36656700
_cell_length_b   5.39577800
_cell_length_c   15.86965200
_cell_angle_alpha   90.00000000
_cell_angle_beta   90.00000000
_cell_angle_gamma   90.00000000
_symmetry_Int_Tables_number   1
_chemical_formula_structural   MgPa4FeO12
_chemical_formula_sum   'Mg2 Pa8 Fe2 O24'
_cell_volume   459.53440496
_cell_formula_units_Z   2
loop_
 _symmetry_equiv_pos_site_id
 _symmetry_equiv_pos_as_xyz
  1  'x, y, z'
loop_
 _atom_site_type_symbol
 _atom_site_label
 _atom_site_symmetry_multiplicity
 _atom_site_fract_x
 _atom_site_fract_y
 _atom_site_fract_z
 _atom_site_occupancy
  Mg  Mg0  1  0.000000  0.457020  0.000000  1
  Mg  Mg1  1  0.500000  0.542980  0.500000  1
  Pa  Pa2  1  0.962637  0.494333  0.657805  1
  Pa  Pa3  1  0.462637  0.505667  0.842195  1
  Pa  Pa4  1  0.537363  0.505667  0.157805  1
  Pa  Pa5  1  0.037363  0.494333  0.342195  1
  Pa  Pa6  1  0.536480  0.005003  0.342221  1
  Pa  Pa7  1  0.036480  0.994997  0.157779  1
  Pa  Pa8  1  0.963520  0.994997  0.842221  1
  Pa  Pa9  1  0.463520  0.005003  0.657779  1
  Fe  Fe10  1  0.500000  0.045977  0.000000  1
  Fe  Fe11  1  0.000000  0.954023  0.500000  1
  O  O12  1  0.247655  0.698453  0.586141  1
  O  O13  1  0.747655  0.301547  0.913859  1
  O  O14  1  0.252345  0.301547  0.086141  1
  O  O15  1  0.752345  0.698453  0.413859  1
  O  O16  1  0.256437  0.793569  0.414683  1
  O  O17  1  0.756437  0.206431  0.085317  1
  O  O18  1  0.243563  0.206431  0.914683  1
  O  O19  1  0.743563  0.793569  0.585317  1
  O  O20  1  0.277773  0.726499  0.250563  1
  O  O21  1  0.777773  0.273501  0.249437  1
  O  O22  1  0.222227  0.273501  0.750563  1
  O  O23  1  0.722227  0.726499  0.749437  1
  O  O24  1  0.221913  0.773673  0.750018  1
  O  O25  1  0.721913  0.226327  0.749982  1
  O  O26  1  0.278087  0.226327  0.250018  1
  O  O27  1  0.778087  0.773673  0.249982  1
  O  O28  1  0.153159  0.695126  0.910609  1
  O  O29  1  0.653159  0.304874  0.589391  1
  O  O30  1  0.346841  0.304874  0.410609  1
  O  O31  1  0.846841  0.695126  0.089391  1
  O  O32  1  0.347409  0.808811  0.091372  1
  O  O33  1  0.847409  0.191189  0.408628  1
  O  O34  1  0.152591  0.191189  0.591372  1
  O  O35  1  0.652591  0.808811  0.908628  1
