# generated using pymatgen
data_NdCoP3Rh4
_symmetry_space_group_name_H-M   'P 1'
_cell_length_a   3.89091700
_cell_length_b   10.84485200
_cell_length_c   12.49098100
_cell_angle_alpha   90.00000000
_cell_angle_beta   90.00000000
_cell_angle_gamma   90.00000000
_symmetry_Int_Tables_number   1
_chemical_formula_structural   NdCoP3Rh4
_chemical_formula_sum   'Nd4 Co4 P12 Rh16'
_cell_volume   527.07466811
_cell_formula_units_Z   4
loop_
 _symmetry_equiv_pos_site_id
 _symmetry_equiv_pos_as_xyz
  1  'x, y, z'
loop_
 _atom_site_type_symbol
 _atom_site_label
 _atom_site_symmetry_multiplicity
 _atom_site_fract_x
 _atom_site_fract_y
 _atom_site_fract_z
 _atom_site_occupancy
  Nd  Nd0  1  0.250000  0.585483  0.707158  1
  Nd  Nd1  1  0.250000  0.914517  0.207158  1
  Nd  Nd2  1  0.750000  0.414517  0.292842  1
  Nd  Nd3  1  0.750000  0.085483  0.792842  1
  Co  Co4  1  0.250000  0.464669  0.934713  1
  Co  Co5  1  0.250000  0.035331  0.434713  1
  Co  Co6  1  0.750000  0.535331  0.065287  1
  Co  Co7  1  0.750000  0.964669  0.565287  1
  P  P8  1  0.250000  0.424018  0.104958  1
  P  P9  1  0.250000  0.075982  0.604958  1
  P  P10  1  0.750000  0.575982  0.895042  1
  P  P11  1  0.750000  0.924018  0.395042  1
  P  P12  1  0.250000  0.275295  0.873733  1
  P  P13  1  0.250000  0.224705  0.373733  1
  P  P14  1  0.750000  0.724705  0.126267  1
  P  P15  1  0.750000  0.775295  0.626267  1
  P  P16  1  0.250000  0.602239  0.389674  1
  P  P17  1  0.250000  0.897761  0.889674  1
  P  P18  1  0.750000  0.397761  0.610326  1
  P  P19  1  0.750000  0.102239  0.110326  1
  Rh  Rh20  1  0.250000  0.714664  0.986867  1
  Rh  Rh21  1  0.250000  0.785336  0.486867  1
  Rh  Rh22  1  0.750000  0.285336  0.013133  1
  Rh  Rh23  1  0.750000  0.214664  0.513133  1
  Rh  Rh24  1  0.250000  0.407980  0.482928  1
  Rh  Rh25  1  0.250000  0.092020  0.982928  1
  Rh  Rh26  1  0.750000  0.592020  0.517072  1
  Rh  Rh27  1  0.750000  0.907980  0.017072  1
  Rh  Rh28  1  0.250000  0.225525  0.177520  1
  Rh  Rh29  1  0.250000  0.274475  0.677520  1
  Rh  Rh30  1  0.750000  0.774475  0.822480  1
  Rh  Rh31  1  0.750000  0.725525  0.322480  1
  Rh  Rh32  1  0.250000  0.885188  0.697468  1
  Rh  Rh33  1  0.250000  0.614812  0.197468  1
  Rh  Rh34  1  0.750000  0.114812  0.302532  1
  Rh  Rh35  1  0.750000  0.385188  0.802532  1
