# generated using pymatgen
data_Tb9Th3(Si2Ni)4
_symmetry_space_group_name_H-M   'P 1'
_cell_length_a   4.18356200
_cell_length_b   11.49722218
_cell_length_c   11.33875604
_cell_angle_alpha   89.60146494
_cell_angle_beta   90.00000000
_cell_angle_gamma   90.00000000
_symmetry_Int_Tables_number   1
_chemical_formula_structural   Tb9Th3(Si2Ni)4
_chemical_formula_sum   'Tb9 Th3 Si8 Ni4'
_cell_volume   545.37350913
_cell_formula_units_Z   1
loop_
 _symmetry_equiv_pos_site_id
 _symmetry_equiv_pos_as_xyz
  1  'x, y, z'
loop_
 _atom_site_type_symbol
 _atom_site_label
 _atom_site_symmetry_multiplicity
 _atom_site_fract_x
 _atom_site_fract_y
 _atom_site_fract_z
 _atom_site_occupancy
  Tb  Tb0  1  0.750000  0.559318  0.615239  1
  Tb  Tb1  1  0.250000  0.119790  0.562806  1
  Tb  Tb2  1  0.250000  0.379775  0.059974  1
  Tb  Tb3  1  0.750000  0.875709  0.437652  1
  Tb  Tb4  1  0.750000  0.621551  0.937087  1
  Tb  Tb5  1  0.250000  0.801128  0.709654  1
  Tb  Tb6  1  0.250000  0.692486  0.210112  1
  Tb  Tb7  1  0.750000  0.198599  0.291249  1
  Tb  Tb8  1  0.750000  0.310397  0.790753  1
  Th  Th9  1  0.250000  0.061742  0.883812  1
  Th  Th10  1  0.250000  0.439007  0.386766  1
  Th  Th11  1  0.750000  0.940265  0.115874  1
  Si  Si12  1  0.250000  0.806496  0.970469  1
  Si  Si13  1  0.250000  0.689975  0.471180  1
  Si  Si14  1  0.750000  0.194734  0.029167  1
  Si  Si15  1  0.750000  0.308010  0.532673  1
  Si  Si16  1  0.250000  0.495923  0.799597  1
  Si  Si17  1  0.250000  0.015375  0.307080  1
  Si  Si18  1  0.750000  0.507019  0.195630  1
  Si  Si19  1  0.750000  0.984001  0.693825  1
  Ni  Ni20  1  0.250000  0.363000  0.629907  1
  Ni  Ni21  1  0.250000  0.136065  0.128876  1
  Ni  Ni22  1  0.750000  0.633236  0.367993  1
  Ni  Ni23  1  0.750000  0.866398  0.872626  1
