# generated using pymatgen
data_Lu20CoIr11
_symmetry_space_group_name_H-M   'P 1'
_cell_length_a   10.66135600
_cell_length_b   10.66135600
_cell_length_c   6.27983500
_cell_angle_alpha   90.00000000
_cell_angle_beta   90.00000000
_cell_angle_gamma   90.00000000
_symmetry_Int_Tables_number   1
_chemical_formula_structural   Lu20CoIr11
_chemical_formula_sum   'Lu20 Co1 Ir11'
_cell_volume   713.79437920
_cell_formula_units_Z   1
loop_
 _symmetry_equiv_pos_site_id
 _symmetry_equiv_pos_as_xyz
  1  'x, y, z'
loop_
 _atom_site_type_symbol
 _atom_site_label
 _atom_site_symmetry_multiplicity
 _atom_site_fract_x
 _atom_site_fract_y
 _atom_site_fract_z
 _atom_site_occupancy
  Lu  Lu0  1  0.293108  0.086344  0.376223  1
  Lu  Lu1  1  0.293667  0.913440  0.880887  1
  Lu  Lu2  1  0.706333  0.086560  0.880887  1
  Lu  Lu3  1  0.706892  0.913656  0.376223  1
  Lu  Lu4  1  0.586560  0.793667  0.880887  1
  Lu  Lu5  1  0.586344  0.206892  0.376223  1
  Lu  Lu6  1  0.413656  0.793108  0.376223  1
  Lu  Lu7  1  0.413440  0.206333  0.880887  1
  Lu  Lu8  1  0.208619  0.412308  0.622407  1
  Lu  Lu9  1  0.208458  0.587405  0.122111  1
  Lu  Lu10  1  0.791542  0.412595  0.122111  1
  Lu  Lu11  1  0.791381  0.587692  0.622407  1
  Lu  Lu12  1  0.912595  0.708458  0.122111  1
  Lu  Lu13  1  0.912308  0.291381  0.622407  1
  Lu  Lu14  1  0.087692  0.708619  0.622407  1
  Lu  Lu15  1  0.087405  0.291542  0.122111  1
  Lu  Lu16  1  0.000000  0.000000  0.499256  1
  Lu  Lu17  1  0.000000  0.000000  0.999154  1
  Lu  Lu18  1  0.500000  0.500000  0.999154  1
  Lu  Lu19  1  0.500000  0.500000  0.499256  1
  Co  Co20  1  0.500000  0.000000  0.125756  1
  Ir  Ir21  1  0.845970  0.153303  0.249379  1
  Ir  Ir22  1  0.846138  0.846547  0.749287  1
  Ir  Ir23  1  0.153862  0.153453  0.749287  1
  Ir  Ir24  1  0.154030  0.846697  0.249379  1
  Ir  Ir25  1  0.653453  0.346138  0.749287  1
  Ir  Ir26  1  0.653303  0.654030  0.249379  1
  Ir  Ir27  1  0.346697  0.345970  0.249379  1
  Ir  Ir28  1  0.346547  0.653862  0.749287  1
  Ir  Ir29  1  0.500000  0.000000  0.623830  1
  Ir  Ir30  1  0.000000  0.500000  0.876120  1
  Ir  Ir31  1  0.000000  0.500000  0.376294  1
