# generated using pymatgen
data_Sr2Al9Ir2Pt
_symmetry_space_group_name_H-M   'P 1'
_cell_length_a   7.64508550
_cell_length_b   7.64508628
_cell_length_c   9.84196300
_cell_angle_alpha   90.00000000
_cell_angle_beta   90.00000000
_cell_angle_gamma   119.07507177
_symmetry_Int_Tables_number   1
_chemical_formula_structural   Sr2Al9Ir2Pt
_chemical_formula_sum   'Sr4 Al18 Ir4 Pt2'
_cell_volume   502.74738062
_cell_formula_units_Z   2
loop_
 _symmetry_equiv_pos_site_id
 _symmetry_equiv_pos_as_xyz
  1  'x, y, z'
loop_
 _atom_site_type_symbol
 _atom_site_label
 _atom_site_symmetry_multiplicity
 _atom_site_fract_x
 _atom_site_fract_y
 _atom_site_fract_z
 _atom_site_occupancy
  Sr  Sr0  1  0.994905  0.673478  0.250000  1
  Sr  Sr1  1  0.005095  0.326522  0.750000  1
  Sr  Sr2  1  0.673478  0.994905  0.250000  1
  Sr  Sr3  1  0.326522  0.005095  0.750000  1
  Al  Al4  1  0.139451  0.139451  0.250000  1
  Al  Al5  1  0.860549  0.860549  0.750000  1
  Al  Al6  1  0.004358  0.339833  0.069990  1
  Al  Al7  1  0.995642  0.660167  0.930010  1
  Al  Al8  1  0.995642  0.660167  0.569990  1
  Al  Al9  1  0.339833  0.004358  0.430010  1
  Al  Al10  1  0.004358  0.339833  0.430010  1
  Al  Al11  1  0.660167  0.995642  0.569990  1
  Al  Al12  1  0.660167  0.995642  0.930010  1
  Al  Al13  1  0.339833  0.004358  0.069990  1
  Al  Al14  1  0.338788  0.338788  0.544940  1
  Al  Al15  1  0.661212  0.661212  0.455060  1
  Al  Al16  1  0.661212  0.661212  0.044940  1
  Al  Al17  1  0.338788  0.338788  0.955060  1
  Al  Al18  1  0.337061  0.544747  0.250000  1
  Al  Al19  1  0.662939  0.455253  0.750000  1
  Al  Al20  1  0.544747  0.337061  0.250000  1
  Al  Al21  1  0.455253  0.662939  0.750000  1
  Ir  Ir22  1  0.670290  0.329710  0.000000  1
  Ir  Ir23  1  0.329710  0.670290  0.000000  1
  Ir  Ir24  1  0.329710  0.670290  0.500000  1
  Ir  Ir25  1  0.670290  0.329710  0.500000  1
  Pt  Pt26  1  0.000000  0.000000  0.000000  1
  Pt  Pt27  1  0.000000  0.000000  0.500000  1
