# generated using pymatgen
data_Sm2Dy7Ho(In2Pt)4
_symmetry_space_group_name_H-M   'P 1'
_cell_length_a   3.63547700
_cell_length_b   8.18454680
_cell_length_c   18.34332979
_cell_angle_alpha   90.05063064
_cell_angle_beta   90.00000000
_cell_angle_gamma   90.00000000
_symmetry_Int_Tables_number   1
_chemical_formula_structural   Sm2Dy7Ho(In2Pt)4
_chemical_formula_sum   'Sm2 Dy7 Ho1 In8 Pt4'
_cell_volume   545.80064225
_cell_formula_units_Z   1
loop_
 _symmetry_equiv_pos_site_id
 _symmetry_equiv_pos_as_xyz
  1  'x, y, z'
loop_
 _atom_site_type_symbol
 _atom_site_label
 _atom_site_symmetry_multiplicity
 _atom_site_fract_x
 _atom_site_fract_y
 _atom_site_fract_z
 _atom_site_occupancy
  Sm  Sm0  1  0.000000  0.000013  0.000035  1
  Sm  Sm1  1  0.000000  0.499984  0.499983  1
  Dy  Dy2  1  0.000000  0.117925  0.414365  1
  Dy  Dy3  1  0.000000  0.881979  0.585573  1
  Dy  Dy4  1  0.000000  0.381983  0.914438  1
  Dy  Dy5  1  0.000000  0.618043  0.085659  1
  Dy  Dy6  1  0.000000  0.242584  0.219983  1
  Dy  Dy7  1  0.000000  0.757435  0.780021  1
  Dy  Dy8  1  0.000000  0.257471  0.719973  1
  Ho  Ho9  1  0.000000  0.742728  0.279816  1
  In  In10  1  0.500000  0.423169  0.349539  1
  In  In11  1  0.500000  0.577069  0.650432  1
  In  In12  1  0.500000  0.077080  0.849575  1
  In  In13  1  0.500000  0.922742  0.150607  1
  In  In14  1  0.500000  0.295832  0.067325  1
  In  In15  1  0.500000  0.704230  0.932687  1
  In  In16  1  0.500000  0.204235  0.567314  1
  In  In17  1  0.500000  0.795645  0.432507  1
  Pt  Pt18  1  0.500000  0.023393  0.303432  1
  Pt  Pt19  1  0.500000  0.975808  0.696492  1
  Pt  Pt20  1  0.500000  0.475832  0.803494  1
  Pt  Pt21  1  0.500000  0.524821  0.196752  1
