# generated using pymatgen
data_Y5Ho5(Bi2Ir)2
_symmetry_space_group_name_H-M   'P 1'
_cell_length_a   8.00701600
_cell_length_b   8.96744600
_cell_length_c   12.55883700
_cell_angle_alpha   90.00000000
_cell_angle_beta   89.99896926
_cell_angle_gamma   90.00000000
_symmetry_Int_Tables_number   1
_chemical_formula_structural   Y5Ho5(Bi2Ir)2
_chemical_formula_sum   'Y10 Ho10 Bi8 Ir4'
_cell_volume   901.75568767
_cell_formula_units_Z   2
loop_
 _symmetry_equiv_pos_site_id
 _symmetry_equiv_pos_as_xyz
  1  'x, y, z'
loop_
 _atom_site_type_symbol
 _atom_site_label
 _atom_site_symmetry_multiplicity
 _atom_site_fract_x
 _atom_site_fract_y
 _atom_site_fract_z
 _atom_site_occupancy
  Y  Y0  1  0.839116  0.750000  0.793335  1
  Y  Y1  1  0.160884  0.250000  0.206665  1
  Y  Y2  1  0.339536  0.250000  0.707029  1
  Y  Y3  1  0.660464  0.750000  0.292971  1
  Y  Y4  1  0.374637  0.750000  0.692274  1
  Y  Y5  1  0.625363  0.250000  0.307726  1
  Y  Y6  1  0.874678  0.250000  0.807757  1
  Y  Y7  1  0.125322  0.750000  0.192243  1
  Y  Y8  1  0.948587  0.750000  0.501617  1
  Y  Y9  1  0.051413  0.250000  0.498383  1
  Ho  Ho10  1  0.446893  0.250000  0.998443  1
  Ho  Ho11  1  0.553107  0.750000  0.001557  1
  Ho  Ho12  1  0.674601  0.041789  0.565939  1
  Ho  Ho13  1  0.325399  0.958211  0.434061  1
  Ho  Ho14  1  0.175297  0.958039  0.934323  1
  Ho  Ho15  1  0.325399  0.541789  0.434061  1
  Ho  Ho16  1  0.824703  0.041961  0.065677  1
  Ho  Ho17  1  0.674601  0.458211  0.565939  1
  Ho  Ho18  1  0.824703  0.458039  0.065677  1
  Ho  Ho19  1  0.175297  0.541961  0.934323  1
  Bi  Bi20  1  0.566302  0.491550  0.827352  1
  Bi  Bi21  1  0.433698  0.508450  0.172648  1
  Bi  Bi22  1  0.066517  0.508453  0.673348  1
  Bi  Bi23  1  0.433698  0.991550  0.172648  1
  Bi  Bi24  1  0.933483  0.491547  0.326652  1
  Bi  Bi25  1  0.566302  0.008450  0.827352  1
  Bi  Bi26  1  0.933483  0.008453  0.326652  1
  Bi  Bi27  1  0.066517  0.991547  0.673348  1
  Ir  Ir28  1  0.570071  0.750000  0.508554  1
  Ir  Ir29  1  0.429929  0.250000  0.491446  1
  Ir  Ir30  1  0.072003  0.250000  0.991017  1
  Ir  Ir31  1  0.927997  0.750000  0.008983  1
