# generated using pymatgen
data_LiNiAg8(TeO6)2
_symmetry_space_group_name_H-M   'P 1'
_cell_length_a   9.12041905
_cell_length_b   9.12041963
_cell_length_c   5.47957069
_cell_angle_alpha   61.90542021
_cell_angle_beta   61.90541926
_cell_angle_gamma   66.56601531
_symmetry_Int_Tables_number   1
_chemical_formula_structural   LiNiAg8(TeO6)2
_chemical_formula_sum   'Li1 Ni1 Ag8 Te2 O12'
_cell_volume   345.53543143
_cell_formula_units_Z   1
loop_
 _symmetry_equiv_pos_site_id
 _symmetry_equiv_pos_as_xyz
  1  'x, y, z'
loop_
 _atom_site_type_symbol
 _atom_site_label
 _atom_site_symmetry_multiplicity
 _atom_site_fract_x
 _atom_site_fract_y
 _atom_site_fract_z
 _atom_site_occupancy
  Li  Li0  1  0.080878  0.919122  0.750000  1
  Ni  Ni1  1  0.922565  0.077435  0.250000  1
  Ag  Ag2  1  0.415773  0.584227  0.750000  1
  Ag  Ag3  1  0.348986  0.144871  0.019984  1
  Ag  Ag4  1  0.578506  0.421494  0.250000  1
  Ag  Ag5  1  0.147526  0.347722  0.516483  1
  Ag  Ag6  1  0.855129  0.651014  0.480016  1
  Ag  Ag7  1  0.652278  0.852474  0.983517  1
  Ag  Ag8  1  0.498651  0.002862  0.505629  1
  Ag  Ag9  1  0.997138  0.501349  0.994371  1
  Te  Te10  1  0.769583  0.230417  0.750000  1
  Te  Te11  1  0.229921  0.770079  0.250000  1
  O  O12  1  0.461036  0.713373  0.263075  1
  O  O13  1  0.712191  0.463670  0.747349  1
  O  O14  1  0.003312  0.834437  0.222345  1
  O  O15  1  0.536330  0.287809  0.752651  1
  O  O16  1  0.286627  0.538964  0.236925  1
  O  O17  1  0.863485  0.305924  0.313993  1
  O  O18  1  0.313663  0.858346  0.818811  1
  O  O19  1  0.694076  0.136515  0.186007  1
  O  O20  1  0.165563  0.996688  0.277655  1
  O  O21  1  0.831364  0.006237  0.713143  1
  O  O22  1  0.141654  0.686337  0.681189  1
  O  O23  1  0.993763  0.168636  0.786857  1
