# generated using pymatgen
data_Tb16In2Ag2RuRh3
_symmetry_space_group_name_H-M   'P 1'
_cell_length_a   9.61986855
_cell_length_b   9.63658051
_cell_length_c   9.62956700
_cell_angle_alpha   60.02407597
_cell_angle_beta   59.96664790
_cell_angle_gamma   60.16890166
_symmetry_Int_Tables_number   1
_chemical_formula_structural   Tb16In2Ag2RuRh3
_chemical_formula_sum   'Tb16 In2 Ag2 Ru1 Rh3'
_cell_volume   631.98156452
_cell_formula_units_Z   1
loop_
 _symmetry_equiv_pos_site_id
 _symmetry_equiv_pos_as_xyz
  1  'x, y, z'
loop_
 _atom_site_type_symbol
 _atom_site_label
 _atom_site_symmetry_multiplicity
 _atom_site_fract_x
 _atom_site_fract_y
 _atom_site_fract_z
 _atom_site_occupancy
  Tb  Tb0  1  0.808160  0.807625  0.192107  1
  Tb  Tb1  1  0.811232  0.191715  0.809139  1
  Tb  Tb2  1  0.186022  0.189280  0.812349  1
  Tb  Tb3  1  0.649414  0.051255  0.649666  1
  Tb  Tb4  1  0.064200  0.064008  0.435896  1
  Tb  Tb5  1  0.441909  0.437881  0.060105  1
  Tb  Tb6  1  0.650498  0.649161  0.651538  1
  Tb  Tb7  1  0.811232  0.191715  0.187913  1
  Tb  Tb8  1  0.190506  0.810596  0.808692  1
  Tb  Tb9  1  0.050087  0.649569  0.650172  1
  Tb  Tb10  1  0.438172  0.065877  0.059674  1
  Tb  Tb11  1  0.438172  0.065877  0.436276  1
  Tb  Tb12  1  0.065519  0.437298  0.058253  1
  Tb  Tb13  1  0.650498  0.649161  0.048804  1
  Tb  Tb14  1  0.190506  0.810596  0.190205  1
  Tb  Tb15  1  0.065519  0.437298  0.438929  1
  In  In16  1  0.416176  0.742425  0.420699  1
  In  In17  1  0.742344  0.416027  0.420815  1
  Ag  Ag18  1  0.416777  0.416314  0.418138  1
  Ag  Ag19  1  0.416777  0.416314  0.748769  1
  Ru  Ru20  1  0.857304  0.424353  0.859171  1
  Rh  Rh21  1  0.856781  0.858515  0.860081  1
  Rh  Rh22  1  0.856781  0.858515  0.424623  1
  Rh  Rh23  1  0.425409  0.858621  0.857985  1
