# generated using pymatgen
data_Er4Mn3CoOs4
_symmetry_space_group_name_H-M   'P 1'
_cell_length_a   5.28868915
_cell_length_b   5.28869050
_cell_length_c   8.54605300
_cell_angle_alpha   90.00000000
_cell_angle_beta   90.00000000
_cell_angle_gamma   120.67097424
_symmetry_Int_Tables_number   1
_chemical_formula_structural   Er4Mn3CoOs4
_chemical_formula_sum   'Er4 Mn3 Co1 Os4'
_cell_volume   205.59671751
_cell_formula_units_Z   1
loop_
 _symmetry_equiv_pos_site_id
 _symmetry_equiv_pos_as_xyz
  1  'x, y, z'
loop_
 _atom_site_type_symbol
 _atom_site_label
 _atom_site_symmetry_multiplicity
 _atom_site_fract_x
 _atom_site_fract_y
 _atom_site_fract_z
 _atom_site_occupancy
  Er  Er0  1  0.332544  0.667456  0.437209  1
  Er  Er1  1  0.667263  0.332737  0.567697  1
  Er  Er2  1  0.667263  0.332737  0.932303  1
  Er  Er3  1  0.332544  0.667456  0.062791  1
  Mn  Mn4  1  0.003113  0.996887  0.505681  1
  Mn  Mn5  1  0.003113  0.996887  0.994319  1
  Mn  Mn6  1  0.834405  0.165595  0.250000  1
  Co  Co7  1  0.165921  0.834079  0.750000  1
  Os  Os8  1  0.826240  0.662134  0.250000  1
  Os  Os9  1  0.337866  0.173760  0.250000  1
  Os  Os10  1  0.172015  0.342287  0.750000  1
  Os  Os11  1  0.657713  0.827985  0.750000  1
