# generated using pymatgen
data_YEr5(Sc2In3)2
_symmetry_space_group_name_H-M   'P 1'
_cell_length_a   8.87879638
_cell_length_b   8.87879631
_cell_length_c   6.21827400
_cell_angle_alpha   90.00000000
_cell_angle_beta   90.00000000
_cell_angle_gamma   120.03368302
_symmetry_Int_Tables_number   1
_chemical_formula_structural   YEr5(Sc2In3)2
_chemical_formula_sum   'Y1 Er5 Sc4 In6'
_cell_volume   424.38611961
_cell_formula_units_Z   1
loop_
 _symmetry_equiv_pos_site_id
 _symmetry_equiv_pos_as_xyz
  1  'x, y, z'
loop_
 _atom_site_type_symbol
 _atom_site_label
 _atom_site_symmetry_multiplicity
 _atom_site_fract_x
 _atom_site_fract_y
 _atom_site_fract_z
 _atom_site_occupancy
  Y  Y0  1  0.763228  0.763228  0.750000  1
  Er  Er1  1  0.237241  0.000183  0.750000  1
  Er  Er2  1  0.000183  0.237241  0.750000  1
  Er  Er3  1  0.236681  0.236681  0.250000  1
  Er  Er4  1  0.763010  0.000138  0.250000  1
  Er  Er5  1  0.000138  0.763010  0.250000  1
  Sc  Sc6  1  0.666581  0.333231  0.000051  1
  Sc  Sc7  1  0.333231  0.666581  0.000051  1
  Sc  Sc8  1  0.333231  0.666581  0.499949  1
  Sc  Sc9  1  0.666581  0.333231  0.499949  1
  In  In10  1  0.407190  0.407190  0.750000  1
  In  In11  1  0.592417  0.000251  0.750000  1
  In  In12  1  0.000251  0.592417  0.750000  1
  In  In13  1  0.592521  0.592521  0.250000  1
  In  In14  1  0.407479  0.000040  0.250000  1
  In  In15  1  0.000040  0.407479  0.250000  1
