# generated using pymatgen
data_RbLuCr2O8
_symmetry_space_group_name_H-M   'P 1'
_cell_length_a   5.76020200
_cell_length_b   5.76020264
_cell_length_c   8.08152200
_cell_angle_alpha   90.00000000
_cell_angle_beta   90.00000000
_cell_angle_gamma   119.99999633
_symmetry_Int_Tables_number   1
_chemical_formula_structural   RbLuCr2O8
_chemical_formula_sum   'Rb1 Lu1 Cr2 O8'
_cell_volume   232.21981922
_cell_formula_units_Z   1
loop_
 _symmetry_equiv_pos_site_id
 _symmetry_equiv_pos_as_xyz
  1  'x, y, z'
loop_
 _atom_site_type_symbol
 _atom_site_label
 _atom_site_symmetry_multiplicity
 _atom_site_fract_x
 _atom_site_fract_y
 _atom_site_fract_z
 _atom_site_occupancy
  Rb  Rb0  1  0.000000  0.000000  0.500000  1
  Lu  Lu1  1  0.000000  0.000000  0.000000  1
  Cr  Cr2  1  0.666667  0.333334  0.231608  1
  Cr  Cr3  1  0.333334  0.666667  0.768392  1
  O  O4  1  0.348643  0.174322  0.164573  1
  O  O5  1  0.825679  0.174322  0.164573  1
  O  O6  1  0.825678  0.651356  0.164573  1
  O  O7  1  0.666667  0.333334  0.432777  1
  O  O8  1  0.333334  0.666667  0.567223  1
  O  O9  1  0.174321  0.348643  0.835427  1
  O  O10  1  0.174321  0.825678  0.835427  1
  O  O11  1  0.651357  0.825678  0.835427  1
