# generated using pymatgen
data_HoWN2
_symmetry_space_group_name_H-M   'P 1'
_cell_length_a   3.20019300
_cell_length_b   5.70491500
_cell_length_c   10.53359600
_cell_angle_alpha   90.00000000
_cell_angle_beta   90.00000000
_cell_angle_gamma   90.00000000
_symmetry_Int_Tables_number   1
_chemical_formula_structural   HoWN2
_chemical_formula_sum   'Ho4 W4 N8'
_cell_volume   192.31006144
_cell_formula_units_Z   4
loop_
 _symmetry_equiv_pos_site_id
 _symmetry_equiv_pos_as_xyz
  1  'x, y, z'
loop_
 _atom_site_type_symbol
 _atom_site_label
 _atom_site_symmetry_multiplicity
 _atom_site_fract_x
 _atom_site_fract_y
 _atom_site_fract_z
 _atom_site_occupancy
  Ho  Ho0  1  0.250000  0.580554  0.354711  1
  Ho  Ho1  1  0.250000  0.080554  0.145289  1
  Ho  Ho2  1  0.750000  0.419446  0.645289  1
  Ho  Ho3  1  0.750000  0.919446  0.854711  1
  W  W4  1  0.250000  0.932457  0.595128  1
  W  W5  1  0.250000  0.432457  0.904872  1
  W  W6  1  0.750000  0.067543  0.404872  1
  W  W7  1  0.750000  0.567543  0.095128  1
  N  N8  1  0.250000  0.663424  0.748699  1
  N  N9  1  0.250000  0.163424  0.751301  1
  N  N10  1  0.750000  0.336576  0.251301  1
  N  N11  1  0.750000  0.836576  0.248699  1
  N  N12  1  0.250000  0.262946  0.493452  1
  N  N13  1  0.250000  0.762946  0.006548  1
  N  N14  1  0.750000  0.737054  0.506548  1
  N  N15  1  0.750000  0.237054  0.993452  1
