# generated using pymatgen
data_Sc3Ga2Re(B2Ru5)2
_symmetry_space_group_name_H-M   'P 1'
_cell_length_a   9.39668011
_cell_length_b   9.39668011
_cell_length_c   2.98313400
_cell_angle_alpha   90.00000000
_cell_angle_beta   90.00000000
_cell_angle_gamma   89.84040531
_symmetry_Int_Tables_number   1
_chemical_formula_structural   Sc3Ga2Re(B2Ru5)2
_chemical_formula_sum   'Sc3 Ga2 Re1 B4 Ru10'
_cell_volume   263.40254234
_cell_formula_units_Z   1
loop_
 _symmetry_equiv_pos_site_id
 _symmetry_equiv_pos_as_xyz
  1  'x, y, z'
loop_
 _atom_site_type_symbol
 _atom_site_label
 _atom_site_symmetry_multiplicity
 _atom_site_fract_x
 _atom_site_fract_y
 _atom_site_fract_z
 _atom_site_occupancy
  Sc  Sc0  1  0.324763  0.824763  0.000000  1
  Sc  Sc1  1  0.175480  0.327128  0.000000  1
  Sc  Sc2  1  0.827128  0.675480  0.000000  1
  Ga  Ga3  1  0.002823  0.999227  0.000000  1
  Ga  Ga4  1  0.499227  0.502823  0.000000  1
  Re  Re5  1  0.675440  0.175440  0.000000  1
  B  B6  1  0.123006  0.623006  0.000000  1
  B  B7  1  0.876369  0.376369  0.000000  1
  B  B8  1  0.624289  0.871815  0.000000  1
  B  B9  1  0.371815  0.124289  0.000000  1
  Ru  Ru10  1  0.214828  0.073802  0.500000  1
  Ru  Ru11  1  0.780907  0.944970  0.500000  1
  Ru  Ru12  1  0.070250  0.784046  0.500000  1
  Ru  Ru13  1  0.710652  0.416287  0.500000  1
  Ru  Ru14  1  0.916287  0.210652  0.500000  1
  Ru  Ru15  1  0.284046  0.570250  0.500000  1
  Ru  Ru16  1  0.573802  0.714828  0.500000  1
  Ru  Ru17  1  0.444970  0.280907  0.500000  1
  Ru  Ru18  1  0.505776  0.005776  0.500000  1
  Ru  Ru19  1  0.998142  0.498142  0.500000  1
