# generated using pymatgen
data_TbTm4CoSb2
_symmetry_space_group_name_H-M   'P 1'
_cell_length_a   7.79369400
_cell_length_b   8.74839200
_cell_length_c   12.02741100
_cell_angle_alpha   90.00000000
_cell_angle_beta   90.00000000
_cell_angle_gamma   90.00000000
_symmetry_Int_Tables_number   1
_chemical_formula_structural   TbTm4CoSb2
_chemical_formula_sum   'Tb4 Tm16 Co4 Sb8'
_cell_volume   820.05642764
_cell_formula_units_Z   4
loop_
 _symmetry_equiv_pos_site_id
 _symmetry_equiv_pos_as_xyz
  1  'x, y, z'
loop_
 _atom_site_type_symbol
 _atom_site_label
 _atom_site_symmetry_multiplicity
 _atom_site_fract_x
 _atom_site_fract_y
 _atom_site_fract_z
 _atom_site_occupancy
  Tb  Tb0  1  0.621637  0.750000  0.306447  1
  Tb  Tb1  1  0.121637  0.250000  0.193553  1
  Tb  Tb2  1  0.378363  0.250000  0.693553  1
  Tb  Tb3  1  0.878363  0.750000  0.806447  1
  Tm  Tm4  1  0.154754  0.750000  0.203112  1
  Tm  Tm5  1  0.654754  0.250000  0.296888  1
  Tm  Tm6  1  0.845246  0.250000  0.796888  1
  Tm  Tm7  1  0.345246  0.750000  0.703112  1
  Tm  Tm8  1  0.450466  0.750000  0.997795  1
  Tm  Tm9  1  0.950466  0.250000  0.502205  1
  Tm  Tm10  1  0.549534  0.250000  0.002205  1
  Tm  Tm11  1  0.049534  0.750000  0.497795  1
  Tm  Tm12  1  0.822966  0.963421  0.064829  1
  Tm  Tm13  1  0.322966  0.036579  0.435171  1
  Tm  Tm14  1  0.177034  0.463421  0.935171  1
  Tm  Tm15  1  0.677034  0.536579  0.564829  1
  Tm  Tm16  1  0.177034  0.036579  0.935171  1
  Tm  Tm17  1  0.677034  0.963421  0.564829  1
  Tm  Tm18  1  0.822966  0.536579  0.064829  1
  Tm  Tm19  1  0.322966  0.463421  0.435171  1
  Co  Co20  1  0.431412  0.750000  0.490747  1
  Co  Co21  1  0.931412  0.250000  0.009253  1
  Co  Co22  1  0.568588  0.250000  0.509253  1
  Co  Co23  1  0.068588  0.750000  0.990747  1
  Sb  Sb24  1  0.929358  0.991449  0.328321  1
  Sb  Sb25  1  0.429358  0.008551  0.171679  1
  Sb  Sb26  1  0.070642  0.491449  0.671679  1
  Sb  Sb27  1  0.570642  0.508551  0.828321  1
  Sb  Sb28  1  0.070642  0.008551  0.671679  1
  Sb  Sb29  1  0.570642  0.991449  0.828321  1
  Sb  Sb30  1  0.929358  0.508551  0.328321  1
  Sb  Sb31  1  0.429358  0.491449  0.171679  1
