# generated using pymatgen
data_Hf6Sc3VRe3As
_symmetry_space_group_name_H-M   'P 1'
_cell_length_a   8.69656500
_cell_length_b   8.69656385
_cell_length_c   8.49230300
_cell_angle_alpha   90.00000000
_cell_angle_beta   90.00000000
_cell_angle_gamma   120.00003587
_symmetry_Int_Tables_number   1
_chemical_formula_structural   Hf6Sc3VRe3As
_chemical_formula_sum   'Hf12 Sc6 V2 Re6 As2'
_cell_volume   556.22613816
_cell_formula_units_Z   2
loop_
 _symmetry_equiv_pos_site_id
 _symmetry_equiv_pos_as_xyz
  1  'x, y, z'
loop_
 _atom_site_type_symbol
 _atom_site_label
 _atom_site_symmetry_multiplicity
 _atom_site_fract_x
 _atom_site_fract_y
 _atom_site_fract_z
 _atom_site_occupancy
  Hf  Hf0  1  0.807860  0.615713  0.546251  1
  Hf  Hf1  1  0.807858  0.192142  0.546257  1
  Hf  Hf2  1  0.384287  0.192140  0.546251  1
  Hf  Hf3  1  0.192140  0.384287  0.453749  1
  Hf  Hf4  1  0.192142  0.807858  0.453743  1
  Hf  Hf5  1  0.615713  0.807860  0.453749  1
  Hf  Hf6  1  0.192140  0.384287  0.046251  1
  Hf  Hf7  1  0.192142  0.807858  0.046257  1
  Hf  Hf8  1  0.615713  0.807860  0.046251  1
  Hf  Hf9  1  0.807860  0.615713  0.953749  1
  Hf  Hf10  1  0.807858  0.192142  0.953743  1
  Hf  Hf11  1  0.384287  0.192140  0.953749  1
  Sc  Sc12  1  0.459650  0.919274  0.750000  1
  Sc  Sc13  1  0.459663  0.540337  0.750000  1
  Sc  Sc14  1  0.080726  0.540350  0.750000  1
  Sc  Sc15  1  0.540350  0.080726  0.250000  1
  Sc  Sc16  1  0.540337  0.459663  0.250000  1
  Sc  Sc17  1  0.919274  0.459650  0.250000  1
  V  V18  1  0.000000  0.000000  0.500000  1
  V  V19  1  0.000000  0.000000  0.000000  1
  Re  Re20  1  0.108196  0.216353  0.750000  1
  Re  Re21  1  0.108201  0.891799  0.750000  1
  Re  Re22  1  0.783647  0.891804  0.750000  1
  Re  Re23  1  0.891804  0.783647  0.250000  1
  Re  Re24  1  0.891799  0.108201  0.250000  1
  Re  Re25  1  0.216353  0.108196  0.250000  1
  As  As26  1  0.666668  0.333332  0.750000  1
  As  As27  1  0.333332  0.666668  0.250000  1
