# generated using pymatgen
data_Zr9Ti(GaBi2)2
_symmetry_space_group_name_H-M   'P 1'
_cell_length_a   5.53634025
_cell_length_b   8.46416654
_cell_length_c   8.46416646
_cell_angle_alpha   83.85996976
_cell_angle_beta   70.91045112
_cell_angle_gamma   70.91045049
_symmetry_Int_Tables_number   1
_chemical_formula_structural   Zr9Ti(GaBi2)2
_chemical_formula_sum   'Zr9 Ti1 Ga2 Bi4'
_cell_volume   354.21151325
_cell_formula_units_Z   1
loop_
 _symmetry_equiv_pos_site_id
 _symmetry_equiv_pos_as_xyz
  1  'x, y, z'
loop_
 _atom_site_type_symbol
 _atom_site_label
 _atom_site_symmetry_multiplicity
 _atom_site_fract_x
 _atom_site_fract_y
 _atom_site_fract_z
 _atom_site_occupancy
  Zr  Zr0  1  0.708527  0.865380  0.713632  1
  Zr  Zr1  1  0.287539  0.134620  0.286368  1
  Zr  Zr2  1  0.791473  0.286368  0.134620  1
  Zr  Zr3  1  0.212461  0.713632  0.865380  1
  Zr  Zr4  1  0.577840  0.713632  0.134620  1
  Zr  Zr5  1  0.426094  0.286368  0.865380  1
  Zr  Zr6  1  0.073906  0.134620  0.713632  1
  Zr  Zr7  1  0.922160  0.865380  0.286368  1
  Zr  Zr8  1  0.750000  0.500000  0.500000  1
  Ti  Ti9  1  0.250000  0.500000  0.500000  1
  Ga  Ga10  1  0.250000  0.000000  0.000000  1
  Ga  Ga11  1  0.750000  0.000000  0.000000  1
  Bi  Bi12  1  0.170283  0.500000  0.177795  1
  Bi  Bi13  1  0.848077  0.500000  0.822205  1
  Bi  Bi14  1  0.329717  0.822205  0.500000  1
  Bi  Bi15  1  0.651923  0.177795  0.500000  1
