# generated using pymatgen
data_PrEu3(Al3Pt)6
_symmetry_space_group_name_H-M   'P 1'
_cell_length_a   7.68147169
_cell_length_b   7.67877869
_cell_length_c   9.59936800
_cell_angle_alpha   90.00000000
_cell_angle_beta   90.00000000
_cell_angle_gamma   119.68357163
_symmetry_Int_Tables_number   1
_chemical_formula_structural   PrEu3(Al3Pt)6
_chemical_formula_sum   'Pr1 Eu3 Al18 Pt6'
_cell_volume   491.91018199
_cell_formula_units_Z   1
loop_
 _symmetry_equiv_pos_site_id
 _symmetry_equiv_pos_as_xyz
  1  'x, y, z'
loop_
 _atom_site_type_symbol
 _atom_site_label
 _atom_site_symmetry_multiplicity
 _atom_site_fract_x
 _atom_site_fract_y
 _atom_site_fract_z
 _atom_site_occupancy
  Pr  Pr0  1  0.669145  0.996139  0.250000  1
  Eu  Eu1  1  0.004029  0.330530  0.750000  1
  Eu  Eu2  1  0.996473  0.669887  0.250000  1
  Eu  Eu3  1  0.329970  0.003652  0.750000  1
  Al  Al4  1  0.665531  0.999724  0.922051  1
  Al  Al5  1  0.131730  0.131723  0.250000  1
  Al  Al6  1  0.002639  0.336332  0.426071  1
  Al  Al7  1  0.333240  0.333310  0.557231  1
  Al  Al8  1  0.340399  0.544222  0.250000  1
  Al  Al9  1  0.454155  0.658378  0.750000  1
  Al  Al10  1  0.869127  0.868701  0.750000  1
  Al  Al11  1  0.666573  0.665172  0.054868  1
  Al  Al12  1  0.666573  0.665172  0.445132  1
  Al  Al13  1  0.999496  0.665336  0.575736  1
  Al  Al14  1  0.999496  0.665336  0.924264  1
  Al  Al15  1  0.332690  0.000882  0.426052  1
  Al  Al16  1  0.659370  0.453834  0.750000  1
  Al  Al17  1  0.544857  0.340661  0.250000  1
  Al  Al18  1  0.333240  0.333310  0.942769  1
  Al  Al19  1  0.332690  0.000882  0.073948  1
  Al  Al20  1  0.665531  0.999724  0.577949  1
  Al  Al21  1  0.002639  0.336332  0.073929  1
  Pt  Pt22  1  0.330550  0.671352  0.499568  1
  Pt  Pt23  1  0.330550  0.671352  0.000432  1
  Pt  Pt24  1  0.670533  0.329143  0.499424  1
  Pt  Pt25  1  0.999120  0.999884  0.000500  1
  Pt  Pt26  1  0.999120  0.999884  0.499500  1
  Pt  Pt27  1  0.670533  0.329143  0.000576  1
