# generated using pymatgen
data_Pr18Dy2Si15Pd
_symmetry_space_group_name_H-M   'P 1'
_cell_length_a   7.88781555
_cell_length_b   7.89237553
_cell_length_c   15.28003300
_cell_angle_alpha   89.95626068
_cell_angle_beta   89.52720623
_cell_angle_gamma   90.09189870
_symmetry_Int_Tables_number   1
_chemical_formula_structural   Pr18Dy2Si15Pd
_chemical_formula_sum   'Pr18 Dy2 Si15 Pd1'
_cell_volume   951.20320340
_cell_formula_units_Z   1
loop_
 _symmetry_equiv_pos_site_id
 _symmetry_equiv_pos_as_xyz
  1  'x, y, z'
loop_
 _atom_site_type_symbol
 _atom_site_label
 _atom_site_symmetry_multiplicity
 _atom_site_fract_x
 _atom_site_fract_y
 _atom_site_fract_z
 _atom_site_occupancy
  Pr  Pr0  1  0.808455  0.186503  0.751317  1
  Pr  Pr1  1  0.693742  0.688283  0.498123  1
  Pr  Pr2  1  0.373588  0.010358  0.446695  1
  Pr  Pr3  1  0.490686  0.871391  0.699166  1
  Pr  Pr4  1  0.510378  0.124253  0.196242  1
  Pr  Pr5  1  0.876694  0.486961  0.300011  1
  Pr  Pr6  1  0.123259  0.512281  0.802798  1
  Pr  Pr7  1  0.626833  0.987691  0.950245  1
  Pr  Pr8  1  0.002166  0.379337  0.550083  1
  Pr  Pr9  1  0.988760  0.626095  0.053034  1
  Pr  Pr10  1  0.134265  0.984000  0.877899  1
  Pr  Pr11  1  0.518803  0.631281  0.126178  1
  Pr  Pr12  1  0.475734  0.368711  0.628740  1
  Pr  Pr13  1  0.629057  0.518986  0.874939  1
  Pr  Pr14  1  0.371581  0.480602  0.371003  1
  Pr  Pr15  1  0.871323  0.021329  0.375806  1
  Pr  Pr16  1  0.981312  0.127555  0.124036  1
  Pr  Pr17  1  0.021290  0.873614  0.622187  1
  Dy  Dy18  1  0.309810  0.310279  0.999876  1
  Dy  Dy19  1  0.188498  0.810328  0.249843  1
  Si  Si20  1  0.330494  0.691119  0.953949  1
  Si  Si21  1  0.662210  0.304147  0.452726  1
  Si  Si22  1  0.693895  0.332527  0.047714  1
  Si  Si23  1  0.306101  0.668837  0.545334  1
  Si  Si24  1  0.809509  0.830095  0.204756  1
  Si  Si25  1  0.170183  0.191535  0.294944  1
  Si  Si26  1  0.836353  0.803930  0.797745  1
  Si  Si27  1  0.286896  0.923558  0.062641  1
  Si  Si28  1  0.573776  0.788359  0.308655  1
  Si  Si29  1  0.425790  0.212063  0.818483  1
  Si  Si30  1  0.786342  0.578964  0.690096  1
  Si  Si31  1  0.213307  0.424297  0.187198  1
  Si  Si32  1  0.705482  0.075822  0.559466  1
  Si  Si33  1  0.926672  0.289692  0.942288  1
  Si  Si34  1  0.081455  0.715673  0.436348  1
  Pd  Pd35  1  0.195303  0.169543  0.699436  1
