# generated using pymatgen
data_NaNd8(InAu4)5
_symmetry_space_group_name_H-M   'P 1'
_cell_length_a   8.80256600
_cell_length_b   8.80194012
_cell_length_c   10.34735446
_cell_angle_alpha   89.73596513
_cell_angle_beta   89.73629601
_cell_angle_gamma   108.79797088
_symmetry_Int_Tables_number   1
_chemical_formula_structural   NaNd8(InAu4)5
_chemical_formula_sum   'Na1 Nd8 In5 Au20'
_cell_volume   758.92309835
_cell_formula_units_Z   1
loop_
 _symmetry_equiv_pos_site_id
 _symmetry_equiv_pos_as_xyz
  1  'x, y, z'
loop_
 _atom_site_type_symbol
 _atom_site_label
 _atom_site_symmetry_multiplicity
 _atom_site_fract_x
 _atom_site_fract_y
 _atom_site_fract_z
 _atom_site_occupancy
  Na  Na0  1  0.000000  0.000000  0.000000  1
  Nd  Nd1  1  0.700539  0.299492  0.999926  1
  Nd  Nd2  1  0.199261  0.800729  0.500010  1
  Nd  Nd3  1  0.800578  0.800533  0.296242  1
  Nd  Nd4  1  0.301866  0.301922  0.200902  1
  Nd  Nd5  1  0.800739  0.199271  0.499990  1
  Nd  Nd6  1  0.299461  0.700508  0.000074  1
  Nd  Nd7  1  0.698134  0.698078  0.799098  1
  Nd  Nd8  1  0.199422  0.199467  0.703758  1
  In  In9  1  0.516845  0.017868  0.250667  1
  In  In10  1  0.982394  0.483189  0.749310  1
  In  In11  1  0.017606  0.516811  0.250690  1
  In  In12  1  0.483155  0.982132  0.749333  1
  In  In13  1  0.500000  0.500000  0.500000  1
  Au  Au14  1  0.158034  0.430295  0.477643  1
  Au  Au15  1  0.905124  0.905143  0.596669  1
  Au  Au16  1  0.569740  0.841995  0.522298  1
  Au  Au17  1  0.888048  0.168363  0.208268  1
  Au  Au18  1  0.391284  0.668198  0.290692  1
  Au  Au19  1  0.668045  0.391132  0.290647  1
  Au  Au20  1  0.403246  0.403242  0.906008  1
  Au  Au21  1  0.931642  0.657086  0.022727  1
  Au  Au22  1  0.331955  0.608868  0.709353  1
  Au  Au23  1  0.342923  0.068337  0.977310  1
  Au  Au24  1  0.596754  0.596758  0.093992  1
  Au  Au25  1  0.657077  0.931663  0.022690  1
  Au  Au26  1  0.094876  0.094857  0.403331  1
  Au  Au27  1  0.608716  0.331802  0.709308  1
  Au  Au28  1  0.111952  0.831637  0.791732  1
  Au  Au29  1  0.068358  0.342914  0.977273  1
  Au  Au30  1  0.841966  0.569705  0.522357  1
  Au  Au31  1  0.168368  0.888068  0.208302  1
  Au  Au32  1  0.430260  0.158005  0.477702  1
  Au  Au33  1  0.831632  0.111932  0.791698  1
