# generated using pymatgen
data_YLu2ThCdIr
_symmetry_space_group_name_H-M   'P 1'
_cell_length_a   9.66240149
_cell_length_b   9.65330620
_cell_length_c   9.65330629
_cell_angle_alpha   60.06234656
_cell_angle_beta   59.96882370
_cell_angle_gamma   59.96882574
_symmetry_Int_Tables_number   1
_chemical_formula_structural   YLu2ThCdIr
_chemical_formula_sum   'Y4 Lu8 Th4 Cd4 Ir4'
_cell_volume   636.68037659
_cell_formula_units_Z   4
loop_
 _symmetry_equiv_pos_site_id
 _symmetry_equiv_pos_as_xyz
  1  'x, y, z'
loop_
 _atom_site_type_symbol
 _atom_site_label
 _atom_site_symmetry_multiplicity
 _atom_site_fract_x
 _atom_site_fract_y
 _atom_site_fract_z
 _atom_site_occupancy
  Y  Y0  1  0.564809  0.935191  0.564809  1
  Y  Y1  1  0.935191  0.564809  0.935191  1
  Y  Y2  1  0.564809  0.564809  0.935191  1
  Y  Y3  1  0.935191  0.935191  0.564809  1
  Lu  Lu4  1  0.813775  0.186225  0.186225  1
  Lu  Lu5  1  0.186225  0.813775  0.813775  1
  Lu  Lu6  1  0.186325  0.813675  0.186325  1
  Lu  Lu7  1  0.813675  0.186325  0.813675  1
  Lu  Lu8  1  0.186325  0.186325  0.813675  1
  Lu  Lu9  1  0.813675  0.813675  0.186325  1
  Lu  Lu10  1  0.936667  0.563333  0.563333  1
  Lu  Lu11  1  0.563333  0.936667  0.936667  1
  Th  Th12  1  0.350195  0.350904  0.350904  1
  Th  Th13  1  0.350904  0.350195  0.947998  1
  Th  Th14  1  0.350904  0.947998  0.350195  1
  Th  Th15  1  0.947998  0.350904  0.350904  1
  Cd  Cd16  1  0.584322  0.582750  0.582750  1
  Cd  Cd17  1  0.582750  0.584322  0.250178  1
  Cd  Cd18  1  0.582750  0.250178  0.584322  1
  Cd  Cd19  1  0.250178  0.582750  0.582750  1
  Ir  Ir20  1  0.142728  0.141601  0.141601  1
  Ir  Ir21  1  0.141601  0.142728  0.574068  1
  Ir  Ir22  1  0.141601  0.574068  0.142728  1
  Ir  Ir23  1  0.574068  0.141601  0.141601  1
