# generated using pymatgen
data_Tb8DyZn4
_symmetry_space_group_name_H-M   'P 1'
_cell_length_a   8.62200406
_cell_length_b   8.62201370
_cell_length_c   8.62198832
_cell_angle_alpha   94.96412516
_cell_angle_beta   94.96389888
_cell_angle_gamma   145.78564588
_symmetry_Int_Tables_number   1
_chemical_formula_structural   Tb8DyZn4
_chemical_formula_sum   'Tb8 Dy1 Zn4'
_cell_volume   344.45487235
_cell_formula_units_Z   1
loop_
 _symmetry_equiv_pos_site_id
 _symmetry_equiv_pos_as_xyz
  1  'x, y, z'
loop_
 _atom_site_type_symbol
 _atom_site_label
 _atom_site_symmetry_multiplicity
 _atom_site_fract_x
 _atom_site_fract_y
 _atom_site_fract_z
 _atom_site_occupancy
  Tb  Tb0  1  0.181897  0.888061  0.069959  1
  Tb  Tb1  1  0.111938  0.181897  0.293836  1
  Tb  Tb2  1  0.881494  0.403246  0.284741  1
  Tb  Tb3  1  0.596752  0.881493  0.478247  1
  Tb  Tb4  1  0.403247  0.118506  0.521752  1
  Tb  Tb5  1  0.118505  0.596753  0.715259  1
  Tb  Tb6  1  0.888061  0.818102  0.706164  1
  Tb  Tb7  1  0.818102  0.111938  0.930041  1
  Dy  Dy8  1  0.499999  0.499999  0.000000  1
  Zn  Zn9  1  0.391061  0.734610  0.125672  1
  Zn  Zn10  1  0.734610  0.608937  0.343550  1
  Zn  Zn11  1  0.265389  0.391062  0.656450  1
  Zn  Zn12  1  0.608938  0.265389  0.874328  1
