# generated using pymatgen
data_Tb2LuCo9(SiB2)2
_symmetry_space_group_name_H-M   'P 1'
_cell_length_a   5.10274201
_cell_length_b   5.10297647
_cell_length_c   9.35451100
_cell_angle_alpha   89.99990244
_cell_angle_beta   89.99997857
_cell_angle_gamma   119.98778637
_symmetry_Int_Tables_number   1
_chemical_formula_structural   Tb2LuCo9(SiB2)2
_chemical_formula_sum   'Tb2 Lu1 Co9 Si2 B4'
_cell_volume   210.97565097
_cell_formula_units_Z   1
loop_
 _symmetry_equiv_pos_site_id
 _symmetry_equiv_pos_as_xyz
  1  'x, y, z'
loop_
 _atom_site_type_symbol
 _atom_site_label
 _atom_site_symmetry_multiplicity
 _atom_site_fract_x
 _atom_site_fract_y
 _atom_site_fract_z
 _atom_site_occupancy
  Tb  Tb0  1  0.999992  0.000000  0.000507  1
  Tb  Tb1  1  0.999997  0.000002  0.660194  1
  Lu  Lu2  1  0.999996  0.999993  0.338089  1
  Co  Co3  1  0.499995  0.000002  0.498628  1
  Co  Co4  1  0.499997  0.500002  0.498617  1
  Co  Co5  1  0.999994  0.499999  0.498625  1
  Co  Co6  1  0.499995  0.999998  0.197702  1
  Co  Co7  1  0.499992  0.499998  0.197720  1
  Co  Co8  1  0.999994  0.500000  0.197686  1
  Co  Co9  1  0.499994  0.000001  0.803863  1
  Co  Co10  1  0.499996  0.500003  0.803861  1
  Co  Co11  1  0.999994  0.500001  0.803870  1
  Si  Si12  1  0.333370  0.666636  0.000852  1
  Si  Si13  1  0.666615  0.333364  0.000852  1
  B  B14  1  0.333293  0.666645  0.345735  1
  B  B15  1  0.666692  0.333351  0.345734  1
  B  B16  1  0.666654  0.333346  0.653734  1
  B  B17  1  0.333339  0.666658  0.653734  1
