# generated using pymatgen
data_Ce12Al6Tc5Rh
_symmetry_space_group_name_H-M   'P 1'
_cell_length_a   7.89598677
_cell_length_b   7.90778413
_cell_length_c   9.69978850
_cell_angle_alpha   89.86918923
_cell_angle_beta   89.70020822
_cell_angle_gamma   119.72965632
_symmetry_Int_Tables_number   1
_chemical_formula_structural   Ce12Al6Tc5Rh
_chemical_formula_sum   'Ce12 Al6 Tc5 Rh1'
_cell_volume   525.91792251
_cell_formula_units_Z   1
loop_
 _symmetry_equiv_pos_site_id
 _symmetry_equiv_pos_as_xyz
  1  'x, y, z'
loop_
 _atom_site_type_symbol
 _atom_site_label
 _atom_site_symmetry_multiplicity
 _atom_site_fract_x
 _atom_site_fract_y
 _atom_site_fract_z
 _atom_site_occupancy
  Ce  Ce0  1  0.999322  0.571881  0.503369  1
  Ce  Ce1  1  0.572312  0.999489  0.503072  1
  Ce  Ce2  1  0.423062  0.423217  0.501357  1
  Ce  Ce3  1  0.997256  0.421576  0.001965  1
  Ce  Ce4  1  0.421830  0.997282  0.002133  1
  Ce  Ce5  1  0.593477  0.593497  0.007248  1
  Ce  Ce6  1  0.000559  0.742248  0.178523  1
  Ce  Ce7  1  0.742110  0.000623  0.178542  1
  Ce  Ce8  1  0.263495  0.263567  0.175015  1
  Ce  Ce9  1  0.995648  0.262213  0.674662  1
  Ce  Ce10  1  0.262281  0.995688  0.674684  1
  Ce  Ce11  1  0.740614  0.740655  0.677466  1
  Al  Al12  1  0.667195  0.333830  0.265895  1
  Al  Al13  1  0.333958  0.667276  0.265903  1
  Al  Al14  1  0.333334  0.662997  0.768481  1
  Al  Al15  1  0.662913  0.333353  0.768495  1
  Al  Al16  1  0.001387  0.001435  0.425909  1
  Al  Al17  1  0.998820  0.998875  0.922738  1
  Tc  Tc18  1  0.000158  0.343051  0.337703  1
  Tc  Tc19  1  0.343267  0.000154  0.337840  1
  Tc  Tc20  1  0.655495  0.655494  0.340883  1
  Tc  Tc21  1  0.998963  0.655483  0.839833  1
  Tc  Tc22  1  0.655489  0.999024  0.839775  1
  Rh  Rh23  1  0.337054  0.337092  0.837764  1
