# generated using pymatgen
data_TbY5IO12
_symmetry_space_group_name_H-M   'P 1'
_cell_length_a   6.54775457
_cell_length_b   6.52438555
_cell_length_c   6.54077900
_cell_angle_alpha   98.24169270
_cell_angle_beta   98.94568205
_cell_angle_gamma   98.22418733
_symmetry_Int_Tables_number   1
_chemical_formula_structural   TbY5IO12
_chemical_formula_sum   'Tb1 Y5 I1 O12'
_cell_volume   269.23808859
_cell_formula_units_Z   1
loop_
 _symmetry_equiv_pos_site_id
 _symmetry_equiv_pos_as_xyz
  1  'x, y, z'
loop_
 _atom_site_type_symbol
 _atom_site_label
 _atom_site_symmetry_multiplicity
 _atom_site_fract_x
 _atom_site_fract_y
 _atom_site_fract_z
 _atom_site_occupancy
  Tb  Tb0  1  0.319639  0.145291  0.610374  1
  Y  Y1  1  0.389240  0.683422  0.854792  1
  Y  Y2  1  0.855080  0.390438  0.682296  1
  Y  Y3  1  0.682429  0.854044  0.389266  1
  Y  Y4  1  0.610907  0.317285  0.144574  1
  Y  Y5  1  0.145484  0.610300  0.317033  1
  I  I6  1  0.999237  0.000205  0.000334  1
  O  O7  1  0.177062  0.433201  0.593770  1
  O  O8  1  0.592612  0.177855  0.432363  1
  O  O9  1  0.431592  0.591934  0.176759  1
  O  O10  1  0.823005  0.566864  0.405876  1
  O  O11  1  0.409707  0.820792  0.566834  1
  O  O12  1  0.569267  0.409115  0.821911  1
  O  O13  1  0.926187  0.037858  0.698053  1
  O  O14  1  0.961430  0.304320  0.071100  1
  O  O15  1  0.304238  0.070261  0.960833  1
  O  O16  1  0.069013  0.959944  0.306782  1
  O  O17  1  0.037952  0.696308  0.929263  1
  O  O18  1  0.695918  0.930566  0.037784  1
