# generated using pymatgen
data_CaTb2Dy2Rh5
_symmetry_space_group_name_H-M   'P 1'
_cell_length_a   3.43101900
_cell_length_b   3.43101900
_cell_length_c   17.31732800
_cell_angle_alpha   90.00000000
_cell_angle_beta   90.00000000
_cell_angle_gamma   90.00000000
_symmetry_Int_Tables_number   1
_chemical_formula_structural   CaTb2Dy2Rh5
_chemical_formula_sum   'Ca1 Tb2 Dy2 Rh5'
_cell_volume   203.85770418
_cell_formula_units_Z   1
loop_
 _symmetry_equiv_pos_site_id
 _symmetry_equiv_pos_as_xyz
  1  'x, y, z'
loop_
 _atom_site_type_symbol
 _atom_site_label
 _atom_site_symmetry_multiplicity
 _atom_site_fract_x
 _atom_site_fract_y
 _atom_site_fract_z
 _atom_site_occupancy
  Ca  Ca0  1  0.000000  0.000000  0.000710  1
  Tb  Tb1  1  0.000000  0.000000  0.599628  1
  Tb  Tb2  1  0.000000  0.000000  0.801639  1
  Dy  Dy3  1  0.000000  0.000000  0.199110  1
  Dy  Dy4  1  0.000000  0.000000  0.398876  1
  Rh  Rh5  1  0.500000  0.500000  0.109444  1
  Rh  Rh6  1  0.500000  0.500000  0.301400  1
  Rh  Rh7  1  0.500000  0.500000  0.498062  1
  Rh  Rh8  1  0.500000  0.500000  0.698377  1
  Rh  Rh9  1  0.500000  0.500000  0.892754  1
