# generated using pymatgen
data_Tm5Bi3C
_symmetry_space_group_name_H-M   'P 1'
_cell_length_a   9.05037200
_cell_length_b   9.05037058
_cell_length_c   6.40452000
_cell_angle_alpha   90.00000000
_cell_angle_beta   90.00000000
_cell_angle_gamma   119.99999789
_symmetry_Int_Tables_number   1
_chemical_formula_structural   Tm5Bi3C
_chemical_formula_sum   'Tm10 Bi6 C2'
_cell_volume   454.30761859
_cell_formula_units_Z   2
loop_
 _symmetry_equiv_pos_site_id
 _symmetry_equiv_pos_as_xyz
  1  'x, y, z'
loop_
 _atom_site_type_symbol
 _atom_site_label
 _atom_site_symmetry_multiplicity
 _atom_site_fract_x
 _atom_site_fract_y
 _atom_site_fract_z
 _atom_site_occupancy
  Tm  Tm0  1  0.666667  0.333333  0.000000  1
  Tm  Tm1  1  0.333333  0.666667  0.000000  1
  Tm  Tm2  1  0.333333  0.666667  0.500000  1
  Tm  Tm3  1  0.666667  0.333333  0.500000  1
  Tm  Tm4  1  0.794252  0.794252  0.750000  1
  Tm  Tm5  1  0.205748  0.000000  0.750000  1
  Tm  Tm6  1  0.000000  0.205748  0.750000  1
  Tm  Tm7  1  0.205748  0.205748  0.250000  1
  Tm  Tm8  1  0.794252  0.000000  0.250000  1
  Tm  Tm9  1  0.000000  0.794252  0.250000  1
  Bi  Bi10  1  0.402086  0.402086  0.750000  1
  Bi  Bi11  1  0.597914  0.000000  0.750000  1
  Bi  Bi12  1  0.000000  0.597914  0.750000  1
  Bi  Bi13  1  0.597914  0.597914  0.250000  1
  Bi  Bi14  1  0.402086  0.000000  0.250000  1
  Bi  Bi15  1  0.000000  0.402086  0.250000  1
  C  C16  1  0.000000  0.000000  0.000000  1
  C  C17  1  0.000000  0.000000  0.500000  1
