# generated using pymatgen
data_Yb2Dy5Tm(B6Os)4
_symmetry_space_group_name_H-M   'P 1'
_cell_length_a   3.64824800
_cell_length_b   9.15066817
_cell_length_c   11.54349126
_cell_angle_alpha   89.83828138
_cell_angle_beta   90.00000000
_cell_angle_gamma   90.00000000
_symmetry_Int_Tables_number   1
_chemical_formula_structural   Yb2Dy5Tm(B6Os)4
_chemical_formula_sum   'Yb2 Dy5 Tm1 B24 Os4'
_cell_volume   385.36530201
_cell_formula_units_Z   1
loop_
 _symmetry_equiv_pos_site_id
 _symmetry_equiv_pos_as_xyz
  1  'x, y, z'
loop_
 _atom_site_type_symbol
 _atom_site_label
 _atom_site_symmetry_multiplicity
 _atom_site_fract_x
 _atom_site_fract_y
 _atom_site_fract_z
 _atom_site_occupancy
  Yb  Yb0  1  0.000000  0.324709  0.414613  1
  Yb  Yb1  1  0.000000  0.675296  0.585645  1
  Dy  Dy2  1  0.000000  0.821939  0.086109  1
  Dy  Dy3  1  0.000000  0.178099  0.913543  1
  Dy  Dy4  1  0.000000  0.941993  0.370130  1
  Dy  Dy5  1  0.000000  0.058061  0.630069  1
  Dy  Dy6  1  0.000000  0.442875  0.129802  1
  Tm  Tm7  1  0.000000  0.557282  0.869535  1
  B  B8  1  0.500000  0.553878  0.432531  1
  B  B9  1  0.500000  0.446214  0.567748  1
  B  B10  1  0.500000  0.053570  0.066766  1
  B  B11  1  0.500000  0.946005  0.933094  1
  B  B12  1  0.500000  0.747436  0.417800  1
  B  B13  1  0.500000  0.252773  0.582309  1
  B  B14  1  0.500000  0.247908  0.081306  1
  B  B15  1  0.500000  0.751104  0.918559  1
  B  B16  1  0.500000  0.790591  0.264836  1
  B  B17  1  0.500000  0.209814  0.735280  1
  B  B18  1  0.500000  0.289756  0.234149  1
  B  B19  1  0.500000  0.709286  0.766046  1
  B  B20  1  0.500000  0.631408  0.185454  1
  B  B21  1  0.500000  0.369405  0.814863  1
  B  B22  1  0.500000  0.131044  0.313508  1
  B  B23  1  0.500000  0.868680  0.686664  1
  B  B24  1  0.500000  0.983499  0.211402  1
  B  B25  1  0.500000  0.016289  0.788662  1
  B  B26  1  0.500000  0.484031  0.288283  1
  B  B27  1  0.500000  0.516632  0.712402  1
  B  B28  1  0.500000  0.603517  0.027579  1
  B  B29  1  0.500000  0.397344  0.970682  1
  B  B30  1  0.500000  0.100169  0.472296  1
  B  B31  1  0.500000  0.899837  0.527795  1
  Os  Os32  1  0.000000  0.639318  0.319413  1
  Os  Os33  1  0.000000  0.361557  0.681190  1
  Os  Os34  1  0.000000  0.136686  0.177602  1
  Os  Os35  1  0.000000  0.861991  0.822334  1
