# generated using pymatgen
data_ZrNb5(AlRu2)6
_symmetry_space_group_name_H-M   'P 1'
_cell_length_a   4.39832200
_cell_length_b   6.23332700
_cell_length_c   13.17551200
_cell_angle_alpha   90.00000000
_cell_angle_beta   89.99994353
_cell_angle_gamma   90.00000000
_symmetry_Int_Tables_number   1
_chemical_formula_structural   ZrNb5(AlRu2)6
_chemical_formula_sum   'Zr1 Nb5 Al6 Ru12'
_cell_volume   361.22219906
_cell_formula_units_Z   1
loop_
 _symmetry_equiv_pos_site_id
 _symmetry_equiv_pos_as_xyz
  1  'x, y, z'
loop_
 _atom_site_type_symbol
 _atom_site_label
 _atom_site_symmetry_multiplicity
 _atom_site_fract_x
 _atom_site_fract_y
 _atom_site_fract_z
 _atom_site_occupancy
  Zr  Zr0  1  0.500015  0.000000  0.833332  1
  Nb  Nb1  1  0.000000  0.500001  0.000050  1
  Nb  Nb2  1  0.499992  0.000000  0.166722  1
  Nb  Nb3  1  0.999981  0.500001  0.333330  1
  Nb  Nb4  1  0.500001  0.000000  0.499955  1
  Nb  Nb5  1  0.000014  0.500001  0.666617  1
  Al  Al6  1  0.000001  0.000000  0.000458  1
  Al  Al7  1  0.499991  0.500001  0.167262  1
  Al  Al8  1  0.999984  0.000000  0.333364  1
  Al  Al9  1  0.500000  0.500001  0.499393  1
  Al  Al10  1  0.000012  0.000000  0.666138  1
  Al  Al11  1  0.500015  0.500001  0.833359  1
  Ru  Ru12  1  0.500002  0.253068  0.003443  1
  Ru  Ru13  1  0.500002  0.746931  0.003443  1
  Ru  Ru14  1  0.999998  0.249398  0.167785  1
  Ru  Ru15  1  0.999998  0.750602  0.167785  1
  Ru  Ru16  1  0.499980  0.250236  0.333380  1
  Ru  Ru17  1  0.499980  0.749764  0.333380  1
  Ru  Ru18  1  0.999997  0.249421  0.498876  1
  Ru  Ru19  1  0.999997  0.750579  0.498876  1
  Ru  Ru20  1  0.500009  0.253076  0.663262  1
  Ru  Ru21  1  0.500009  0.746924  0.663262  1
  Ru  Ru22  1  0.000011  0.256676  0.833264  1
  Ru  Ru23  1  0.000011  0.743324  0.833264  1
