# generated using pymatgen
data_Pa4Al22Zn2Pd9
_symmetry_space_group_name_H-M   'P 1'
_cell_length_a   7.58089011
_cell_length_b   7.60261825
_cell_length_c   13.08298600
_cell_angle_alpha   84.38167083
_cell_angle_beta   78.76560646
_cell_angle_gamma   60.00088271
_symmetry_Int_Tables_number   1
_chemical_formula_structural   Pa4Al22Zn2Pd9
_chemical_formula_sum   'Pa4 Al22 Zn2 Pd9'
_cell_volume   640.50442796
_cell_formula_units_Z   1
loop_
 _symmetry_equiv_pos_site_id
 _symmetry_equiv_pos_as_xyz
  1  'x, y, z'
loop_
 _atom_site_type_symbol
 _atom_site_label
 _atom_site_symmetry_multiplicity
 _atom_site_fract_x
 _atom_site_fract_y
 _atom_site_fract_z
 _atom_site_occupancy
  Pa  Pa0  1  0.393039  0.169096  0.809874  1
  Pa  Pa1  1  0.606961  0.830904  0.190126  1
  Pa  Pa2  1  0.733722  0.497616  0.807479  1
  Pa  Pa3  1  0.266278  0.502384  0.192521  1
  Al  Al4  1  0.145772  0.833980  0.561299  1
  Al  Al5  1  0.854228  0.166020  0.438701  1
  Al  Al6  1  0.480610  0.166901  0.559634  1
  Al  Al7  1  0.519390  0.833099  0.440366  1
  Al  Al8  1  0.215217  0.165070  0.330167  1
  Al  Al9  1  0.784783  0.834930  0.669833  1
  Al  Al10  1  0.435039  0.507979  0.670904  1
  Al  Al11  1  0.564961  0.492021  0.329096  1
  Al  Al12  1  0.110691  0.156514  0.669829  1
  Al  Al13  1  0.889309  0.843486  0.330171  1
  Al  Al14  1  0.351073  0.496526  0.946459  1
  Al  Al15  1  0.648927  0.503474  0.053541  1
  Al  Al16  1  0.019346  0.167630  0.955003  1
  Al  Al17  1  0.980654  0.832370  0.044997  1
  Al  Al18  1  0.186398  0.500606  0.441100  1
  Al  Al19  1  0.813602  0.499394  0.558900  1
  Al  Al20  1  0.736002  0.164144  0.182389  1
  Al  Al21  1  0.263998  0.835856  0.817611  1
  Al  Al22  1  0.058487  0.632272  0.817305  1
  Al  Al23  1  0.941513  0.367728  0.182695  1
  Al  Al24  1  0.854709  0.039925  0.818938  1
  Al  Al25  1  0.145291  0.960075  0.181062  1
  Zn  Zn26  1  0.682458  0.837292  0.940532  1
  Zn  Zn27  1  0.317542  0.162708  0.059468  1
  Pd  Pd28  1  0.120298  0.491515  0.639292  1
  Pd  Pd29  1  0.879702  0.508485  0.360708  1
  Pd  Pd30  1  0.662235  0.177009  0.000131  1
  Pd  Pd31  1  0.337765  0.822991  0.999869  1
  Pd  Pd32  1  0.537124  0.167145  0.361248  1
  Pd  Pd33  1  0.462876  0.832855  0.638752  1
  Pd  Pd34  1  0.779011  0.174340  0.638695  1
  Pd  Pd35  1  0.220989  0.825660  0.361305  1
  Pd  Pd36  1  0.000000  0.500000  0.000000  1
