# generated using pymatgen
data_MgSc3Zn2Si2Pd
_symmetry_space_group_name_H-M   'P 1'
_cell_length_a   6.71341607
_cell_length_b   6.73960423
_cell_length_c   4.07445300
_cell_angle_alpha   90.00000000
_cell_angle_beta   90.00000000
_cell_angle_gamma   120.12912040
_symmetry_Int_Tables_number   1
_chemical_formula_structural   MgSc3Zn2Si2Pd
_chemical_formula_sum   'Mg1 Sc3 Zn2 Si2 Pd1'
_cell_volume   159.44517034
_cell_formula_units_Z   1
loop_
 _symmetry_equiv_pos_site_id
 _symmetry_equiv_pos_as_xyz
  1  'x, y, z'
loop_
 _atom_site_type_symbol
 _atom_site_label
 _atom_site_symmetry_multiplicity
 _atom_site_fract_x
 _atom_site_fract_y
 _atom_site_fract_z
 _atom_site_occupancy
  Mg  Mg0  1  0.000000  0.236302  0.000000  1
  Sc  Sc1  1  0.424483  0.425004  0.500000  1
  Sc  Sc2  1  0.000000  0.585360  0.500000  1
  Sc  Sc3  1  0.575517  0.000521  0.500000  1
  Zn  Zn4  1  0.746498  0.748063  0.000000  1
  Zn  Zn5  1  0.253502  0.001565  0.000000  1
  Si  Si6  1  0.662824  0.337707  0.000000  1
  Si  Si7  1  0.337176  0.674885  0.000000  1
  Pd  Pd8  1  0.000000  0.990595  0.500000  1
