# generated using pymatgen
data_Sc6InNi2
_symmetry_space_group_name_H-M   'P 1'
_cell_length_a   7.85922893
_cell_length_b   7.85922880
_cell_length_c   7.85922937
_cell_angle_alpha   111.16335846
_cell_angle_beta   110.31399472
_cell_angle_gamma   106.96617482
_symmetry_Int_Tables_number   1
_chemical_formula_structural   Sc6InNi2
_chemical_formula_sum   'Sc12 In2 Ni4'
_cell_volume   373.14124228
_cell_formula_units_Z   2
loop_
 _symmetry_equiv_pos_site_id
 _symmetry_equiv_pos_as_xyz
  1  'x, y, z'
loop_
 _atom_site_type_symbol
 _atom_site_label
 _atom_site_symmetry_multiplicity
 _atom_site_fract_x
 _atom_site_fract_y
 _atom_site_fract_z
 _atom_site_occupancy
  Sc  Sc0  1  0.449911  0.234823  0.215089  1
  Sc  Sc1  1  0.550089  0.765177  0.784911  1
  Sc  Sc2  1  0.019734  0.234823  0.784911  1
  Sc  Sc3  1  0.980266  0.765177  0.215089  1
  Sc  Sc4  1  0.319972  0.615180  0.295208  1
  Sc  Sc5  1  0.680028  0.384820  0.704792  1
  Sc  Sc6  1  0.319972  0.024764  0.704792  1
  Sc  Sc7  1  0.680028  0.975236  0.295208  1
  Sc  Sc8  1  0.189567  0.284440  0.474008  1
  Sc  Sc9  1  0.810433  0.715559  0.525992  1
  Sc  Sc10  1  0.189567  0.715559  0.905127  1
  Sc  Sc11  1  0.810433  0.284440  0.094873  1
  In  In12  1  0.500000  0.500000  0.000000  1
  In  In13  1  0.000000  0.000000  0.000000  1
  Ni  Ni14  1  0.357198  0.000000  0.357198  1
  Ni  Ni15  1  0.642802  0.000000  0.642802  1
  Ni  Ni16  1  0.125343  0.625343  0.500000  1
  Ni  Ni17  1  0.874657  0.374657  0.500000  1
