# generated using pymatgen
data_Nd16Y4Ir7Ru5
_symmetry_space_group_name_H-M   'P 1'
_cell_length_a   11.14189815
_cell_length_b   11.14189815
_cell_length_c   6.57640312
_cell_angle_alpha   89.98451819
_cell_angle_beta   89.98451819
_cell_angle_gamma   90.01063337
_symmetry_Int_Tables_number   1
_chemical_formula_structural   Nd16Y4Ir7Ru5
_chemical_formula_sum   'Nd16 Y4 Ir7 Ru5'
_cell_volume   816.40706784
_cell_formula_units_Z   1
loop_
 _symmetry_equiv_pos_site_id
 _symmetry_equiv_pos_as_xyz
  1  'x, y, z'
loop_
 _atom_site_type_symbol
 _atom_site_label
 _atom_site_symmetry_multiplicity
 _atom_site_fract_x
 _atom_site_fract_y
 _atom_site_fract_z
 _atom_site_occupancy
  Nd  Nd0  1  0.291805  0.086543  0.380767  1
  Nd  Nd1  1  0.291428  0.913337  0.880824  1
  Nd  Nd2  1  0.709053  0.086932  0.881863  1
  Nd  Nd3  1  0.708636  0.913748  0.379980  1
  Nd  Nd4  1  0.586393  0.792037  0.880718  1
  Nd  Nd5  1  0.587317  0.208263  0.380927  1
  Nd  Nd6  1  0.413465  0.791874  0.381023  1
  Nd  Nd7  1  0.413263  0.207886  0.880106  1
  Nd  Nd8  1  0.207963  0.413607  0.619282  1
  Nd  Nd9  1  0.208126  0.586535  0.118977  1
  Nd  Nd10  1  0.791737  0.412683  0.119073  1
  Nd  Nd11  1  0.792114  0.586737  0.619894  1
  Nd  Nd12  1  0.913457  0.708195  0.119233  1
  Nd  Nd13  1  0.913068  0.290947  0.618137  1
  Nd  Nd14  1  0.086663  0.708572  0.619176  1
  Nd  Nd15  1  0.086252  0.291364  0.120020  1
  Y  Y16  1  0.999720  0.000754  0.499339  1
  Y  Y17  1  0.999246  0.000280  0.000661  1
  Y  Y18  1  0.500096  0.500058  0.000119  1
  Y  Y19  1  0.499942  0.499904  0.499881  1
  Ir  Ir20  1  0.850303  0.850017  0.749903  1
  Ir  Ir21  1  0.149983  0.149697  0.750097  1
  Ir  Ir22  1  0.149875  0.850125  0.250000  1
  Ir  Ir23  1  0.648774  0.351226  0.750000  1
  Ir  Ir24  1  0.649756  0.649435  0.249800  1
  Ir  Ir25  1  0.350565  0.350244  0.250200  1
  Ir  Ir26  1  0.350804  0.649196  0.750000  1
  Ru  Ru27  1  0.850521  0.149479  0.250000  1
  Ru  Ru28  1  0.500132  0.000067  0.119793  1
  Ru  Ru29  1  0.499733  0.000121  0.619928  1
  Ru  Ru30  1  0.999879  0.500267  0.880072  1
  Ru  Ru31  1  0.999933  0.499868  0.380207  1
