# generated using pymatgen
data_TbCeDy6(CdIr)2
_symmetry_space_group_name_H-M   'P 1'
_cell_length_a   9.65622030
_cell_length_b   9.65622139
_cell_length_c   9.69837200
_cell_angle_alpha   59.85549062
_cell_angle_beta   59.85548687
_cell_angle_gamma   59.71703284
_symmetry_Int_Tables_number   1
_chemical_formula_structural   TbCeDy6(CdIr)2
_chemical_formula_sum   'Tb2 Ce2 Dy12 Cd4 Ir4'
_cell_volume   636.66771788
_cell_formula_units_Z   2
loop_
 _symmetry_equiv_pos_site_id
 _symmetry_equiv_pos_as_xyz
  1  'x, y, z'
loop_
 _atom_site_type_symbol
 _atom_site_label
 _atom_site_symmetry_multiplicity
 _atom_site_fract_x
 _atom_site_fract_y
 _atom_site_fract_z
 _atom_site_occupancy
  Tb  Tb0  1  0.601455  0.198302  0.600122  1
  Tb  Tb1  1  0.198302  0.601455  0.600122  1
  Ce  Ce2  1  0.596600  0.596600  0.598558  1
  Ce  Ce3  1  0.596600  0.596600  0.208242  1
  Dy  Dy4  1  0.061684  0.438254  0.440046  1
  Dy  Dy5  1  0.438254  0.061684  0.060016  1
  Dy  Dy6  1  0.438254  0.061684  0.440046  1
  Dy  Dy7  1  0.061684  0.438254  0.060016  1
  Dy  Dy8  1  0.438166  0.438166  0.061834  1
  Dy  Dy9  1  0.061878  0.061878  0.438122  1
  Dy  Dy10  1  0.188716  0.812300  0.813336  1
  Dy  Dy11  1  0.812300  0.188716  0.185647  1
  Dy  Dy12  1  0.812300  0.188716  0.813336  1
  Dy  Dy13  1  0.188716  0.812300  0.185647  1
  Dy  Dy14  1  0.812626  0.812626  0.187374  1
  Dy  Dy15  1  0.188228  0.188228  0.811772  1
  Cd  Cd16  1  0.830173  0.830173  0.831721  1
  Cd  Cd17  1  0.830173  0.830173  0.507932  1
  Cd  Cd18  1  0.829932  0.504924  0.832573  1
  Cd  Cd19  1  0.504924  0.829932  0.832573  1
  Ir  Ir20  1  0.394440  0.394440  0.388664  1
  Ir  Ir21  1  0.394440  0.394440  0.822457  1
  Ir  Ir22  1  0.397595  0.822558  0.389923  1
  Ir  Ir23  1  0.822558  0.397595  0.389923  1
