# generated using pymatgen
data_Dy5Co3TcNi4P12Ru11
_symmetry_space_group_name_H-M   'P 1'
_cell_length_a   12.41888600
_cell_length_b   12.41888521
_cell_length_c   3.81006800
_cell_angle_alpha   90.00000000
_cell_angle_beta   90.00000000
_cell_angle_gamma   119.99999146
_symmetry_Int_Tables_number   1
_chemical_formula_structural   Dy5Co3TcNi4P12Ru11
_chemical_formula_sum   'Dy5 Co3 Tc1 Ni4 P12 Ru11'
_cell_volume   508.89554504
_cell_formula_units_Z   1
loop_
 _symmetry_equiv_pos_site_id
 _symmetry_equiv_pos_as_xyz
  1  'x, y, z'
loop_
 _atom_site_type_symbol
 _atom_site_label
 _atom_site_symmetry_multiplicity
 _atom_site_fract_x
 _atom_site_fract_y
 _atom_site_fract_z
 _atom_site_occupancy
  Dy  Dy0  1  0.666475  0.333935  0.000000  1
  Dy  Dy1  1  0.334177  0.666847  0.000000  1
  Dy  Dy2  1  0.183884  0.182614  0.500000  1
  Dy  Dy3  1  0.817688  0.000436  0.500000  1
  Dy  Dy4  1  0.997791  0.816735  0.500000  1
  Co  Co5  1  0.714951  0.723619  0.500000  1
  Co  Co6  1  0.277474  0.990869  0.500000  1
  Co  Co7  1  0.008149  0.285889  0.500000  1
  Tc  Tc8  1  0.550968  0.561864  0.000000  1
  Ni  Ni9  1  0.193156  0.824073  0.000000  1
  Ni  Ni10  1  0.631651  0.807415  0.000000  1
  Ni  Ni11  1  0.174929  0.368170  0.000000  1
  Ni  Ni12  1  0.000451  0.000327  0.000000  1
  P  P13  1  0.368532  0.367008  0.000000  1
  P  P14  1  0.634771  0.001600  0.000000  1
  P  P15  1  0.999097  0.633315  0.000000  1
  P  P16  1  0.836997  0.313465  0.500000  1
  P  P17  1  0.684855  0.524221  0.500000  1
  P  P18  1  0.475698  0.162141  0.500000  1
  P  P19  1  0.320447  0.839225  0.500000  1
  P  P20  1  0.518626  0.678483  0.500000  1
  P  P21  1  0.160007  0.480843  0.500000  1
  P  P22  1  0.821491  0.825409  0.000000  1
  P  P23  1  0.174952  0.995826  0.000000  1
  P  P24  1  0.003512  0.178705  0.000000  1
  Ru  Ru25  1  0.439770  0.987768  0.000000  1
  Ru  Ru26  1  0.012377  0.451975  0.000000  1
  Ru  Ru27  1  0.828617  0.199151  0.000000  1
  Ru  Ru28  1  0.802068  0.630305  0.000000  1
  Ru  Ru29  1  0.369781  0.170487  0.000000  1
  Ru  Ru30  1  0.639119  0.124319  0.500000  1
  Ru  Ru31  1  0.875148  0.514810  0.500000  1
  Ru  Ru32  1  0.483986  0.359300  0.500000  1
  Ru  Ru33  1  0.130764  0.651756  0.500000  1
  Ru  Ru34  1  0.520283  0.868605  0.500000  1
  Ru  Ru35  1  0.347354  0.478487  0.500000  1
