# generated using pymatgen
data_RbSb12(OsRu)2
_symmetry_space_group_name_H-M   'P 1'
_cell_length_a   8.20548367
_cell_length_b   8.20548397
_cell_length_c   8.18990226
_cell_angle_alpha   109.46366667
_cell_angle_beta   109.48023197
_cell_angle_gamma   109.54672138
_symmetry_Int_Tables_number   1
_chemical_formula_structural   RbSb12(OsRu)2
_chemical_formula_sum   'Rb1 Sb12 Os2 Ru2'
_cell_volume   424.08397108
_cell_formula_units_Z   1
loop_
 _symmetry_equiv_pos_site_id
 _symmetry_equiv_pos_as_xyz
  1  'x, y, z'
loop_
 _atom_site_type_symbol
 _atom_site_label
 _atom_site_symmetry_multiplicity
 _atom_site_fract_x
 _atom_site_fract_y
 _atom_site_fract_z
 _atom_site_occupancy
  Rb  Rb0  1  0.000000  0.000000  0.000000  1
  Sb  Sb1  1  0.159261  0.816432  0.656685  1
  Sb  Sb2  1  0.840739  0.183568  0.343315  1
  Sb  Sb3  1  0.840252  0.497424  0.656685  1
  Sb  Sb4  1  0.159748  0.502576  0.343315  1
  Sb  Sb5  1  0.816299  0.656587  0.159097  1
  Sb  Sb6  1  0.183701  0.343413  0.840903  1
  Sb  Sb7  1  0.497490  0.657202  0.840903  1
  Sb  Sb8  1  0.502510  0.342798  0.159097  1
  Sb  Sb9  1  0.656323  0.159481  0.815804  1
  Sb  Sb10  1  0.343677  0.840519  0.184196  1
  Sb  Sb11  1  0.657164  0.840600  0.497764  1
  Sb  Sb12  1  0.342836  0.159400  0.502236  1
  Os  Os13  1  0.000000  0.000000  0.500000  1
  Os  Os14  1  0.500000  0.500000  0.500000  1
  Ru  Ru15  1  0.500000  0.000000  0.000000  1
  Ru  Ru16  1  0.000000  0.500000  0.000000  1
