# generated using pymatgen
data_DyHo3Al18(Ir2Au)2
_symmetry_space_group_name_H-M   'P 1'
_cell_length_a   7.62413747
_cell_length_b   7.62411332
_cell_length_c   9.43293700
_cell_angle_alpha   90.00006998
_cell_angle_beta   89.99997284
_cell_angle_gamma   119.64337283
_symmetry_Int_Tables_number   1
_chemical_formula_structural   DyHo3Al18(Ir2Au)2
_chemical_formula_sum   'Dy1 Ho3 Al18 Ir4 Au2'
_cell_volume   476.54851707
_cell_formula_units_Z   1
loop_
 _symmetry_equiv_pos_site_id
 _symmetry_equiv_pos_as_xyz
  1  'x, y, z'
loop_
 _atom_site_type_symbol
 _atom_site_label
 _atom_site_symmetry_multiplicity
 _atom_site_fract_x
 _atom_site_fract_y
 _atom_site_fract_z
 _atom_site_occupancy
  Dy  Dy0  1  0.324543  0.004887  0.250000  1
  Ho  Ho1  1  0.995157  0.675527  0.750002  1
  Ho  Ho2  1  0.004830  0.324490  0.249985  1
  Ho  Ho3  1  0.675593  0.995159  0.750005  1
  Al  Al4  1  0.139086  0.139103  0.750000  1
  Al  Al5  1  0.860792  0.860848  0.250001  1
  Al  Al6  1  0.000069  0.344568  0.577494  1
  Al  Al7  1  0.999820  0.655303  0.422600  1
  Al  Al8  1  0.999820  0.655303  0.077400  1
  Al  Al9  1  0.344581  0.000063  0.922436  1
  Al  Al10  1  0.000069  0.344568  0.922506  1
  Al  Al11  1  0.655530  0.999920  0.077397  1
  Al  Al12  1  0.655530  0.999920  0.422604  1
  Al  Al13  1  0.344581  0.000062  0.577565  1
  Al  Al14  1  0.341577  0.341674  0.058923  1
  Al  Al15  1  0.658429  0.658434  0.940980  1
  Al  Al16  1  0.658429  0.658434  0.559020  1
  Al  Al17  1  0.341576  0.341674  0.441078  1
  Al  Al18  1  0.336944  0.550628  0.750000  1
  Al  Al19  1  0.663134  0.449491  0.250000  1
  Al  Al20  1  0.550627  0.336946  0.750000  1
  Al  Al21  1  0.449409  0.663006  0.250000  1
  Ir  Ir22  1  0.671687  0.328518  0.500092  1
  Ir  Ir23  1  0.328396  0.671473  0.500083  1
  Ir  Ir24  1  0.328397  0.671474  0.999918  1
  Ir  Ir25  1  0.671687  0.328517  0.999907  1
  Au  Au26  1  0.999853  0.000006  0.500076  1
  Au  Au27  1  0.999855  0.000006  0.999926  1
