# generated using pymatgen
data_YbSm2Si6(Pd7Pt3)2
_symmetry_space_group_name_H-M   'P 1'
_cell_length_a   8.72895479
_cell_length_b   8.75203300
_cell_length_c   8.75203400
_cell_angle_alpha   60.00000378
_cell_angle_beta   59.91250672
_cell_angle_gamma   59.91250164
_symmetry_Int_Tables_number   1
_chemical_formula_structural   YbSm2Si6(Pd7Pt3)2
_chemical_formula_sum   'Yb1 Sm2 Si6 Pd14 Pt6'
_cell_volume   472.16042126
_cell_formula_units_Z   1
loop_
 _symmetry_equiv_pos_site_id
 _symmetry_equiv_pos_as_xyz
  1  'x, y, z'
loop_
 _atom_site_type_symbol
 _atom_site_label
 _atom_site_symmetry_multiplicity
 _atom_site_fract_x
 _atom_site_fract_y
 _atom_site_fract_z
 _atom_site_occupancy
  Yb  Yb0  1  0.000000  0.000000  0.000000  1
  Sm  Sm1  1  0.251632  0.249456  0.249456  1
  Sm  Sm2  1  0.748368  0.750544  0.750544  1
  Si  Si3  1  0.731882  0.267349  0.267349  1
  Si  Si4  1  0.268118  0.732651  0.732651  1
  Si  Si5  1  0.268118  0.732651  0.266580  1
  Si  Si6  1  0.731882  0.267349  0.733420  1
  Si  Si7  1  0.268118  0.266580  0.732651  1
  Si  Si8  1  0.731882  0.733420  0.267349  1
  Pd  Pd9  1  0.851681  0.382773  0.382773  1
  Pd  Pd10  1  0.148319  0.617227  0.617227  1
  Pd  Pd11  1  0.344358  0.999912  0.999912  1
  Pd  Pd12  1  0.655642  0.000088  0.000088  1
  Pd  Pd13  1  0.000000  0.344262  0.655738  1
  Pd  Pd14  1  0.000000  0.655738  0.344262  1
  Pd  Pd15  1  0.000000  0.344262  0.000000  1
  Pd  Pd16  1  0.655642  0.000088  0.344181  1
  Pd  Pd17  1  0.000000  0.655738  0.000000  1
  Pd  Pd18  1  0.344358  0.999912  0.655819  1
  Pd  Pd19  1  0.000000  0.000000  0.344262  1
  Pd  Pd20  1  0.000000  0.000000  0.655738  1
  Pd  Pd21  1  0.655642  0.344181  0.000088  1
  Pd  Pd22  1  0.344358  0.655819  0.999912  1
  Pt  Pt23  1  0.381767  0.386464  0.386464  1
  Pt  Pt24  1  0.618233  0.613536  0.613536  1
  Pt  Pt25  1  0.381767  0.386464  0.845303  1
  Pt  Pt26  1  0.381767  0.845303  0.386464  1
  Pt  Pt27  1  0.618233  0.613536  0.154697  1
  Pt  Pt28  1  0.618233  0.154697  0.613536  1
