# generated using pymatgen
data_Y2Hf3Zr(SnRh)6
_symmetry_space_group_name_H-M   'P 1'
_cell_length_a   7.48258945
_cell_length_b   7.48075595
_cell_length_c   7.37971600
_cell_angle_alpha   90.00000000
_cell_angle_beta   90.00000000
_cell_angle_gamma   119.95377974
_symmetry_Int_Tables_number   1
_chemical_formula_structural   Y2Hf3Zr(SnRh)6
_chemical_formula_sum   'Y2 Hf3 Zr1 Sn6 Rh6'
_cell_volume   357.90664946
_cell_formula_units_Z   1
loop_
 _symmetry_equiv_pos_site_id
 _symmetry_equiv_pos_as_xyz
  1  'x, y, z'
loop_
 _atom_site_type_symbol
 _atom_site_label
 _atom_site_symmetry_multiplicity
 _atom_site_fract_x
 _atom_site_fract_y
 _atom_site_fract_z
 _atom_site_occupancy
  Y  Y0  1  0.595527  0.998812  0.250000  1
  Y  Y1  1  0.404586  0.402976  0.250000  1
  Hf  Hf2  1  0.610549  0.004364  0.750000  1
  Hf  Hf3  1  0.389324  0.394038  0.750000  1
  Hf  Hf4  1  0.000095  0.604912  0.750000  1
  Zr  Zr5  1  0.000589  0.599118  0.250000  1
  Sn  Sn6  1  0.267919  0.999512  0.991471  1
  Sn  Sn7  1  0.732208  0.731349  0.508394  1
  Sn  Sn8  1  0.999930  0.269242  0.497126  1
  Sn  Sn9  1  0.999930  0.269242  0.002874  1
  Sn  Sn10  1  0.732208  0.731349  0.991606  1
  Sn  Sn11  1  0.267919  0.999512  0.508529  1
  Rh  Rh12  1  0.671096  0.336625  0.964054  1
  Rh  Rh13  1  0.671096  0.336625  0.535946  1
  Rh  Rh14  1  0.328583  0.665299  0.964583  1
  Rh  Rh15  1  0.328583  0.665299  0.535417  1
  Rh  Rh16  1  0.999818  0.004659  0.750000  1
  Rh  Rh17  1  0.000042  0.987073  0.250000  1
