# generated using pymatgen
data_Ho4Lu8GaCo5
_symmetry_space_group_name_H-M   'P 1'
_cell_length_a   8.09707096
_cell_length_b   8.09828421
_cell_length_c   8.09707219
_cell_angle_alpha   111.13169105
_cell_angle_beta   110.50829769
_cell_angle_gamma   106.80089645
_symmetry_Int_Tables_number   1
_chemical_formula_structural   Ho4Lu8GaCo5
_chemical_formula_sum   'Ho4 Lu8 Ga1 Co5'
_cell_volume   408.07732619
_cell_formula_units_Z   1
loop_
 _symmetry_equiv_pos_site_id
 _symmetry_equiv_pos_as_xyz
  1  'x, y, z'
loop_
 _atom_site_type_symbol
 _atom_site_label
 _atom_site_symmetry_multiplicity
 _atom_site_fract_x
 _atom_site_fract_y
 _atom_site_fract_z
 _atom_site_occupancy
  Ho  Ho0  1  0.588945  0.781323  0.807613  1
  Ho  Ho1  1  0.411055  0.218677  0.192387  1
  Ho  Ho2  1  0.973710  0.781323  0.192378  1
  Ho  Ho3  1  0.026290  0.218677  0.807622  1
  Lu  Lu4  1  0.816414  0.712234  0.528660  1
  Lu  Lu5  1  0.183586  0.287766  0.471340  1
  Lu  Lu6  1  0.183576  0.712234  0.895821  1
  Lu  Lu7  1  0.816424  0.287766  0.104179  1
  Lu  Lu8  1  0.682602  0.379295  0.696694  1
  Lu  Lu9  1  0.317398  0.620705  0.303306  1
  Lu  Lu10  1  0.682570  0.985823  0.303253  1
  Lu  Lu11  1  0.317430  0.014177  0.696747  1
  Ga  Ga12  1  0.500000  0.500000  0.000000  1
  Co  Co13  1  0.625448  0.000000  0.625448  1
  Co  Co14  1  0.374552  0.000000  0.374552  1
  Co  Co15  1  0.114346  0.614751  0.500405  1
  Co  Co16  1  0.885654  0.385249  0.499595  1
  Co  Co17  1  0.000000  0.000000  0.000000  1
