# generated using pymatgen
data_KEr(SeO4)2
_symmetry_space_group_name_H-M   'P 1'
_cell_length_a   5.37024883
_cell_length_b   5.37472128
_cell_length_c   8.40659746
_cell_angle_alpha   87.76733586
_cell_angle_beta   87.68579555
_cell_angle_gamma   64.96917984
_symmetry_Int_Tables_number   1
_chemical_formula_structural   KEr(SeO4)2
_chemical_formula_sum   'K1 Er1 Se2 O8'
_cell_volume   219.61205548
_cell_formula_units_Z   1
loop_
 _symmetry_equiv_pos_site_id
 _symmetry_equiv_pos_as_xyz
  1  'x, y, z'
loop_
 _atom_site_type_symbol
 _atom_site_label
 _atom_site_symmetry_multiplicity
 _atom_site_fract_x
 _atom_site_fract_y
 _atom_site_fract_z
 _atom_site_occupancy
  K  K0  1  0.000356  0.999787  0.500154  1
  Er  Er1  1  0.000070  0.000106  0.999966  1
  Se  Se2  1  0.633084  0.634643  0.216986  1
  Se  Se3  1  0.366883  0.365395  0.782984  1
  O  O4  1  0.246306  0.706356  0.809020  1
  O  O5  1  0.289282  0.773099  0.196788  1
  O  O6  1  0.753612  0.293659  0.190923  1
  O  O7  1  0.710640  0.226858  0.803153  1
  O  O8  1  0.237037  0.239626  0.933327  1
  O  O9  1  0.762924  0.760493  0.066651  1
  O  O10  1  0.292939  0.306079  0.605079  1
  O  O11  1  0.706865  0.693899  0.394969  1
