# generated using pymatgen
data_BaCd5Au3
_symmetry_space_group_name_H-M   'P 1'
_cell_length_a   4.53860200
_cell_length_b   13.07043900
_cell_length_c   14.77223000
_cell_angle_alpha   90.00000000
_cell_angle_beta   90.00000000
_cell_angle_gamma   90.00000000
_symmetry_Int_Tables_number   1
_chemical_formula_structural   BaCd5Au3
_chemical_formula_sum   'Ba4 Cd20 Au12'
_cell_volume   876.31114605
_cell_formula_units_Z   4
loop_
 _symmetry_equiv_pos_site_id
 _symmetry_equiv_pos_as_xyz
  1  'x, y, z'
loop_
 _atom_site_type_symbol
 _atom_site_label
 _atom_site_symmetry_multiplicity
 _atom_site_fract_x
 _atom_site_fract_y
 _atom_site_fract_z
 _atom_site_occupancy
  Ba  Ba0  1  0.250000  0.893890  0.294841  1
  Ba  Ba1  1  0.750000  0.106110  0.705159  1
  Ba  Ba2  1  0.750000  0.393890  0.205159  1
  Ba  Ba3  1  0.250000  0.606110  0.794841  1
  Cd  Cd4  1  0.250000  0.407274  0.001268  1
  Cd  Cd5  1  0.750000  0.592726  0.998732  1
  Cd  Cd6  1  0.750000  0.907274  0.498732  1
  Cd  Cd7  1  0.250000  0.092726  0.501268  1
  Cd  Cd8  1  0.250000  0.599471  0.318949  1
  Cd  Cd9  1  0.750000  0.400529  0.681051  1
  Cd  Cd10  1  0.750000  0.099471  0.181051  1
  Cd  Cd11  1  0.250000  0.900529  0.818949  1
  Cd  Cd12  1  0.250000  0.006111  0.065483  1
  Cd  Cd13  1  0.750000  0.993889  0.934517  1
  Cd  Cd14  1  0.750000  0.506111  0.434517  1
  Cd  Cd15  1  0.250000  0.493889  0.565483  1
  Cd  Cd16  1  0.250000  0.772323  0.019490  1
  Cd  Cd17  1  0.750000  0.227677  0.980510  1
  Cd  Cd18  1  0.750000  0.272323  0.480510  1
  Cd  Cd19  1  0.250000  0.727677  0.519490  1
  Cd  Cd20  1  0.250000  0.190909  0.301723  1
  Cd  Cd21  1  0.750000  0.809091  0.698277  1
  Cd  Cd22  1  0.750000  0.690909  0.198277  1
  Cd  Cd23  1  0.250000  0.309091  0.801723  1
  Au  Au24  1  0.250000  0.583100  0.122251  1
  Au  Au25  1  0.750000  0.416900  0.877749  1
  Au  Au26  1  0.750000  0.083100  0.377749  1
  Au  Au27  1  0.250000  0.916900  0.622251  1
  Au  Au28  1  0.250000  0.219457  0.106295  1
  Au  Au29  1  0.750000  0.780543  0.893705  1
  Au  Au30  1  0.750000  0.719457  0.393705  1
  Au  Au31  1  0.250000  0.280543  0.606295  1
  Au  Au32  1  0.250000  0.382519  0.388191  1
  Au  Au33  1  0.750000  0.617481  0.611809  1
  Au  Au34  1  0.750000  0.882519  0.111809  1
  Au  Au35  1  0.250000  0.117481  0.888191  1
