# generated using pymatgen
data_Nd2FeCoO6
_symmetry_space_group_name_H-M   'P 1'
_cell_length_a   5.43867167
_cell_length_b   5.53148400
_cell_length_c   7.72844208
_cell_angle_alpha   90.00000000
_cell_angle_beta   90.16556412
_cell_angle_gamma   90.00000000
_symmetry_Int_Tables_number   1
_chemical_formula_structural   Nd2FeCoO6
_chemical_formula_sum   'Nd4 Fe2 Co2 O12'
_cell_volume   232.50090359
_cell_formula_units_Z   2
loop_
 _symmetry_equiv_pos_site_id
 _symmetry_equiv_pos_as_xyz
  1  'x, y, z'
loop_
 _atom_site_type_symbol
 _atom_site_label
 _atom_site_symmetry_multiplicity
 _atom_site_fract_x
 _atom_site_fract_y
 _atom_site_fract_z
 _atom_site_occupancy
  Nd  Nd0  1  0.011186  0.953250  0.749784  1
  Nd  Nd1  1  0.488814  0.453250  0.750216  1
  Nd  Nd2  1  0.511186  0.546750  0.249784  1
  Nd  Nd3  1  0.988814  0.046750  0.250216  1
  Fe  Fe4  1  0.500000  0.000000  0.500000  1
  Fe  Fe5  1  0.000000  0.500000  0.000000  1
  Co  Co6  1  0.000000  0.500000  0.500000  1
  Co  Co7  1  0.500000  0.000000  0.000000  1
  O  O8  1  0.715924  0.292182  0.456979  1
  O  O9  1  0.784076  0.792182  0.043021  1
  O  O10  1  0.207186  0.215615  0.543218  1
  O  O11  1  0.292814  0.715615  0.956782  1
  O  O12  1  0.284076  0.707818  0.543021  1
  O  O13  1  0.215924  0.207818  0.956979  1
  O  O14  1  0.792814  0.784385  0.456782  1
  O  O15  1  0.707186  0.284385  0.043218  1
  O  O16  1  0.079988  0.482306  0.254094  1
  O  O17  1  0.420012  0.982306  0.245906  1
  O  O18  1  0.579988  0.017694  0.754094  1
  O  O19  1  0.920012  0.517694  0.745906  1
