# generated using pymatgen
data_Cs3PuCl6
_symmetry_space_group_name_H-M   'P 1'
_cell_length_a   8.28883853
_cell_length_b   8.28883897
_cell_length_c   8.28883962
_cell_angle_alpha   61.99669200
_cell_angle_beta   61.99668668
_cell_angle_gamma   61.99669416
_symmetry_Int_Tables_number   1
_chemical_formula_structural   Cs3PuCl6
_chemical_formula_sum   'Cs3 Pu1 Cl6'
_cell_volume   420.67044201
_cell_formula_units_Z   1
loop_
 _symmetry_equiv_pos_site_id
 _symmetry_equiv_pos_as_xyz
  1  'x, y, z'
loop_
 _atom_site_type_symbol
 _atom_site_label
 _atom_site_symmetry_multiplicity
 _atom_site_fract_x
 _atom_site_fract_y
 _atom_site_fract_z
 _atom_site_occupancy
  Cs  Cs0  1  0.231674  0.231674  0.231674  1
  Cs  Cs1  1  0.500000  0.500000  0.500000  1
  Cs  Cs2  1  0.768326  0.768326  0.768326  1
  Pu  Pu3  1  0.000000  0.000000  0.000000  1
  Cl  Cl4  1  0.803979  0.313106  0.126744  1
  Cl  Cl5  1  0.686894  0.873256  0.196020  1
  Cl  Cl6  1  0.126744  0.803980  0.313105  1
  Cl  Cl7  1  0.873256  0.196020  0.686895  1
  Cl  Cl8  1  0.313106  0.126744  0.803980  1
  Cl  Cl9  1  0.196021  0.686894  0.873256  1
