# generated using pymatgen
data_Tm4Lu4B24MoOs3
_symmetry_space_group_name_H-M   'P 1'
_cell_length_a   3.60541300
_cell_length_b   9.07853454
_cell_length_c   11.45830800
_cell_angle_alpha   89.90749894
_cell_angle_beta   90.00000000
_cell_angle_gamma   90.00000000
_symmetry_Int_Tables_number   1
_chemical_formula_structural   Tm4Lu4B24MoOs3
_chemical_formula_sum   'Tm4 Lu4 B24 Mo1 Os3'
_cell_volume   375.05131837
_cell_formula_units_Z   1
loop_
 _symmetry_equiv_pos_site_id
 _symmetry_equiv_pos_as_xyz
  1  'x, y, z'
loop_
 _atom_site_type_symbol
 _atom_site_label
 _atom_site_symmetry_multiplicity
 _atom_site_fract_x
 _atom_site_fract_y
 _atom_site_fract_z
 _atom_site_occupancy
  Tm  Tm0  1  0.000000  0.321546  0.413170  1
  Tm  Tm1  1  0.000000  0.678032  0.584711  1
  Tm  Tm2  1  0.000000  0.819762  0.087452  1
  Tm  Tm3  1  0.000000  0.178315  0.914582  1
  Lu  Lu4  1  0.000000  0.945153  0.372962  1
  Lu  Lu5  1  0.000000  0.057321  0.628045  1
  Lu  Lu6  1  0.000000  0.443499  0.126739  1
  Lu  Lu7  1  0.000000  0.556588  0.871695  1
  B  B8  1  0.500000  0.551054  0.435859  1
  B  B9  1  0.500000  0.446187  0.567706  1
  B  B10  1  0.500000  0.053480  0.066530  1
  B  B11  1  0.500000  0.946314  0.933557  1
  B  B12  1  0.500000  0.751846  0.421944  1
  B  B13  1  0.500000  0.251031  0.580740  1
  B  B14  1  0.500000  0.249418  0.079975  1
  B  B15  1  0.500000  0.750378  0.919346  1
  B  B16  1  0.500000  0.795078  0.264420  1
  B  B17  1  0.500000  0.207852  0.734691  1
  B  B18  1  0.500000  0.291439  0.233177  1
  B  B19  1  0.500000  0.708436  0.765513  1
  B  B20  1  0.500000  0.631177  0.182577  1
  B  B21  1  0.500000  0.368667  0.815556  1
  B  B22  1  0.500000  0.130844  0.314463  1
  B  B23  1  0.500000  0.869815  0.685011  1
  B  B24  1  0.500000  0.982431  0.212850  1
  B  B25  1  0.500000  0.018170  0.787764  1
  B  B26  1  0.500000  0.477613  0.286357  1
  B  B27  1  0.500000  0.517528  0.713261  1
  B  B28  1  0.500000  0.603843  0.027336  1
  B  B29  1  0.500000  0.395607  0.970483  1
  B  B30  1  0.500000  0.105016  0.471481  1
  B  B31  1  0.500000  0.897866  0.529790  1
  Mo  Mo32  1  0.000000  0.637734  0.321083  1
  Os  Os33  1  0.000000  0.360872  0.680772  1
  Os  Os34  1  0.000000  0.137798  0.177718  1
  Os  Os35  1  0.000000  0.862286  0.820684  1
