# generated using pymatgen
data_Th10CuSn5Sb2
_symmetry_space_group_name_H-M   'P 1'
_cell_length_a   6.58476841
_cell_length_b   9.59101985
_cell_length_c   9.59367208
_cell_angle_alpha   119.99086387
_cell_angle_beta   90.02328631
_cell_angle_gamma   89.95340499
_symmetry_Int_Tables_number   1
_chemical_formula_structural   Th10CuSn5Sb2
_chemical_formula_sum   'Th10 Cu1 Sn5 Sb2'
_cell_volume   524.75988444
_cell_formula_units_Z   1
loop_
 _symmetry_equiv_pos_site_id
 _symmetry_equiv_pos_as_xyz
  1  'x, y, z'
loop_
 _atom_site_type_symbol
 _atom_site_label
 _atom_site_symmetry_multiplicity
 _atom_site_fract_x
 _atom_site_fract_y
 _atom_site_fract_z
 _atom_site_occupancy
  Th  Th0  1  0.499881  0.333099  0.666688  1
  Th  Th1  1  0.499881  0.666410  0.333312  1
  Th  Th2  1  0.000137  0.666429  0.333293  1
  Th  Th3  1  0.000137  0.333136  0.666707  1
  Th  Th4  1  0.738640  0.273428  0.000000  1
  Th  Th5  1  0.738488  0.728543  0.729094  1
  Th  Th6  1  0.738488  0.999449  0.270906  1
  Th  Th7  1  0.262007  0.726879  0.000000  1
  Th  Th8  1  0.261545  0.272567  0.272748  1
  Th  Th9  1  0.261545  0.999819  0.727252  1
  Cu  Cu10  1  0.497682  0.000523  0.000000  1
  Sn  Sn11  1  0.754122  0.381202  0.381291  1
  Sn  Sn12  1  0.754122  0.999911  0.618709  1
  Sn  Sn13  1  0.246153  0.380103  0.000000  1
  Sn  Sn14  1  0.246449  0.619427  0.618896  1
  Sn  Sn15  1  0.246449  0.000531  0.381104  1
  Sb  Sb16  1  0.753400  0.618326  0.000000  1
  Sb  Sb17  1  0.000874  0.000220  0.000000  1
