# generated using pymatgen
data_Dy5Ho2ThC10
_symmetry_space_group_name_H-M   'P 1'
_cell_length_a   3.66950600
_cell_length_b   6.62261025
_cell_length_c   12.00228081
_cell_angle_alpha   88.99643580
_cell_angle_beta   90.00000000
_cell_angle_gamma   90.00000000
_symmetry_Int_Tables_number   1
_chemical_formula_structural   Dy5Ho2ThC10
_chemical_formula_sum   'Dy5 Ho2 Th1 C10'
_cell_volume   291.63118308
_cell_formula_units_Z   1
loop_
 _symmetry_equiv_pos_site_id
 _symmetry_equiv_pos_as_xyz
  1  'x, y, z'
loop_
 _atom_site_type_symbol
 _atom_site_label
 _atom_site_symmetry_multiplicity
 _atom_site_fract_x
 _atom_site_fract_y
 _atom_site_fract_z
 _atom_site_occupancy
  Dy  Dy0  1  0.000000  0.743151  0.456613  1
  Dy  Dy1  1  0.500000  0.101701  0.804839  1
  Dy  Dy2  1  0.500000  0.901839  0.198507  1
  Dy  Dy3  1  0.500000  0.609933  0.698122  1
  Dy  Dy4  1  0.500000  0.392095  0.298962  1
  Ho  Ho5  1  0.000000  0.758281  0.959761  1
  Ho  Ho6  1  0.000000  0.244872  0.040839  1
  Th  Th7  1  0.000000  0.241355  0.542242  1
  C  C8  1  0.500000  0.493779  0.499590  1
  C  C9  1  0.500000  0.001981  0.000291  1
  C  C10  1  0.000000  0.358043  0.742908  1
  C  C11  1  0.000000  0.645650  0.260779  1
  C  C12  1  0.000000  0.859904  0.768119  1
  C  C13  1  0.000000  0.141465  0.228887  1
  C  C14  1  0.000000  0.427187  0.846777  1
  C  C15  1  0.000000  0.583966  0.155913  1
  C  C16  1  0.000000  0.113419  0.340413  1
  C  C17  1  0.000000  0.881380  0.656439  1
