# generated using pymatgen
data_Rb6SmYI12
_symmetry_space_group_name_H-M   'P 1'
_cell_length_a   10.44629600
_cell_length_b   10.44800223
_cell_length_c   8.67741300
_cell_angle_alpha   90.00000000
_cell_angle_beta   90.00000000
_cell_angle_gamma   90.07191037
_symmetry_Int_Tables_number   1
_chemical_formula_structural   Rb6SmYI12
_chemical_formula_sum   'Rb6 Sm1 Y1 I12'
_cell_volume   947.07748071
_cell_formula_units_Z   1
loop_
 _symmetry_equiv_pos_site_id
 _symmetry_equiv_pos_as_xyz
  1  'x, y, z'
loop_
 _atom_site_type_symbol
 _atom_site_label
 _atom_site_symmetry_multiplicity
 _atom_site_fract_x
 _atom_site_fract_y
 _atom_site_fract_z
 _atom_site_occupancy
  Rb  Rb0  1  0.000000  0.000000  0.500000  1
  Rb  Rb1  1  0.000000  0.000000  0.000000  1
  Rb  Rb2  1  0.234950  0.587117  0.500000  1
  Rb  Rb3  1  0.765050  0.412883  0.500000  1
  Rb  Rb4  1  0.412962  0.231782  0.000000  1
  Rb  Rb5  1  0.587038  0.768218  0.000000  1
  Sm  Sm6  1  0.000000  0.500000  0.000000  1
  Y  Y7  1  0.500000  0.000000  0.500000  1
  I  I8  1  0.698600  0.059283  0.748379  1
  I  I9  1  0.301400  0.940717  0.748379  1
  I  I10  1  0.939659  0.701797  0.251602  1
  I  I11  1  0.060341  0.298203  0.251602  1
  I  I12  1  0.301400  0.940717  0.251621  1
  I  I13  1  0.698600  0.059283  0.251621  1
  I  I14  1  0.060341  0.298203  0.748398  1
  I  I15  1  0.939659  0.701797  0.748398  1
  I  I16  1  0.570514  0.718162  0.500000  1
  I  I17  1  0.429486  0.281838  0.500000  1
  I  I18  1  0.286463  0.570766  0.000000  1
  I  I19  1  0.713537  0.429234  0.000000  1
