# generated using pymatgen
data_Ca2Cu7Ni3
_symmetry_space_group_name_H-M   'P 1'
_cell_length_a   6.41782930
_cell_length_b   6.43103739
_cell_length_c   6.41782960
_cell_angle_alpha   133.73153199
_cell_angle_beta   103.00127124
_cell_angle_gamma   94.71246702
_symmetry_Int_Tables_number   1
_chemical_formula_structural   Ca2Cu7Ni3
_chemical_formula_sum   'Ca2 Cu7 Ni3'
_cell_volume   175.54823717
_cell_formula_units_Z   1
loop_
 _symmetry_equiv_pos_site_id
 _symmetry_equiv_pos_as_xyz
  1  'x, y, z'
loop_
 _atom_site_type_symbol
 _atom_site_label
 _atom_site_symmetry_multiplicity
 _atom_site_fract_x
 _atom_site_fract_y
 _atom_site_fract_z
 _atom_site_occupancy
  Ca  Ca0  1  0.749863  0.490855  0.740864  1
  Ca  Ca1  1  0.250008  0.509145  0.259008  1
  Cu  Cu2  1  0.088859  0.853386  0.766329  1
  Cu  Cu3  1  0.411285  0.167233  0.754289  1
  Cu  Cu4  1  0.587058  0.832767  0.244054  1
  Cu  Cu5  1  0.912944  0.146614  0.235474  1
  Cu  Cu6  1  0.746641  0.000000  0.746641  1
  Cu  Cu7  1  0.753293  0.500000  0.253293  1
  Cu  Cu8  1  0.246790  0.500000  0.746790  1
  Ni  Ni9  1  0.000495  0.991344  0.491096  1
  Ni  Ni10  1  0.499752  0.008656  0.009151  1
  Ni  Ni11  1  0.253011  0.000000  0.253011  1
