# generated using pymatgen
data_Th3(Ga2Cu)4
_symmetry_space_group_name_H-M   'P 1'
_cell_length_a   4.24992605
_cell_length_b   4.24987450
_cell_length_c   15.72976071
_cell_angle_alpha   82.25634578
_cell_angle_beta   82.25667046
_cell_angle_gamma   89.92366850
_symmetry_Int_Tables_number   1
_chemical_formula_structural   Th3(Ga2Cu)4
_chemical_formula_sum   'Th3 Ga8 Cu4'
_cell_volume   278.90675159
_cell_formula_units_Z   1
loop_
 _symmetry_equiv_pos_site_id
 _symmetry_equiv_pos_as_xyz
  1  'x, y, z'
loop_
 _atom_site_type_symbol
 _atom_site_label
 _atom_site_symmetry_multiplicity
 _atom_site_fract_x
 _atom_site_fract_y
 _atom_site_fract_z
 _atom_site_occupancy
  Th  Th0  1  0.995701  0.995752  0.008161  1
  Th  Th1  1  0.337551  0.337607  0.325189  1
  Th  Th2  1  0.666935  0.666470  0.666673  1
  Ga  Ga3  1  0.752214  0.252137  0.497016  1
  Ga  Ga4  1  0.081244  0.581229  0.836337  1
  Ga  Ga5  1  0.456211  0.456300  0.087720  1
  Ga  Ga6  1  0.797164  0.798066  0.407002  1
  Ga  Ga7  1  0.128020  0.127294  0.746665  1
  Ga  Ga8  1  0.876893  0.877023  0.245610  1
  Ga  Ga9  1  0.206133  0.205442  0.586688  1
  Ga  Ga10  1  0.535293  0.536187  0.926338  1
  Cu  Cu11  1  0.915837  0.417349  0.166636  1
  Cu  Cu12  1  0.251028  0.750784  0.498393  1
  Cu  Cu13  1  0.582666  0.082405  0.834930  1
  Cu  Cu14  1  0.417109  0.915953  0.166643  1
