# generated using pymatgen
data_YPa(InPd5)3
_symmetry_space_group_name_H-M   'P 1'
_cell_length_a   4.10313900
_cell_length_b   4.10313900
_cell_length_c   20.26497000
_cell_angle_alpha   90.00000000
_cell_angle_beta   90.00000000
_cell_angle_gamma   90.00000000
_symmetry_Int_Tables_number   1
_chemical_formula_structural   YPa(InPd5)3
_chemical_formula_sum   'Y1 Pa1 In3 Pd15'
_cell_volume   341.17596165
_cell_formula_units_Z   1
loop_
 _symmetry_equiv_pos_site_id
 _symmetry_equiv_pos_as_xyz
  1  'x, y, z'
loop_
 _atom_site_type_symbol
 _atom_site_label
 _atom_site_symmetry_multiplicity
 _atom_site_fract_x
 _atom_site_fract_y
 _atom_site_fract_z
 _atom_site_occupancy
  Y  Y0  1  0.000000  0.000000  0.794041  1
  Pa  Pa1  1  0.000000  0.000000  0.003306  1
  In  In2  1  0.000000  0.000000  0.207204  1
  In  In3  1  0.000000  0.000000  0.401625  1
  In  In4  1  0.000000  0.000000  0.596152  1
  Pd  Pd5  1  0.500000  0.500000  0.001389  1
  Pd  Pd6  1  0.500000  0.500000  0.200569  1
  Pd  Pd7  1  0.500000  0.500000  0.399611  1
  Pd  Pd8  1  0.500000  0.500000  0.597715  1
  Pd  Pd9  1  0.500000  0.500000  0.798947  1
  Pd  Pd10  1  0.500000  0.000000  0.100504  1
  Pd  Pd11  1  0.500000  0.000000  0.301701  1
  Pd  Pd12  1  0.500000  0.000000  0.499195  1
  Pd  Pd13  1  0.500000  0.000000  0.695158  1
  Pd  Pd14  1  0.500000  0.000000  0.903162  1
  Pd  Pd15  1  0.000000  0.500000  0.100504  1
  Pd  Pd16  1  0.000000  0.500000  0.301701  1
  Pd  Pd17  1  0.000000  0.500000  0.499195  1
  Pd  Pd18  1  0.000000  0.500000  0.695158  1
  Pd  Pd19  1  0.000000  0.500000  0.903162  1
