# generated using pymatgen
data_Pr3NdTi4Mn4O20
_symmetry_space_group_name_H-M   'P 1'
_cell_length_a   5.87944900
_cell_length_b   7.67138991
_cell_length_c   8.84837905
_cell_angle_alpha   89.94422756
_cell_angle_beta   90.00000000
_cell_angle_gamma   90.00000000
_symmetry_Int_Tables_number   1
_chemical_formula_structural   Pr3NdTi4Mn4O20
_chemical_formula_sum   'Pr3 Nd1 Ti4 Mn4 O20'
_cell_volume   399.09307992
_cell_formula_units_Z   1
loop_
 _symmetry_equiv_pos_site_id
 _symmetry_equiv_pos_as_xyz
  1  'x, y, z'
loop_
 _atom_site_type_symbol
 _atom_site_label
 _atom_site_symmetry_multiplicity
 _atom_site_fract_x
 _atom_site_fract_y
 _atom_site_fract_z
 _atom_site_occupancy
  Pr  Pr0  1  0.000000  0.358692  0.672855  1
  Pr  Pr1  1  0.000000  0.641185  0.327035  1
  Pr  Pr2  1  0.000000  0.859207  0.827454  1
  Nd  Nd3  1  0.000000  0.141640  0.172901  1
  Ti  Ti4  1  0.258402  0.499535  0.000168  1
  Ti  Ti5  1  0.741668  0.000144  0.499609  1
  Ti  Ti6  1  0.741598  0.499535  0.000168  1
  Ti  Ti7  1  0.258332  0.000144  0.499609  1
  Mn  Mn8  1  0.500000  0.090685  0.853682  1
  Mn  Mn9  1  0.500000  0.910354  0.146706  1
  Mn  Mn10  1  0.500000  0.590372  0.646445  1
  Mn  Mn11  1  0.500000  0.409177  0.353299  1
  O  O12  1  0.248996  0.900947  0.291112  1
  O  O13  1  0.249853  0.099968  0.708502  1
  O  O14  1  0.750803  0.398374  0.208469  1
  O  O15  1  0.750282  0.599844  0.791577  1
  O  O16  1  0.750147  0.099968  0.708502  1
  O  O17  1  0.751004  0.900947  0.291112  1
  O  O18  1  0.249718  0.599844  0.791577  1
  O  O19  1  0.249197  0.398374  0.208469  1
  O  O20  1  0.500000  0.348143  0.932601  1
  O  O21  1  0.500000  0.651525  0.067786  1
  O  O22  1  0.500000  0.848158  0.566930  1
  O  O23  1  0.500000  0.151975  0.432797  1
  O  O24  1  0.277673  0.001082  0.000758  1
  O  O25  1  0.721536  0.500025  0.499778  1
  O  O26  1  0.722327  0.001082  0.000758  1
  O  O27  1  0.278464  0.500025  0.499778  1
  O  O28  1  0.000000  0.160548  0.448254  1
  O  O29  1  0.000000  0.839702  0.550574  1
  O  O30  1  0.000000  0.660040  0.050583  1
  O  O31  1  0.000000  0.338759  0.950150  1
