# generated using pymatgen
data_PmZn2Au3
_symmetry_space_group_name_H-M   'P 1'
_cell_length_a   5.57428121
_cell_length_b   5.57427954
_cell_length_c   4.52138500
_cell_angle_alpha   90.00000000
_cell_angle_beta   90.00000000
_cell_angle_gamma   57.31176662
_symmetry_Int_Tables_number   1
_chemical_formula_structural   PmZn2Au3
_chemical_formula_sum   'Pm1 Zn2 Au3'
_cell_volume   118.24044014
_cell_formula_units_Z   1
loop_
 _symmetry_equiv_pos_site_id
 _symmetry_equiv_pos_as_xyz
  1  'x, y, z'
loop_
 _atom_site_type_symbol
 _atom_site_label
 _atom_site_symmetry_multiplicity
 _atom_site_fract_x
 _atom_site_fract_y
 _atom_site_fract_z
 _atom_site_occupancy
  Pm  Pm0  1  0.000036  0.999964  0.000000  1
  Zn  Zn1  1  0.500300  0.000010  0.499999  1
  Zn  Zn2  1  0.999990  0.499699  0.499999  1
  Au  Au3  1  0.320777  0.320714  0.000000  1
  Au  Au4  1  0.679286  0.679223  0.000000  1
  Au  Au5  1  0.499606  0.500393  0.499999  1
