# generated using pymatgen
data_Er7NbAlPd24
_symmetry_space_group_name_H-M   'P 1'
_cell_length_a   8.28509111
_cell_length_b   8.28509024
_cell_length_c   8.28509097
_cell_angle_alpha   89.73786454
_cell_angle_beta   90.26213938
_cell_angle_gamma   90.26212749
_symmetry_Int_Tables_number   1
_chemical_formula_structural   Er7NbAlPd24
_chemical_formula_sum   'Er7 Nb1 Al1 Pd24'
_cell_volume   568.69344038
_cell_formula_units_Z   1
loop_
 _symmetry_equiv_pos_site_id
 _symmetry_equiv_pos_as_xyz
  1  'x, y, z'
loop_
 _atom_site_type_symbol
 _atom_site_label
 _atom_site_symmetry_multiplicity
 _atom_site_fract_x
 _atom_site_fract_y
 _atom_site_fract_z
 _atom_site_occupancy
  Er  Er0  1  0.251381  0.252301  0.252301  1
  Er  Er1  1  0.747848  0.747998  0.747998  1
  Er  Er2  1  0.747699  0.748619  0.252301  1
  Er  Er3  1  0.747699  0.252301  0.748619  1
  Er  Er4  1  0.252002  0.252152  0.747998  1
  Er  Er5  1  0.252002  0.747998  0.252152  1
  Er  Er6  1  0.252860  0.747140  0.747140  1
  Nb  Nb7  1  0.743206  0.256794  0.256794  1
  Al  Al8  1  0.001509  0.998491  0.998491  1
  Pd  Pd9  1  0.259198  0.498523  0.000614  1
  Pd  Pd10  1  0.741029  0.494809  0.007340  1
  Pd  Pd11  1  0.992660  0.258971  0.494809  1
  Pd  Pd12  1  0.505191  0.258971  0.007340  1
  Pd  Pd13  1  0.999386  0.740802  0.498523  1
  Pd  Pd14  1  0.501477  0.740802  0.000614  1
  Pd  Pd15  1  0.505191  0.007340  0.258971  1
  Pd  Pd16  1  0.259198  0.000614  0.498523  1
  Pd  Pd17  1  0.501477  0.000614  0.740802  1
  Pd  Pd18  1  0.741029  0.007340  0.494809  1
  Pd  Pd19  1  0.992660  0.494809  0.258971  1
  Pd  Pd20  1  0.999386  0.498523  0.740802  1
  Pd  Pd21  1  0.252512  0.498864  0.498864  1
  Pd  Pd22  1  0.747011  0.494115  0.494115  1
  Pd  Pd23  1  0.505885  0.252989  0.494115  1
  Pd  Pd24  1  0.501136  0.747488  0.498864  1
  Pd  Pd25  1  0.505885  0.494115  0.252989  1
  Pd  Pd26  1  0.501136  0.498864  0.747488  1
  Pd  Pd27  1  0.288695  0.000053  0.000053  1
  Pd  Pd28  1  0.714055  0.005148  0.005148  1
  Pd  Pd29  1  0.994852  0.285945  0.005148  1
  Pd  Pd30  1  0.999947  0.711305  0.000053  1
  Pd  Pd31  1  0.994852  0.005148  0.285945  1
  Pd  Pd32  1  0.999947  0.000053  0.711305  1
