# generated using pymatgen
data_NdCd12Hg5
_symmetry_space_group_name_H-M   'P 1'
_cell_length_a   15.44151966
_cell_length_b   15.44151883
_cell_length_c   7.22007172
_cell_angle_alpha   96.64466443
_cell_angle_beta   96.64466360
_cell_angle_gamma   14.62611063
_symmetry_Int_Tables_number   1
_chemical_formula_structural   NdCd12Hg5
_chemical_formula_sum   'Nd1 Cd12 Hg5'
_cell_volume   431.74282134
_cell_formula_units_Z   1
loop_
 _symmetry_equiv_pos_site_id
 _symmetry_equiv_pos_as_xyz
  1  'x, y, z'
loop_
 _atom_site_type_symbol
 _atom_site_label
 _atom_site_symmetry_multiplicity
 _atom_site_fract_x
 _atom_site_fract_y
 _atom_site_fract_z
 _atom_site_occupancy
  Nd  Nd0  1  0.000000  0.000000  0.500000  1
  Cd  Cd1  1  0.118130  0.118130  0.071750  1
  Cd  Cd2  1  0.225646  0.225646  0.111659  1
  Cd  Cd3  1  0.330362  0.330362  0.164029  1
  Cd  Cd4  1  0.438115  0.438115  0.183641  1
  Cd  Cd5  1  0.562533  0.562533  0.268805  1
  Cd  Cd6  1  0.779452  0.779452  0.386773  1
  Cd  Cd7  1  0.220548  0.220548  0.613228  1
  Cd  Cd8  1  0.437467  0.437467  0.731195  1
  Cd  Cd9  1  0.561885  0.561885  0.816358  1
  Cd  Cd10  1  0.669637  0.669637  0.835971  1
  Cd  Cd11  1  0.774353  0.774353  0.888340  1
  Cd  Cd12  1  0.881871  0.881871  0.928251  1
  Hg  Hg13  1  0.000000  0.000000  0.000000  1
  Hg  Hg14  1  0.672777  0.672777  0.335171  1
  Hg  Hg15  1  0.890608  0.890608  0.429776  1
  Hg  Hg16  1  0.109392  0.109392  0.570225  1
  Hg  Hg17  1  0.327223  0.327223  0.664829  1
