# generated using pymatgen
data_Eu2AlGa(GeO5)2
_symmetry_space_group_name_H-M   'P 1'
_cell_length_a   5.80571000
_cell_length_b   7.49071700
_cell_length_c   8.54556900
_cell_angle_alpha   90.00000000
_cell_angle_beta   90.00000000
_cell_angle_gamma   90.00000000
_symmetry_Int_Tables_number   1
_chemical_formula_structural   Eu2AlGa(GeO5)2
_chemical_formula_sum   'Eu4 Al2 Ga2 Ge4 O20'
_cell_volume   371.63765713
_cell_formula_units_Z   2
loop_
 _symmetry_equiv_pos_site_id
 _symmetry_equiv_pos_as_xyz
  1  'x, y, z'
loop_
 _atom_site_type_symbol
 _atom_site_label
 _atom_site_symmetry_multiplicity
 _atom_site_fract_x
 _atom_site_fract_y
 _atom_site_fract_z
 _atom_site_occupancy
  Eu  Eu0  1  0.001143  0.353215  0.326360  1
  Eu  Eu1  1  0.001143  0.646785  0.673640  1
  Eu  Eu2  1  0.998857  0.853215  0.173640  1
  Eu  Eu3  1  0.998857  0.146785  0.826360  1
  Al  Al4  1  0.743638  0.500000  0.000000  1
  Al  Al5  1  0.256362  0.000000  0.500000  1
  Ga  Ga6  1  0.253576  0.500000  0.000000  1
  Ga  Ga7  1  0.746424  0.000000  0.500000  1
  Ge  Ge8  1  0.499738  0.117217  0.142280  1
  Ge  Ge9  1  0.499738  0.882783  0.857720  1
  Ge  Ge10  1  0.500262  0.617217  0.357720  1
  Ge  Ge11  1  0.500262  0.382783  0.642280  1
  O  O12  1  0.989326  0.342402  0.052325  1
  O  O13  1  0.989326  0.657598  0.947675  1
  O  O14  1  0.010674  0.842402  0.447675  1
  O  O15  1  0.010674  0.157598  0.552325  1
  O  O16  1  0.506607  0.342319  0.069904  1
  O  O17  1  0.506607  0.657681  0.930096  1
  O  O18  1  0.493393  0.842319  0.430096  1
  O  O19  1  0.493393  0.157681  0.569904  1
  O  O20  1  0.261648  0.103551  0.287406  1
  O  O21  1  0.261648  0.896449  0.712594  1
  O  O22  1  0.738352  0.603551  0.212594  1
  O  O23  1  0.738352  0.396449  0.787406  1
  O  O24  1  0.743123  0.894790  0.717408  1
  O  O25  1  0.743123  0.105210  0.282592  1
  O  O26  1  0.256877  0.394790  0.782592  1
  O  O27  1  0.256877  0.605210  0.217408  1
  O  O28  1  0.288984  0.000000  0.000000  1
  O  O29  1  0.711016  0.500000  0.500000  1
  O  O30  1  0.707547  0.000000  0.000000  1
  O  O31  1  0.292453  0.500000  0.500000  1
