# generated using pymatgen
data_Pr8Dy8Sc3Si16Ag
_symmetry_space_group_name_H-M   'P 1'
_cell_length_a   7.34330211
_cell_length_b   7.77361403
_cell_length_c   14.78402700
_cell_angle_alpha   90.00000000
_cell_angle_beta   90.00000000
_cell_angle_gamma   90.13300623
_symmetry_Int_Tables_number   1
_chemical_formula_structural   Pr8Dy8Sc3Si16Ag
_chemical_formula_sum   'Pr8 Dy8 Sc3 Si16 Ag1'
_cell_volume   843.92906874
_cell_formula_units_Z   1
loop_
 _symmetry_equiv_pos_site_id
 _symmetry_equiv_pos_as_xyz
  1  'x, y, z'
loop_
 _atom_site_type_symbol
 _atom_site_label
 _atom_site_symmetry_multiplicity
 _atom_site_fract_x
 _atom_site_fract_y
 _atom_site_fract_z
 _atom_site_occupancy
  Pr  Pr0  1  0.017052  0.178696  0.401749  1
  Pr  Pr1  1  0.517154  0.322957  0.401246  1
  Pr  Pr2  1  0.483522  0.689600  0.898100  1
  Pr  Pr3  1  0.483522  0.689600  0.601900  1
  Pr  Pr4  1  0.973330  0.822662  0.601789  1
  Pr  Pr5  1  0.973330  0.822662  0.898211  1
  Pr  Pr6  1  0.517154  0.322957  0.098754  1
  Pr  Pr7  1  0.017052  0.178696  0.098251  1
  Dy  Dy8  1  0.331925  0.173893  0.625758  1
  Dy  Dy9  1  0.678084  0.818682  0.373352  1
  Dy  Dy10  1  0.177942  0.676937  0.375933  1
  Dy  Dy11  1  0.819910  0.313068  0.873782  1
  Dy  Dy12  1  0.819910  0.313068  0.626218  1
  Dy  Dy13  1  0.331925  0.173893  0.874242  1
  Dy  Dy14  1  0.177942  0.676937  0.124067  1
  Dy  Dy15  1  0.678084  0.818682  0.126648  1
  Sc  Sc16  1  0.845624  0.488060  0.250000  1
  Sc  Sc17  1  0.344295  0.011201  0.250000  1
  Sc  Sc18  1  0.152135  0.508207  0.750000  1
  Si  Si19  1  0.265642  0.873762  0.750000  1
  Si  Si20  1  0.476734  0.602266  0.250000  1
  Si  Si21  1  0.033793  0.106749  0.750000  1
  Si  Si22  1  0.518628  0.410406  0.750000  1
  Si  Si23  1  0.149119  0.469662  0.542381  1
  Si  Si24  1  0.979032  0.892143  0.250000  1
  Si  Si25  1  0.718071  0.126852  0.250000  1
  Si  Si26  1  0.852480  0.531892  0.036399  1
  Si  Si27  1  0.353316  0.968623  0.041079  1
  Si  Si28  1  0.149119  0.469662  0.957619  1
  Si  Si29  1  0.651938  0.037866  0.529007  1
  Si  Si30  1  0.353316  0.968623  0.458921  1
  Si  Si31  1  0.852480  0.531892  0.463601  1
  Si  Si32  1  0.781932  0.608931  0.750000  1
  Si  Si33  1  0.218685  0.373706  0.250000  1
  Si  Si34  1  0.651938  0.037866  0.970993  1
  Ag  Ag35  1  0.653884  0.988640  0.750000  1
