# generated using pymatgen
data_TmLu3Ga5GePt7
_symmetry_space_group_name_H-M   'P 1'
_cell_length_a   7.31513156
_cell_length_b   7.31631551
_cell_length_c   7.31631459
_cell_angle_alpha   109.73768160
_cell_angle_beta   109.38794252
_cell_angle_gamma   109.38793130
_symmetry_Int_Tables_number   1
_chemical_formula_structural   TmLu3Ga5GePt7
_chemical_formula_sum   'Tm1 Lu3 Ga5 Ge1 Pt7'
_cell_volume   301.05402303
_cell_formula_units_Z   1
loop_
 _symmetry_equiv_pos_site_id
 _symmetry_equiv_pos_as_xyz
  1  'x, y, z'
loop_
 _atom_site_type_symbol
 _atom_site_label
 _atom_site_symmetry_multiplicity
 _atom_site_fract_x
 _atom_site_fract_y
 _atom_site_fract_z
 _atom_site_occupancy
  Tm  Tm0  1  0.501698  0.502362  0.502362  1
  Lu  Lu1  1  0.000026  0.000982  0.502404  1
  Lu  Lu2  1  0.000026  0.502404  0.000982  1
  Lu  Lu3  1  0.498397  0.000814  0.000814  1
  Ga  Ga4  1  0.685789  0.688165  0.002849  1
  Ga  Ga5  1  0.314211  0.001949  0.316674  1
  Ga  Ga6  1  0.999678  0.308426  0.308426  1
  Ga  Ga7  1  0.314211  0.316674  0.001949  1
  Ga  Ga8  1  0.685789  0.002849  0.688165  1
  Ge  Ge9  1  0.000226  0.681951  0.681951  1
  Pt  Pt10  1  0.750913  0.248990  0.498677  1
  Pt  Pt11  1  0.750913  0.498677  0.248990  1
  Pt  Pt12  1  0.499984  0.251084  0.751705  1
  Pt  Pt13  1  0.249062  0.498843  0.748462  1
  Pt  Pt14  1  0.249062  0.748462  0.498843  1
  Pt  Pt15  1  0.499984  0.751705  0.251084  1
  Pt  Pt16  1  0.000030  0.995664  0.995664  1
