# generated using pymatgen
data_Tm8Lu4InGaCo4
_symmetry_space_group_name_H-M   'P 1'
_cell_length_a   8.17357447
_cell_length_b   8.17332142
_cell_length_c   8.17357432
_cell_angle_alpha   111.58588148
_cell_angle_beta   110.29885108
_cell_angle_gamma   106.57127025
_symmetry_Int_Tables_number   1
_chemical_formula_structural   Tm8Lu4InGaCo4
_chemical_formula_sum   'Tm8 Lu4 In1 Ga1 Co4'
_cell_volume   419.47513630
_cell_formula_units_Z   1
loop_
 _symmetry_equiv_pos_site_id
 _symmetry_equiv_pos_as_xyz
  1  'x, y, z'
loop_
 _atom_site_type_symbol
 _atom_site_label
 _atom_site_symmetry_multiplicity
 _atom_site_fract_x
 _atom_site_fract_y
 _atom_site_fract_z
 _atom_site_occupancy
  Tm  Tm0  1  0.434877  0.229071  0.205838  1
  Tm  Tm1  1  0.565123  0.770929  0.794162  1
  Tm  Tm2  1  0.023233  0.229071  0.794194  1
  Tm  Tm3  1  0.976767  0.770929  0.205806  1
  Tm  Tm4  1  0.184987  0.284047  0.469050  1
  Tm  Tm5  1  0.815013  0.715953  0.530950  1
  Tm  Tm6  1  0.185003  0.715953  0.900941  1
  Tm  Tm7  1  0.814997  0.284047  0.099059  1
  Lu  Lu8  1  0.316895  0.621654  0.304758  1
  Lu  Lu9  1  0.683105  0.378346  0.695242  1
  Lu  Lu10  1  0.316840  0.012085  0.695245  1
  Lu  Lu11  1  0.683160  0.987915  0.304755  1
  In  In12  1  0.500000  0.500000  0.000000  1
  Ga  Ga13  1  0.000000  0.000000  0.000000  1
  Co  Co14  1  0.374245  0.000000  0.374245  1
  Co  Co15  1  0.625755  0.000000  0.625755  1
  Co  Co16  1  0.114020  0.614023  0.500003  1
  Co  Co17  1  0.885980  0.385977  0.499997  1
