# generated using pymatgen
data_PrHoBeCoSi4
_symmetry_space_group_name_H-M   'P 1'
_cell_length_a   8.51536359
_cell_length_b   8.51536450
_cell_length_c   3.98513200
_cell_angle_alpha   90.00000000
_cell_angle_beta   90.00000000
_cell_angle_gamma   152.20776944
_symmetry_Int_Tables_number   1
_chemical_formula_structural   PrHoBeCoSi4
_chemical_formula_sum   'Pr1 Ho1 Be1 Co1 Si4'
_cell_volume   134.73596462
_cell_formula_units_Z   1
loop_
 _symmetry_equiv_pos_site_id
 _symmetry_equiv_pos_as_xyz
  1  'x, y, z'
loop_
 _atom_site_type_symbol
 _atom_site_label
 _atom_site_symmetry_multiplicity
 _atom_site_fract_x
 _atom_site_fract_y
 _atom_site_fract_z
 _atom_site_occupancy
  Pr  Pr0  1  0.888238  0.111762  0.750000  1
  Ho  Ho1  1  0.102495  0.897505  0.250000  1
  Be  Be2  1  0.327027  0.672973  0.250000  1
  Co  Co3  1  0.681660  0.318340  0.750000  1
  Si  Si4  1  0.243900  0.756100  0.750000  1
  Si  Si5  1  0.746007  0.253993  0.250000  1
  Si  Si6  1  0.546510  0.453490  0.750000  1
  Si  Si7  1  0.464163  0.535837  0.250000  1
