# generated using pymatgen
data_TeSI
_symmetry_space_group_name_H-M   'P 1'
_cell_length_a   3.90367900
_cell_length_b   10.55428900
_cell_length_c   11.49693100
_cell_angle_alpha   89.99998959
_cell_angle_beta   90.00000000
_cell_angle_gamma   90.00000543
_symmetry_Int_Tables_number   1
_chemical_formula_structural   TeSI
_chemical_formula_sum   'Te4 S4 I4'
_cell_volume   473.67995328
_cell_formula_units_Z   4
loop_
 _symmetry_equiv_pos_site_id
 _symmetry_equiv_pos_as_xyz
  1  'x, y, z'
loop_
 _atom_site_type_symbol
 _atom_site_label
 _atom_site_symmetry_multiplicity
 _atom_site_fract_x
 _atom_site_fract_y
 _atom_site_fract_z
 _atom_site_occupancy
  Te  Te0  1  0.274471  0.604320  0.376420  1
  Te  Te1  1  0.774471  0.395681  0.623580  1
  Te  Te2  1  0.774471  0.895681  0.876420  1
  Te  Te3  1  0.274471  0.104320  0.123580  1
  S  S4  1  0.267590  0.345831  0.487352  1
  S  S5  1  0.767590  0.654168  0.512648  1
  S  S6  1  0.767590  0.154168  0.987352  1
  S  S7  1  0.267590  0.845832  0.012648  1
  I  I8  1  0.267239  0.989571  0.690068  1
  I  I9  1  0.767239  0.010429  0.309933  1
  I  I10  1  0.767239  0.510429  0.190067  1
  I  I11  1  0.267239  0.489571  0.809932  1
