# generated using pymatgen
data_Yb7Pr9(InRu)4
_symmetry_space_group_name_H-M   'P 1'
_cell_length_a   10.01319608
_cell_length_b   9.90562892
_cell_length_c   10.01295480
_cell_angle_alpha   59.93079704
_cell_angle_beta   60.49537936
_cell_angle_gamma   59.93213909
_symmetry_Int_Tables_number   1
_chemical_formula_structural   Yb7Pr9(InRu)4
_chemical_formula_sum   'Yb7 Pr9 In4 Ru4'
_cell_volume   704.12142844
_cell_formula_units_Z   1
loop_
 _symmetry_equiv_pos_site_id
 _symmetry_equiv_pos_as_xyz
  1  'x, y, z'
loop_
 _atom_site_type_symbol
 _atom_site_label
 _atom_site_symmetry_multiplicity
 _atom_site_fract_x
 _atom_site_fract_y
 _atom_site_fract_z
 _atom_site_occupancy
  Yb  Yb0  1  0.051754  0.444743  0.446950  1
  Yb  Yb1  1  0.192389  0.805675  0.192403  1
  Yb  Yb2  1  0.656506  0.652275  0.656478  1
  Yb  Yb3  1  0.446987  0.444729  0.051796  1
  Yb  Yb4  1  0.053322  0.448890  0.053307  1
  Yb  Yb5  1  0.448286  0.055620  0.053454  1
  Yb  Yb6  1  0.053462  0.055609  0.448356  1
  Pr  Pr7  1  0.654133  0.652689  0.038711  1
  Pr  Pr8  1  0.655497  0.038969  0.655502  1
  Pr  Pr9  1  0.197647  0.806473  0.802769  1
  Pr  Pr10  1  0.445262  0.054443  0.445196  1
  Pr  Pr11  1  0.195478  0.193180  0.804655  1
  Pr  Pr12  1  0.038743  0.652677  0.654103  1
  Pr  Pr13  1  0.802740  0.806546  0.197588  1
  Pr  Pr14  1  0.804683  0.193208  0.195513  1
  Pr  Pr15  1  0.802629  0.198641  0.802715  1
  In  In16  1  0.419637  0.420780  0.419593  1
  In  In17  1  0.424273  0.733890  0.424327  1
  In  In18  1  0.745068  0.417292  0.417555  1
  In  In19  1  0.417521  0.417211  0.745122  1
  Ru  Ru20  1  0.865784  0.859865  0.865683  1
  Ru  Ru21  1  0.406371  0.871137  0.855188  1
  Ru  Ru22  1  0.866656  0.404341  0.866648  1
  Ru  Ru23  1  0.855172  0.871120  0.406391  1
