# generated using pymatgen
data_LaGaPt4
_symmetry_space_group_name_H-M   'P 1'
_cell_length_a   5.30894342
_cell_length_b   5.63559524
_cell_length_c   4.44553800
_cell_angle_alpha   90.00000000
_cell_angle_beta   90.00000000
_cell_angle_gamma   122.05711497
_symmetry_Int_Tables_number   1
_chemical_formula_structural   LaGaPt4
_chemical_formula_sum   'La1 Ga1 Pt4'
_cell_volume   112.72542458
_cell_formula_units_Z   1
loop_
 _symmetry_equiv_pos_site_id
 _symmetry_equiv_pos_as_xyz
  1  'x, y, z'
loop_
 _atom_site_type_symbol
 _atom_site_label
 _atom_site_symmetry_multiplicity
 _atom_site_fract_x
 _atom_site_fract_y
 _atom_site_fract_z
 _atom_site_occupancy
  La  La0  1  0.000000  0.000000  0.000000  1
  Ga  Ga1  1  0.000000  0.500000  0.500000  1
  Pt  Pt2  1  0.673470  0.336734  0.000000  1
  Pt  Pt3  1  0.326530  0.663266  0.000000  1
  Pt  Pt4  1  0.500000  0.500000  0.500000  1
  Pt  Pt5  1  0.500000  0.000000  0.500000  1
