# generated using pymatgen
data_Tb2Dy3Ho7Rh4
_symmetry_space_group_name_H-M   'P 1'
_cell_length_a   6.27335503
_cell_length_b   7.17545603
_cell_length_c   9.44411403
_cell_angle_alpha   90.00463286
_cell_angle_beta   90.00793133
_cell_angle_gamma   90.00880176
_symmetry_Int_Tables_number   1
_chemical_formula_structural   Tb2Dy3Ho7Rh4
_chemical_formula_sum   'Tb2 Dy3 Ho7 Rh4'
_cell_volume   425.11906850
_cell_formula_units_Z   1
loop_
 _symmetry_equiv_pos_site_id
 _symmetry_equiv_pos_as_xyz
  1  'x, y, z'
loop_
 _atom_site_type_symbol
 _atom_site_label
 _atom_site_symmetry_multiplicity
 _atom_site_fract_x
 _atom_site_fract_y
 _atom_site_fract_z
 _atom_site_occupancy
  Tb  Tb0  1  0.133628  0.467473  0.749966  1
  Tb  Tb1  1  0.366385  0.967493  0.749974  1
  Dy  Dy2  1  0.329337  0.677318  0.063594  1
  Dy  Dy3  1  0.865243  0.533653  0.250038  1
  Dy  Dy4  1  0.634763  0.033723  0.250024  1
  Ho  Ho5  1  0.170669  0.177305  0.436324  1
  Ho  Ho6  1  0.670512  0.322416  0.562660  1
  Ho  Ho7  1  0.829517  0.822447  0.937294  1
  Ho  Ho8  1  0.670511  0.322386  0.937316  1
  Ho  Ho9  1  0.829492  0.822425  0.562661  1
  Ho  Ho10  1  0.329334  0.677294  0.436395  1
  Ho  Ho11  1  0.170654  0.177298  0.063677  1
  Rh  Rh12  1  0.059103  0.881505  0.250060  1
  Rh  Rh13  1  0.440801  0.381334  0.250068  1
  Rh  Rh14  1  0.938502  0.117967  0.750001  1
  Rh  Rh15  1  0.561549  0.617966  0.749947  1
