# generated using pymatgen
data_Nd16Zn3InIr4
_symmetry_space_group_name_H-M   'P 1'
_cell_length_a   9.90713257
_cell_length_b   9.90713137
_cell_length_c   9.84845997
_cell_angle_alpha   59.80272459
_cell_angle_beta   59.80273653
_cell_angle_gamma   59.99999563
_symmetry_Int_Tables_number   1
_chemical_formula_structural   Nd16Zn3InIr4
_chemical_formula_sum   'Nd16 Zn3 In1 Ir4'
_cell_volume   681.47166812
_cell_formula_units_Z   1
loop_
 _symmetry_equiv_pos_site_id
 _symmetry_equiv_pos_as_xyz
  1  'x, y, z'
loop_
 _atom_site_type_symbol
 _atom_site_label
 _atom_site_symmetry_multiplicity
 _atom_site_fract_x
 _atom_site_fract_y
 _atom_site_fract_z
 _atom_site_occupancy
  Nd  Nd0  1  0.099852  0.699464  0.100833  1
  Nd  Nd1  1  0.940741  0.940741  0.559476  1
  Nd  Nd2  1  0.942168  0.558205  0.941422  1
  Nd  Nd3  1  0.311886  0.689146  0.309824  1
  Nd  Nd4  1  0.940741  0.559043  0.559476  1
  Nd  Nd5  1  0.311854  0.311854  0.682139  1
  Nd  Nd6  1  0.099852  0.099852  0.100833  1
  Nd  Nd7  1  0.558205  0.558205  0.941422  1
  Nd  Nd8  1  0.100686  0.100686  0.697944  1
  Nd  Nd9  1  0.694153  0.311854  0.682139  1
  Nd  Nd10  1  0.689146  0.689146  0.309824  1
  Nd  Nd11  1  0.689146  0.311886  0.309824  1
  Nd  Nd12  1  0.311854  0.694153  0.682139  1
  Nd  Nd13  1  0.559043  0.940741  0.559476  1
  Nd  Nd14  1  0.699464  0.099852  0.100833  1
  Nd  Nd15  1  0.558205  0.942168  0.941422  1
  Zn  Zn16  1  0.327879  0.327879  0.331774  1
  Zn  Zn17  1  0.012468  0.327879  0.331774  1
  Zn  Zn18  1  0.327879  0.012468  0.331774  1
  In  In19  1  0.325463  0.325463  0.023610  1
  Ir  Ir20  1  0.892389  0.892389  0.892534  1
  Ir  Ir21  1  0.891854  0.891854  0.324439  1
  Ir  Ir22  1  0.322687  0.892389  0.892534  1
  Ir  Ir23  1  0.892389  0.322687  0.892534  1
