# generated using pymatgen
data_CeGaF6
_symmetry_space_group_name_H-M   'P 1'
_cell_length_a   5.97798176
_cell_length_b   5.97798136
_cell_length_c   5.97798100
_cell_angle_alpha   59.99999648
_cell_angle_beta   59.99999868
_cell_angle_gamma   59.99999373
_symmetry_Int_Tables_number   1
_chemical_formula_structural   CeGaF6
_chemical_formula_sum   'Ce1 Ga1 F6'
_cell_volume   151.05970722
_cell_formula_units_Z   1
loop_
 _symmetry_equiv_pos_site_id
 _symmetry_equiv_pos_as_xyz
  1  'x, y, z'
loop_
 _atom_site_type_symbol
 _atom_site_label
 _atom_site_symmetry_multiplicity
 _atom_site_fract_x
 _atom_site_fract_y
 _atom_site_fract_z
 _atom_site_occupancy
  Ce  Ce0  1  0.000000  0.000000  0.000000  1
  Ga  Ga1  1  0.500000  0.500000  0.500000  1
  F  F2  1  0.727090  0.272909  0.272909  1
  F  F3  1  0.272909  0.727090  0.272909  1
  F  F4  1  0.727090  0.727090  0.272909  1
  F  F5  1  0.272909  0.272909  0.727090  1
  F  F6  1  0.727090  0.272909  0.727090  1
  F  F7  1  0.272909  0.727090  0.727090  1
