# generated using pymatgen
data_HfZr2PtN
_symmetry_space_group_name_H-M   'P 1'
_cell_length_a   5.98029700
_cell_length_b   5.98029653
_cell_length_c   8.96214100
_cell_angle_alpha   90.00000000
_cell_angle_beta   90.00000000
_cell_angle_gamma   147.69013267
_symmetry_Int_Tables_number   1
_chemical_formula_structural   HfZr2PtN
_chemical_formula_sum   'Hf2 Zr4 Pt2 N2'
_cell_volume   171.31810263
_cell_formula_units_Z   2
loop_
 _symmetry_equiv_pos_site_id
 _symmetry_equiv_pos_as_xyz
  1  'x, y, z'
loop_
 _atom_site_type_symbol
 _atom_site_label
 _atom_site_symmetry_multiplicity
 _atom_site_fract_x
 _atom_site_fract_y
 _atom_site_fract_z
 _atom_site_occupancy
  Hf  Hf0  1  0.372107  0.627891  0.554610  1
  Hf  Hf1  1  0.372107  0.627891  0.945390  1
  Zr  Zr2  1  0.628807  0.371191  0.052473  1
  Zr  Zr3  1  0.947087  0.052911  0.250000  1
  Zr  Zr4  1  0.628807  0.371191  0.447527  1
  Zr  Zr5  1  0.052958  0.947040  0.750000  1
  Pt  Pt6  1  0.251292  0.748706  0.250000  1
  Pt  Pt7  1  0.753459  0.246539  0.750000  1
  N  N8  1  0.996685  0.003315  0.999089  1
  N  N9  1  0.996685  0.003315  0.500911  1
