# generated using pymatgen
data_Lu12FeCoTc2
_symmetry_space_group_name_H-M   'P 1'
_cell_length_a   6.10172998
_cell_length_b   7.13390567
_cell_length_c   8.87596100
_cell_angle_alpha   90.00000000
_cell_angle_beta   90.00000000
_cell_angle_gamma   90.00769401
_symmetry_Int_Tables_number   1
_chemical_formula_structural   Lu12FeCoTc2
_chemical_formula_sum   'Lu12 Fe1 Co1 Tc2'
_cell_volume   386.36317715
_cell_formula_units_Z   1
loop_
 _symmetry_equiv_pos_site_id
 _symmetry_equiv_pos_as_xyz
  1  'x, y, z'
loop_
 _atom_site_type_symbol
 _atom_site_label
 _atom_site_symmetry_multiplicity
 _atom_site_fract_x
 _atom_site_fract_y
 _atom_site_fract_z
 _atom_site_occupancy
  Lu  Lu0  1  0.327983  0.681634  0.064630  1
  Lu  Lu1  1  0.162749  0.171605  0.436694  1
  Lu  Lu2  1  0.663873  0.326727  0.562739  1
  Lu  Lu3  1  0.831018  0.819900  0.938168  1
  Lu  Lu4  1  0.663873  0.326727  0.937261  1
  Lu  Lu5  1  0.831018  0.819900  0.561832  1
  Lu  Lu6  1  0.327983  0.681634  0.435370  1
  Lu  Lu7  1  0.162749  0.171605  0.063306  1
  Lu  Lu8  1  0.877347  0.545744  0.250000  1
  Lu  Lu9  1  0.634051  0.039240  0.250000  1
  Lu  Lu10  1  0.139850  0.459912  0.750000  1
  Lu  Lu11  1  0.376937  0.953749  0.750000  1
  Fe  Fe12  1  0.037055  0.884167  0.250000  1
  Co  Co13  1  0.538363  0.616257  0.750000  1
  Tc  Tc14  1  0.461244  0.388728  0.250000  1
  Tc  Tc15  1  0.963905  0.112469  0.750000  1
