# generated using pymatgen
data_La5Ce4Sm3(Si7Br3)2
_symmetry_space_group_name_H-M   'P 1'
_cell_length_a   4.09646400
_cell_length_b   11.86711200
_cell_length_c   16.61794500
_cell_angle_alpha   90.00000000
_cell_angle_beta   90.00000000
_cell_angle_gamma   90.00000000
_symmetry_Int_Tables_number   1
_chemical_formula_structural   La5Ce4Sm3(Si7Br3)2
_chemical_formula_sum   'La5 Ce4 Sm3 Si14 Br6'
_cell_volume   807.85143555
_cell_formula_units_Z   1
loop_
 _symmetry_equiv_pos_site_id
 _symmetry_equiv_pos_as_xyz
  1  'x, y, z'
loop_
 _atom_site_type_symbol
 _atom_site_label
 _atom_site_symmetry_multiplicity
 _atom_site_fract_x
 _atom_site_fract_y
 _atom_site_fract_z
 _atom_site_occupancy
  La  La0  1  0.000000  0.661602  0.000000  1
  La  La1  1  0.500000  0.066989  0.878558  1
  La  La2  1  0.000000  0.933625  0.621066  1
  La  La3  1  0.500000  0.066989  0.121442  1
  La  La4  1  0.000000  0.933625  0.378934  1
  Ce  Ce5  1  0.500000  0.361999  0.756223  1
  Ce  Ce6  1  0.500000  0.361999  0.243777  1
  Ce  Ce7  1  0.500000  0.361763  0.000000  1
  Ce  Ce8  1  0.000000  0.639156  0.500000  1
  Sm  Sm9  1  0.500000  0.345515  0.500000  1
  Sm  Sm10  1  0.000000  0.635018  0.740296  1
  Sm  Sm11  1  0.000000  0.635018  0.259704  1
  Si  Si12  1  0.000000  0.158990  0.000000  1
  Si  Si13  1  0.500000  0.840893  0.500000  1
  Si  Si14  1  0.500000  0.568277  0.874227  1
  Si  Si15  1  0.000000  0.428867  0.624184  1
  Si  Si16  1  0.500000  0.568277  0.125773  1
  Si  Si17  1  0.000000  0.428867  0.375816  1
  Si  Si18  1  0.000000  0.258842  0.873798  1
  Si  Si19  1  0.500000  0.741397  0.625510  1
  Si  Si20  1  0.000000  0.258842  0.126202  1
  Si  Si21  1  0.500000  0.741397  0.374490  1
  Si  Si22  1  0.000000  0.460438  0.876597  1
  Si  Si23  1  0.500000  0.538053  0.621356  1
  Si  Si24  1  0.500000  0.538053  0.378644  1
  Si  Si25  1  0.000000  0.460438  0.123403  1
  Br  Br26  1  0.500000  0.114395  0.691841  1
  Br  Br27  1  0.000000  0.883726  0.807991  1
  Br  Br28  1  0.000000  0.143991  0.500000  1
  Br  Br29  1  0.500000  0.864835  0.000000  1
  Br  Br30  1  0.500000  0.114395  0.308159  1
  Br  Br31  1  0.000000  0.883726  0.192009  1
