# generated using pymatgen
data_Tb10Ce2Tc3Os
_symmetry_space_group_name_H-M   'P 1'
_cell_length_a   6.38018444
_cell_length_b   7.35430121
_cell_length_c   9.34713400
_cell_angle_alpha   90.00000000
_cell_angle_beta   90.00000000
_cell_angle_gamma   92.38679463
_symmetry_Int_Tables_number   1
_chemical_formula_structural   Tb10Ce2Tc3Os
_chemical_formula_sum   'Tb10 Ce2 Tc3 Os1'
_cell_volume   438.20384287
_cell_formula_units_Z   1
loop_
 _symmetry_equiv_pos_site_id
 _symmetry_equiv_pos_as_xyz
  1  'x, y, z'
loop_
 _atom_site_type_symbol
 _atom_site_label
 _atom_site_symmetry_multiplicity
 _atom_site_fract_x
 _atom_site_fract_y
 _atom_site_fract_z
 _atom_site_occupancy
  Tb  Tb0  1  0.331776  0.673962  0.062188  1
  Tb  Tb1  1  0.163723  0.177539  0.432504  1
  Tb  Tb2  1  0.665802  0.326621  0.562792  1
  Tb  Tb3  1  0.832203  0.820055  0.932867  1
  Tb  Tb4  1  0.665802  0.326621  0.937208  1
  Tb  Tb5  1  0.832203  0.820055  0.567133  1
  Tb  Tb6  1  0.331776  0.673962  0.437812  1
  Tb  Tb7  1  0.163723  0.177539  0.067496  1
  Tb  Tb8  1  0.627589  0.039985  0.250000  1
  Tb  Tb9  1  0.371329  0.959365  0.750000  1
  Ce  Ce10  1  0.855089  0.561814  0.250000  1
  Ce  Ce11  1  0.139616  0.434939  0.750000  1
  Tc  Tc12  1  0.017302  0.859911  0.250000  1
  Tc  Tc13  1  0.498835  0.391478  0.250000  1
  Tc  Tc14  1  0.980074  0.142392  0.750000  1
  Os  Os15  1  0.523155  0.613763  0.750000  1
