# generated using pymatgen
data_Er3Lu2InSb2
_symmetry_space_group_name_H-M   'P 1'
_cell_length_a   8.85422689
_cell_length_b   8.85467864
_cell_length_c   6.34206800
_cell_angle_alpha   90.00000000
_cell_angle_beta   90.00000000
_cell_angle_gamma   120.00168112
_symmetry_Int_Tables_number   1
_chemical_formula_structural   Er3Lu2InSb2
_chemical_formula_sum   'Er6 Lu4 In2 Sb4'
_cell_volume   430.60356331
_cell_formula_units_Z   2
loop_
 _symmetry_equiv_pos_site_id
 _symmetry_equiv_pos_as_xyz
  1  'x, y, z'
loop_
 _atom_site_type_symbol
 _atom_site_label
 _atom_site_symmetry_multiplicity
 _atom_site_fract_x
 _atom_site_fract_y
 _atom_site_fract_z
 _atom_site_occupancy
  Er  Er0  1  0.002680  0.760537  0.750000  1
  Er  Er1  1  0.002680  0.242144  0.250000  1
  Er  Er2  1  0.758113  0.759550  0.250000  1
  Er  Er3  1  0.758113  0.998563  0.750000  1
  Er  Er4  1  0.240930  0.237084  0.750000  1
  Er  Er5  1  0.240930  0.003847  0.250000  1
  Lu  Lu6  1  0.334509  0.667255  0.500000  1
  Lu  Lu7  1  0.663284  0.331641  0.000000  1
  Lu  Lu8  1  0.663284  0.331641  0.500000  1
  Lu  Lu9  1  0.334509  0.667255  0.000000  1
  In  In10  1  0.395798  0.998044  0.750000  1
  In  In11  1  0.395798  0.397753  0.250000  1
  Sb  Sb12  1  0.999019  0.606456  0.250000  1
  Sb  Sb13  1  0.999019  0.392563  0.750000  1
  Sb  Sb14  1  0.605667  0.605194  0.750000  1
  Sb  Sb15  1  0.605667  0.000472  0.250000  1
