# generated using pymatgen
data_Zr(Ti3Pb2)2
_symmetry_space_group_name_H-M   'P 1'
_cell_length_a   8.39442221
_cell_length_b   8.39442149
_cell_length_c   8.39442246
_cell_angle_alpha   40.33059260
_cell_angle_beta   40.33059713
_cell_angle_gamma   40.33059921
_symmetry_Int_Tables_number   1
_chemical_formula_structural   Zr(Ti3Pb2)2
_chemical_formula_sum   'Zr1 Ti6 Pb4'
_cell_volume   223.38812569
_cell_formula_units_Z   1
loop_
 _symmetry_equiv_pos_site_id
 _symmetry_equiv_pos_as_xyz
  1  'x, y, z'
loop_
 _atom_site_type_symbol
 _atom_site_label
 _atom_site_symmetry_multiplicity
 _atom_site_fract_x
 _atom_site_fract_y
 _atom_site_fract_z
 _atom_site_occupancy
  Zr  Zr0  1  0.000000  0.000000  0.000000  1
  Ti  Ti1  1  0.600507  0.600507  0.118226  1
  Ti  Ti2  1  0.881775  0.399492  0.399493  1
  Ti  Ti3  1  0.399492  0.881775  0.399493  1
  Ti  Ti4  1  0.600508  0.118225  0.600507  1
  Ti  Ti5  1  0.118225  0.600508  0.600507  1
  Ti  Ti6  1  0.399493  0.399493  0.881774  1
  Pb  Pb7  1  0.125154  0.125154  0.125154  1
  Pb  Pb8  1  0.331737  0.331737  0.331737  1
  Pb  Pb9  1  0.668263  0.668263  0.668263  1
  Pb  Pb10  1  0.874846  0.874846  0.874846  1
