# generated using pymatgen
data_Ho8Ga12Pd3Au
_symmetry_space_group_name_H-M   'P 1'
_cell_length_a   7.02902400
_cell_length_b   8.87529704
_cell_length_c   8.87529700
_cell_angle_alpha   119.99999613
_cell_angle_beta   90.00000000
_cell_angle_gamma   90.00000000
_symmetry_Int_Tables_number   1
_chemical_formula_structural   Ho8Ga12Pd3Au
_chemical_formula_sum   'Ho8 Ga12 Pd3 Au1'
_cell_volume   479.50315245
_cell_formula_units_Z   1
loop_
 _symmetry_equiv_pos_site_id
 _symmetry_equiv_pos_as_xyz
  1  'x, y, z'
loop_
 _atom_site_type_symbol
 _atom_site_label
 _atom_site_symmetry_multiplicity
 _atom_site_fract_x
 _atom_site_fract_y
 _atom_site_fract_z
 _atom_site_occupancy
  Ho  Ho0  1  0.754395  0.999999  0.000018  1
  Ho  Ho1  1  0.249861  0.999999  0.999981  1
  Ho  Ho2  1  0.750844  0.482134  0.517867  1
  Ho  Ho3  1  0.247155  0.515151  0.484856  1
  Ho  Ho4  1  0.750843  0.035732  0.517862  1
  Ho  Ho5  1  0.247154  0.969701  0.484861  1
  Ho  Ho6  1  0.750843  0.482146  0.964286  1
  Ho  Ho7  1  0.247152  0.515137  0.030284  1
  Ga  Ga8  1  0.959084  0.832509  0.167484  1
  Ga  Ga9  1  0.040642  0.166687  0.833321  1
  Ga  Ga10  1  0.959090  0.334972  0.167480  1
  Ga  Ga11  1  0.455620  0.167532  0.832480  1
  Ga  Ga12  1  0.040637  0.666636  0.833324  1
  Ga  Ga13  1  0.543016  0.836500  0.163484  1
  Ga  Ga14  1  0.959102  0.832516  0.665027  1
  Ga  Ga15  1  0.455625  0.664953  0.832485  1
  Ga  Ga16  1  0.040626  0.166680  0.333364  1
  Ga  Ga17  1  0.543011  0.326975  0.163477  1
  Ga  Ga18  1  0.455640  0.167521  0.335047  1
  Ga  Ga19  1  0.542993  0.836516  0.673023  1
  Pd  Pd20  1  0.971725  0.666657  0.333336  1
  Pd  Pd21  1  0.029542  0.333344  0.666660  1
  Pd  Pd22  1  0.469610  0.333343  0.666660  1
  Au  Au23  1  0.535787  0.666660  0.333333  1
