# generated using pymatgen
data_Yb2SmCd3PdPt2
_symmetry_space_group_name_H-M   'P 1'
_cell_length_a   7.56070974
_cell_length_b   7.62582733
_cell_length_c   4.05685500
_cell_angle_alpha   90.00000000
_cell_angle_beta   90.00000000
_cell_angle_gamma   120.28531180
_symmetry_Int_Tables_number   1
_chemical_formula_structural   Yb2SmCd3PdPt2
_chemical_formula_sum   'Yb2 Sm1 Cd3 Pd1 Pt2'
_cell_volume   201.98255622
_cell_formula_units_Z   1
loop_
 _symmetry_equiv_pos_site_id
 _symmetry_equiv_pos_as_xyz
  1  'x, y, z'
loop_
 _atom_site_type_symbol
 _atom_site_label
 _atom_site_symmetry_multiplicity
 _atom_site_fract_x
 _atom_site_fract_y
 _atom_site_fract_z
 _atom_site_occupancy
  Yb  Yb0  1  0.407136  0.406871  0.500000  1
  Yb  Yb1  1  0.592864  0.999735  0.500000  1
  Sm  Sm2  1  0.000000  0.589792  0.500000  1
  Cd  Cd3  1  0.740143  0.745796  0.000000  1
  Cd  Cd4  1  0.259857  0.005652  0.000000  1
  Cd  Cd5  1  0.000000  0.249645  0.000000  1
  Pd  Pd6  1  0.000000  0.998402  0.500000  1
  Pt  Pt7  1  0.671385  0.337746  0.000000  1
  Pt  Pt8  1  0.328615  0.666361  0.000000  1
