# generated using pymatgen
data_Ho2Mn8VFeP6
_symmetry_space_group_name_H-M   'P 1'
_cell_length_a   3.59355400
_cell_length_b   10.66025569
_cell_length_c   12.22700638
_cell_angle_alpha   90.11776548
_cell_angle_beta   90.00000000
_cell_angle_gamma   90.00000000
_symmetry_Int_Tables_number   1
_chemical_formula_structural   Ho2Mn8VFeP6
_chemical_formula_sum   'Ho4 Mn16 V2 Fe2 P12'
_cell_volume   468.39367143
_cell_formula_units_Z   2
loop_
 _symmetry_equiv_pos_site_id
 _symmetry_equiv_pos_as_xyz
  1  'x, y, z'
loop_
 _atom_site_type_symbol
 _atom_site_label
 _atom_site_symmetry_multiplicity
 _atom_site_fract_x
 _atom_site_fract_y
 _atom_site_fract_z
 _atom_site_occupancy
  Ho  Ho0  1  0.250000  0.586975  0.707030  1
  Ho  Ho1  1  0.250000  0.913100  0.206455  1
  Ho  Ho2  1  0.750000  0.415164  0.291358  1
  Ho  Ho3  1  0.750000  0.084960  0.793936  1
  Mn  Mn4  1  0.250000  0.784407  0.483409  1
  Mn  Mn5  1  0.750000  0.214861  0.517644  1
  Mn  Mn6  1  0.250000  0.409765  0.493913  1
  Mn  Mn7  1  0.250000  0.088582  0.993187  1
  Mn  Mn8  1  0.750000  0.591475  0.506086  1
  Mn  Mn9  1  0.750000  0.909124  0.007068  1
  Mn  Mn10  1  0.250000  0.214587  0.181197  1
  Mn  Mn11  1  0.250000  0.286423  0.678320  1
  Mn  Mn12  1  0.750000  0.786585  0.817726  1
  Mn  Mn13  1  0.750000  0.713096  0.321475  1
  Mn  Mn14  1  0.250000  0.882849  0.691498  1
  Mn  Mn15  1  0.250000  0.619131  0.196030  1
  Mn  Mn16  1  0.750000  0.118258  0.307579  1
  Mn  Mn17  1  0.750000  0.380801  0.803747  1
  Mn  Mn18  1  0.250000  0.464744  0.933465  1
  Mn  Mn19  1  0.250000  0.034518  0.434852  1
  V  V20  1  0.250000  0.704775  0.985323  1
  V  V21  1  0.750000  0.293792  0.017019  1
  Fe  Fe22  1  0.750000  0.535044  0.064560  1
  Fe  Fe23  1  0.750000  0.966610  0.566638  1
  P  P24  1  0.250000  0.418183  0.115321  1
  P  P25  1  0.250000  0.085859  0.614718  1
  P  P26  1  0.750000  0.585293  0.884421  1
  P  P27  1  0.750000  0.912711  0.386667  1
  P  P28  1  0.250000  0.262823  0.873256  1
  P  P29  1  0.250000  0.237120  0.375261  1
  P  P30  1  0.750000  0.734068  0.126791  1
  P  P31  1  0.750000  0.765800  0.623845  1
  P  P32  1  0.250000  0.590315  0.385088  1
  P  P33  1  0.250000  0.905419  0.883635  1
  P  P34  1  0.750000  0.410298  0.614770  1
  P  P35  1  0.750000  0.092486  0.116715  1
