# generated using pymatgen
data_Ho2Fe9P7W3
_symmetry_space_group_name_H-M   'P 1'
_cell_length_a   9.14198501
_cell_length_b   9.14160286
_cell_length_c   3.70171600
_cell_angle_alpha   90.00000000
_cell_angle_beta   90.00000000
_cell_angle_gamma   120.00591393
_symmetry_Int_Tables_number   1
_chemical_formula_structural   Ho2Fe9P7W3
_chemical_formula_sum   'Ho2 Fe9 P7 W3'
_cell_volume   267.89875730
_cell_formula_units_Z   1
loop_
 _symmetry_equiv_pos_site_id
 _symmetry_equiv_pos_as_xyz
  1  'x, y, z'
loop_
 _atom_site_type_symbol
 _atom_site_label
 _atom_site_symmetry_multiplicity
 _atom_site_fract_x
 _atom_site_fract_y
 _atom_site_fract_z
 _atom_site_occupancy
  Ho  Ho0  1  0.666630  0.333428  0.499997  1
  Ho  Ho1  1  0.333429  0.666618  0.000000  1
  Fe  Fe2  1  0.427058  0.053575  0.000000  1
  Fe  Fe3  1  0.946383  0.373426  0.000000  1
  Fe  Fe4  1  0.626657  0.572988  0.000000  1
  Fe  Fe5  1  0.390913  0.438796  0.499997  1
  Fe  Fe6  1  0.561152  0.952088  0.499997  1
  Fe  Fe7  1  0.047862  0.609117  0.499997  1
  Fe  Fe8  1  0.158346  0.275742  0.000000  1
  Fe  Fe9  1  0.724220  0.882498  0.000000  1
  Fe  Fe10  1  0.117419  0.841741  0.000000  1
  P  P11  1  0.126702  0.411546  0.499997  1
  P  P12  1  0.588478  0.715098  0.499997  1
  P  P13  1  0.284870  0.873263  0.499997  1
  P  P14  1  0.999939  0.999911  0.000000  1
  P  P15  1  0.414844  0.304129  0.000000  1
  P  P16  1  0.696080  0.110901  0.000000  1
  P  P17  1  0.889052  0.585163  0.000000  1
  W  W18  1  0.222376  0.101624  0.499997  1
  W  W19  1  0.898341  0.120606  0.499997  1
  W  W20  1  0.879249  0.777745  0.499997  1
