# generated using pymatgen
data_CaTb4Dy2CoI12
_symmetry_space_group_name_H-M   'P 1'
_cell_length_a   9.70302970
_cell_length_b   9.80100754
_cell_length_c   9.79602954
_cell_angle_alpha   106.80382850
_cell_angle_beta   107.05542449
_cell_angle_gamma   106.73305301
_symmetry_Int_Tables_number   1
_chemical_formula_structural   CaTb4Dy2CoI12
_chemical_formula_sum   'Ca1 Tb4 Dy2 Co1 I12'
_cell_volume   778.69603457
_cell_formula_units_Z   1
loop_
 _symmetry_equiv_pos_site_id
 _symmetry_equiv_pos_as_xyz
  1  'x, y, z'
loop_
 _atom_site_type_symbol
 _atom_site_label
 _atom_site_symmetry_multiplicity
 _atom_site_fract_x
 _atom_site_fract_y
 _atom_site_fract_z
 _atom_site_occupancy
  Ca  Ca0  1  0.500005  0.500039  0.500034  1
  Tb  Tb1  1  0.283855  0.022708  0.091908  1
  Tb  Tb2  1  0.976848  0.904362  0.703966  1
  Tb  Tb3  1  0.904491  0.704245  0.976350  1
  Tb  Tb4  1  0.716320  0.977716  0.908604  1
  Dy  Dy5  1  0.023326  0.095819  0.294873  1
  Dy  Dy6  1  0.095192  0.294635  0.023911  1
  Co  Co7  1  0.000049  0.999882  0.999965  1
  I  I8  1  0.148595  0.456006  0.377357  1
  I  I9  1  0.456312  0.377403  0.149653  1
  I  I10  1  0.377852  0.149474  0.455917  1
  I  I11  1  0.850912  0.542996  0.621893  1
  I  I12  1  0.542700  0.622684  0.849939  1
  I  I13  1  0.621270  0.850504  0.544119  1
  I  I14  1  0.679583  0.072256  0.223272  1
  I  I15  1  0.072582  0.224447  0.679431  1
  I  I16  1  0.225450  0.679736  0.073009  1
  I  I17  1  0.321362  0.927983  0.777365  1
  I  I18  1  0.927815  0.777102  0.321199  1
  I  I19  1  0.775481  0.320003  0.927236  1
