# generated using pymatgen
data_Tb3TmOsRu7
_symmetry_space_group_name_H-M   'P 1'
_cell_length_a   5.21001289
_cell_length_b   5.37552440
_cell_length_c   8.97972000
_cell_angle_alpha   90.00000000
_cell_angle_beta   90.10584853
_cell_angle_gamma   121.05655165
_symmetry_Int_Tables_number   1
_chemical_formula_structural   Tb3TmOsRu7
_chemical_formula_sum   'Tb3 Tm1 Os1 Ru7'
_cell_volume   215.44140165
_cell_formula_units_Z   1
loop_
 _symmetry_equiv_pos_site_id
 _symmetry_equiv_pos_as_xyz
  1  'x, y, z'
loop_
 _atom_site_type_symbol
 _atom_site_label
 _atom_site_symmetry_multiplicity
 _atom_site_fract_x
 _atom_site_fract_y
 _atom_site_fract_z
 _atom_site_occupancy
  Tb  Tb0  1  0.330337  0.665168  0.432660  1
  Tb  Tb1  1  0.661236  0.330618  0.566477  1
  Tb  Tb2  1  0.660457  0.330228  0.934207  1
  Tm  Tm3  1  0.331244  0.665623  0.067345  1
  Os  Os4  1  0.674431  0.837216  0.750979  1
  Ru  Ru5  1  0.988456  0.994229  0.500268  1
  Ru  Ru6  1  0.986330  0.993165  0.000431  1
  Ru  Ru7  1  0.830904  0.167478  0.248536  1
  Ru  Ru8  1  0.830904  0.663427  0.248536  1
  Ru  Ru9  1  0.347406  0.173703  0.248670  1
  Ru  Ru10  1  0.179147  0.829228  0.750946  1
  Ru  Ru11  1  0.179147  0.349919  0.750946  1
