# generated using pymatgen
data_Y15HoCd4Ir3Os
_symmetry_space_group_name_H-M   'P 1'
_cell_length_a   9.72688787
_cell_length_b   9.72630278
_cell_length_c   9.72584426
_cell_angle_alpha   59.48063424
_cell_angle_beta   59.47142538
_cell_angle_gamma   59.48225957
_symmetry_Int_Tables_number   1
_chemical_formula_structural   Y15HoCd4Ir3Os
_chemical_formula_sum   'Y15 Ho1 Cd4 Ir3 Os1'
_cell_volume   642.90635029
_cell_formula_units_Z   1
loop_
 _symmetry_equiv_pos_site_id
 _symmetry_equiv_pos_as_xyz
  1  'x, y, z'
loop_
 _atom_site_type_symbol
 _atom_site_label
 _atom_site_symmetry_multiplicity
 _atom_site_fract_x
 _atom_site_fract_y
 _atom_site_fract_z
 _atom_site_occupancy
  Y  Y0  1  0.348690  0.348672  0.956352  1
  Y  Y1  1  0.348729  0.956315  0.348683  1
  Y  Y2  1  0.956307  0.348712  0.348691  1
  Y  Y3  1  0.811285  0.189320  0.189331  1
  Y  Y4  1  0.187965  0.809428  0.809460  1
  Y  Y5  1  0.189326  0.811265  0.189315  1
  Y  Y6  1  0.809444  0.187962  0.809466  1
  Y  Y7  1  0.189337  0.189307  0.811282  1
  Y  Y8  1  0.809448  0.809433  0.187951  1
  Y  Y9  1  0.938688  0.561405  0.561402  1
  Y  Y10  1  0.557862  0.938703  0.938743  1
  Y  Y11  1  0.561385  0.938665  0.561412  1
  Y  Y12  1  0.938693  0.557919  0.938701  1
  Y  Y13  1  0.561407  0.561431  0.938683  1
  Y  Y14  1  0.938743  0.938714  0.557874  1
  Ho  Ho15  1  0.348999  0.349017  0.348987  1
  Cd  Cd16  1  0.579690  0.579701  0.579663  1
  Cd  Cd17  1  0.580239  0.580250  0.257638  1
  Cd  Cd18  1  0.580246  0.257632  0.580250  1
  Cd  Cd19  1  0.257619  0.580259  0.580249  1
  Ir  Ir20  1  0.143947  0.143961  0.576334  1
  Ir  Ir21  1  0.143953  0.576333  0.143957  1
  Ir  Ir22  1  0.576343  0.143954  0.143941  1
  Os  Os23  1  0.141656  0.141643  0.141635  1
