# generated using pymatgen
data_Ho3PaPtRh3
_symmetry_space_group_name_H-M   'P 1'
_cell_length_a   4.38000700
_cell_length_b   5.53143776
_cell_length_c   7.00799700
_cell_angle_alpha   91.01897390
_cell_angle_beta   90.00000000
_cell_angle_gamma   90.00000000
_symmetry_Int_Tables_number   1
_chemical_formula_structural   Ho3PaPtRh3
_chemical_formula_sum   'Ho3 Pa1 Pt1 Rh3'
_cell_volume   169.76105192
_cell_formula_units_Z   1
loop_
 _symmetry_equiv_pos_site_id
 _symmetry_equiv_pos_as_xyz
  1  'x, y, z'
loop_
 _atom_site_type_symbol
 _atom_site_label
 _atom_site_symmetry_multiplicity
 _atom_site_fract_x
 _atom_site_fract_y
 _atom_site_fract_z
 _atom_site_occupancy
  Ho  Ho0  1  0.250000  0.146531  0.184199  1
  Ho  Ho1  1  0.750000  0.646882  0.317663  1
  Ho  Ho2  1  0.750000  0.855004  0.823963  1
  Pa  Pa3  1  0.250000  0.363858  0.674505  1
  Pt  Pt4  1  0.250000  0.650014  0.044160  1
  Rh  Rh5  1  0.250000  0.825659  0.555378  1
  Rh  Rh6  1  0.750000  0.170796  0.480706  1
  Rh  Rh7  1  0.750000  0.341257  0.919426  1
