# generated using pymatgen
data_Zr3InFe8
_symmetry_space_group_name_H-M   'P 1'
_cell_length_a   8.61183564
_cell_length_b   8.61183599
_cell_length_c   8.61183601
_cell_angle_alpha   33.44643073
_cell_angle_beta   33.44642672
_cell_angle_gamma   33.44642958
_symmetry_Int_Tables_number   1
_chemical_formula_structural   Zr3InFe8
_chemical_formula_sum   'Zr3 In1 Fe8'
_cell_volume   172.78333767
_cell_formula_units_Z   1
loop_
 _symmetry_equiv_pos_site_id
 _symmetry_equiv_pos_as_xyz
  1  'x, y, z'
loop_
 _atom_site_type_symbol
 _atom_site_label
 _atom_site_symmetry_multiplicity
 _atom_site_fract_x
 _atom_site_fract_y
 _atom_site_fract_z
 _atom_site_occupancy
  Zr  Zr0  1  0.375590  0.375590  0.375590  1
  Zr  Zr1  1  0.997938  0.997938  0.997938  1
  Zr  Zr2  1  0.501623  0.501623  0.501623  1
  In  In3  1  0.873808  0.873808  0.873808  1
  Fe  Fe4  1  0.437595  0.939210  0.437595  1
  Fe  Fe5  1  0.937467  0.436528  0.937467  1
  Fe  Fe6  1  0.437595  0.437595  0.939210  1
  Fe  Fe7  1  0.937467  0.937467  0.436528  1
  Fe  Fe8  1  0.187270  0.187270  0.187270  1
  Fe  Fe9  1  0.687908  0.687908  0.687908  1
  Fe  Fe10  1  0.939210  0.437595  0.437595  1
  Fe  Fe11  1  0.436528  0.937467  0.937467  1
