# generated using pymatgen
data_Ho4LuRu2
_symmetry_space_group_name_H-M   'P 1'
_cell_length_a   6.28678640
_cell_length_b   7.24318708
_cell_length_c   8.41309306
_cell_angle_alpha   96.80483725
_cell_angle_beta   111.93972798
_cell_angle_gamma   89.99999893
_symmetry_Int_Tables_number   1
_chemical_formula_structural   Ho4LuRu2
_chemical_formula_sum   'Ho8 Lu2 Ru4'
_cell_volume   352.44535457
_cell_formula_units_Z   2
loop_
 _symmetry_equiv_pos_site_id
 _symmetry_equiv_pos_as_xyz
  1  'x, y, z'
loop_
 _atom_site_type_symbol
 _atom_site_label
 _atom_site_symmetry_multiplicity
 _atom_site_fract_x
 _atom_site_fract_y
 _atom_site_fract_z
 _atom_site_occupancy
  Ho  Ho0  1  0.522543  0.083774  0.813811  1
  Ho  Ho1  1  0.477457  0.916226  0.186189  1
  Ho  Ho2  1  0.708732  0.416226  0.186189  1
  Ho  Ho3  1  0.291268  0.583774  0.813811  1
  Ho  Ho4  1  0.298589  0.312820  0.432247  1
  Ho  Ho5  1  0.701411  0.687180  0.567753  1
  Ho  Ho6  1  0.866344  0.187180  0.567753  1
  Ho  Ho7  1  0.133656  0.812820  0.432247  1
  Lu  Lu8  1  0.078717  0.250000  0.000000  1
  Lu  Lu9  1  0.921283  0.750000  0.000000  1
  Ru  Ru10  1  0.319647  0.576397  0.218862  1
  Ru  Ru11  1  0.680353  0.423603  0.781138  1
  Ru  Ru12  1  0.100786  0.923603  0.781138  1
  Ru  Ru13  1  0.899214  0.076397  0.218862  1
