# generated using pymatgen
data_Nd8AsSI12
_symmetry_space_group_name_H-M   'P 1'
_cell_length_a   4.37717900
_cell_length_b   14.42583756
_cell_length_c   15.24412000
_cell_angle_alpha   90.06240013
_cell_angle_beta   90.00000000
_cell_angle_gamma   90.00000000
_symmetry_Int_Tables_number   1
_chemical_formula_structural   Nd8AsSI12
_chemical_formula_sum   'Nd8 As1 S1 I12'
_cell_volume   962.58135600
_cell_formula_units_Z   1
loop_
 _symmetry_equiv_pos_site_id
 _symmetry_equiv_pos_as_xyz
  1  'x, y, z'
loop_
 _atom_site_type_symbol
 _atom_site_label
 _atom_site_symmetry_multiplicity
 _atom_site_fract_x
 _atom_site_fract_y
 _atom_site_fract_z
 _atom_site_occupancy
  Nd  Nd0  1  0.500000  0.115763  0.345637  1
  Nd  Nd1  1  0.500000  0.884237  0.654363  1
  Nd  Nd2  1  0.500000  0.611046  0.147429  1
  Nd  Nd3  1  0.500000  0.388954  0.852571  1
  Nd  Nd4  1  0.000000  0.111655  0.574901  1
  Nd  Nd5  1  0.000000  0.888345  0.425099  1
  Nd  Nd6  1  0.000000  0.605712  0.929108  1
  Nd  Nd7  1  0.000000  0.394288  0.070892  1
  As  As8  1  0.500000  0.000000  0.500000  1
  S  S9  1  0.500000  0.500000  0.000000  1
  I  I10  1  0.500000  0.250372  0.160014  1
  I  I11  1  0.500000  0.749628  0.839986  1
  I  I12  1  0.500000  0.745256  0.337186  1
  I  I13  1  0.500000  0.254744  0.662814  1
  I  I14  1  0.000000  0.258439  0.414703  1
  I  I15  1  0.000000  0.741561  0.585297  1
  I  I16  1  0.000000  0.756077  0.083853  1
  I  I17  1  0.000000  0.243923  0.916147  1
  I  I18  1  0.000000  0.999216  0.240739  1
  I  I19  1  0.000000  0.000784  0.759261  1
  I  I20  1  0.000000  0.499002  0.256217  1
  I  I21  1  0.000000  0.500998  0.743783  1
