# generated using pymatgen
data_Pr4NdYTa2O14
_symmetry_space_group_name_H-M   'P 1'
_cell_length_a   6.70230674
_cell_length_b   6.68172513
_cell_length_c   7.72445800
_cell_angle_alpha   90.00000000
_cell_angle_beta   90.00000000
_cell_angle_gamma   108.73719731
_symmetry_Int_Tables_number   1
_chemical_formula_structural   Pr4NdYTa2O14
_chemical_formula_sum   'Pr4 Nd1 Y1 Ta2 O14'
_cell_volume   327.59086792
_cell_formula_units_Z   1
loop_
 _symmetry_equiv_pos_site_id
 _symmetry_equiv_pos_as_xyz
  1  'x, y, z'
loop_
 _atom_site_type_symbol
 _atom_site_label
 _atom_site_symmetry_multiplicity
 _atom_site_fract_x
 _atom_site_fract_y
 _atom_site_fract_z
 _atom_site_occupancy
  Pr  Pr0  1  0.535190  0.528831  0.499166  1
  Pr  Pr1  1  0.535190  0.528831  0.000834  1
  Pr  Pr2  1  0.007599  0.461610  0.750000  1
  Pr  Pr3  1  0.462507  0.004519  0.250000  1
  Nd  Nd4  1  0.532387  0.003717  0.750000  1
  Y  Y5  1  0.003752  0.530165  0.250000  1
  Ta  Ta6  1  0.000733  0.000958  0.498031  1
  Ta  Ta7  1  0.000733  0.000958  0.001969  1
  O  O8  1  0.945121  0.054700  0.750000  1
  O  O9  1  0.057234  0.936868  0.250000  1
  O  O10  1  0.353161  0.633796  0.250000  1
  O  O11  1  0.641841  0.367085  0.750000  1
  O  O12  1  0.374158  0.634109  0.750000  1
  O  O13  1  0.646167  0.378581  0.250000  1
  O  O14  1  0.306534  0.068209  0.968187  1
  O  O15  1  0.679700  0.919651  0.474118  1
  O  O16  1  0.306534  0.068209  0.531813  1
  O  O17  1  0.679700  0.919651  0.025882  1
  O  O18  1  0.034962  0.298286  0.458364  1
  O  O19  1  0.930918  0.681491  0.976998  1
  O  O20  1  0.930918  0.681491  0.523002  1
  O  O21  1  0.034962  0.298286  0.041636  1
