# generated using pymatgen
data_Y12Si11Hg
_symmetry_space_group_name_H-M   'P 1'
_cell_length_a   3.91512900
_cell_length_b   5.76786790
_cell_length_c   24.12839500
_cell_angle_alpha   82.42397501
_cell_angle_beta   90.00000000
_cell_angle_gamma   90.00000000
_symmetry_Int_Tables_number   1
_chemical_formula_structural   Y12Si11Hg
_chemical_formula_sum   'Y12 Si11 Hg1'
_cell_volume   540.10988621
_cell_formula_units_Z   1
loop_
 _symmetry_equiv_pos_site_id
 _symmetry_equiv_pos_as_xyz
  1  'x, y, z'
loop_
 _atom_site_type_symbol
 _atom_site_label
 _atom_site_symmetry_multiplicity
 _atom_site_fract_x
 _atom_site_fract_y
 _atom_site_fract_z
 _atom_site_occupancy
  Y  Y0  1  0.750000  0.354928  0.053720  1
  Y  Y1  1  0.250000  0.659530  0.937745  1
  Y  Y2  1  0.750000  0.531814  0.231662  1
  Y  Y3  1  0.250000  0.470035  0.772479  1
  Y  Y4  1  0.750000  0.167795  0.395315  1
  Y  Y5  1  0.250000  0.825159  0.606891  1
  Y  Y6  1  0.750000  0.349410  0.560400  1
  Y  Y7  1  0.250000  0.643673  0.441800  1
  Y  Y8  1  0.750000  0.995175  0.726180  1
  Y  Y9  1  0.250000  0.997565  0.275793  1
  Y  Y10  1  0.750000  0.168446  0.891459  1
  Y  Y11  1  0.250000  0.845529  0.104974  1
  Si  Si12  1  0.750000  0.870372  0.010185  1
  Si  Si13  1  0.250000  0.144148  0.984670  1
  Si  Si14  1  0.750000  0.022650  0.182227  1
  Si  Si15  1  0.250000  0.956312  0.819714  1
  Si  Si16  1  0.750000  0.706135  0.348303  1
  Si  Si17  1  0.250000  0.288819  0.654002  1
  Si  Si18  1  0.750000  0.861727  0.513340  1
  Si  Si19  1  0.250000  0.131958  0.488652  1
  Si  Si20  1  0.750000  0.532144  0.678837  1
  Si  Si21  1  0.250000  0.460460  0.324100  1
  Si  Si22  1  0.750000  0.682424  0.844545  1
  Hg  Hg23  1  0.250000  0.333793  0.153004  1
