# generated using pymatgen
data_Ca9Yb11(SiSb2)4
_symmetry_space_group_name_H-M   'P 1'
_cell_length_a   7.97563805
_cell_length_b   9.47189600
_cell_length_c   12.66276108
_cell_angle_alpha   90.00000000
_cell_angle_beta   89.98695691
_cell_angle_gamma   90.00000000
_symmetry_Int_Tables_number   1
_chemical_formula_structural   Ca9Yb11(SiSb2)4
_chemical_formula_sum   'Ca9 Yb11 Si4 Sb8'
_cell_volume   956.60084279
_cell_formula_units_Z   1
loop_
 _symmetry_equiv_pos_site_id
 _symmetry_equiv_pos_as_xyz
  1  'x, y, z'
loop_
 _atom_site_type_symbol
 _atom_site_label
 _atom_site_symmetry_multiplicity
 _atom_site_fract_x
 _atom_site_fract_y
 _atom_site_fract_z
 _atom_site_occupancy
  Ca  Ca0  1  0.445156  0.750000  0.000501  1
  Ca  Ca1  1  0.323094  0.471758  0.425010  1
  Ca  Ca2  1  0.823399  0.528149  0.075113  1
  Ca  Ca3  1  0.676868  0.971604  0.575013  1
  Ca  Ca4  1  0.176558  0.028516  0.924900  1
  Ca  Ca5  1  0.676868  0.528396  0.575013  1
  Ca  Ca6  1  0.176558  0.471484  0.924900  1
  Ca  Ca7  1  0.323094  0.028242  0.425010  1
  Ca  Ca8  1  0.823399  0.971851  0.075113  1
  Yb  Yb9  1  0.944358  0.250000  0.499372  1
  Yb  Yb10  1  0.555663  0.250000  0.999386  1
  Yb  Yb11  1  0.055685  0.750000  0.500608  1
  Yb  Yb12  1  0.647404  0.750000  0.302141  1
  Yb  Yb13  1  0.147301  0.250000  0.197863  1
  Yb  Yb14  1  0.352491  0.250000  0.697922  1
  Yb  Yb15  1  0.852823  0.750000  0.802000  1
  Yb  Yb16  1  0.325304  0.750000  0.718509  1
  Yb  Yb17  1  0.825484  0.250000  0.781376  1
  Yb  Yb18  1  0.674774  0.250000  0.281286  1
  Yb  Yb19  1  0.174341  0.750000  0.218829  1
  Si  Si20  1  0.059271  0.750000  0.991082  1
  Si  Si21  1  0.560155  0.250000  0.508949  1
  Si  Si22  1  0.939828  0.250000  0.008983  1
  Si  Si23  1  0.439799  0.750000  0.491030  1
  Sb  Sb24  1  0.442368  0.007545  0.168797  1
  Sb  Sb25  1  0.942245  0.992640  0.331363  1
  Sb  Sb26  1  0.557756  0.507222  0.831217  1
  Sb  Sb27  1  0.057794  0.492610  0.668667  1
  Sb  Sb28  1  0.557756  0.992778  0.831217  1
  Sb  Sb29  1  0.057794  0.007390  0.668667  1
  Sb  Sb30  1  0.442368  0.492455  0.168797  1
  Sb  Sb31  1  0.942245  0.507360  0.331363  1
