# generated using pymatgen
data_Re6SiAs13
_symmetry_space_group_name_H-M   'P 1'
_cell_length_a   7.64523458
_cell_length_b   7.64523477
_cell_length_c   7.64523480
_cell_angle_alpha   109.40513646
_cell_angle_beta   109.60346281
_cell_angle_gamma   109.40514049
_symmetry_Int_Tables_number   1
_chemical_formula_structural   Re6SiAs13
_chemical_formula_sum   'Re6 Si1 As13'
_cell_volume   343.99240987
_cell_formula_units_Z   1
loop_
 _symmetry_equiv_pos_site_id
 _symmetry_equiv_pos_as_xyz
  1  'x, y, z'
loop_
 _atom_site_type_symbol
 _atom_site_label
 _atom_site_symmetry_multiplicity
 _atom_site_fract_x
 _atom_site_fract_y
 _atom_site_fract_z
 _atom_site_occupancy
  Re  Re0  1  0.339835  0.000000  0.339835  1
  Re  Re1  1  0.999509  0.339899  0.339408  1
  Re  Re2  1  0.999509  0.660101  0.659610  1
  Re  Re3  1  0.340390  0.339899  0.000491  1
  Re  Re4  1  0.660592  0.660101  0.000491  1
  Re  Re5  1  0.660165  0.000000  0.660165  1
  Si  Si6  1  0.750000  0.500000  0.250000  1
  As  As7  1  0.502461  0.748526  0.250987  1
  As  As8  1  0.502461  0.251474  0.753935  1
  As  As9  1  0.749013  0.251474  0.497539  1
  As  As10  1  0.246065  0.748526  0.497539  1
  As  As11  1  0.250000  0.500000  0.750000  1
  As  As12  1  0.999128  0.998572  0.331319  1
  As  As13  1  0.668681  0.001428  0.000872  1
  As  As14  1  0.999128  0.667809  0.000556  1
  As  As15  1  0.332747  0.332191  0.331319  1
  As  As16  1  0.999444  0.332191  0.000872  1
  As  As17  1  0.668681  0.667809  0.667253  1
  As  As18  1  0.332747  0.001428  0.000556  1
  As  As19  1  0.999444  0.998572  0.667253  1
