# generated using pymatgen
data_Y3Np(Si5Os3)2
_symmetry_space_group_name_H-M   'P 1'
_cell_length_a   8.14520414
_cell_length_b   8.11993043
_cell_length_c   5.78135757
_cell_angle_alpha   70.56816821
_cell_angle_beta   70.69531943
_cell_angle_gamma   93.78327055
_symmetry_Int_Tables_number   1
_chemical_formula_structural   Y3Np(Si5Os3)2
_chemical_formula_sum   'Y3 Np1 Si10 Os6'
_cell_volume   333.59746599
_cell_formula_units_Z   1
loop_
 _symmetry_equiv_pos_site_id
 _symmetry_equiv_pos_as_xyz
  1  'x, y, z'
loop_
 _atom_site_type_symbol
 _atom_site_label
 _atom_site_symmetry_multiplicity
 _atom_site_fract_x
 _atom_site_fract_y
 _atom_site_fract_z
 _atom_site_occupancy
  Y  Y0  1  0.870134  0.600956  0.752634  1
  Y  Y1  1  0.398355  0.134556  0.741979  1
  Y  Y2  1  0.133670  0.397734  0.244746  1
  Np  Np3  1  0.594365  0.868945  0.259348  1
  Si  Si4  1  0.066878  0.261554  0.835772  1
  Si  Si5  1  0.737423  0.935015  0.668071  1
  Si  Si6  1  0.929457  0.740129  0.164819  1
  Si  Si7  1  0.263973  0.063198  0.333859  1
  Si  Si8  1  0.207290  0.794863  0.744971  1
  Si  Si9  1  0.794519  0.206265  0.253841  1
  Si  Si10  1  0.515695  0.486764  0.750384  1
  Si  Si11  1  0.486478  0.512137  0.251148  1
  Si  Si12  1  0.773899  0.226023  0.747253  1
  Si  Si13  1  0.226221  0.775305  0.251642  1
  Os  Os14  1  0.258291  0.542148  0.631572  1
  Os  Os15  1  0.455506  0.745968  0.866346  1
  Os  Os16  1  0.743799  0.458599  0.365426  1
  Os  Os17  1  0.546798  0.251942  0.131580  1
  Os  Os18  1  0.001817  0.997318  0.751211  1
  Os  Os19  1  0.995436  0.000578  0.253398  1
