# generated using pymatgen
data_HoEr2Sc3Bi2Rh
_symmetry_space_group_name_H-M   'P 1'
_cell_length_a   8.01184505
_cell_length_b   8.01184558
_cell_length_c   4.13097500
_cell_angle_alpha   90.00000000
_cell_angle_beta   90.00000000
_cell_angle_gamma   119.98700967
_symmetry_Int_Tables_number   1
_chemical_formula_structural   HoEr2Sc3Bi2Rh
_chemical_formula_sum   'Ho1 Er2 Sc3 Bi2 Rh1'
_cell_volume   229.67046202
_cell_formula_units_Z   1
loop_
 _symmetry_equiv_pos_site_id
 _symmetry_equiv_pos_as_xyz
  1  'x, y, z'
loop_
 _atom_site_type_symbol
 _atom_site_label
 _atom_site_symmetry_multiplicity
 _atom_site_fract_x
 _atom_site_fract_y
 _atom_site_fract_z
 _atom_site_occupancy
  Ho  Ho0  1  0.388378  0.388378  0.500000  1
  Er  Er1  1  0.611677  0.000002  0.500000  1
  Er  Er2  1  0.000002  0.611677  0.500000  1
  Sc  Sc3  1  0.228343  0.999944  0.000000  1
  Sc  Sc4  1  0.999944  0.228343  0.000000  1
  Sc  Sc5  1  0.771689  0.771689  0.000000  1
  Bi  Bi6  1  0.333343  0.666788  0.000000  1
  Bi  Bi7  1  0.666788  0.333343  0.000000  1
  Rh  Rh8  1  0.999836  0.999836  0.500000  1
