# generated using pymatgen
data_La3DyAu5
_symmetry_space_group_name_H-M   'P 1'
_cell_length_a   8.33402324
_cell_length_b   8.33402242
_cell_length_c   8.33402324
_cell_angle_alpha   65.60483067
_cell_angle_beta   65.60483348
_cell_angle_gamma   65.60481892
_symmetry_Int_Tables_number   1
_chemical_formula_structural   La3DyAu5
_chemical_formula_sum   'La6 Dy2 Au10'
_cell_volume   459.13316279
_cell_formula_units_Z   2
loop_
 _symmetry_equiv_pos_site_id
 _symmetry_equiv_pos_as_xyz
  1  'x, y, z'
loop_
 _atom_site_type_symbol
 _atom_site_label
 _atom_site_symmetry_multiplicity
 _atom_site_fract_x
 _atom_site_fract_y
 _atom_site_fract_z
 _atom_site_occupancy
  La  La0  1  0.893139  0.184579  0.621491  1
  La  La1  1  0.621491  0.893139  0.184579  1
  La  La2  1  0.184579  0.621491  0.893139  1
  La  La3  1  0.106861  0.815421  0.378509  1
  La  La4  1  0.378509  0.106861  0.815421  1
  La  La5  1  0.815421  0.378509  0.106861  1
  Dy  Dy6  1  0.657118  0.657118  0.657118  1
  Dy  Dy7  1  0.342882  0.342882  0.342882  1
  Au  Au8  1  0.000000  0.000000  0.000000  1
  Au  Au9  1  0.500000  0.500000  0.500000  1
  Au  Au10  1  0.804635  0.804635  0.804635  1
  Au  Au11  1  0.195365  0.195365  0.195365  1
  Au  Au12  1  0.941649  0.547997  0.320044  1
  Au  Au13  1  0.320044  0.941649  0.547997  1
  Au  Au14  1  0.547997  0.320044  0.941649  1
  Au  Au15  1  0.058351  0.452003  0.679956  1
  Au  Au16  1  0.679956  0.058351  0.452003  1
  Au  Au17  1  0.452003  0.679956  0.058351  1
