# generated using pymatgen
data_Nd2Cd2P6N13
_symmetry_space_group_name_H-M   'P 1'
_cell_length_a   7.40880276
_cell_length_b   7.47783798
_cell_length_c   7.40880387
_cell_angle_alpha   109.19665847
_cell_angle_beta   109.64850743
_cell_angle_gamma   109.19666710
_symmetry_Int_Tables_number   1
_chemical_formula_structural   Nd2Cd2P6N13
_chemical_formula_sum   'Nd2 Cd2 P6 N13'
_cell_volume   317.40996115
_cell_formula_units_Z   1
loop_
 _symmetry_equiv_pos_site_id
 _symmetry_equiv_pos_as_xyz
  1  'x, y, z'
loop_
 _atom_site_type_symbol
 _atom_site_label
 _atom_site_symmetry_multiplicity
 _atom_site_fract_x
 _atom_site_fract_y
 _atom_site_fract_z
 _atom_site_occupancy
  Nd  Nd0  1  0.690469  0.000000  0.008563  1
  Nd  Nd1  1  0.008563  0.000000  0.690469  1
  Cd  Cd2  1  0.002669  0.704475  0.002669  1
  Cd  Cd3  1  0.298193  0.295525  0.298193  1
  P  P4  1  0.250263  0.750588  0.499460  1
  P  P5  1  0.748872  0.249412  0.499675  1
  P  P6  1  0.748680  0.500000  0.248680  1
  P  P7  1  0.248680  0.500000  0.748680  1
  P  P8  1  0.499460  0.750588  0.250263  1
  P  P9  1  0.499675  0.249412  0.748872  1
  N  N10  1  0.995714  0.000000  0.995714  1
  N  N11  1  0.713435  0.295654  0.293674  1
  N  N12  1  0.295083  0.725589  0.295083  1
  N  N13  1  0.305223  0.590726  0.589075  1
  N  N14  1  0.589075  0.590726  0.305223  1
  N  N15  1  0.417781  0.704346  0.998020  1
  N  N16  1  0.998020  0.704346  0.417781  1
  N  N17  1  0.569494  0.274411  0.569494  1
  N  N18  1  0.716241  0.000000  0.397893  1
  N  N19  1  0.397893  0.000000  0.716241  1
  N  N20  1  0.714496  0.409274  0.998349  1
  N  N21  1  0.293674  0.295654  0.713435  1
  N  N22  1  0.998349  0.409274  0.714496  1
