# generated using pymatgen
data_Ca10PdRh3
_symmetry_space_group_name_H-M   'P 1'
_cell_length_a   8.77101801
_cell_length_b   8.75451313
_cell_length_c   7.68179355
_cell_angle_alpha   82.91663545
_cell_angle_beta   83.08286910
_cell_angle_gamma   43.60453883
_symmetry_Int_Tables_number   1
_chemical_formula_structural   Ca10PdRh3
_chemical_formula_sum   'Ca10 Pd1 Rh3'
_cell_volume   403.28583950
_cell_formula_units_Z   1
loop_
 _symmetry_equiv_pos_site_id
 _symmetry_equiv_pos_as_xyz
  1  'x, y, z'
loop_
 _atom_site_type_symbol
 _atom_site_label
 _atom_site_symmetry_multiplicity
 _atom_site_fract_x
 _atom_site_fract_y
 _atom_site_fract_z
 _atom_site_occupancy
  Ca  Ca0  1  0.029083  0.793294  0.913687  1
  Ca  Ca1  1  0.200231  0.979640  0.584252  1
  Ca  Ca2  1  0.981223  0.201328  0.084139  1
  Ca  Ca3  1  0.802011  0.021074  0.422065  1
  Ca  Ca4  1  0.362711  0.199760  0.817035  1
  Ca  Ca5  1  0.796907  0.636066  0.678103  1
  Ca  Ca6  1  0.634420  0.795499  0.177833  1
  Ca  Ca7  1  0.195360  0.368037  0.326685  1
  Ca  Ca8  1  0.575801  0.427979  0.744208  1
  Ca  Ca9  1  0.422672  0.579126  0.253528  1
  Pd  Pd10  1  0.596427  0.180627  0.080668  1
  Rh  Rh11  1  0.180804  0.595818  0.582095  1
  Rh  Rh12  1  0.400844  0.821317  0.918383  1
  Rh  Rh13  1  0.821506  0.400434  0.417318  1
