# generated using pymatgen
data_LuHf2ZrF15
_symmetry_space_group_name_H-M   'P 1'
_cell_length_a   8.10165621
_cell_length_b   8.10165580
_cell_length_c   8.09693801
_cell_angle_alpha   79.79328549
_cell_angle_beta   79.79328453
_cell_angle_gamma   100.15335770
_symmetry_Int_Tables_number   1
_chemical_formula_structural   LuHf2ZrF15
_chemical_formula_sum   'Lu2 Hf4 Zr2 F30'
_cell_volume   502.79736318
_cell_formula_units_Z   2
loop_
 _symmetry_equiv_pos_site_id
 _symmetry_equiv_pos_as_xyz
  1  'x, y, z'
loop_
 _atom_site_type_symbol
 _atom_site_label
 _atom_site_symmetry_multiplicity
 _atom_site_fract_x
 _atom_site_fract_y
 _atom_site_fract_z
 _atom_site_occupancy
  Lu  Lu0  1  0.677582  0.322418  0.750000  1
  Lu  Lu1  1  0.321450  0.678550  0.250000  1
  Hf  Hf2  1  0.250742  0.749258  0.750000  1
  Hf  Hf3  1  0.749305  0.250695  0.250000  1
  Hf  Hf4  1  0.822520  0.750415  0.325667  1
  Hf  Hf5  1  0.249585  0.177480  0.174333  1
  Zr  Zr6  1  0.178359  0.250679  0.674256  1
  Zr  Zr7  1  0.749321  0.821641  0.825744  1
  F  F8  1  0.150684  0.183024  0.949727  1
  F  F9  1  0.685215  0.559464  0.848642  1
  F  F10  1  0.041567  0.656848  0.315246  1
  F  F11  1  0.653649  0.043031  0.816335  1
  F  F12  1  0.563495  0.688051  0.346289  1
  F  F13  1  0.184735  0.150303  0.444206  1
  F  F14  1  0.849697  0.815265  0.055794  1
  F  F15  1  0.311949  0.436505  0.153711  1
  F  F16  1  0.956969  0.346351  0.683665  1
  F  F17  1  0.343152  0.958433  0.184754  1
  F  F18  1  0.440536  0.314785  0.651358  1
  F  F19  1  0.816976  0.849316  0.550273  1
  F  F20  1  0.966422  0.033578  0.750000  1
  F  F21  1  0.541230  0.751539  0.031554  1
  F  F22  1  0.248461  0.458770  0.468446  1
  F  F23  1  0.455900  0.247381  0.970448  1
  F  F24  1  0.752619  0.544100  0.529552  1
  F  F25  1  0.033446  0.966554  0.250000  1
  F  F26  1  0.221338  0.725041  0.003251  1
  F  F27  1  0.224483  0.493513  0.780988  1
  F  F28  1  0.994386  0.722810  0.776431  1
  F  F29  1  0.725195  0.993961  0.276497  1
  F  F30  1  0.493392  0.223308  0.279051  1
  F  F31  1  0.725331  0.221059  0.503519  1
  F  F32  1  0.778941  0.274669  0.996481  1
  F  F33  1  0.776692  0.506608  0.220949  1
  F  F34  1  0.006039  0.274805  0.223503  1
  F  F35  1  0.277190  0.005614  0.723569  1
  F  F36  1  0.506487  0.775517  0.719012  1
  F  F37  1  0.274959  0.778662  0.496749  1
