# generated using pymatgen
data_HfSc5(SnRh)6
_symmetry_space_group_name_H-M   'P 1'
_cell_length_a   7.56505499
_cell_length_b   7.52827508
_cell_length_c   6.98951300
_cell_angle_alpha   90.00000000
_cell_angle_beta   90.00000000
_cell_angle_gamma   120.22043467
_symmetry_Int_Tables_number   1
_chemical_formula_structural   HfSc5(SnRh)6
_chemical_formula_sum   'Hf1 Sc5 Sn6 Rh6'
_cell_volume   343.96650266
_cell_formula_units_Z   1
loop_
 _symmetry_equiv_pos_site_id
 _symmetry_equiv_pos_as_xyz
  1  'x, y, z'
loop_
 _atom_site_type_symbol
 _atom_site_label
 _atom_site_symmetry_multiplicity
 _atom_site_fract_x
 _atom_site_fract_y
 _atom_site_fract_z
 _atom_site_occupancy
  Hf  Hf0  1  0.397223  0.005228  0.250000  1
  Sc  Sc1  1  0.998255  0.395275  0.750000  1
  Sc  Sc2  1  0.601420  0.606056  0.750000  1
  Sc  Sc3  1  0.397361  0.997243  0.750000  1
  Sc  Sc4  1  0.998927  0.394777  0.250000  1
  Sc  Sc5  1  0.608349  0.602735  0.250000  1
  Sn  Sn6  1  0.274884  0.279727  0.502296  1
  Sn  Sn7  1  0.997398  0.721454  0.502362  1
  Sn  Sn8  1  0.997398  0.721454  0.997638  1
  Sn  Sn9  1  0.728735  0.999050  0.496602  1
  Sn  Sn10  1  0.728735  0.999050  0.003398  1
  Sn  Sn11  1  0.274884  0.279727  0.997704  1
  Rh  Rh12  1  0.333878  0.673748  0.488568  1
  Rh  Rh13  1  0.659362  0.325324  0.496660  1
  Rh  Rh14  1  0.333878  0.673748  0.011432  1
  Rh  Rh15  1  0.000255  0.000061  0.750000  1
  Rh  Rh16  1  0.009695  0.000020  0.250000  1
  Rh  Rh17  1  0.659362  0.325324  0.003340  1
