# generated using pymatgen
data_LiP2RhO7
_symmetry_space_group_name_H-M   'P 1'
_cell_length_a   8.24502400
_cell_length_b   4.86049605
_cell_length_c   7.02775277
_cell_angle_alpha   71.99956645
_cell_angle_beta   90.00000000
_cell_angle_gamma   90.00000000
_symmetry_Int_Tables_number   1
_chemical_formula_structural   LiP2RhO7
_chemical_formula_sum   'Li2 P4 Rh2 O14'
_cell_volume   267.85160406
_cell_formula_units_Z   2
loop_
 _symmetry_equiv_pos_site_id
 _symmetry_equiv_pos_as_xyz
  1  'x, y, z'
loop_
 _atom_site_type_symbol
 _atom_site_label
 _atom_site_symmetry_multiplicity
 _atom_site_fract_x
 _atom_site_fract_y
 _atom_site_fract_z
 _atom_site_occupancy
  Li  Li0  1  0.888975  0.822205  0.175167  1
  Li  Li1  1  0.388975  0.177795  0.824833  1
  P  P2  1  0.068773  0.398748  0.975548  1
  P  P3  1  0.568773  0.601252  0.024452  1
  P  P4  1  0.964124  0.783796  0.587122  1
  P  P5  1  0.464124  0.216204  0.412878  1
  Rh  Rh6  1  0.748747  0.212743  0.775880  1
  Rh  Rh7  1  0.248747  0.787257  0.224120  1
  O  O8  1  0.094388  0.587611  0.745800  1
  O  O9  1  0.594388  0.412389  0.254200  1
  O  O10  1  0.064354  0.599101  0.106569  1
  O  O11  1  0.564354  0.400899  0.893431  1
  O  O12  1  0.311293  0.394282  0.420804  1
  O  O13  1  0.811293  0.605718  0.579196  1
  O  O14  1  0.552233  0.130082  0.614996  1
  O  O15  1  0.052233  0.869918  0.385004  1
  O  O16  1  0.431980  0.944133  0.353905  1
  O  O17  1  0.931980  0.055867  0.646095  1
  O  O18  1  0.403681  0.757621  0.003022  1
  O  O19  1  0.903681  0.242379  0.996978  1
  O  O20  1  0.713753  0.808380  0.987754  1
  O  O21  1  0.213753  0.191620  0.012246  1
