# generated using pymatgen
data_SrAcCuS3
_symmetry_space_group_name_H-M   'P 1'
_cell_length_a   11.44625500
_cell_length_b   4.17171400
_cell_length_c   11.74423100
_cell_angle_alpha   90.00000000
_cell_angle_beta   90.00000000
_cell_angle_gamma   90.00000000
_symmetry_Int_Tables_number   1
_chemical_formula_structural   SrAcCuS3
_chemical_formula_sum   'Sr4 Ac4 Cu4 S12'
_cell_volume   560.79292857
_cell_formula_units_Z   4
loop_
 _symmetry_equiv_pos_site_id
 _symmetry_equiv_pos_as_xyz
  1  'x, y, z'
loop_
 _atom_site_type_symbol
 _atom_site_label
 _atom_site_symmetry_multiplicity
 _atom_site_fract_x
 _atom_site_fract_y
 _atom_site_fract_z
 _atom_site_occupancy
  Sr  Sr0  1  0.679342  0.750000  0.010559  1
  Sr  Sr1  1  0.179342  0.750000  0.489441  1
  Sr  Sr2  1  0.820658  0.250001  0.510558  1
  Sr  Sr3  1  0.320658  0.250001  0.989441  1
  Ac  Ac4  1  0.990605  0.250001  0.183269  1
  Ac  Ac5  1  0.490605  0.250001  0.316732  1
  Ac  Ac6  1  0.509395  0.750000  0.683268  1
  Ac  Ac7  1  0.009395  0.750000  0.816732  1
  Cu  Cu8  1  0.257624  0.750000  0.209394  1
  Cu  Cu9  1  0.757624  0.750000  0.290605  1
  Cu  Cu10  1  0.242376  0.250001  0.709394  1
  Cu  Cu11  1  0.742376  0.250001  0.790606  1
  S  S12  1  0.122473  0.750000  0.056762  1
  S  S13  1  0.447122  0.750000  0.135860  1
  S  S14  1  0.724783  0.250001  0.196688  1
  S  S15  1  0.224783  0.250001  0.303312  1
  S  S16  1  0.947122  0.750000  0.364139  1
  S  S17  1  0.622473  0.750000  0.443238  1
  S  S18  1  0.377527  0.250001  0.556762  1
  S  S19  1  0.052878  0.250001  0.635860  1
  S  S20  1  0.775217  0.750000  0.696689  1
  S  S21  1  0.275217  0.750000  0.803311  1
  S  S22  1  0.552878  0.250001  0.864140  1
  S  S23  1  0.877527  0.250001  0.943238  1
