# generated using pymatgen
data_Sc3Al12(OsPt)2
_symmetry_space_group_name_H-M   'P 1'
_cell_length_a   8.71941766
_cell_length_b   8.71941810
_cell_length_c   9.42242170
_cell_angle_alpha   90.26147957
_cell_angle_beta   89.73852415
_cell_angle_gamma   119.81083010
_symmetry_Int_Tables_number   1
_chemical_formula_structural   Sc3Al12(OsPt)2
_chemical_formula_sum   'Sc6 Al24 Os4 Pt4'
_cell_volume   621.56537186
_cell_formula_units_Z   2
loop_
 _symmetry_equiv_pos_site_id
 _symmetry_equiv_pos_as_xyz
  1  'x, y, z'
loop_
 _atom_site_type_symbol
 _atom_site_label
 _atom_site_symmetry_multiplicity
 _atom_site_fract_x
 _atom_site_fract_y
 _atom_site_fract_z
 _atom_site_occupancy
  Sc  Sc0  1  0.187668  0.383071  0.253034  1
  Sc  Sc1  1  0.812332  0.616929  0.746966  1
  Sc  Sc2  1  0.616929  0.812332  0.253034  1
  Sc  Sc3  1  0.383071  0.187668  0.746966  1
  Sc  Sc4  1  0.192283  0.807717  0.252663  1
  Sc  Sc5  1  0.807717  0.192283  0.747337  1
  Al  Al6  1  0.333482  0.666518  0.047679  1
  Al  Al7  1  0.666518  0.333482  0.952321  1
  Al  Al8  1  0.669032  0.330968  0.542338  1
  Al  Al9  1  0.330968  0.669032  0.457662  1
  Al  Al10  1  0.158528  0.326397  0.576763  1
  Al  Al11  1  0.841472  0.673603  0.423237  1
  Al  Al12  1  0.673603  0.841472  0.576763  1
  Al  Al13  1  0.837228  0.675866  0.081579  1
  Al  Al14  1  0.326397  0.158528  0.423237  1
  Al  Al15  1  0.162772  0.324134  0.918421  1
  Al  Al16  1  0.164515  0.835485  0.575965  1
  Al  Al17  1  0.324134  0.162772  0.081579  1
  Al  Al18  1  0.835485  0.164515  0.424035  1
  Al  Al19  1  0.675866  0.837228  0.918421  1
  Al  Al20  1  0.837158  0.162842  0.081152  1
  Al  Al21  1  0.162842  0.837158  0.918848  1
  Al  Al22  1  0.561200  0.122918  0.252355  1
  Al  Al23  1  0.438800  0.877082  0.747645  1
  Al  Al24  1  0.877082  0.438800  0.252355  1
  Al  Al25  1  0.122918  0.561200  0.747645  1
  Al  Al26  1  0.561368  0.438632  0.249960  1
  Al  Al27  1  0.438632  0.561368  0.750040  1
  Al  Al28  1  0.999223  0.000777  0.250473  1
  Al  Al29  1  0.000777  0.999223  0.749527  1
  Os  Os30  1  0.500000  0.000000  0.500000  1
  Os  Os31  1  0.000000  0.500000  0.500000  1
  Os  Os32  1  0.000000  0.000000  0.000000  1
  Os  Os33  1  0.000000  0.000000  0.500000  1
  Pt  Pt34  1  0.500000  0.000000  0.000000  1
  Pt  Pt35  1  0.000000  0.500000  0.000000  1
  Pt  Pt36  1  0.500000  0.500000  0.000000  1
  Pt  Pt37  1  0.500000  0.500000  0.500000  1
