# generated using pymatgen
data_LaTb4Dy(SbO7)2
_symmetry_space_group_name_H-M   'P 1'
_cell_length_a   6.52966181
_cell_length_b   6.53121996
_cell_length_c   7.60411810
_cell_angle_alpha   89.95764995
_cell_angle_beta   90.04301287
_cell_angle_gamma   109.08709637
_symmetry_Int_Tables_number   1
_chemical_formula_structural   LaTb4Dy(SbO7)2
_chemical_formula_sum   'La1 Tb4 Dy1 Sb2 O14'
_cell_volume   306.46145322
_cell_formula_units_Z   1
loop_
 _symmetry_equiv_pos_site_id
 _symmetry_equiv_pos_as_xyz
  1  'x, y, z'
loop_
 _atom_site_type_symbol
 _atom_site_label
 _atom_site_symmetry_multiplicity
 _atom_site_fract_x
 _atom_site_fract_y
 _atom_site_fract_z
 _atom_site_occupancy
  La  La0  1  0.500074  0.500189  0.500151  1
  Tb  Tb1  1  0.500085  0.500207  0.999881  1
  Tb  Tb2  1  0.000461  0.531767  0.247000  1
  Tb  Tb3  1  0.468340  0.999497  0.246977  1
  Tb  Tb4  1  0.999489  0.468181  0.753007  1
  Dy  Dy5  1  0.531417  0.000748  0.753123  1
  Sb  Sb6  1  0.000035  0.999976  0.500238  1
  Sb  Sb7  1  0.000005  0.999950  0.999763  1
  O  O8  1  0.680418  0.934300  0.470548  1
  O  O9  1  0.933999  0.680451  0.530080  1
  O  O10  1  0.680194  0.928896  0.028927  1
  O  O11  1  0.928509  0.680242  0.970395  1
  O  O12  1  0.319558  0.065470  0.530800  1
  O  O13  1  0.066066  0.319393  0.469964  1
  O  O14  1  0.319748  0.070895  0.969709  1
  O  O15  1  0.071563  0.319611  0.029530  1
  O  O16  1  0.930863  0.068419  0.749994  1
  O  O17  1  0.068617  0.931649  0.250008  1
  O  O18  1  0.367195  0.635054  0.760219  1
  O  O19  1  0.633472  0.366558  0.239723  1
  O  O20  1  0.639085  0.359330  0.758771  1
  O  O21  1  0.360806  0.639217  0.241193  1
