# generated using pymatgen
data_Tb4Ga3GeRu4
_symmetry_space_group_name_H-M   'P 1'
_cell_length_a   4.51745100
_cell_length_b   7.17422127
_cell_length_c   7.15361049
_cell_angle_alpha   89.61765045
_cell_angle_beta   90.00000000
_cell_angle_gamma   90.00000000
_symmetry_Int_Tables_number   1
_chemical_formula_structural   Tb4Ga3GeRu4
_chemical_formula_sum   'Tb4 Ga3 Ge1 Ru4'
_cell_volume   231.83758115
_cell_formula_units_Z   1
loop_
 _symmetry_equiv_pos_site_id
 _symmetry_equiv_pos_as_xyz
  1  'x, y, z'
loop_
 _atom_site_type_symbol
 _atom_site_label
 _atom_site_symmetry_multiplicity
 _atom_site_fract_x
 _atom_site_fract_y
 _atom_site_fract_z
 _atom_site_occupancy
  Tb  Tb0  1  0.250000  0.477583  0.695175  1
  Tb  Tb1  1  0.750000  0.519505  0.303755  1
  Tb  Tb2  1  0.250000  0.980470  0.806323  1
  Tb  Tb3  1  0.750000  0.020293  0.195788  1
  Ga  Ga4  1  0.250000  0.303210  0.107222  1
  Ga  Ga5  1  0.750000  0.695397  0.892915  1
  Ga  Ga6  1  0.250000  0.801091  0.395526  1
  Ge  Ge7  1  0.750000  0.199443  0.602737  1
  Ru  Ru8  1  0.750000  0.849348  0.563861  1
  Ru  Ru9  1  0.250000  0.157273  0.441296  1
  Ru  Ru10  1  0.750000  0.337789  0.930973  1
  Ru  Ru11  1  0.250000  0.658599  0.064429  1
