# generated using pymatgen
data_Er10In8Ir3Pd
_symmetry_space_group_name_H-M   'P 1'
_cell_length_a   3.60719600
_cell_length_b   8.05416919
_cell_length_c   18.18279801
_cell_angle_alpha   90.04418619
_cell_angle_beta   90.00000000
_cell_angle_gamma   90.00000000
_symmetry_Int_Tables_number   1
_chemical_formula_structural   Er10In8Ir3Pd
_chemical_formula_sum   'Er10 In8 Ir3 Pd1'
_cell_volume   528.26407169
_cell_formula_units_Z   1
loop_
 _symmetry_equiv_pos_site_id
 _symmetry_equiv_pos_as_xyz
  1  'x, y, z'
loop_
 _atom_site_type_symbol
 _atom_site_label
 _atom_site_symmetry_multiplicity
 _atom_site_fract_x
 _atom_site_fract_y
 _atom_site_fract_z
 _atom_site_occupancy
  Er  Er0  1  0.000000  0.500144  0.501097  1
  Er  Er1  1  0.000000  0.999772  0.999456  1
  Er  Er2  1  0.000000  0.728584  0.277375  1
  Er  Er3  1  0.000000  0.258978  0.722515  1
  Er  Er4  1  0.000000  0.758700  0.777393  1
  Er  Er5  1  0.000000  0.253460  0.219736  1
  Er  Er6  1  0.000000  0.614118  0.086960  1
  Er  Er7  1  0.000000  0.386066  0.910089  1
  Er  Er8  1  0.000000  0.885696  0.589891  1
  Er  Er9  1  0.000000  0.115186  0.414960  1
  In  In10  1  0.500000  0.708023  0.931718  1
  In  In11  1  0.500000  0.291394  0.067230  1
  In  In12  1  0.500000  0.790721  0.432753  1
  In  In13  1  0.500000  0.208064  0.568265  1
  In  In14  1  0.500000  0.573421  0.649257  1
  In  In15  1  0.500000  0.422310  0.351566  1
  In  In16  1  0.500000  0.923792  0.149581  1
  In  In17  1  0.500000  0.072846  0.850932  1
  Ir  Ir18  1  0.500000  0.519907  0.195381  1
  Ir  Ir19  1  0.500000  0.484609  0.803861  1
  Ir  Ir20  1  0.500000  0.985213  0.695758  1
  Pd  Pd21  1  0.500000  0.018999  0.304225  1
