# generated using pymatgen
data_Dy12Ho8CoBi8Os3
_symmetry_space_group_name_H-M   'P 1'
_cell_length_a   7.96856581
_cell_length_b   9.01235600
_cell_length_c   12.45478822
_cell_angle_alpha   90.00000000
_cell_angle_beta   89.77796734
_cell_angle_gamma   90.00000000
_symmetry_Int_Tables_number   1
_chemical_formula_structural   Dy12Ho8CoBi8Os3
_chemical_formula_sum   'Dy12 Ho8 Co1 Bi8 Os3'
_cell_volume   894.44077339
_cell_formula_units_Z   1
loop_
 _symmetry_equiv_pos_site_id
 _symmetry_equiv_pos_as_xyz
  1  'x, y, z'
loop_
 _atom_site_type_symbol
 _atom_site_label
 _atom_site_symmetry_multiplicity
 _atom_site_fract_x
 _atom_site_fract_y
 _atom_site_fract_z
 _atom_site_occupancy
  Dy  Dy0  1  0.344680  0.750000  0.701504  1
  Dy  Dy1  1  0.657920  0.250000  0.292443  1
  Dy  Dy2  1  0.842686  0.250000  0.791367  1
  Dy  Dy3  1  0.156160  0.750000  0.206722  1
  Dy  Dy4  1  0.879386  0.750000  0.805949  1
  Dy  Dy5  1  0.119957  0.250000  0.193686  1
  Dy  Dy6  1  0.378692  0.250000  0.693080  1
  Dy  Dy7  1  0.616560  0.750000  0.312403  1
  Dy  Dy8  1  0.055146  0.750000  0.496904  1
  Dy  Dy9  1  0.945208  0.250000  0.503119  1
  Dy  Dy10  1  0.557614  0.250000  0.003555  1
  Dy  Dy11  1  0.442706  0.750000  0.995856  1
  Ho  Ho12  1  0.675450  0.542137  0.563654  1
  Ho  Ho13  1  0.325105  0.460705  0.436912  1
  Ho  Ho14  1  0.174915  0.457899  0.936064  1
  Ho  Ho15  1  0.325105  0.039295  0.436912  1
  Ho  Ho16  1  0.824538  0.542994  0.064202  1
  Ho  Ho17  1  0.675450  0.957863  0.563654  1
  Ho  Ho18  1  0.824538  0.957006  0.064202  1
  Ho  Ho19  1  0.174915  0.042101  0.936064  1
  Co  Co20  1  0.429726  0.750000  0.491203  1
  Bi  Bi21  1  0.570210  0.508802  0.827124  1
  Bi  Bi22  1  0.429512  0.492216  0.173110  1
  Bi  Bi23  1  0.071546  0.491992  0.671943  1
  Bi  Bi24  1  0.429512  0.007784  0.173110  1
  Bi  Bi25  1  0.929216  0.508993  0.328416  1
  Bi  Bi26  1  0.570210  0.991198  0.827124  1
  Bi  Bi27  1  0.929216  0.991007  0.328416  1
  Bi  Bi28  1  0.071546  0.008008  0.671943  1
  Os  Os29  1  0.075093  0.750000  0.989230  1
  Os  Os30  1  0.924239  0.250000  0.010193  1
  Os  Os31  1  0.573244  0.250000  0.509937  1
