# generated using pymatgen
data_Ho16In4RuPt2Rh
_symmetry_space_group_name_H-M   'P 1'
_cell_length_a   9.65602566
_cell_length_b   9.64338897
_cell_length_c   9.63696292
_cell_angle_alpha   59.93944206
_cell_angle_beta   59.93454282
_cell_angle_gamma   59.95664883
_symmetry_Int_Tables_number   1
_chemical_formula_structural   Ho16In4RuPt2Rh
_chemical_formula_sum   'Ho16 In4 Ru1 Pt2 Rh1'
_cell_volume   633.71911371
_cell_formula_units_Z   1
loop_
 _symmetry_equiv_pos_site_id
 _symmetry_equiv_pos_as_xyz
  1  'x, y, z'
loop_
 _atom_site_type_symbol
 _atom_site_label
 _atom_site_symmetry_multiplicity
 _atom_site_fract_x
 _atom_site_fract_y
 _atom_site_fract_z
 _atom_site_occupancy
  Ho  Ho0  1  0.187352  0.188177  0.812996  1
  Ho  Ho1  1  0.598317  0.604667  0.198697  1
  Ho  Ho2  1  0.439960  0.055075  0.439975  1
  Ho  Ho3  1  0.439908  0.440649  0.056459  1
  Ho  Ho4  1  0.811473  0.188177  0.812996  1
  Ho  Ho5  1  0.188830  0.813891  0.189066  1
  Ho  Ho6  1  0.439408  0.058596  0.062588  1
  Ho  Ho7  1  0.188996  0.813052  0.808956  1
  Ho  Ho8  1  0.062983  0.440649  0.056459  1
  Ho  Ho9  1  0.808212  0.813891  0.189066  1
  Ho  Ho10  1  0.201401  0.601983  0.600008  1
  Ho  Ho11  1  0.059089  0.441262  0.440560  1
  Ho  Ho12  1  0.064990  0.055075  0.439975  1
  Ho  Ho13  1  0.812220  0.188085  0.187473  1
  Ho  Ho14  1  0.599636  0.196546  0.604183  1
  Ho  Ho15  1  0.596607  0.601983  0.600008  1
  In  In16  1  0.833322  0.833143  0.833210  1
  In  In17  1  0.833241  0.832963  0.500556  1
  In  In18  1  0.500328  0.833143  0.833210  1
  In  In19  1  0.832988  0.501098  0.832929  1
  Ru  Ru20  1  0.392223  0.824075  0.391478  1
  Pt  Pt21  1  0.393095  0.391388  0.392577  1
  Pt  Pt22  1  0.822939  0.391388  0.392577  1
  Rh  Rh23  1  0.392480  0.391044  0.823995  1
