# generated using pymatgen
data_ThUTcB6
_symmetry_space_group_name_H-M   'P 1'
_cell_length_a   3.74482200
_cell_length_b   9.40060400
_cell_length_c   11.51087100
_cell_angle_alpha   90.00000000
_cell_angle_beta   90.00000000
_cell_angle_gamma   90.00000000
_symmetry_Int_Tables_number   1
_chemical_formula_structural   ThUTcB6
_chemical_formula_sum   'Th4 U4 Tc4 B24'
_cell_volume   405.22396795
_cell_formula_units_Z   4
loop_
 _symmetry_equiv_pos_site_id
 _symmetry_equiv_pos_as_xyz
  1  'x, y, z'
loop_
 _atom_site_type_symbol
 _atom_site_label
 _atom_site_symmetry_multiplicity
 _atom_site_fract_x
 _atom_site_fract_y
 _atom_site_fract_z
 _atom_site_occupancy
  Th  Th0  1  0.000000  0.335325  0.407585  1
  Th  Th1  1  0.000000  0.664675  0.592415  1
  Th  Th2  1  0.000000  0.835325  0.092415  1
  Th  Th3  1  0.000000  0.164675  0.907585  1
  U  U4  1  0.000000  0.957523  0.396853  1
  U  U5  1  0.000000  0.042477  0.603147  1
  U  U6  1  0.000000  0.457523  0.103147  1
  U  U7  1  0.000000  0.542477  0.896853  1
  Tc  Tc8  1  0.000000  0.647209  0.318033  1
  Tc  Tc9  1  0.000000  0.352791  0.681967  1
  Tc  Tc10  1  0.000000  0.147209  0.181967  1
  Tc  Tc11  1  0.000000  0.852791  0.818033  1
  B  B12  1  0.500000  0.555378  0.428207  1
  B  B13  1  0.500000  0.444622  0.571793  1
  B  B14  1  0.500000  0.055378  0.071793  1
  B  B15  1  0.500000  0.944622  0.928207  1
  B  B16  1  0.500000  0.745934  0.421236  1
  B  B17  1  0.500000  0.254066  0.578764  1
  B  B18  1  0.500000  0.245934  0.078764  1
  B  B19  1  0.500000  0.754066  0.921236  1
  B  B20  1  0.500000  0.802631  0.274902  1
  B  B21  1  0.500000  0.197369  0.725098  1
  B  B22  1  0.500000  0.302631  0.225098  1
  B  B23  1  0.500000  0.697369  0.774902  1
  B  B24  1  0.500000  0.643365  0.188076  1
  B  B25  1  0.500000  0.356635  0.811924  1
  B  B26  1  0.500000  0.143365  0.311924  1
  B  B27  1  0.500000  0.856635  0.688076  1
  B  B28  1  0.500000  0.990848  0.220681  1
  B  B29  1  0.500000  0.009152  0.779319  1
  B  B30  1  0.500000  0.490848  0.279319  1
  B  B31  1  0.500000  0.509152  0.720681  1
  B  B32  1  0.500000  0.636039  0.037220  1
  B  B33  1  0.500000  0.363961  0.962780  1
  B  B34  1  0.500000  0.136039  0.462780  1
  B  B35  1  0.500000  0.863961  0.537220  1
