# generated using pymatgen
data_TbTlBi2(Rh2O7)2
_symmetry_space_group_name_H-M   'P 1'
_cell_length_a   7.26179920
_cell_length_b   7.26180046
_cell_length_c   7.20751005
_cell_angle_alpha   60.81065107
_cell_angle_beta   60.81064606
_cell_angle_gamma   60.96976697
_symmetry_Int_Tables_number   1
_chemical_formula_structural   TbTlBi2(Rh2O7)2
_chemical_formula_sum   'Tb1 Tl1 Bi2 Rh4 O14'
_cell_volume   273.98833448
_cell_formula_units_Z   1
loop_
 _symmetry_equiv_pos_site_id
 _symmetry_equiv_pos_as_xyz
  1  'x, y, z'
loop_
 _atom_site_type_symbol
 _atom_site_label
 _atom_site_symmetry_multiplicity
 _atom_site_fract_x
 _atom_site_fract_y
 _atom_site_fract_z
 _atom_site_occupancy
  Tb  Tb0  1  0.125000  0.125000  0.625000  1
  Tl  Tl1  1  0.125000  0.125000  0.125000  1
  Bi  Bi2  1  0.125000  0.625000  0.125000  1
  Bi  Bi3  1  0.625000  0.125000  0.125000  1
  Rh  Rh4  1  0.625000  0.625000  0.625000  1
  Rh  Rh5  1  0.625000  0.625000  0.125000  1
  Rh  Rh6  1  0.125000  0.625000  0.625000  1
  Rh  Rh7  1  0.625000  0.125000  0.625000  1
  O  O8  1  0.251113  0.251113  0.252329  1
  O  O9  1  0.293055  0.707847  0.291858  1
  O  O10  1  0.957337  0.957337  0.543935  1
  O  O11  1  0.535384  0.960098  0.541891  1
  O  O12  1  0.707492  0.707492  0.293700  1
  O  O13  1  0.960098  0.535384  0.541891  1
  O  O14  1  0.714616  0.289902  0.708109  1
  O  O15  1  0.292663  0.292663  0.706065  1
  O  O16  1  0.707847  0.293055  0.291858  1
  O  O17  1  0.289902  0.714616  0.708109  1
  O  O18  1  0.956945  0.542153  0.958142  1
  O  O19  1  0.542508  0.542508  0.956300  1
  O  O20  1  0.998887  0.998887  0.997671  1
  O  O21  1  0.542153  0.956945  0.958142  1
