# generated using pymatgen
data_Ce2NdLu(NiP)4
_symmetry_space_group_name_H-M   'P 1'
_cell_length_a   3.94579900
_cell_length_b   3.94579910
_cell_length_c   15.55339600
_cell_angle_alpha   90.00000000
_cell_angle_beta   90.00000000
_cell_angle_gamma   120.00000754
_symmetry_Int_Tables_number   1
_chemical_formula_structural   Ce2NdLu(NiP)4
_chemical_formula_sum   'Ce2 Nd1 Lu1 Ni4 P4'
_cell_volume   209.71319470
_cell_formula_units_Z   1
loop_
 _symmetry_equiv_pos_site_id
 _symmetry_equiv_pos_as_xyz
  1  'x, y, z'
loop_
 _atom_site_type_symbol
 _atom_site_label
 _atom_site_symmetry_multiplicity
 _atom_site_fract_x
 _atom_site_fract_y
 _atom_site_fract_z
 _atom_site_occupancy
  Ce  Ce0  1  0.000000  0.000000  0.506435  1
  Ce  Ce1  1  0.000000  0.000000  0.993565  1
  Nd  Nd2  1  0.000000  0.000000  0.250000  1
  Lu  Lu3  1  0.000000  0.000000  0.750000  1
  Ni  Ni4  1  0.333333  0.666667  0.384869  1
  Ni  Ni5  1  0.666667  0.333333  0.642183  1
  Ni  Ni6  1  0.666667  0.333333  0.857817  1
  Ni  Ni7  1  0.333333  0.666667  0.115131  1
  P  P8  1  0.333333  0.666667  0.872849  1
  P  P9  1  0.666667  0.333333  0.121231  1
  P  P10  1  0.666667  0.333333  0.378769  1
  P  P11  1  0.333333  0.666667  0.627151  1
