# generated using pymatgen
data_Pr4NdIrPt2
_symmetry_space_group_name_H-M   'P 1'
_cell_length_a   11.51318300
_cell_length_b   11.51318300
_cell_length_c   6.56824400
_cell_angle_alpha   90.00000000
_cell_angle_beta   90.00000000
_cell_angle_gamma   90.00000000
_symmetry_Int_Tables_number   1
_chemical_formula_structural   Pr4NdIrPt2
_chemical_formula_sum   'Pr16 Nd4 Ir4 Pt8'
_cell_volume   870.64296120
_cell_formula_units_Z   4
loop_
 _symmetry_equiv_pos_site_id
 _symmetry_equiv_pos_as_xyz
  1  'x, y, z'
loop_
 _atom_site_type_symbol
 _atom_site_label
 _atom_site_symmetry_multiplicity
 _atom_site_fract_x
 _atom_site_fract_y
 _atom_site_fract_z
 _atom_site_occupancy
  Pr  Pr0  1  0.294861  0.089338  0.374791  1
  Pr  Pr1  1  0.294861  0.910662  0.874791  1
  Pr  Pr2  1  0.705139  0.089338  0.874791  1
  Pr  Pr3  1  0.705139  0.910662  0.374791  1
  Pr  Pr4  1  0.589338  0.794861  0.874791  1
  Pr  Pr5  1  0.589338  0.205139  0.374791  1
  Pr  Pr6  1  0.410662  0.794861  0.374791  1
  Pr  Pr7  1  0.410662  0.205139  0.874791  1
  Pr  Pr8  1  0.205139  0.410662  0.625209  1
  Pr  Pr9  1  0.205139  0.589338  0.125209  1
  Pr  Pr10  1  0.794861  0.410662  0.125209  1
  Pr  Pr11  1  0.794861  0.589338  0.625209  1
  Pr  Pr12  1  0.910662  0.705139  0.125209  1
  Pr  Pr13  1  0.910662  0.294861  0.625209  1
  Pr  Pr14  1  0.089338  0.705139  0.625209  1
  Pr  Pr15  1  0.089338  0.294861  0.125209  1
  Nd  Nd16  1  0.000000  0.000000  0.500000  1
  Nd  Nd17  1  0.000000  0.000000  0.000000  1
  Nd  Nd18  1  0.500000  0.500000  0.000000  1
  Nd  Nd19  1  0.500000  0.500000  0.500000  1
  Ir  Ir20  1  0.500000  0.000000  0.115029  1
  Ir  Ir21  1  0.500000  0.000000  0.615029  1
  Ir  Ir22  1  0.000000  0.500000  0.884971  1
  Ir  Ir23  1  0.000000  0.500000  0.384971  1
  Pt  Pt24  1  0.847137  0.152863  0.250000  1
  Pt  Pt25  1  0.847137  0.847137  0.750000  1
  Pt  Pt26  1  0.152863  0.152863  0.750000  1
  Pt  Pt27  1  0.152863  0.847137  0.250000  1
  Pt  Pt28  1  0.652863  0.347137  0.750000  1
  Pt  Pt29  1  0.652863  0.652863  0.250000  1
  Pt  Pt30  1  0.347137  0.347137  0.250000  1
  Pt  Pt31  1  0.347137  0.652863  0.750000  1
