# generated using pymatgen
data_Y8Er2InBi5
_symmetry_space_group_name_H-M   'P 1'
_cell_length_a   9.13953306
_cell_length_b   9.15326211
_cell_length_c   6.47293500
_cell_angle_alpha   90.01327662
_cell_angle_beta   89.99334859
_cell_angle_gamma   120.04970589
_symmetry_Int_Tables_number   1
_chemical_formula_structural   Y8Er2InBi5
_chemical_formula_sum   'Y8 Er2 In1 Bi5'
_cell_volume   468.72058833
_cell_formula_units_Z   1
loop_
 _symmetry_equiv_pos_site_id
 _symmetry_equiv_pos_as_xyz
  1  'x, y, z'
loop_
 _atom_site_type_symbol
 _atom_site_label
 _atom_site_symmetry_multiplicity
 _atom_site_fract_x
 _atom_site_fract_y
 _atom_site_fract_z
 _atom_site_occupancy
  Y  Y0  1  0.671248  0.334345  0.000306  1
  Y  Y1  1  0.328752  0.663097  0.000306  1
  Y  Y2  1  0.757945  0.756272  0.749827  1
  Y  Y3  1  0.242055  0.998328  0.749827  1
  Y  Y4  1  0.000000  0.241331  0.749845  1
  Y  Y5  1  0.236887  0.244538  0.250282  1
  Y  Y6  1  0.763113  0.007651  0.250282  1
  Y  Y7  1  0.000000  0.754871  0.250248  1
  Er  Er8  1  0.327960  0.662323  0.499060  1
  Er  Er9  1  0.672040  0.334362  0.499060  1
  In  In10  1  0.000000  0.394701  0.252109  1
  Bi  Bi11  1  0.391552  0.389155  0.748828  1
  Bi  Bi12  1  0.608448  0.997603  0.748828  1
  Bi  Bi13  1  0.000000  0.608496  0.748677  1
  Bi  Bi14  1  0.610072  0.611499  0.251258  1
  Bi  Bi15  1  0.389928  0.001426  0.251258  1
