# generated using pymatgen
data_KRb15(HfSe4)4
_symmetry_space_group_name_H-M   'P 1'
_cell_length_a   8.85395591
_cell_length_b   10.57572751
_cell_length_c   15.61703351
_cell_angle_alpha   89.75454088
_cell_angle_beta   89.84642075
_cell_angle_gamma   90.13194304
_symmetry_Int_Tables_number   1
_chemical_formula_structural   KRb15(HfSe4)4
_chemical_formula_sum   'K1 Rb15 Hf4 Se16'
_cell_volume   1462.30996921
_cell_formula_units_Z   1
loop_
 _symmetry_equiv_pos_site_id
 _symmetry_equiv_pos_as_xyz
  1  'x, y, z'
loop_
 _atom_site_type_symbol
 _atom_site_label
 _atom_site_symmetry_multiplicity
 _atom_site_fract_x
 _atom_site_fract_y
 _atom_site_fract_z
 _atom_site_occupancy
  K  K0  1  0.347733  0.554176  0.225101  1
  Rb  Rb1  1  0.000155  0.999890  0.999944  1
  Rb  Rb2  1  0.499760  0.000001  0.499968  1
  Rb  Rb3  1  0.999533  0.500082  0.000578  1
  Rb  Rb4  1  0.500136  0.500214  0.499689  1
  Rb  Rb5  1  0.985259  0.749928  0.428638  1
  Rb  Rb6  1  0.484929  0.250356  0.071081  1
  Rb  Rb7  1  0.015211  0.250406  0.570770  1
  Rb  Rb8  1  0.514455  0.749870  0.929333  1
  Rb  Rb9  1  0.844994  0.055493  0.277091  1
  Rb  Rb10  1  0.344743  0.943805  0.222898  1
  Rb  Rb11  1  0.154844  0.555480  0.722842  1
  Rb  Rb12  1  0.654983  0.444239  0.777226  1
  Rb  Rb13  1  0.155108  0.944625  0.722871  1
  Rb  Rb14  1  0.655074  0.055393  0.777048  1
  Rb  Rb15  1  0.845436  0.444658  0.277117  1
  Hf  Hf16  1  0.754250  0.749982  0.667487  1
  Hf  Hf17  1  0.246702  0.251185  0.331753  1
  Hf  Hf18  1  0.745388  0.749127  0.168007  1
  Hf  Hf19  1  0.254138  0.249968  0.832433  1
  Se  Se20  1  0.968727  0.249897  0.824476  1
  Se  Se21  1  0.532015  0.250596  0.323800  1
  Se  Se22  1  0.468867  0.750027  0.675628  1
  Se  Se23  1  0.031699  0.746822  0.176039  1
  Se  Se24  1  0.652638  0.553400  0.093247  1
  Se  Se25  1  0.159887  0.449101  0.406084  1
  Se  Se26  1  0.342312  0.053260  0.908598  1
  Se  Se27  1  0.842597  0.947028  0.591274  1
  Se  Se28  1  0.342068  0.446495  0.908049  1
  Se  Se29  1  0.842395  0.553563  0.591671  1
  Se  Se30  1  0.658639  0.946244  0.091761  1
  Se  Se31  1  0.157368  0.054346  0.408282  1
  Se  Se32  1  0.631948  0.748310  0.317710  1
  Se  Se33  1  0.136192  0.252124  0.181784  1
  Se  Se34  1  0.365179  0.250261  0.682086  1
  Se  Se35  1  0.864638  0.749649  0.817637  1
