# generated using pymatgen
data_Ca2MgIn7Ir2
_symmetry_space_group_name_H-M   'P 1'
_cell_length_a   4.24797200
_cell_length_b   7.52689001
_cell_length_c   8.86713838
_cell_angle_alpha   90.10127819
_cell_angle_beta   90.00000000
_cell_angle_gamma   90.00000000
_symmetry_Int_Tables_number   1
_chemical_formula_structural   Ca2MgIn7Ir2
_chemical_formula_sum   'Ca2 Mg1 In7 Ir2'
_cell_volume   283.51759937
_cell_formula_units_Z   1
loop_
 _symmetry_equiv_pos_site_id
 _symmetry_equiv_pos_as_xyz
  1  'x, y, z'
loop_
 _atom_site_type_symbol
 _atom_site_label
 _atom_site_symmetry_multiplicity
 _atom_site_fract_x
 _atom_site_fract_y
 _atom_site_fract_z
 _atom_site_occupancy
  Ca  Ca0  1  0.000000  0.402685  0.248558  1
  Ca  Ca1  1  0.000000  0.597315  0.751442  1
  Mg  Mg2  1  0.000000  0.000000  0.000000  1
  In  In3  1  0.500000  0.315912  0.565946  1
  In  In4  1  0.500000  0.062910  0.243114  1
  In  In5  1  0.000000  0.000000  0.500000  1
  In  In6  1  0.500000  0.937090  0.756886  1
  In  In7  1  0.500000  0.311068  0.935174  1
  In  In8  1  0.500000  0.688932  0.064826  1
  In  In9  1  0.500000  0.684088  0.434054  1
  Ir  Ir10  1  0.000000  0.806709  0.249693  1
  Ir  Ir11  1  0.000000  0.193291  0.750307  1
