# generated using pymatgen
data_Ba2RhO5
_symmetry_space_group_name_H-M   'P 1'
_cell_length_a   5.77019300
_cell_length_b   7.50743100
_cell_length_c   11.64696100
_cell_angle_alpha   90.00000000
_cell_angle_beta   90.00000000
_cell_angle_gamma   90.00000000
_symmetry_Int_Tables_number   1
_chemical_formula_structural   Ba2RhO5
_chemical_formula_sum   'Ba8 Rh4 O20'
_cell_volume   504.53849819
_cell_formula_units_Z   4
loop_
 _symmetry_equiv_pos_site_id
 _symmetry_equiv_pos_as_xyz
  1  'x, y, z'
loop_
 _atom_site_type_symbol
 _atom_site_label
 _atom_site_symmetry_multiplicity
 _atom_site_fract_x
 _atom_site_fract_y
 _atom_site_fract_z
 _atom_site_occupancy
  Ba  Ba0  1  0.750000  0.174680  0.580911  1
  Ba  Ba1  1  0.250000  0.825320  0.419089  1
  Ba  Ba2  1  0.750000  0.674680  0.919089  1
  Ba  Ba3  1  0.250000  0.325320  0.080911  1
  Ba  Ba4  1  0.250000  0.023712  0.791291  1
  Ba  Ba5  1  0.750000  0.976288  0.208709  1
  Ba  Ba6  1  0.250000  0.523712  0.708709  1
  Ba  Ba7  1  0.750000  0.476288  0.291291  1
  Rh  Rh8  1  0.250000  0.325650  0.437231  1
  Rh  Rh9  1  0.750000  0.674350  0.562769  1
  Rh  Rh10  1  0.250000  0.825650  0.062769  1
  Rh  Rh11  1  0.750000  0.174350  0.937231  1
  O  O12  1  0.492052  0.675634  0.115134  1
  O  O13  1  0.992052  0.324366  0.884866  1
  O  O14  1  0.007948  0.175634  0.384866  1
  O  O15  1  0.507948  0.824366  0.615134  1
  O  O16  1  0.507948  0.324366  0.884866  1
  O  O17  1  0.007948  0.675634  0.115134  1
  O  O18  1  0.992052  0.824366  0.615134  1
  O  O19  1  0.492052  0.175634  0.384866  1
  O  O20  1  0.750000  0.285911  0.093003  1
  O  O21  1  0.250000  0.714089  0.906997  1
  O  O22  1  0.750000  0.785911  0.406997  1
  O  O23  1  0.250000  0.214089  0.593003  1
  O  O24  1  0.000000  0.500000  0.500000  1
  O  O25  1  0.500000  0.500000  0.500000  1
  O  O26  1  0.500000  0.000000  0.000000  1
  O  O27  1  0.000000  0.000000  0.000000  1
  O  O28  1  0.250000  0.468279  0.300871  1
  O  O29  1  0.750000  0.531721  0.699129  1
  O  O30  1  0.250000  0.968279  0.199129  1
  O  O31  1  0.750000  0.031721  0.800871  1
