# generated using pymatgen
data_CsBa3(TiH5)4
_symmetry_space_group_name_H-M   'P 1'
_cell_length_a   10.51399488
_cell_length_b   7.05702921
_cell_length_c   4.87327199
_cell_angle_alpha   90.10666895
_cell_angle_beta   90.19759118
_cell_angle_gamma   91.12851764
_symmetry_Int_Tables_number   1
_chemical_formula_structural   CsBa3(TiH5)4
_chemical_formula_sum   'Cs1 Ba3 Ti4 H20'
_cell_volume   361.51197657
_cell_formula_units_Z   1
loop_
 _symmetry_equiv_pos_site_id
 _symmetry_equiv_pos_as_xyz
  1  'x, y, z'
loop_
 _atom_site_type_symbol
 _atom_site_label
 _atom_site_symmetry_multiplicity
 _atom_site_fract_x
 _atom_site_fract_y
 _atom_site_fract_z
 _atom_site_occupancy
  Cs  Cs0  1  0.323558  0.908978  0.842880  1
  Ba  Ba1  1  0.669575  0.089395  0.334704  1
  Ba  Ba2  1  0.179111  0.410058  0.337332  1
  Ba  Ba3  1  0.827299  0.592833  0.835410  1
  Ti  Ti4  1  0.535898  0.575675  0.307097  1
  Ti  Ti5  1  0.010519  0.917382  0.313393  1
  Ti  Ti6  1  0.968048  0.088860  0.811095  1
  Ti  Ti7  1  0.485052  0.417041  0.804097  1
  H  H8  1  0.318490  0.324489  0.797644  1
  H  H9  1  0.811514  0.205914  0.816047  1
  H  H10  1  0.960717  0.656683  0.325666  1
  H  H11  1  0.493578  0.825030  0.325191  1
  H  H12  1  0.614670  0.402577  0.076010  1
  H  H13  1  0.092220  0.097666  0.091714  1
  H  H14  1  0.394148  0.534274  0.084834  1
  H  H15  1  0.870325  0.957106  0.077383  1
  H  H16  1  0.945720  0.158674  0.431047  1
  H  H17  1  0.464208  0.337239  0.427044  1
  H  H18  1  0.161128  0.791436  0.324087  1
  H  H19  1  0.695208  0.694370  0.311392  1
  H  H20  1  0.540125  0.168773  0.816033  1
  H  H21  1  0.028075  0.346780  0.820370  1
  H  H22  1  0.881872  0.911418  0.584341  1
  H  H23  1  0.407824  0.587489  0.566824  1
  H  H24  1  0.106264  0.051279  0.575266  1
  H  H25  1  0.628521  0.446664  0.574023  1
  H  H26  1  0.556747  0.650552  0.928184  1
  H  H27  1  0.029587  0.851365  0.928887  1
