# generated using pymatgen
data_DyLu3Tl2(TeO6)3
_symmetry_space_group_name_H-M   'P 1'
_cell_length_a   9.13640991
_cell_length_b   9.11498465
_cell_length_c   5.12149393
_cell_angle_alpha   90.00146486
_cell_angle_beta   89.93102569
_cell_angle_gamma   120.01823185
_symmetry_Int_Tables_number   1
_chemical_formula_structural   DyLu3Tl2(TeO6)3
_chemical_formula_sum   'Dy1 Lu3 Tl2 Te3 O18'
_cell_volume   369.29938532
_cell_formula_units_Z   1
loop_
 _symmetry_equiv_pos_site_id
 _symmetry_equiv_pos_as_xyz
  1  'x, y, z'
loop_
 _atom_site_type_symbol
 _atom_site_label
 _atom_site_symmetry_multiplicity
 _atom_site_fract_x
 _atom_site_fract_y
 _atom_site_fract_z
 _atom_site_occupancy
  Dy  Dy0  1  0.618643  0.998642  0.001465  1
  Lu  Lu1  1  0.378656  0.376644  0.998759  1
  Lu  Lu2  1  0.287206  0.001693  0.499040  1
  Lu  Lu3  1  0.712608  0.714781  0.501094  1
  Tl  Tl4  1  0.000286  0.624812  0.000872  1
  Tl  Tl5  1  0.999824  0.284867  0.499719  1
  Te  Te6  1  0.334491  0.665455  0.502768  1
  Te  Te7  1  0.001838  0.999747  0.000324  1
  Te  Te8  1  0.663865  0.334054  0.496868  1
  O  O9  1  0.084196  0.883141  0.780836  1
  O  O10  1  0.230033  0.766631  0.286098  1
  O  O11  1  0.133020  0.538909  0.722363  1
  O  O12  1  0.408759  0.868578  0.713197  1
  O  O13  1  0.246010  0.464370  0.281623  1
  O  O14  1  0.126366  0.204570  0.788553  1
  O  O15  1  0.207006  0.119790  0.206534  1
  O  O16  1  0.539657  0.775037  0.290451  1
  O  O17  1  0.458826  0.588796  0.722430  1
  O  O18  1  0.798185  0.914588  0.791148  1
  O  O19  1  0.460368  0.237805  0.716581  1
  O  O20  1  0.585988  0.459138  0.282929  1
  O  O21  1  0.537676  0.131550  0.284443  1
  O  O22  1  0.771914  0.539632  0.709919  1
  O  O23  1  0.918586  0.801107  0.222408  1
  O  O24  1  0.755332  0.222545  0.713529  1
  O  O25  1  0.863236  0.404625  0.272129  1
  O  O26  1  0.877427  0.078491  0.213920  1
