# generated using pymatgen
data_TbDyPa(SnRh)3
_symmetry_space_group_name_H-M   'P 1'
_cell_length_a   7.55520702
_cell_length_b   7.55696477
_cell_length_c   3.85834600
_cell_angle_alpha   90.00000000
_cell_angle_beta   90.00000000
_cell_angle_gamma   119.01032394
_symmetry_Int_Tables_number   1
_chemical_formula_structural   TbDyPa(SnRh)3
_chemical_formula_sum   'Tb1 Dy1 Pa1 Sn3 Rh3'
_cell_volume   192.65079713
_cell_formula_units_Z   1
loop_
 _symmetry_equiv_pos_site_id
 _symmetry_equiv_pos_as_xyz
  1  'x, y, z'
loop_
 _atom_site_type_symbol
 _atom_site_label
 _atom_site_symmetry_multiplicity
 _atom_site_fract_x
 _atom_site_fract_y
 _atom_site_fract_z
 _atom_site_occupancy
  Tb  Tb0  1  0.595433  0.999679  0.500000  1
  Dy  Dy1  1  0.999697  0.595573  0.500000  1
  Pa  Pa2  1  0.412650  0.412671  0.500000  1
  Sn  Sn3  1  0.755666  0.755378  0.000000  1
  Sn  Sn4  1  0.258712  0.986266  0.000000  1
  Sn  Sn5  1  0.986558  0.259186  0.000000  1
  Rh  Rh6  1  0.638038  0.336865  0.000000  1
  Rh  Rh7  1  0.336349  0.637755  0.000000  1
  Rh  Rh8  1  0.016897  0.016625  0.500000  1
