# generated using pymatgen
data_Ca9Y3(SiRh)8
_symmetry_space_group_name_H-M   'P 1'
_cell_length_a   5.74277810
_cell_length_b   7.68277747
_cell_length_c   13.33016300
_cell_angle_alpha   90.00000000
_cell_angle_beta   90.00000000
_cell_angle_gamma   89.90501361
_symmetry_Int_Tables_number   1
_chemical_formula_structural   Ca9Y3(SiRh)8
_chemical_formula_sum   'Ca9 Y3 Si8 Rh8'
_cell_volume   588.13246489
_cell_formula_units_Z   1
loop_
 _symmetry_equiv_pos_site_id
 _symmetry_equiv_pos_as_xyz
  1  'x, y, z'
loop_
 _atom_site_type_symbol
 _atom_site_label
 _atom_site_symmetry_multiplicity
 _atom_site_fract_x
 _atom_site_fract_y
 _atom_site_fract_z
 _atom_site_occupancy
  Ca  Ca0  1  0.132055  0.608989  0.101282  1
  Ca  Ca1  1  0.132524  0.889205  0.898544  1
  Ca  Ca2  1  0.867441  0.108203  0.399614  1
  Ca  Ca3  1  0.865990  0.393535  0.600212  1
  Ca  Ca4  1  0.865990  0.393535  0.899788  1
  Ca  Ca5  1  0.867441  0.108203  0.100386  1
  Ca  Ca6  1  0.132524  0.889205  0.601456  1
  Ca  Ca7  1  0.132055  0.608989  0.398718  1
  Ca  Ca8  1  0.638530  0.739385  0.750000  1
  Y  Y9  1  0.367881  0.257838  0.250000  1
  Y  Y10  1  0.367314  0.238666  0.750000  1
  Y  Y11  1  0.632763  0.757829  0.250000  1
  Si  Si12  1  0.846934  0.405394  0.250000  1
  Si  Si13  1  0.846419  0.094900  0.750000  1
  Si  Si14  1  0.153858  0.907105  0.250000  1
  Si  Si15  1  0.161319  0.585366  0.750000  1
  Si  Si16  1  0.401435  0.250542  0.001255  1
  Si  Si17  1  0.597948  0.751552  0.497996  1
  Si  Si18  1  0.597948  0.751552  0.002004  1
  Si  Si19  1  0.401435  0.250542  0.498745  1
  Rh  Rh20  1  0.628415  0.475222  0.092731  1
  Rh  Rh21  1  0.628400  0.029295  0.909355  1
  Rh  Rh22  1  0.369930  0.975551  0.408275  1
  Rh  Rh23  1  0.368353  0.524664  0.590235  1
  Rh  Rh24  1  0.368353  0.524664  0.909765  1
  Rh  Rh25  1  0.369930  0.975551  0.091725  1
  Rh  Rh26  1  0.628400  0.029295  0.590645  1
  Rh  Rh27  1  0.628415  0.475222  0.407269  1
