# generated using pymatgen
data_Ba2AlTe5As
_symmetry_space_group_name_H-M   'P 1'
_cell_length_a   9.64117100
_cell_length_b   9.94480100
_cell_length_c   13.56156000
_cell_angle_alpha   90.00000000
_cell_angle_beta   90.00000000
_cell_angle_gamma   90.00000000
_symmetry_Int_Tables_number   1
_chemical_formula_structural   Ba2AlTe5As
_chemical_formula_sum   'Ba8 Al4 Te20 As4'
_cell_volume   1300.27595821
_cell_formula_units_Z   4
loop_
 _symmetry_equiv_pos_site_id
 _symmetry_equiv_pos_as_xyz
  1  'x, y, z'
loop_
 _atom_site_type_symbol
 _atom_site_label
 _atom_site_symmetry_multiplicity
 _atom_site_fract_x
 _atom_site_fract_y
 _atom_site_fract_z
 _atom_site_occupancy
  Ba  Ba0  1  0.993437  0.136780  0.673570  1
  Ba  Ba1  1  0.506563  0.363220  0.173570  1
  Ba  Ba2  1  0.493437  0.863220  0.326430  1
  Ba  Ba3  1  0.006563  0.636780  0.826430  1
  Ba  Ba4  1  0.006563  0.863220  0.326430  1
  Ba  Ba5  1  0.493437  0.636780  0.826430  1
  Ba  Ba6  1  0.506563  0.136780  0.673570  1
  Ba  Ba7  1  0.993437  0.363220  0.173570  1
  Al  Al8  1  0.250000  0.838437  0.597107  1
  Al  Al9  1  0.250000  0.661563  0.097107  1
  Al  Al10  1  0.750000  0.161563  0.402893  1
  Al  Al11  1  0.750000  0.338437  0.902893  1
  Te  Te12  1  0.039011  0.674522  0.556113  1
  Te  Te13  1  0.460989  0.825478  0.056113  1
  Te  Te14  1  0.539011  0.325478  0.443887  1
  Te  Te15  1  0.960989  0.174522  0.943887  1
  Te  Te16  1  0.960989  0.325478  0.443887  1
  Te  Te17  1  0.539011  0.174522  0.943887  1
  Te  Te18  1  0.460989  0.674522  0.556113  1
  Te  Te19  1  0.039011  0.825478  0.056113  1
  Te  Te20  1  0.750000  0.949739  0.515390  1
  Te  Te21  1  0.750000  0.550261  0.015390  1
  Te  Te22  1  0.250000  0.050261  0.484610  1
  Te  Te23  1  0.250000  0.449739  0.984610  1
  Te  Te24  1  0.250000  0.914026  0.782905  1
  Te  Te25  1  0.250000  0.585974  0.282905  1
  Te  Te26  1  0.750000  0.085974  0.217095  1
  Te  Te27  1  0.750000  0.414026  0.717095  1
  Te  Te28  1  0.250000  0.403571  0.716202  1
  Te  Te29  1  0.250000  0.096429  0.216202  1
  Te  Te30  1  0.750000  0.596429  0.283798  1
  Te  Te31  1  0.750000  0.903571  0.783798  1
  As  As32  1  0.250000  0.499233  0.530206  1
  As  As33  1  0.250000  0.000767  0.030206  1
  As  As34  1  0.750000  0.500767  0.469794  1
  As  As35  1  0.750000  0.999233  0.969794  1
