# generated using pymatgen
data_ErSc4(ReTc)12
_symmetry_space_group_name_H-M   'P 1'
_cell_length_a   8.47901488
_cell_length_b   8.47901556
_cell_length_c   8.47901500
_cell_angle_alpha   109.47121691
_cell_angle_beta   109.47121852
_cell_angle_gamma   109.47122789
_symmetry_Int_Tables_number   1
_chemical_formula_structural   ErSc4(ReTc)12
_chemical_formula_sum   'Er1 Sc4 Re12 Tc12'
_cell_volume   469.26086289
_cell_formula_units_Z   1
loop_
 _symmetry_equiv_pos_site_id
 _symmetry_equiv_pos_as_xyz
  1  'x, y, z'
loop_
 _atom_site_type_symbol
 _atom_site_label
 _atom_site_symmetry_multiplicity
 _atom_site_fract_x
 _atom_site_fract_y
 _atom_site_fract_z
 _atom_site_occupancy
  Er  Er0  1  0.000000  0.000000  0.000000  1
  Sc  Sc1  1  0.626341  0.000000  0.000000  1
  Sc  Sc2  1  0.000000  0.626341  0.000000  1
  Sc  Sc3  1  0.000000  0.000000  0.626341  1
  Sc  Sc4  1  0.373659  0.373659  0.373659  1
  Re  Re5  1  0.378420  0.193075  0.000000  1
  Re  Re6  1  0.185347  0.806925  0.806925  1
  Re  Re7  1  0.378420  0.000000  0.193075  1
  Re  Re8  1  0.193075  0.378420  0.000000  1
  Re  Re9  1  0.000000  0.378420  0.193075  1
  Re  Re10  1  0.806925  0.185347  0.806925  1
  Re  Re11  1  0.806925  0.806925  0.185347  1
  Re  Re12  1  0.000000  0.193075  0.378420  1
  Re  Re13  1  0.193075  0.000000  0.378420  1
  Re  Re14  1  0.621580  0.621580  0.814653  1
  Re  Re15  1  0.814653  0.621580  0.621580  1
  Re  Re16  1  0.621580  0.814653  0.621580  1
  Tc  Tc17  1  0.398009  0.675924  0.000000  1
  Tc  Tc18  1  0.722085  0.324076  0.324076  1
  Tc  Tc19  1  0.398009  0.000000  0.675924  1
  Tc  Tc20  1  0.675924  0.398009  0.000000  1
  Tc  Tc21  1  0.000000  0.398009  0.675924  1
  Tc  Tc22  1  0.324076  0.722085  0.324076  1
  Tc  Tc23  1  0.324076  0.324076  0.722085  1
  Tc  Tc24  1  0.000000  0.675924  0.398009  1
  Tc  Tc25  1  0.675924  0.000000  0.398009  1
  Tc  Tc26  1  0.601991  0.601991  0.277915  1
  Tc  Tc27  1  0.277915  0.601991  0.601991  1
  Tc  Tc28  1  0.601991  0.277915  0.601991  1
