# generated using pymatgen
data_Hf6Co17MoP12
_symmetry_space_group_name_H-M   'P 1'
_cell_length_a   3.62422700
_cell_length_b   10.32246100
_cell_length_c   11.95369600
_cell_angle_alpha   90.00000000
_cell_angle_beta   90.00000000
_cell_angle_gamma   90.00000000
_symmetry_Int_Tables_number   1
_chemical_formula_structural   Hf6Co17MoP12
_chemical_formula_sum   'Hf6 Co17 Mo1 P12'
_cell_volume   447.19902610
_cell_formula_units_Z   1
loop_
 _symmetry_equiv_pos_site_id
 _symmetry_equiv_pos_as_xyz
  1  'x, y, z'
loop_
 _atom_site_type_symbol
 _atom_site_label
 _atom_site_symmetry_multiplicity
 _atom_site_fract_x
 _atom_site_fract_y
 _atom_site_fract_z
 _atom_site_occupancy
  Hf  Hf0  1  0.000000  0.500000  0.530680  1
  Hf  Hf1  1  0.500000  0.000000  0.473034  1
  Hf  Hf2  1  0.500000  0.821815  0.209128  1
  Hf  Hf3  1  0.500000  0.178185  0.209128  1
  Hf  Hf4  1  0.000000  0.678689  0.792861  1
  Hf  Hf5  1  0.000000  0.321311  0.792861  1
  Co  Co6  1  0.000000  0.000000  0.833964  1
  Co  Co7  1  0.500000  0.500000  0.702213  1
  Co  Co8  1  0.000000  0.000000  0.296780  1
  Co  Co9  1  0.000000  0.500000  0.987156  1
  Co  Co10  1  0.500000  0.000000  0.014553  1
  Co  Co11  1  0.500000  0.331002  0.988950  1
  Co  Co12  1  0.500000  0.668998  0.988950  1
  Co  Co13  1  0.000000  0.165754  0.006232  1
  Co  Co14  1  0.000000  0.834246  0.006232  1
  Co  Co15  1  0.500000  0.299083  0.434025  1
  Co  Co16  1  0.500000  0.700917  0.434025  1
  Co  Co17  1  0.000000  0.199612  0.567108  1
  Co  Co18  1  0.000000  0.800388  0.567108  1
  Co  Co19  1  0.500000  0.875138  0.706889  1
  Co  Co20  1  0.500000  0.124862  0.706889  1
  Co  Co21  1  0.000000  0.625877  0.294486  1
  Co  Co22  1  0.000000  0.374123  0.294486  1
  Mo  Mo23  1  0.500000  0.500000  0.160933  1
  P  P24  1  0.500000  0.500000  0.877602  1
  P  P25  1  0.000000  0.000000  0.121333  1
  P  P26  1  0.500000  0.500000  0.358454  1
  P  P27  1  0.000000  0.000000  0.646904  1
  P  P28  1  0.500000  0.316839  0.618277  1
  P  P29  1  0.500000  0.683161  0.618277  1
  P  P30  1  0.000000  0.181694  0.383256  1
  P  P31  1  0.000000  0.818306  0.383256  1
  P  P32  1  0.500000  0.847576  0.887391  1
  P  P33  1  0.500000  0.152424  0.887391  1
  P  P34  1  0.000000  0.661331  0.109596  1
  P  P35  1  0.000000  0.338669  0.109596  1
