# generated using pymatgen
data_Hf8Fe2RhAu
_symmetry_space_group_name_H-M   'P 1'
_cell_length_a   8.65654005
_cell_length_b   8.65684016
_cell_length_c   8.66220001
_cell_angle_alpha   59.98053625
_cell_angle_beta   59.97895038
_cell_angle_gamma   60.09626381
_symmetry_Int_Tables_number   1
_chemical_formula_structural   Hf8Fe2RhAu
_chemical_formula_sum   'Hf16 Fe4 Rh2 Au2'
_cell_volume   459.19661299
_cell_formula_units_Z   2
loop_
 _symmetry_equiv_pos_site_id
 _symmetry_equiv_pos_as_xyz
  1  'x, y, z'
loop_
 _atom_site_type_symbol
 _atom_site_label
 _atom_site_symmetry_multiplicity
 _atom_site_fract_x
 _atom_site_fract_y
 _atom_site_fract_z
 _atom_site_occupancy
  Hf  Hf0  1  0.688651  0.104912  0.103226  1
  Hf  Hf1  1  0.104837  0.688341  0.103427  1
  Hf  Hf2  1  0.104419  0.104693  0.687983  1
  Hf  Hf3  1  0.104412  0.104663  0.102901  1
  Hf  Hf4  1  0.309705  0.309748  0.690277  1
  Hf  Hf5  1  0.689938  0.689949  0.310060  1
  Hf  Hf6  1  0.309539  0.682612  0.310765  1
  Hf  Hf7  1  0.682573  0.309577  0.697083  1
  Hf  Hf8  1  0.682584  0.309566  0.310768  1
  Hf  Hf9  1  0.309522  0.682632  0.697103  1
  Hf  Hf10  1  0.939640  0.939663  0.560337  1
  Hf  Hf11  1  0.557863  0.557617  0.942265  1
  Hf  Hf12  1  0.941661  0.559112  0.939697  1
  Hf  Hf13  1  0.559200  0.941736  0.559346  1
  Hf  Hf14  1  0.559177  0.941739  0.939727  1
  Hf  Hf15  1  0.941655  0.559132  0.559521  1
  Fe  Fe16  1  0.322329  0.893170  0.892235  1
  Fe  Fe17  1  0.893176  0.322395  0.892211  1
  Fe  Fe18  1  0.892603  0.892518  0.322691  1
  Fe  Fe19  1  0.892602  0.892511  0.892178  1
  Rh  Rh20  1  0.340688  0.340561  0.982634  1
  Rh  Rh21  1  0.340698  0.340582  0.336109  1
  Au  Au22  1  0.995447  0.337047  0.333755  1
  Au  Au23  1  0.337079  0.995519  0.333700  1
