# generated using pymatgen
data_Hf18Mo8IrS
_symmetry_space_group_name_H-M   'P 1'
_cell_length_a   8.70622600
_cell_length_b   8.70622473
_cell_length_c   8.57093900
_cell_angle_alpha   90.00000000
_cell_angle_beta   90.00000000
_cell_angle_gamma   119.99999722
_symmetry_Int_Tables_number   1
_chemical_formula_structural   Hf18Mo8IrS
_chemical_formula_sum   'Hf18 Mo8 Ir1 S1'
_cell_volume   562.62478237
_cell_formula_units_Z   1
loop_
 _symmetry_equiv_pos_site_id
 _symmetry_equiv_pos_as_xyz
  1  'x, y, z'
loop_
 _atom_site_type_symbol
 _atom_site_label
 _atom_site_symmetry_multiplicity
 _atom_site_fract_x
 _atom_site_fract_y
 _atom_site_fract_z
 _atom_site_occupancy
  Hf  Hf0  1  0.197853  0.802147  0.447525  1
  Hf  Hf1  1  0.197853  0.395707  0.447525  1
  Hf  Hf2  1  0.604293  0.802147  0.447525  1
  Hf  Hf3  1  0.803005  0.196995  0.549892  1
  Hf  Hf4  1  0.803005  0.606010  0.549892  1
  Hf  Hf5  1  0.393990  0.196995  0.549892  1
  Hf  Hf6  1  0.803005  0.196995  0.950108  1
  Hf  Hf7  1  0.803005  0.606010  0.950108  1
  Hf  Hf8  1  0.393990  0.196995  0.950108  1
  Hf  Hf9  1  0.197853  0.802147  0.052475  1
  Hf  Hf10  1  0.197853  0.395707  0.052475  1
  Hf  Hf11  1  0.604293  0.802147  0.052475  1
  Hf  Hf12  1  0.542497  0.457503  0.250000  1
  Hf  Hf13  1  0.542497  0.084994  0.250000  1
  Hf  Hf14  1  0.915006  0.457503  0.250000  1
  Hf  Hf15  1  0.455761  0.544239  0.750000  1
  Hf  Hf16  1  0.455761  0.911522  0.750000  1
  Hf  Hf17  1  0.088478  0.544239  0.750000  1
  Mo  Mo18  1  0.887950  0.112050  0.250000  1
  Mo  Mo19  1  0.887950  0.775898  0.250000  1
  Mo  Mo20  1  0.224102  0.112050  0.250000  1
  Mo  Mo21  1  0.110611  0.889389  0.750000  1
  Mo  Mo22  1  0.110611  0.221222  0.750000  1
  Mo  Mo23  1  0.778778  0.889389  0.750000  1
  Mo  Mo24  1  0.000000  0.000000  0.498167  1
  Mo  Mo25  1  0.000000  0.000000  0.001833  1
  Ir  Ir26  1  0.333333  0.666667  0.250000  1
  S  S27  1  0.666667  0.333333  0.750000  1
