# generated using pymatgen
data_La3Dy2P12Ir9Ru10
_symmetry_space_group_name_H-M   'P 1'
_cell_length_a   12.70640800
_cell_length_b   12.66726965
_cell_length_c   4.00248300
_cell_angle_alpha   90.00000000
_cell_angle_beta   90.00000000
_cell_angle_gamma   119.83973389
_symmetry_Int_Tables_number   1
_chemical_formula_structural   La3Dy2P12Ir9Ru10
_chemical_formula_sum   'La3 Dy2 P12 Ir9 Ru10'
_cell_volume   558.81111974
_cell_formula_units_Z   1
loop_
 _symmetry_equiv_pos_site_id
 _symmetry_equiv_pos_as_xyz
  1  'x, y, z'
loop_
 _atom_site_type_symbol
 _atom_site_label
 _atom_site_symmetry_multiplicity
 _atom_site_fract_x
 _atom_site_fract_y
 _atom_site_fract_z
 _atom_site_occupancy
  La  La0  1  0.813335  0.000853  0.500000  1
  La  La1  1  0.184688  0.186873  0.500000  1
  La  La2  1  0.000387  0.814463  0.500000  1
  Dy  Dy3  1  0.667403  0.332586  0.000000  1
  Dy  Dy4  1  0.333449  0.666763  0.000000  1
  P  P5  1  0.627335  0.996501  0.000000  1
  P  P6  1  0.367627  0.374439  0.000000  1
  P  P7  1  0.007142  0.632416  0.000000  1
  P  P8  1  0.690763  0.518157  0.500000  1
  P  P9  1  0.827510  0.305759  0.500000  1
  P  P10  1  0.312054  0.828202  0.500000  1
  P  P11  1  0.516195  0.687869  0.500000  1
  P  P12  1  0.185896  0.001531  0.000000  1
  P  P13  1  0.813904  0.813912  0.000000  1
  P  P14  1  0.996863  0.186904  0.000000  1
  P  P15  1  0.481155  0.170164  0.500000  1
  P  P16  1  0.172342  0.484479  0.500000  1
  Ir  Ir17  1  0.619040  0.799356  0.000000  1
  Ir  Ir18  1  0.181452  0.381718  0.000000  1
  Ir  Ir19  1  0.379683  0.184964  0.000000  1
  Ir  Ir20  1  0.200312  0.820507  0.000000  1
  Ir  Ir21  1  0.805171  0.619955  0.000000  1
  Ir  Ir22  1  0.868538  0.503686  0.500000  1
  Ir  Ir23  1  0.495553  0.362680  0.500000  1
  Ir  Ir24  1  0.634990  0.128397  0.500000  1
  Ir  Ir25  1  0.999400  0.000181  0.000000  1
  Ru  Ru26  1  0.127321  0.638322  0.500000  1
  Ru  Ru27  1  0.363244  0.489678  0.500000  1
  Ru  Ru28  1  0.509143  0.871178  0.500000  1
  Ru  Ru29  1  0.710542  0.708872  0.500000  1
  Ru  Ru30  1  0.000817  0.290897  0.500000  1
  Ru  Ru31  1  0.450627  0.001598  0.000000  1
  Ru  Ru32  1  0.551514  0.546986  0.000000  1
  Ru  Ru33  1  0.998488  0.449912  0.000000  1
  Ru  Ru34  1  0.815665  0.197568  0.000000  1
  Ru  Ru35  1  0.290451  0.001675  0.500000  1
