# generated using pymatgen
data_CeHo(SbAu)2
_symmetry_space_group_name_H-M   'P 1'
_cell_length_a   4.59505900
_cell_length_b   4.59505890
_cell_length_c   16.66524900
_cell_angle_alpha   90.00000000
_cell_angle_beta   90.00000000
_cell_angle_gamma   119.99999352
_symmetry_Int_Tables_number   1
_chemical_formula_structural   CeHo(SbAu)2
_chemical_formula_sum   'Ce2 Ho2 Sb4 Au4'
_cell_volume   304.73661685
_cell_formula_units_Z   2
loop_
 _symmetry_equiv_pos_site_id
 _symmetry_equiv_pos_as_xyz
  1  'x, y, z'
loop_
 _atom_site_type_symbol
 _atom_site_label
 _atom_site_symmetry_multiplicity
 _atom_site_fract_x
 _atom_site_fract_y
 _atom_site_fract_z
 _atom_site_occupancy
  Ce  Ce0  1  0.000000  0.000000  0.500000  1
  Ce  Ce1  1  0.000000  0.000000  0.000000  1
  Ho  Ho2  1  0.000000  0.000000  0.250000  1
  Ho  Ho3  1  0.000000  0.000000  0.750000  1
  Sb  Sb4  1  0.333333  0.666667  0.389216  1
  Sb  Sb5  1  0.666667  0.333333  0.610784  1
  Sb  Sb6  1  0.666667  0.333333  0.889216  1
  Sb  Sb7  1  0.333333  0.666667  0.110784  1
  Au  Au8  1  0.666667  0.333333  0.336212  1
  Au  Au9  1  0.333333  0.666667  0.663788  1
  Au  Au10  1  0.333333  0.666667  0.836212  1
  Au  Au11  1  0.666667  0.333333  0.163788  1
