# generated using pymatgen
data_CaPr5SmCoI12
_symmetry_space_group_name_H-M   'P 1'
_cell_length_a   9.97962973
_cell_length_b   10.10061991
_cell_length_c   10.07948970
_cell_angle_alpha   106.92046239
_cell_angle_beta   106.98021784
_cell_angle_gamma   106.93382692
_symmetry_Int_Tables_number   1
_chemical_formula_structural   CaPr5SmCoI12
_chemical_formula_sum   'Ca1 Pr5 Sm1 Co1 I12'
_cell_volume   847.41861704
_cell_formula_units_Z   1
loop_
 _symmetry_equiv_pos_site_id
 _symmetry_equiv_pos_as_xyz
  1  'x, y, z'
loop_
 _atom_site_type_symbol
 _atom_site_label
 _atom_site_symmetry_multiplicity
 _atom_site_fract_x
 _atom_site_fract_y
 _atom_site_fract_z
 _atom_site_occupancy
  Ca  Ca0  1  0.500367  0.500120  0.499800  1
  Pr  Pr1  1  0.025338  0.099997  0.305867  1
  Pr  Pr2  1  0.100175  0.304794  0.025498  1
  Pr  Pr3  1  0.287505  0.024311  0.093028  1
  Pr  Pr4  1  0.899807  0.694999  0.974465  1
  Pr  Pr5  1  0.711994  0.975071  0.904660  1
  Sm  Sm6  1  0.974391  0.900942  0.699620  1
  Co  Co7  1  0.999535  0.999678  0.999497  1
  I  I8  1  0.536499  0.617613  0.839865  1
  I  I9  1  0.463397  0.382459  0.159734  1
  I  I10  1  0.314002  0.926182  0.771605  1
  I  I11  1  0.385067  0.159159  0.460514  1
  I  I12  1  0.927378  0.774873  0.322247  1
  I  I13  1  0.678653  0.072116  0.223650  1
  I  I14  1  0.071170  0.219546  0.680180  1
  I  I15  1  0.770496  0.317534  0.925526  1
  I  I16  1  0.229415  0.682430  0.074278  1
  I  I17  1  0.846305  0.544977  0.618008  1
  I  I18  1  0.157020  0.461244  0.382231  1
  I  I19  1  0.621486  0.841953  0.539727  1
