# generated using pymatgen
data_YbLu2Pa5(Pt2Pb)4
_symmetry_space_group_name_H-M   'P 1'
_cell_length_a   7.92512461
_cell_length_b   7.92512394
_cell_length_c   7.22530000
_cell_angle_alpha   90.00000000
_cell_angle_beta   90.00000000
_cell_angle_gamma   91.02427093
_symmetry_Int_Tables_number   1
_chemical_formula_structural   YbLu2Pa5(Pt2Pb)4
_chemical_formula_sum   'Yb1 Lu2 Pa5 Pt8 Pb4'
_cell_volume   453.73120268
_cell_formula_units_Z   1
loop_
 _symmetry_equiv_pos_site_id
 _symmetry_equiv_pos_as_xyz
  1  'x, y, z'
loop_
 _atom_site_type_symbol
 _atom_site_label
 _atom_site_symmetry_multiplicity
 _atom_site_fract_x
 _atom_site_fract_y
 _atom_site_fract_z
 _atom_site_occupancy
  Yb  Yb0  1  0.161963  0.838037  0.000000  1
  Lu  Lu1  1  0.174118  0.825882  0.500000  1
  Lu  Lu2  1  0.841884  0.158116  0.000000  1
  Pa  Pa3  1  0.681685  0.678279  0.000000  1
  Pa  Pa4  1  0.337354  0.338137  0.500000  1
  Pa  Pa5  1  0.823297  0.176703  0.500000  1
  Pa  Pa6  1  0.661863  0.662646  0.500000  1
  Pa  Pa7  1  0.321721  0.318315  0.000000  1
  Pt  Pt8  1  0.864898  0.873310  0.729551  1
  Pt  Pt9  1  0.126690  0.135102  0.729551  1
  Pt  Pt10  1  0.630830  0.369170  0.767022  1
  Pt  Pt11  1  0.630830  0.369170  0.232978  1
  Pt  Pt12  1  0.378866  0.621134  0.237382  1
  Pt  Pt13  1  0.126690  0.135102  0.270449  1
  Pt  Pt14  1  0.864898  0.873310  0.270449  1
  Pt  Pt15  1  0.378866  0.621134  0.762618  1
  Pb  Pb16  1  0.492674  0.995899  0.752831  1
  Pb  Pb17  1  0.492674  0.995899  0.247169  1
  Pb  Pb18  1  0.004101  0.507326  0.752831  1
  Pb  Pb19  1  0.004101  0.507326  0.247169  1
