# generated using pymatgen
data_Tb11Dy5In4(RuRh)2
_symmetry_space_group_name_H-M   'P 1'
_cell_length_a   9.69877641
_cell_length_b   9.68222805
_cell_length_c   9.68139318
_cell_angle_alpha   59.84309039
_cell_angle_beta   59.93132560
_cell_angle_gamma   59.93521482
_symmetry_Int_Tables_number   1
_chemical_formula_structural   Tb11Dy5In4(RuRh)2
_chemical_formula_sum   'Tb11 Dy5 In4 Ru2 Rh2'
_cell_volume   641.44544322
_cell_formula_units_Z   1
loop_
 _symmetry_equiv_pos_site_id
 _symmetry_equiv_pos_as_xyz
  1  'x, y, z'
loop_
 _atom_site_type_symbol
 _atom_site_label
 _atom_site_symmetry_multiplicity
 _atom_site_fract_x
 _atom_site_fract_y
 _atom_site_fract_z
 _atom_site_occupancy
  Tb  Tb0  1  0.690812  0.309328  0.309323  1
  Tb  Tb1  1  0.693053  0.689344  0.310637  1
  Tb  Tb2  1  0.307262  0.689493  0.310448  1
  Tb  Tb3  1  0.936598  0.941524  0.561819  1
  Tb  Tb4  1  0.151989  0.152124  0.543608  1
  Tb  Tb5  1  0.559970  0.941657  0.561374  1
  Tb  Tb6  1  0.151187  0.151514  0.151266  1
  Tb  Tb7  1  0.307368  0.310511  0.689555  1
  Tb  Tb8  1  0.941429  0.558396  0.558569  1
  Tb  Tb9  1  0.560045  0.561275  0.941646  1
  Tb  Tb10  1  0.563279  0.936953  0.936893  1
  Dy  Dy11  1  0.936813  0.561554  0.941647  1
  Dy  Dy12  1  0.152163  0.543419  0.152005  1
  Dy  Dy13  1  0.307677  0.692392  0.692635  1
  Dy  Dy14  1  0.692868  0.310578  0.689561  1
  Dy  Dy15  1  0.546131  0.151360  0.151128  1
  In  In16  1  0.917081  0.917714  0.247949  1
  In  In17  1  0.245326  0.918534  0.918620  1
  In  In18  1  0.916983  0.248230  0.917733  1
  In  In19  1  0.917420  0.918460  0.918640  1
  Ru  Ru20  1  0.361943  0.358184  0.357855  1
  Ru  Ru21  1  0.921839  0.358192  0.357890  1
  Rh  Rh22  1  0.360337  0.357999  0.921364  1
  Rh  Rh23  1  0.360430  0.921262  0.357833  1
