# generated using pymatgen
data_PrHo2Mg3AgPb2
_symmetry_space_group_name_H-M   'P 1'
_cell_length_a   7.63368278
_cell_length_b   7.63368339
_cell_length_c   4.63100700
_cell_angle_alpha   90.00000000
_cell_angle_beta   90.00000000
_cell_angle_gamma   120.64247551
_symmetry_Int_Tables_number   1
_chemical_formula_structural   PrHo2Mg3AgPb2
_chemical_formula_sum   'Pr1 Ho2 Mg3 Ag1 Pb2'
_cell_volume   232.18070793
_cell_formula_units_Z   1
loop_
 _symmetry_equiv_pos_site_id
 _symmetry_equiv_pos_as_xyz
  1  'x, y, z'
loop_
 _atom_site_type_symbol
 _atom_site_label
 _atom_site_symmetry_multiplicity
 _atom_site_fract_x
 _atom_site_fract_y
 _atom_site_fract_z
 _atom_site_occupancy
  Pr  Pr0  1  0.415171  0.415171  0.000000  1
  Ho  Ho1  1  0.589141  0.001874  0.000000  1
  Ho  Ho2  1  0.001874  0.589141  0.000000  1
  Mg  Mg3  1  0.232939  0.000069  0.500000  1
  Mg  Mg4  1  0.000069  0.232939  0.500000  1
  Mg  Mg5  1  0.765957  0.765957  0.500000  1
  Ag  Ag6  1  0.991558  0.991558  0.000000  1
  Pb  Pb7  1  0.330892  0.672399  0.500000  1
  Pb  Pb8  1  0.672399  0.330892  0.500000  1
