# generated using pymatgen
data_YbScBPt6
_symmetry_space_group_name_H-M   'P 1'
_cell_length_a   5.84419496
_cell_length_b   5.84419512
_cell_length_c   5.84419600
_cell_angle_alpha   59.99999503
_cell_angle_beta   59.99999411
_cell_angle_gamma   59.99999372
_symmetry_Int_Tables_number   1
_chemical_formula_structural   YbScBPt6
_chemical_formula_sum   'Yb1 Sc1 B1 Pt6'
_cell_volume   141.14292761
_cell_formula_units_Z   1
loop_
 _symmetry_equiv_pos_site_id
 _symmetry_equiv_pos_as_xyz
  1  'x, y, z'
loop_
 _atom_site_type_symbol
 _atom_site_label
 _atom_site_symmetry_multiplicity
 _atom_site_fract_x
 _atom_site_fract_y
 _atom_site_fract_z
 _atom_site_occupancy
  Yb  Yb0  1  0.250000  0.250000  0.250000  1
  Sc  Sc1  1  0.750000  0.750000  0.750000  1
  B  B2  1  0.499999  0.499999  0.499999  1
  Pt  Pt3  1  0.757245  0.242753  0.242753  1
  Pt  Pt4  1  0.242753  0.757245  0.242753  1
  Pt  Pt5  1  0.757245  0.757245  0.242753  1
  Pt  Pt6  1  0.242753  0.242753  0.757245  1
  Pt  Pt7  1  0.757245  0.242753  0.757245  1
  Pt  Pt8  1  0.242753  0.757245  0.757245  1
