# generated using pymatgen
data_Dy5Tl4AgRh
_symmetry_space_group_name_H-M   'P 1'
_cell_length_a   3.62207900
_cell_length_b   8.22037594
_cell_length_c   18.43021700
_cell_angle_alpha   89.87700083
_cell_angle_beta   90.00000000
_cell_angle_gamma   90.00000000
_symmetry_Int_Tables_number   1
_chemical_formula_structural   Dy5Tl4AgRh
_chemical_formula_sum   'Dy10 Tl8 Ag2 Rh2'
_cell_volume   548.75570191
_cell_formula_units_Z   2
loop_
 _symmetry_equiv_pos_site_id
 _symmetry_equiv_pos_as_xyz
  1  'x, y, z'
loop_
 _atom_site_type_symbol
 _atom_site_label
 _atom_site_symmetry_multiplicity
 _atom_site_fract_x
 _atom_site_fract_y
 _atom_site_fract_z
 _atom_site_occupancy
  Dy  Dy0  1  0.000000  0.500000  0.500000  1
  Dy  Dy1  1  0.000000  0.000000  0.000000  1
  Dy  Dy2  1  0.000000  0.719260  0.276866  1
  Dy  Dy3  1  0.000000  0.280740  0.723134  1
  Dy  Dy4  1  0.000000  0.735358  0.782694  1
  Dy  Dy5  1  0.000000  0.264642  0.217306  1
  Dy  Dy6  1  0.000000  0.616216  0.085760  1
  Dy  Dy7  1  0.000000  0.383784  0.914240  1
  Dy  Dy8  1  0.000000  0.876495  0.578734  1
  Dy  Dy9  1  0.000000  0.123505  0.421266  1
  Tl  Tl10  1  0.500000  0.707978  0.932970  1
  Tl  Tl11  1  0.500000  0.292022  0.067030  1
  Tl  Tl12  1  0.500000  0.792124  0.431433  1
  Tl  Tl13  1  0.500000  0.207876  0.568567  1
  Tl  Tl14  1  0.500000  0.580380  0.647794  1
  Tl  Tl15  1  0.500000  0.419620  0.352206  1
  Tl  Tl16  1  0.500000  0.920197  0.148364  1
  Tl  Tl17  1  0.500000  0.079803  0.851636  1
  Ag  Ag18  1  0.500000  0.976396  0.698481  1
  Ag  Ag19  1  0.500000  0.023604  0.301519  1
  Rh  Rh20  1  0.500000  0.524722  0.194434  1
  Rh  Rh21  1  0.500000  0.475278  0.805566  1
