# generated using pymatgen
data_La12Sm8Si15Os
_symmetry_space_group_name_H-M   'P 1'
_cell_length_a   7.99183959
_cell_length_b   8.01078487
_cell_length_c   14.87042800
_cell_angle_alpha   89.80621439
_cell_angle_beta   89.33234518
_cell_angle_gamma   90.05537149
_symmetry_Int_Tables_number   1
_chemical_formula_structural   La12Sm8Si15Os
_chemical_formula_sum   'La12 Sm8 Si15 Os1'
_cell_volume   951.94773638
_cell_formula_units_Z   1
loop_
 _symmetry_equiv_pos_site_id
 _symmetry_equiv_pos_as_xyz
  1  'x, y, z'
loop_
 _atom_site_type_symbol
 _atom_site_label
 _atom_site_symmetry_multiplicity
 _atom_site_fract_x
 _atom_site_fract_y
 _atom_site_fract_z
 _atom_site_occupancy
  La  La0  1  0.990003  0.630548  0.046681  1
  La  La1  1  0.018742  0.372598  0.538714  1
  La  La2  1  0.632826  0.987551  0.957161  1
  La  La3  1  0.135435  0.508701  0.795658  1
  La  La4  1  0.859127  0.486768  0.294398  1
  La  La5  1  0.502404  0.128511  0.202524  1
  La  La6  1  0.496946  0.869629  0.702456  1
  La  La7  1  0.369419  0.013156  0.457485  1
  La  La8  1  0.711824  0.691255  0.497455  1
  La  La9  1  0.818050  0.183371  0.748738  1
  La  La10  1  0.175911  0.802077  0.266458  1
  La  La11  1  0.304097  0.310925  0.998687  1
  Sm  Sm12  1  0.365764  0.490626  0.379165  1
  Sm  Sm13  1  0.860131  0.012589  0.370696  1
  Sm  Sm14  1  0.988205  0.132172  0.126137  1
  Sm  Sm15  1  0.022195  0.865816  0.622171  1
  Sm  Sm16  1  0.633440  0.511028  0.876108  1
  Sm  Sm17  1  0.496355  0.373029  0.624922  1
  Sm  Sm18  1  0.503350  0.630576  0.124353  1
  Sm  Sm19  1  0.131987  0.989007  0.874992  1
  Si  Si20  1  0.920903  0.289003  0.942175  1
  Si  Si21  1  0.709695  0.079651  0.558021  1
  Si  Si22  1  0.211986  0.421608  0.193289  1
  Si  Si23  1  0.796689  0.576945  0.693854  1
  Si  Si24  1  0.428920  0.209963  0.807172  1
  Si  Si25  1  0.569571  0.790177  0.306527  1
  Si  Si26  1  0.284680  0.923004  0.060038  1
  Si  Si27  1  0.845752  0.793634  0.809802  1
  Si  Si28  1  0.155180  0.209037  0.309965  1
  Si  Si29  1  0.784277  0.842165  0.187509  1
  Si  Si30  1  0.300240  0.661526  0.554842  1
  Si  Si31  1  0.701906  0.341403  0.057443  1
  Si  Si32  1  0.657490  0.295275  0.443713  1
  Si  Si33  1  0.339762  0.704951  0.942998  1
  Si  Si34  1  0.212176  0.159079  0.690772  1
  Os  Os35  1  0.064564  0.712650  0.436916  1
