# generated using pymatgen
data_Ho2Cu3PdO8
_symmetry_space_group_name_H-M   'P 1'
_cell_length_a   6.33463786
_cell_length_b   6.30922546
_cell_length_c   6.37086136
_cell_angle_alpha   125.84203366
_cell_angle_beta   126.93376337
_cell_angle_gamma   79.69161160
_symmetry_Int_Tables_number   1
_chemical_formula_structural   Ho2Cu3PdO8
_chemical_formula_sum   'Ho2 Cu3 Pd1 O8'
_cell_volume   159.00361716
_cell_formula_units_Z   1
loop_
 _symmetry_equiv_pos_site_id
 _symmetry_equiv_pos_as_xyz
  1  'x, y, z'
loop_
 _atom_site_type_symbol
 _atom_site_label
 _atom_site_symmetry_multiplicity
 _atom_site_fract_x
 _atom_site_fract_y
 _atom_site_fract_z
 _atom_site_occupancy
  Ho  Ho0  1  0.997431  0.005614  0.001369  1
  Ho  Ho1  1  0.752569  0.244386  0.498631  1
  Cu  Cu2  1  0.375000  0.625000  0.250000  1
  Cu  Cu3  1  0.375000  0.125000  0.750000  1
  Cu  Cu4  1  0.875000  0.625000  0.250000  1
  Pd  Pd5  1  0.375000  0.625000  0.750000  1
  O  O6  1  0.740875  0.294190  0.139558  1
  O  O7  1  0.148804  0.600889  0.864762  1
  O  O8  1  0.009125  0.955810  0.360442  1
  O  O9  1  0.601196  0.649111  0.635238  1
  O  O10  1  0.047248  0.406759  0.055021  1
  O  O11  1  0.343272  0.011329  0.951777  1
  O  O12  1  0.406728  0.238671  0.548223  1
  O  O13  1  0.702752  0.843241  0.444979  1
