# generated using pymatgen
data_NdDyNiOs3
_symmetry_space_group_name_H-M   'P 1'
_cell_length_a   5.28489447
_cell_length_b   5.28489477
_cell_length_c   5.40074776
_cell_angle_alpha   60.70710897
_cell_angle_beta   60.70710651
_cell_angle_gamma   60.00001109
_symmetry_Int_Tables_number   1
_chemical_formula_structural   NdDyNiOs3
_chemical_formula_sum   'Nd1 Dy1 Ni1 Os3'
_cell_volume   107.78828164
_cell_formula_units_Z   1
loop_
 _symmetry_equiv_pos_site_id
 _symmetry_equiv_pos_as_xyz
  1  'x, y, z'
loop_
 _atom_site_type_symbol
 _atom_site_label
 _atom_site_symmetry_multiplicity
 _atom_site_fract_x
 _atom_site_fract_y
 _atom_site_fract_z
 _atom_site_occupancy
  Nd  Nd0  1  0.748699  0.748699  0.753903  1
  Dy  Dy1  1  0.502475  0.502475  0.492576  1
  Ni  Ni2  1  0.125301  0.125301  0.624096  1
  Os  Os3  1  0.124631  0.124631  0.126474  1
  Os  Os4  1  0.624262  0.124631  0.126474  1
  Os  Os5  1  0.124631  0.624262  0.126474  1
