# generated using pymatgen
data_Ti3Cr2TcAsP2
_symmetry_space_group_name_H-M   'P 1'
_cell_length_a   6.54530558
_cell_length_b   6.55237427
_cell_length_c   3.26942200
_cell_angle_alpha   90.00000000
_cell_angle_beta   90.00000000
_cell_angle_gamma   119.57854951
_symmetry_Int_Tables_number   1
_chemical_formula_structural   Ti3Cr2TcAsP2
_chemical_formula_sum   'Ti3 Cr2 Tc1 As1 P2'
_cell_volume   121.94359184
_cell_formula_units_Z   1
loop_
 _symmetry_equiv_pos_site_id
 _symmetry_equiv_pos_as_xyz
  1  'x, y, z'
loop_
 _atom_site_type_symbol
 _atom_site_label
 _atom_site_symmetry_multiplicity
 _atom_site_fract_x
 _atom_site_fract_y
 _atom_site_fract_z
 _atom_site_occupancy
  Ti  Ti0  1  0.403909  0.389013  0.500000  1
  Ti  Ti1  1  0.604477  0.015314  0.500000  1
  Ti  Ti2  1  0.987705  0.588421  0.500000  1
  Cr  Cr3  1  0.256760  0.008511  0.000000  1
  Cr  Cr4  1  0.991697  0.249181  0.000000  1
  Tc  Tc5  1  0.752524  0.745878  0.000000  1
  As  As6  1  0.327236  0.664557  0.000000  1
  P  P7  1  0.664594  0.327233  0.000000  1
  P  P8  1  0.011098  0.011891  0.500000  1
