# generated using pymatgen
data_CeY3InPt11
_symmetry_space_group_name_H-M   'P 1'
_cell_length_a   4.19946400
_cell_length_b   5.87853248
_cell_length_c   11.69778100
_cell_angle_alpha   88.13304711
_cell_angle_beta   90.00000000
_cell_angle_gamma   90.00000000
_symmetry_Int_Tables_number   1
_chemical_formula_structural   CeY3InPt11
_chemical_formula_sum   'Ce1 Y3 In1 Pt11'
_cell_volume   288.62614912
_cell_formula_units_Z   1
loop_
 _symmetry_equiv_pos_site_id
 _symmetry_equiv_pos_as_xyz
  1  'x, y, z'
loop_
 _atom_site_type_symbol
 _atom_site_label
 _atom_site_symmetry_multiplicity
 _atom_site_fract_x
 _atom_site_fract_y
 _atom_site_fract_z
 _atom_site_occupancy
  Ce  Ce0  1  0.500000  0.243376  0.623890  1
  Y  Y1  1  0.500000  0.756683  0.373864  1
  Y  Y2  1  0.500000  0.718038  0.864118  1
  Y  Y3  1  0.500000  0.281732  0.137540  1
  In  In4  1  0.000000  0.999976  0.000755  1
  Pt  Pt5  1  0.000000  0.015857  0.249836  1
  Pt  Pt6  1  0.000000  0.985162  0.749536  1
  Pt  Pt7  1  0.000000  0.500596  0.000358  1
  Pt  Pt8  1  0.000000  0.498419  0.500327  1
  Pt  Pt9  1  0.000000  0.518539  0.249599  1
  Pt  Pt10  1  0.000000  0.480632  0.749836  1
  Pt  Pt11  1  0.500000  0.255293  0.378347  1
  Pt  Pt12  1  0.500000  0.227246  0.880416  1
  Pt  Pt13  1  0.500000  0.772152  0.119173  1
  Pt  Pt14  1  0.500000  0.744623  0.622109  1
  Pt  Pt15  1  0.000000  0.001677  0.500295  1
