# generated using pymatgen
data_Tm6Nb3Al13Ru7
_symmetry_space_group_name_H-M   'P 1'
_cell_length_a   8.99965735
_cell_length_b   8.99965598
_cell_length_c   8.99965622
_cell_angle_alpha   59.69575103
_cell_angle_beta   59.69575797
_cell_angle_gamma   59.69574480
_symmetry_Int_Tables_number   1
_chemical_formula_structural   Tm6Nb3Al13Ru7
_chemical_formula_sum   'Tm6 Nb3 Al13 Ru7'
_cell_volume   511.85966400
_cell_formula_units_Z   1
loop_
 _symmetry_equiv_pos_site_id
 _symmetry_equiv_pos_as_xyz
  1  'x, y, z'
loop_
 _atom_site_type_symbol
 _atom_site_label
 _atom_site_symmetry_multiplicity
 _atom_site_fract_x
 _atom_site_fract_y
 _atom_site_fract_z
 _atom_site_occupancy
  Tm  Tm0  1  0.708787  0.708787  0.285215  1
  Tm  Tm1  1  0.293589  0.708122  0.293589  1
  Tm  Tm2  1  0.708122  0.293589  0.293589  1
  Tm  Tm3  1  0.293589  0.293589  0.708122  1
  Tm  Tm4  1  0.708787  0.285215  0.708787  1
  Tm  Tm5  1  0.285215  0.708787  0.708787  1
  Nb  Nb6  1  0.877609  0.877609  0.360923  1
  Nb  Nb7  1  0.877609  0.360923  0.877609  1
  Nb  Nb8  1  0.360923  0.877609  0.877609  1
  Al  Al9  1  0.881637  0.881637  0.881637  1
  Al  Al10  1  0.120822  0.120822  0.639661  1
  Al  Al11  1  0.120822  0.639661  0.120822  1
  Al  Al12  1  0.639661  0.120822  0.120822  1
  Al  Al13  1  0.120621  0.120621  0.120621  1
  Al  Al14  1  0.670893  0.670893  0.992259  1
  Al  Al15  1  0.670893  0.992259  0.670893  1
  Al  Al16  1  0.992259  0.670893  0.670893  1
  Al  Al17  1  0.667051  0.667051  0.667051  1
  Al  Al18  1  0.331776  0.331776  0.007595  1
  Al  Al19  1  0.331776  0.007595  0.331776  1
  Al  Al20  1  0.007595  0.331776  0.331776  1
  Al  Al21  1  0.331828  0.331828  0.331828  1
  Ru  Ru22  1  0.002059  0.002059  0.002059  1
  Ru  Ru23  1  0.999314  0.999314  0.497209  1
  Ru  Ru24  1  0.502134  0.995973  0.502134  1
  Ru  Ru25  1  0.995973  0.502134  0.502134  1
  Ru  Ru26  1  0.502134  0.502134  0.995973  1
  Ru  Ru27  1  0.999314  0.497209  0.999314  1
  Ru  Ru28  1  0.497209  0.999314  0.999314  1
