# generated using pymatgen
data_Ca3La5SbPd24
_symmetry_space_group_name_H-M   'P 1'
_cell_length_a   8.49893634
_cell_length_b   8.49893653
_cell_length_c   8.49835900
_cell_angle_alpha   89.98377989
_cell_angle_beta   89.98377989
_cell_angle_gamma   89.93083411
_symmetry_Int_Tables_number   1
_chemical_formula_structural   Ca3La5SbPd24
_chemical_formula_sum   'Ca3 La5 Sb1 Pd24'
_cell_volume   613.85229569
_cell_formula_units_Z   1
loop_
 _symmetry_equiv_pos_site_id
 _symmetry_equiv_pos_as_xyz
  1  'x, y, z'
loop_
 _atom_site_type_symbol
 _atom_site_label
 _atom_site_symmetry_multiplicity
 _atom_site_fract_x
 _atom_site_fract_y
 _atom_site_fract_z
 _atom_site_occupancy
  Ca  Ca0  1  0.251192  0.251192  0.249649  1
  Ca  Ca1  1  0.748766  0.748766  0.750301  1
  Ca  Ca2  1  0.748048  0.748048  0.249943  1
  La  La3  1  0.746750  0.253109  0.745433  1
  La  La4  1  0.253589  0.253589  0.749033  1
  La  La5  1  0.254184  0.746634  0.254779  1
  La  La6  1  0.253109  0.746750  0.745433  1
  La  La7  1  0.746634  0.254184  0.254779  1
  Sb  Sb8  1  0.999518  0.999518  0.999603  1
  Pd  Pd9  1  0.265830  0.499407  0.001534  1
  Pd  Pd10  1  0.733376  0.501327  0.999497  1
  Pd  Pd11  1  0.004420  0.265943  0.499186  1
  Pd  Pd12  1  0.499407  0.265830  0.001534  1
  Pd  Pd13  1  0.994887  0.733351  0.499696  1
  Pd  Pd14  1  0.501327  0.733376  0.999497  1
  Pd  Pd15  1  0.500490  0.000513  0.266221  1
  Pd  Pd16  1  0.265943  0.004420  0.499186  1
  Pd  Pd17  1  0.500674  0.998429  0.734323  1
  Pd  Pd18  1  0.733351  0.994887  0.499696  1
  Pd  Pd19  1  0.000513  0.500490  0.266221  1
  Pd  Pd20  1  0.998429  0.500674  0.734323  1
  Pd  Pd21  1  0.255427  0.496832  0.498561  1
  Pd  Pd22  1  0.744973  0.504360  0.500311  1
  Pd  Pd23  1  0.496832  0.255427  0.498561  1
  Pd  Pd24  1  0.504360  0.744973  0.500311  1
  Pd  Pd25  1  0.500093  0.500093  0.254597  1
  Pd  Pd26  1  0.501718  0.501718  0.745090  1
  Pd  Pd27  1  0.310763  0.001902  0.001826  1
  Pd  Pd28  1  0.689727  0.996087  0.000303  1
  Pd  Pd29  1  0.001902  0.310763  0.001826  1
  Pd  Pd30  1  0.996087  0.689727  0.000303  1
  Pd  Pd31  1  0.999549  0.999549  0.310381  1
  Pd  Pd32  1  0.998135  0.998135  0.688066  1
