# generated using pymatgen
data_La10GaSi4Pb
_symmetry_space_group_name_H-M   'P 1'
_cell_length_a   7.93491183
_cell_length_b   7.93491137
_cell_length_c   9.29506700
_cell_angle_alpha   115.26685319
_cell_angle_beta   115.26685163
_cell_angle_gamma   89.99999514
_symmetry_Int_Tables_number   1
_chemical_formula_structural   La10GaSi4Pb
_chemical_formula_sum   'La10 Ga1 Si4 Pb1'
_cell_volume   466.59161558
_cell_formula_units_Z   1
loop_
 _symmetry_equiv_pos_site_id
 _symmetry_equiv_pos_as_xyz
  1  'x, y, z'
loop_
 _atom_site_type_symbol
 _atom_site_label
 _atom_site_symmetry_multiplicity
 _atom_site_fract_x
 _atom_site_fract_y
 _atom_site_fract_z
 _atom_site_occupancy
  La  La0  1  0.518756  0.518756  0.037512  1
  La  La1  1  0.981244  0.981244  0.962488  1
  La  La2  1  0.970094  0.822701  0.279178  1
  La  La3  1  0.309084  0.456477  0.279178  1
  La  La4  1  0.822701  0.309084  0.279178  1
  La  La5  1  0.456477  0.970094  0.279178  1
  La  La6  1  0.043523  0.190916  0.720822  1
  La  La7  1  0.677299  0.529906  0.720822  1
  La  La8  1  0.190916  0.677299  0.720822  1
  La  La9  1  0.529906  0.043523  0.720822  1
  Ga  Ga10  1  0.250000  0.250000  0.500000  1
  Si  Si11  1  0.614157  0.885843  0.000000  1
  Si  Si12  1  0.385843  0.114157  0.000000  1
  Si  Si13  1  0.885843  0.385843  0.000000  1
  Si  Si14  1  0.114157  0.614157  0.000000  1
  Pb  Pb15  1  0.750000  0.750000  0.500000  1
