# generated using pymatgen
data_Tb4Ho12Cd4Os3Pd
_symmetry_space_group_name_H-M   'P 1'
_cell_length_a   9.61675626
_cell_length_b   9.71809030
_cell_length_c   9.71809013
_cell_angle_alpha   59.69036323
_cell_angle_beta   59.25492142
_cell_angle_gamma   59.25492793
_symmetry_Int_Tables_number   1
_chemical_formula_structural   Tb4Ho12Cd4Os3Pd
_chemical_formula_sum   'Tb4 Ho12 Cd4 Os3 Pd1'
_cell_volume   633.41514745
_cell_formula_units_Z   1
loop_
 _symmetry_equiv_pos_site_id
 _symmetry_equiv_pos_as_xyz
  1  'x, y, z'
loop_
 _atom_site_type_symbol
 _atom_site_label
 _atom_site_symmetry_multiplicity
 _atom_site_fract_x
 _atom_site_fract_y
 _atom_site_fract_z
 _atom_site_occupancy
  Tb  Tb0  1  0.551910  0.940187  0.567920  1
  Tb  Tb1  1  0.936654  0.560330  0.940479  1
  Tb  Tb2  1  0.551910  0.567920  0.940187  1
  Tb  Tb3  1  0.936654  0.940479  0.560330  1
  Ho  Ho4  1  0.346691  0.351703  0.351703  1
  Ho  Ho5  1  0.346999  0.351855  0.951978  1
  Ho  Ho6  1  0.346999  0.951978  0.351855  1
  Ho  Ho7  1  0.969216  0.343875  0.343875  1
  Ho  Ho8  1  0.815095  0.189411  0.189411  1
  Ho  Ho9  1  0.182936  0.811162  0.811162  1
  Ho  Ho10  1  0.185816  0.811417  0.190875  1
  Ho  Ho11  1  0.815253  0.189657  0.803593  1
  Ho  Ho12  1  0.185816  0.190875  0.811417  1
  Ho  Ho13  1  0.815253  0.803593  0.189657  1
  Ho  Ho14  1  0.937207  0.560270  0.560270  1
  Ho  Ho15  1  0.551534  0.941305  0.941305  1
  Cd  Cd16  1  0.581830  0.578905  0.578905  1
  Cd  Cd17  1  0.580798  0.579755  0.258847  1
  Cd  Cd18  1  0.580798  0.258847  0.579755  1
  Cd  Cd19  1  0.254782  0.581296  0.581296  1
  Os  Os20  1  0.149650  0.136834  0.136834  1
  Os  Os21  1  0.150007  0.138820  0.577515  1
  Os  Os22  1  0.150007  0.577515  0.138820  1
  Pd  Pd23  1  0.576185  0.142013  0.142013  1
