# generated using pymatgen
data_Tb3Yb2CuPb3
_symmetry_space_group_name_H-M   'P 1'
_cell_length_a   9.25105600
_cell_length_b   9.25105729
_cell_length_c   6.79164800
_cell_angle_alpha   90.00000000
_cell_angle_beta   90.00000000
_cell_angle_gamma   119.99999538
_symmetry_Int_Tables_number   1
_chemical_formula_structural   Tb3Yb2CuPb3
_chemical_formula_sum   'Tb6 Yb4 Cu2 Pb6'
_cell_volume   503.37135919
_cell_formula_units_Z   2
loop_
 _symmetry_equiv_pos_site_id
 _symmetry_equiv_pos_as_xyz
  1  'x, y, z'
loop_
 _atom_site_type_symbol
 _atom_site_label
 _atom_site_symmetry_multiplicity
 _atom_site_fract_x
 _atom_site_fract_y
 _atom_site_fract_z
 _atom_site_occupancy
  Tb  Tb0  1  0.259405  0.000000  0.250000  1
  Tb  Tb1  1  0.740595  0.000000  0.750000  1
  Tb  Tb2  1  0.000000  0.259405  0.250000  1
  Tb  Tb3  1  0.000000  0.740595  0.750000  1
  Tb  Tb4  1  0.740595  0.740595  0.250000  1
  Tb  Tb5  1  0.259405  0.259405  0.750000  1
  Yb  Yb6  1  0.333333  0.666667  0.000000  1
  Yb  Yb7  1  0.666667  0.333333  0.000000  1
  Yb  Yb8  1  0.666667  0.333333  0.500000  1
  Yb  Yb9  1  0.333333  0.666667  0.500000  1
  Cu  Cu10  1  0.000000  0.000000  0.000000  1
  Cu  Cu11  1  0.000000  0.000000  0.500000  1
  Pb  Pb12  1  0.613205  0.000000  0.250000  1
  Pb  Pb13  1  0.386795  0.000000  0.750000  1
  Pb  Pb14  1  0.000000  0.613205  0.250000  1
  Pb  Pb15  1  0.000000  0.386795  0.750000  1
  Pb  Pb16  1  0.386795  0.386795  0.250000  1
  Pb  Pb17  1  0.613205  0.613205  0.750000  1
