# generated using pymatgen
data_NbAl2(PdPt2)3
_symmetry_space_group_name_H-M   'P 1'
_cell_length_a   3.95830900
_cell_length_b   3.95850100
_cell_length_c   11.76207200
_cell_angle_alpha   90.00000000
_cell_angle_beta   90.00000000
_cell_angle_gamma   90.00000000
_symmetry_Int_Tables_number   1
_chemical_formula_structural   NbAl2(PdPt2)3
_chemical_formula_sum   'Nb1 Al2 Pd3 Pt6'
_cell_volume   184.29955489
_cell_formula_units_Z   1
loop_
 _symmetry_equiv_pos_site_id
 _symmetry_equiv_pos_as_xyz
  1  'x, y, z'
loop_
 _atom_site_type_symbol
 _atom_site_label
 _atom_site_symmetry_multiplicity
 _atom_site_fract_x
 _atom_site_fract_y
 _atom_site_fract_z
 _atom_site_occupancy
  Nb  Nb0  1  0.000000  0.000000  0.000000  1
  Al  Al1  1  0.000000  0.000000  0.342517  1
  Al  Al2  1  0.000000  0.000000  0.657483  1
  Pd  Pd3  1  0.500000  0.500000  0.334644  1
  Pd  Pd4  1  0.500000  0.500000  0.665356  1
  Pd  Pd5  1  0.500000  0.000000  0.500000  1
  Pt  Pt6  1  0.500000  0.500000  0.000000  1
  Pt  Pt7  1  0.500000  0.000000  0.167930  1
  Pt  Pt8  1  0.500000  0.000000  0.832070  1
  Pt  Pt9  1  0.000000  0.500000  0.168297  1
  Pt  Pt10  1  0.000000  0.500000  0.500000  1
  Pt  Pt11  1  0.000000  0.500000  0.831703  1
