# generated using pymatgen
data_Li8Pr8TlBi2Pb5
_symmetry_space_group_name_H-M   'P 1'
_cell_length_a   9.74538055
_cell_length_b   9.73630877
_cell_length_c   7.74912809
_cell_angle_alpha   89.99999800
_cell_angle_beta   90.05506679
_cell_angle_gamma   119.96920107
_symmetry_Int_Tables_number   1
_chemical_formula_structural   Li8Pr8TlBi2Pb5
_chemical_formula_sum   'Li8 Pr8 Tl1 Bi2 Pb5'
_cell_volume   636.95836479
_cell_formula_units_Z   1
loop_
 _symmetry_equiv_pos_site_id
 _symmetry_equiv_pos_as_xyz
  1  'x, y, z'
loop_
 _atom_site_type_symbol
 _atom_site_label
 _atom_site_symmetry_multiplicity
 _atom_site_fract_x
 _atom_site_fract_y
 _atom_site_fract_z
 _atom_site_occupancy
  Li  Li0  1  0.832231  0.166465  0.719647  1
  Li  Li1  1  0.832231  0.665765  0.719647  1
  Li  Li2  1  0.334990  0.167495  0.715544  1
  Li  Li3  1  0.169769  0.833514  0.215258  1
  Li  Li4  1  0.169769  0.336256  0.215258  1
  Li  Li5  1  0.662393  0.831197  0.210125  1
  Li  Li6  1  0.664562  0.332280  0.330395  1
  Li  Li7  1  0.333966  0.666984  0.825541  1
  Pr  Pr8  1  0.484480  0.511309  0.505096  1
  Pr  Pr9  1  0.484480  0.973170  0.505096  1
  Pr  Pr10  1  0.027679  0.513839  0.506599  1
  Pr  Pr11  1  0.507583  0.487687  0.003696  1
  Pr  Pr12  1  0.507583  0.019896  0.003696  1
  Pr  Pr13  1  0.982725  0.491361  0.002587  1
  Pr  Pr14  1  0.002570  0.001285  0.503985  1
  Pr  Pr15  1  0.003335  0.001668  0.997673  1
  Tl  Tl16  1  0.332771  0.666385  0.234491  1
  Bi  Bi17  1  0.833574  0.166807  0.266227  1
  Bi  Bi18  1  0.833574  0.666767  0.266227  1
  Pb  Pb19  1  0.332775  0.166388  0.269629  1
  Pb  Pb20  1  0.165787  0.832962  0.768164  1
  Pb  Pb21  1  0.165787  0.332826  0.768164  1
  Pb  Pb22  1  0.667325  0.833662  0.769649  1
  Pb  Pb23  1  0.668058  0.334028  0.735609  1
