# generated using pymatgen
data_CeHo5(Al3Os)8
_symmetry_space_group_name_H-M   'P 1'
_cell_length_a   8.84428500
_cell_length_b   8.82647148
_cell_length_c   9.56765300
_cell_angle_alpha   90.00000000
_cell_angle_beta   90.00000000
_cell_angle_gamma   120.06678749
_symmetry_Int_Tables_number   1
_chemical_formula_structural   CeHo5(Al3Os)8
_chemical_formula_sum   'Ce1 Ho5 Al24 Os8'
_cell_volume   646.38791386
_cell_formula_units_Z   1
loop_
 _symmetry_equiv_pos_site_id
 _symmetry_equiv_pos_as_xyz
  1  'x, y, z'
loop_
 _atom_site_type_symbol
 _atom_site_label
 _atom_site_symmetry_multiplicity
 _atom_site_fract_x
 _atom_site_fract_y
 _atom_site_fract_z
 _atom_site_occupancy
  Ce  Ce0  1  0.194246  0.388493  0.250000  1
  Ho  Ho1  1  0.808109  0.616219  0.750000  1
  Ho  Ho2  1  0.610083  0.803059  0.250000  1
  Ho  Ho3  1  0.387160  0.193190  0.750000  1
  Ho  Ho4  1  0.192976  0.803059  0.250000  1
  Ho  Ho5  1  0.806030  0.193190  0.750000  1
  Al  Al6  1  0.334531  0.669063  0.017046  1
  Al  Al7  1  0.667341  0.334681  0.981577  1
  Al  Al8  1  0.667341  0.334681  0.518423  1
  Al  Al9  1  0.334531  0.669063  0.482954  1
  Al  Al10  1  0.162588  0.325176  0.577502  1
  Al  Al11  1  0.836934  0.673868  0.425385  1
  Al  Al12  1  0.675062  0.837537  0.576011  1
  Al  Al13  1  0.836934  0.673868  0.074615  1
  Al  Al14  1  0.325964  0.161572  0.424302  1
  Al  Al15  1  0.162588  0.325176  0.922498  1
  Al  Al16  1  0.162476  0.837537  0.576011  1
  Al  Al17  1  0.325964  0.161572  0.075698  1
  Al  Al18  1  0.835608  0.161572  0.424302  1
  Al  Al19  1  0.675062  0.837537  0.923989  1
  Al  Al20  1  0.835608  0.161572  0.075698  1
  Al  Al21  1  0.162476  0.837537  0.923989  1
  Al  Al22  1  0.560308  0.120617  0.250000  1
  Al  Al23  1  0.439266  0.878532  0.750000  1
  Al  Al24  1  0.875198  0.438045  0.250000  1
  Al  Al25  1  0.119970  0.559932  0.750000  1
  Al  Al26  1  0.562845  0.438045  0.250000  1
  Al  Al27  1  0.439962  0.559932  0.750000  1
  Al  Al28  1  0.998580  0.997159  0.250000  1
  Al  Al29  1  0.001145  0.002289  0.750000  1
  Os  Os30  1  0.501045  0.002089  0.998011  1
  Os  Os31  1  0.000541  0.500764  0.000826  1
  Os  Os32  1  0.501045  0.002089  0.501989  1
  Os  Os33  1  0.500221  0.500764  0.000826  1
  Os  Os34  1  0.000541  0.500764  0.499174  1
  Os  Os35  1  0.500221  0.500764  0.499174  1
  Os  Os36  1  0.999747  0.999495  0.999551  1
  Os  Os37  1  0.999747  0.999495  0.500449  1
