# generated using pymatgen
data_Li8Dy7TmSn7Sb
_symmetry_space_group_name_H-M   'P 1'
_cell_length_a   9.39158093
_cell_length_b   9.39158096
_cell_length_c   7.23124902
_cell_angle_alpha   90.06049325
_cell_angle_beta   89.93950594
_cell_angle_gamma   119.98030902
_symmetry_Int_Tables_number   1
_chemical_formula_structural   Li8Dy7TmSn7Sb
_chemical_formula_sum   'Li8 Dy7 Tm1 Sn7 Sb1'
_cell_volume   552.46806200
_cell_formula_units_Z   1
loop_
 _symmetry_equiv_pos_site_id
 _symmetry_equiv_pos_as_xyz
  1  'x, y, z'
loop_
 _atom_site_type_symbol
 _atom_site_label
 _atom_site_symmetry_multiplicity
 _atom_site_fract_x
 _atom_site_fract_y
 _atom_site_fract_z
 _atom_site_occupancy
  Li  Li0  1  0.832255  0.665990  0.712269  1
  Li  Li1  1  0.833256  0.166744  0.712783  1
  Li  Li2  1  0.333777  0.666223  0.821456  1
  Li  Li3  1  0.666632  0.333368  0.321360  1
  Li  Li4  1  0.666408  0.833288  0.212858  1
  Li  Li5  1  0.166712  0.333592  0.212858  1
  Li  Li6  1  0.166783  0.833217  0.213064  1
  Li  Li7  1  0.334010  0.167745  0.712269  1
  Dy  Dy8  1  0.999085  0.000915  0.002549  1
  Dy  Dy9  1  0.999297  0.000703  0.499612  1
  Dy  Dy10  1  0.511198  0.488802  0.006323  1
  Dy  Dy11  1  0.021216  0.509582  0.505000  1
  Dy  Dy12  1  0.490418  0.978784  0.505000  1
  Dy  Dy13  1  0.513214  0.023010  0.008150  1
  Dy  Dy14  1  0.976990  0.486786  0.008150  1
  Tm  Tm15  1  0.488765  0.511235  0.506056  1
  Sn  Sn16  1  0.666580  0.333420  0.739720  1
  Sn  Sn17  1  0.333209  0.666791  0.240802  1
  Sn  Sn18  1  0.833364  0.166636  0.269362  1
  Sn  Sn19  1  0.166870  0.333571  0.769629  1
  Sn  Sn20  1  0.333422  0.166573  0.270237  1
  Sn  Sn21  1  0.833427  0.666578  0.270237  1
  Sn  Sn22  1  0.666429  0.833130  0.769629  1
  Sb  Sb23  1  0.166681  0.833319  0.768628  1
