# generated using pymatgen
data_Tb3HoGe6Rh7
_symmetry_space_group_name_H-M   'P 1'
_cell_length_a   7.28874461
_cell_length_b   7.28874477
_cell_length_c   7.28874446
_cell_angle_alpha   109.45087849
_cell_angle_beta   109.45088205
_cell_angle_gamma   109.45088399
_symmetry_Int_Tables_number   1
_chemical_formula_structural   Tb3HoGe6Rh7
_chemical_formula_sum   'Tb3 Ho1 Ge6 Rh7'
_cell_volume   298.30663837
_cell_formula_units_Z   1
loop_
 _symmetry_equiv_pos_site_id
 _symmetry_equiv_pos_as_xyz
  1  'x, y, z'
loop_
 _atom_site_type_symbol
 _atom_site_label
 _atom_site_symmetry_multiplicity
 _atom_site_fract_x
 _atom_site_fract_y
 _atom_site_fract_z
 _atom_site_occupancy
  Tb  Tb0  1  0.000000  0.000000  0.500000  1
  Tb  Tb1  1  0.000000  0.500000  0.000000  1
  Tb  Tb2  1  0.500000  0.000000  0.000000  1
  Ho  Ho3  1  0.500000  0.500000  0.500000  1
  Ge  Ge4  1  0.678778  0.678778  0.999478  1
  Ge  Ge5  1  0.321222  0.000522  0.321222  1
  Ge  Ge6  1  0.000522  0.321222  0.321222  1
  Ge  Ge7  1  0.321222  0.321222  0.000522  1
  Ge  Ge8  1  0.678778  0.999478  0.678778  1
  Ge  Ge9  1  0.999478  0.678778  0.678778  1
  Rh  Rh10  1  0.749674  0.250326  0.500000  1
  Rh  Rh11  1  0.749674  0.500000  0.250326  1
  Rh  Rh12  1  0.500000  0.250326  0.749674  1
  Rh  Rh13  1  0.250326  0.500000  0.749674  1
  Rh  Rh14  1  0.250326  0.749674  0.500000  1
  Rh  Rh15  1  0.500000  0.749674  0.250326  1
  Rh  Rh16  1  0.000000  0.000000  0.000000  1
