# generated using pymatgen
data_K(CoO2)6
_symmetry_space_group_name_H-M   'P 1'
_cell_length_a   8.58079887
_cell_length_b   9.82874884
_cell_length_c   8.01273615
_cell_angle_alpha   66.94260540
_cell_angle_beta   57.61270366
_cell_angle_gamma   43.36514712
_symmetry_Int_Tables_number   1
_chemical_formula_structural   K(CoO2)6
_chemical_formula_sum   'K2 Co12 O24'
_cell_volume   391.83958623
_cell_formula_units_Z   2
loop_
 _symmetry_equiv_pos_site_id
 _symmetry_equiv_pos_as_xyz
  1  'x, y, z'
loop_
 _atom_site_type_symbol
 _atom_site_label
 _atom_site_symmetry_multiplicity
 _atom_site_fract_x
 _atom_site_fract_y
 _atom_site_fract_z
 _atom_site_occupancy
  K  K0  1  0.207855  0.997139  0.001966  1
  K  K1  1  0.796640  0.000525  0.000795  1
  Co  Co2  1  0.003639  0.487385  0.183826  1
  Co  Co3  1  0.255815  0.185656  0.515595  1
  Co  Co4  1  0.340024  0.486413  0.182750  1
  Co  Co5  1  0.075841  0.817362  0.487971  1
  Co  Co6  1  0.591845  0.183337  0.514786  1
  Co  Co7  1  0.332805  0.514141  0.814629  1
  Co  Co8  1  0.670654  0.485774  0.183104  1
  Co  Co9  1  0.413080  0.816679  0.484369  1
  Co  Co10  1  0.922315  0.184539  0.516185  1
  Co  Co11  1  0.668070  0.510256  0.817925  1
  Co  Co12  1  0.743648  0.816308  0.485207  1
  Co  Co13  1  0.998714  0.514824  0.814729  1
  O  O14  1  0.011328  0.359549  0.049119  1
  O  O15  1  0.140838  0.046263  0.644282  1
  O  O16  1  0.062875  0.299112  0.379064  1
  O  O17  1  0.999027  0.627405  0.291945  1
  O  O18  1  0.343344  0.360278  0.049001  1
  O  O19  1  0.475902  0.046682  0.640827  1
  O  O20  1  0.399737  0.296257  0.376879  1
  O  O21  1  0.336752  0.375625  0.704293  1
  O  O22  1  0.338564  0.623665  0.288271  1
  O  O23  1  0.683695  0.351561  0.049734  1
  O  O24  1  0.270312  0.703068  0.624429  1
  O  O25  1  0.192487  0.954445  0.361404  1
  O  O26  1  0.804721  0.048772  0.644046  1
  O  O27  1  0.735294  0.293768  0.376353  1
  O  O28  1  0.324609  0.642425  0.951662  1
  O  O29  1  0.670070  0.374082  0.705376  1
  O  O30  1  0.666469  0.625061  0.295674  1
  O  O31  1  0.602674  0.707384  0.620250  1
  O  O32  1  0.524987  0.955958  0.358334  1
  O  O33  1  0.660367  0.639179  0.951717  1
  O  O34  1  0.004641  0.374061  0.704824  1
  O  O35  1  0.940865  0.699782  0.620873  1
  O  O36  1  0.860601  0.954041  0.357417  1
  O  O37  1  0.991900  0.641238  0.950387  1
