# generated using pymatgen
data_Hf2Zr2Co8SiP5
_symmetry_space_group_name_H-M   'P 1'
_cell_length_a   12.14844159
_cell_length_b   12.13906729
_cell_length_c   3.65095600
_cell_angle_alpha   90.00000000
_cell_angle_beta   90.00000000
_cell_angle_gamma   119.98423164
_symmetry_Int_Tables_number   1
_chemical_formula_structural   Hf2Zr2Co8SiP5
_chemical_formula_sum   'Hf4 Zr4 Co16 Si2 P10'
_cell_volume   466.35013158
_cell_formula_units_Z   2
loop_
 _symmetry_equiv_pos_site_id
 _symmetry_equiv_pos_as_xyz
  1  'x, y, z'
loop_
 _atom_site_type_symbol
 _atom_site_label
 _atom_site_symmetry_multiplicity
 _atom_site_fract_x
 _atom_site_fract_y
 _atom_site_fract_z
 _atom_site_occupancy
  Hf  Hf0  1  0.442894  0.443537  0.000000  1
  Hf  Hf1  1  0.557510  0.000574  0.000000  1
  Hf  Hf2  1  0.999906  0.554676  0.000000  1
  Hf  Hf3  1  0.827044  0.826395  0.500000  1
  Zr  Zr4  1  0.666242  0.333938  0.000000  1
  Zr  Zr5  1  0.333642  0.667630  0.000000  1
  Zr  Zr6  1  0.173925  0.999309  0.500000  1
  Zr  Zr7  1  0.999886  0.175721  0.500000  1
  Co  Co8  1  0.193223  0.371233  0.000000  1
  Co  Co9  1  0.174133  0.801742  0.000000  1
  Co  Co10  1  0.825578  0.628262  0.000000  1
  Co  Co11  1  0.806696  0.177777  0.000000  1
  Co  Co12  1  0.371576  0.197297  0.000000  1
  Co  Co13  1  0.125695  0.479801  0.500000  1
  Co  Co14  1  0.355446  0.873253  0.500000  1
  Co  Co15  1  0.517408  0.644701  0.500000  1
  Co  Co16  1  0.644706  0.517934  0.500000  1
  Co  Co17  1  0.874295  0.354078  0.500000  1
  Co  Co18  1  0.482719  0.127313  0.500000  1
  Co  Co19  1  0.999069  0.999546  0.000000  1
  Co  Co20  1  0.722575  0.001645  0.500000  1
  Co  Co21  1  0.999563  0.720440  0.500000  1
  Co  Co22  1  0.629275  0.825696  0.000000  1
  Co  Co23  1  0.277666  0.279642  0.500000  1
  Si  Si24  1  0.655591  0.655192  0.000000  1
  Si  Si25  1  0.345249  0.999680  0.000000  1
  P  P26  1  0.000006  0.345406  0.000000  1
  P  P27  1  0.481353  0.308479  0.500000  1
  P  P28  1  0.691455  0.173467  0.500000  1
  P  P29  1  0.826741  0.517898  0.500000  1
  P  P30  1  0.518605  0.827114  0.500000  1
  P  P31  1  0.173146  0.691250  0.500000  1
  P  P32  1  0.824653  0.998542  0.000000  1
  P  P33  1  0.999153  0.824478  0.000000  1
  P  P34  1  0.308641  0.482209  0.500000  1
  P  P35  1  0.174736  0.174147  0.000000  1
