# generated using pymatgen
data_Lu12ZnFe3Sb
_symmetry_space_group_name_H-M   'P 1'
_cell_length_a   8.12761810
_cell_length_b   8.12767724
_cell_length_c   8.12761895
_cell_angle_alpha   108.18462430
_cell_angle_beta   109.46708563
_cell_angle_gamma   110.77199513
_symmetry_Int_Tables_number   1
_chemical_formula_structural   Lu12ZnFe3Sb
_chemical_formula_sum   'Lu12 Zn1 Fe3 Sb1'
_cell_volume   413.09623389
_cell_formula_units_Z   1
loop_
 _symmetry_equiv_pos_site_id
 _symmetry_equiv_pos_as_xyz
  1  'x, y, z'
loop_
 _atom_site_type_symbol
 _atom_site_label
 _atom_site_symmetry_multiplicity
 _atom_site_fract_x
 _atom_site_fract_y
 _atom_site_fract_z
 _atom_site_occupancy
  Lu  Lu0  1  0.311924  0.305124  0.617052  1
  Lu  Lu1  1  0.688076  0.694876  0.382948  1
  Lu  Lu2  1  0.688073  0.305124  0.993200  1
  Lu  Lu3  1  0.311927  0.694876  0.006800  1
  Lu  Lu4  1  0.191650  0.420208  0.228559  1
  Lu  Lu5  1  0.808350  0.579792  0.771441  1
  Lu  Lu6  1  0.191661  0.963104  0.771445  1
  Lu  Lu7  1  0.939503  0.188399  0.751111  1
  Lu  Lu8  1  0.808339  0.036896  0.228555  1
  Lu  Lu9  1  0.060497  0.811601  0.248889  1
  Lu  Lu10  1  0.437288  0.188399  0.248894  1
  Lu  Lu11  1  0.562712  0.811601  0.751106  1
  Zn  Zn12  1  0.500000  0.000000  0.500000  1
  Fe  Fe13  1  0.381551  0.381556  0.000005  1
  Fe  Fe14  1  0.618449  0.618444  0.999995  1
  Fe  Fe15  1  0.000000  0.000000  0.000000  1
  Sb  Sb16  1  0.000000  0.500000  0.500000  1
