# generated using pymatgen
data_La7Pr9Cd4CoPt3
_symmetry_space_group_name_H-M   'P 1'
_cell_length_a   10.05081203
_cell_length_b   10.05519816
_cell_length_c   10.10171762
_cell_angle_alpha   59.91320322
_cell_angle_beta   60.14392951
_cell_angle_gamma   60.37194127
_symmetry_Int_Tables_number   1
_chemical_formula_structural   La7Pr9Cd4CoPt3
_chemical_formula_sum   'La7 Pr9 Cd4 Co1 Pt3'
_cell_volume   724.20730257
_cell_formula_units_Z   1
loop_
 _symmetry_equiv_pos_site_id
 _symmetry_equiv_pos_as_xyz
  1  'x, y, z'
loop_
 _atom_site_type_symbol
 _atom_site_label
 _atom_site_symmetry_multiplicity
 _atom_site_fract_x
 _atom_site_fract_y
 _atom_site_fract_z
 _atom_site_occupancy
  La  La0  1  0.348873  0.349858  0.351876  1
  La  La1  1  0.343708  0.341899  0.956344  1
  La  La2  1  0.346559  0.953488  0.343878  1
  La  La3  1  0.954008  0.345774  0.345182  1
  La  La4  1  0.823101  0.189293  0.186960  1
  La  La5  1  0.190060  0.809685  0.808741  1
  La  La6  1  0.188523  0.823818  0.188298  1
  Pr  Pr7  1  0.807756  0.191798  0.808129  1
  Pr  Pr8  1  0.189969  0.192102  0.816107  1
  Pr  Pr9  1  0.806736  0.807730  0.191437  1
  Pr  Pr10  1  0.937443  0.563325  0.564128  1
  Pr  Pr11  1  0.564002  0.934815  0.932911  1
  Pr  Pr12  1  0.562974  0.938466  0.563085  1
  Pr  Pr13  1  0.934925  0.563412  0.933786  1
  Pr  Pr14  1  0.562603  0.562045  0.938266  1
  Pr  Pr15  1  0.934650  0.935650  0.563600  1
  Cd  Cd16  1  0.581191  0.579435  0.579669  1
  Cd  Cd17  1  0.581966  0.581626  0.257426  1
  Cd  Cd18  1  0.580779  0.257503  0.582501  1
  Cd  Cd19  1  0.257809  0.580015  0.582061  1
  Co  Co20  1  0.139616  0.138789  0.147289  1
  Pt  Pt21  1  0.144281  0.140825  0.571512  1
  Pt  Pt22  1  0.146119  0.572998  0.142033  1
  Pt  Pt23  1  0.572348  0.145649  0.144781  1
