# generated using pymatgen
data_PrPaSnPt2
_symmetry_space_group_name_H-M   'P 1'
_cell_length_a   7.87624100
_cell_length_b   7.91965200
_cell_length_c   3.77656600
_cell_angle_alpha   90.00000000
_cell_angle_beta   90.00000000
_cell_angle_gamma   90.00000000
_symmetry_Int_Tables_number   1
_chemical_formula_structural   PrPaSnPt2
_chemical_formula_sum   'Pr2 Pa2 Sn2 Pt4'
_cell_volume   235.57118892
_cell_formula_units_Z   2
loop_
 _symmetry_equiv_pos_site_id
 _symmetry_equiv_pos_as_xyz
  1  'x, y, z'
loop_
 _atom_site_type_symbol
 _atom_site_label
 _atom_site_symmetry_multiplicity
 _atom_site_fract_x
 _atom_site_fract_y
 _atom_site_fract_z
 _atom_site_occupancy
  Pr  Pr0  1  0.178723  0.675297  0.499999  1
  Pr  Pr1  1  0.678723  0.824704  0.499999  1
  Pa  Pa2  1  0.327560  0.174050  0.499999  1
  Pa  Pa3  1  0.827560  0.325951  0.499999  1
  Sn  Sn4  1  0.997772  0.997140  0.000000  1
  Sn  Sn5  1  0.497772  0.502860  0.000000  1
  Pt  Pt6  1  0.628400  0.149950  0.000000  1
  Pt  Pt7  1  0.128399  0.350050  0.000000  1
  Pt  Pt8  1  0.867548  0.596203  0.000000  1
  Pt  Pt9  1  0.367548  0.903798  0.000000  1
