# generated using pymatgen
data_Y4TmRh2
_symmetry_space_group_name_H-M   'P 1'
_cell_length_a   6.43466989
_cell_length_b   7.18795166
_cell_length_c   8.64844123
_cell_angle_alpha   96.91492805
_cell_angle_beta   111.83983874
_cell_angle_gamma   89.99999788
_symmetry_Int_Tables_number   1
_chemical_formula_structural   Y4TmRh2
_chemical_formula_sum   'Y8 Tm2 Rh4'
_cell_volume   368.16238991
_cell_formula_units_Z   2
loop_
 _symmetry_equiv_pos_site_id
 _symmetry_equiv_pos_as_xyz
  1  'x, y, z'
loop_
 _atom_site_type_symbol
 _atom_site_label
 _atom_site_symmetry_multiplicity
 _atom_site_fract_x
 _atom_site_fract_y
 _atom_site_fract_z
 _atom_site_occupancy
  Y  Y0  1  0.790129  0.082613  0.813831  1
  Y  Y1  1  0.976298  0.417387  0.186169  1
  Y  Y2  1  0.209871  0.917387  0.186169  1
  Y  Y3  1  0.023702  0.582613  0.813831  1
  Y  Y4  1  0.209461  0.186053  0.562431  1
  Y  Y5  1  0.647030  0.313947  0.437569  1
  Y  Y6  1  0.790539  0.813947  0.437569  1
  Y  Y7  1  0.352970  0.686053  0.562431  1
  Tm  Tm8  1  0.425122  0.250000  0.000000  1
  Tm  Tm9  1  0.574878  0.750000  0.000000  1
  Rh  Rh10  1  0.596795  0.427137  0.783017  1
  Rh  Rh11  1  0.813778  0.072863  0.216983  1
  Rh  Rh12  1  0.403205  0.572863  0.216983  1
  Rh  Rh13  1  0.186222  0.927137  0.783017  1
