# generated using pymatgen
data_La7Nd(CoSi3)4
_symmetry_space_group_name_H-M   'P 1'
_cell_length_a   8.22461800
_cell_length_b   8.22461876
_cell_length_c   8.63905600
_cell_angle_alpha   90.00000000
_cell_angle_beta   90.00000000
_cell_angle_gamma   119.99999695
_symmetry_Int_Tables_number   1
_chemical_formula_structural   La7Nd(CoSi3)4
_chemical_formula_sum   'La7 Nd1 Co4 Si12'
_cell_volume   506.09080408
_cell_formula_units_Z   1
loop_
 _symmetry_equiv_pos_site_id
 _symmetry_equiv_pos_as_xyz
  1  'x, y, z'
loop_
 _atom_site_type_symbol
 _atom_site_label
 _atom_site_symmetry_multiplicity
 _atom_site_fract_x
 _atom_site_fract_y
 _atom_site_fract_z
 _atom_site_occupancy
  La  La0  1  0.500057  0.499943  0.750000  1
  La  La1  1  0.500493  0.499507  0.250000  1
  La  La2  1  0.999889  0.499943  0.750000  1
  La  La3  1  0.999016  0.499507  0.250000  1
  La  La4  1  0.500057  0.000111  0.750000  1
  La  La5  1  0.500493  0.000984  0.250000  1
  La  La6  1  0.000000  0.000000  0.750000  1
  Nd  Nd7  1  0.000000  0.000000  0.250000  1
  Co  Co8  1  0.666667  0.333333  0.999979  1
  Co  Co9  1  0.333333  0.666667  0.000731  1
  Co  Co10  1  0.333333  0.666667  0.499269  1
  Co  Co11  1  0.666667  0.333333  0.500021  1
  Si  Si12  1  0.829679  0.170321  0.000030  1
  Si  Si13  1  0.170276  0.829724  0.000371  1
  Si  Si14  1  0.340641  0.170321  0.000030  1
  Si  Si15  1  0.170276  0.829724  0.499629  1
  Si  Si16  1  0.659446  0.829724  0.000371  1
  Si  Si17  1  0.829679  0.170321  0.499970  1
  Si  Si18  1  0.829679  0.659359  0.000030  1
  Si  Si19  1  0.659446  0.829724  0.499629  1
  Si  Si20  1  0.170276  0.340554  0.000371  1
  Si  Si21  1  0.340641  0.170321  0.499970  1
  Si  Si22  1  0.170276  0.340554  0.499629  1
  Si  Si23  1  0.829679  0.659359  0.499970  1
