# generated using pymatgen
data_Al3NiRh4
_symmetry_space_group_name_H-M   'P 1'
_cell_length_a   4.22322300
_cell_length_b   5.18278331
_cell_length_c   10.35462303
_cell_angle_alpha   109.16044645
_cell_angle_beta   90.00000000
_cell_angle_gamma   90.00000000
_symmetry_Int_Tables_number   1
_chemical_formula_structural   Al3NiRh4
_chemical_formula_sum   'Al6 Ni2 Rh8'
_cell_volume   214.08722796
_cell_formula_units_Z   2
loop_
 _symmetry_equiv_pos_site_id
 _symmetry_equiv_pos_as_xyz
  1  'x, y, z'
loop_
 _atom_site_type_symbol
 _atom_site_label
 _atom_site_symmetry_multiplicity
 _atom_site_fract_x
 _atom_site_fract_y
 _atom_site_fract_z
 _atom_site_occupancy
  Al  Al0  1  0.500000  0.256656  0.371541  1
  Al  Al1  1  0.500000  0.257188  0.871538  1
  Al  Al2  1  0.500000  0.743292  0.128511  1
  Al  Al3  1  0.500000  0.742809  0.628488  1
  Al  Al4  1  0.000000  0.000420  0.000093  1
  Al  Al5  1  0.000000  0.999482  0.499976  1
  Ni  Ni6  1  0.000000  0.500044  0.249974  1
  Ni  Ni7  1  0.000000  0.500015  0.749783  1
  Rh  Rh8  1  0.500000  0.753631  0.376984  1
  Rh  Rh9  1  0.500000  0.753919  0.876878  1
  Rh  Rh10  1  0.500000  0.246364  0.123109  1
  Rh  Rh11  1  0.500000  0.246033  0.623140  1
  Rh  Rh12  1  0.000000  0.000113  0.250049  1
  Rh  Rh13  1  0.000000  0.000110  0.750018  1
  Rh  Rh14  1  0.000000  0.500343  0.999820  1
  Rh  Rh15  1  0.000000  0.499580  0.500094  1
