# generated using pymatgen
data_Ho7TmSc12Ga7Si9
_symmetry_space_group_name_H-M   'P 1'
_cell_length_a   7.15144149
_cell_length_b   7.40578831
_cell_length_c   14.23017908
_cell_angle_alpha   89.98211593
_cell_angle_beta   89.93606886
_cell_angle_gamma   90.04117833
_symmetry_Int_Tables_number   1
_chemical_formula_structural   Ho7TmSc12Ga7Si9
_chemical_formula_sum   'Ho7 Tm1 Sc12 Ga7 Si9'
_cell_volume   753.65892240
_cell_formula_units_Z   1
loop_
 _symmetry_equiv_pos_site_id
 _symmetry_equiv_pos_as_xyz
  1  'x, y, z'
loop_
 _atom_site_type_symbol
 _atom_site_label
 _atom_site_symmetry_multiplicity
 _atom_site_fract_x
 _atom_site_fract_y
 _atom_site_fract_z
 _atom_site_occupancy
  Ho  Ho0  1  0.012341  0.174465  0.098583  1
  Ho  Ho1  1  0.989822  0.823018  0.901699  1
  Ho  Ho2  1  0.488448  0.676961  0.901919  1
  Ho  Ho3  1  0.989563  0.823273  0.599346  1
  Ho  Ho4  1  0.510312  0.322402  0.098772  1
  Ho  Ho5  1  0.010199  0.176152  0.400526  1
  Ho  Ho6  1  0.510516  0.323258  0.400477  1
  Tm  Tm7  1  0.489654  0.676715  0.599395  1
  Sc  Sc8  1  0.164010  0.502939  0.749881  1
  Sc  Sc9  1  0.836900  0.498160  0.249804  1
  Sc  Sc10  1  0.336004  0.002644  0.248966  1
  Sc  Sc11  1  0.663304  0.997501  0.749646  1
  Sc  Sc12  1  0.330431  0.173544  0.625914  1
  Sc  Sc13  1  0.669158  0.826709  0.373860  1
  Sc  Sc14  1  0.169439  0.673822  0.373735  1
  Sc  Sc15  1  0.668032  0.825268  0.126243  1
  Sc  Sc16  1  0.830038  0.326575  0.626123  1
  Sc  Sc17  1  0.329839  0.174122  0.874881  1
  Sc  Sc18  1  0.829300  0.326584  0.874282  1
  Sc  Sc19  1  0.171858  0.675678  0.125135  1
  Ga  Ga20  1  0.161836  0.463985  0.539640  1
  Ga  Ga21  1  0.838339  0.536214  0.460336  1
  Ga  Ga22  1  0.338367  0.963198  0.460515  1
  Ga  Ga23  1  0.838657  0.537420  0.040164  1
  Ga  Ga24  1  0.661468  0.036089  0.539436  1
  Ga  Ga25  1  0.160798  0.462967  0.960699  1
  Ga  Ga26  1  0.660296  0.037068  0.961021  1
  Si  Si27  1  0.031900  0.112455  0.750784  1
  Si  Si28  1  0.967649  0.886566  0.249555  1
  Si  Si29  1  0.467413  0.612329  0.249537  1
  Si  Si30  1  0.532078  0.387374  0.750097  1
  Si  Si31  1  0.284592  0.873005  0.750459  1
  Si  Si32  1  0.715950  0.127097  0.249189  1
  Si  Si33  1  0.215190  0.372533  0.249548  1
  Si  Si34  1  0.784032  0.627355  0.750305  1
  Si  Si35  1  0.342265  0.964554  0.039528  1
