# generated using pymatgen
data_Yb2H9W
_symmetry_space_group_name_H-M   'P 1'
_cell_length_a   8.54426800
_cell_length_b   8.54426837
_cell_length_c   4.83821700
_cell_angle_alpha   90.00000000
_cell_angle_beta   90.00000000
_cell_angle_gamma   120.00000629
_symmetry_Int_Tables_number   1
_chemical_formula_structural   Yb2H9W
_chemical_formula_sum   'Yb6 H27 W3'
_cell_volume   305.89028936
_cell_formula_units_Z   3
loop_
 _symmetry_equiv_pos_site_id
 _symmetry_equiv_pos_as_xyz
  1  'x, y, z'
loop_
 _atom_site_type_symbol
 _atom_site_label
 _atom_site_symmetry_multiplicity
 _atom_site_fract_x
 _atom_site_fract_y
 _atom_site_fract_z
 _atom_site_occupancy
  Yb  Yb0  1  0.000000  0.265931  0.500000  1
  Yb  Yb1  1  0.734069  0.734069  0.500000  1
  Yb  Yb2  1  0.265931  0.000000  0.500000  1
  Yb  Yb3  1  0.000000  0.610198  0.000000  1
  Yb  Yb4  1  0.389802  0.389802  0.000000  1
  Yb  Yb5  1  0.610198  0.000000  0.000000  1
  H  H6  1  0.815796  0.336133  0.765922  1
  H  H7  1  0.663867  0.479661  0.765922  1
  H  H8  1  0.520339  0.184204  0.765922  1
  H  H9  1  0.184204  0.520339  0.234078  1
  H  H10  1  0.520339  0.184204  0.234078  1
  H  H11  1  0.815796  0.336133  0.234078  1
  H  H12  1  0.663867  0.479661  0.234078  1
  H  H13  1  0.336133  0.815796  0.765922  1
  H  H14  1  0.479661  0.663867  0.765922  1
  H  H15  1  0.213160  0.000000  0.000000  1
  H  H16  1  0.786840  0.786840  0.000000  1
  H  H17  1  0.000000  0.213160  0.000000  1
  H  H18  1  0.846238  0.000000  0.259517  1
  H  H19  1  0.153762  0.153762  0.740483  1
  H  H20  1  0.000000  0.846238  0.740483  1
  H  H21  1  0.000000  0.846238  0.259517  1
  H  H22  1  0.153762  0.153762  0.259517  1
  H  H23  1  0.846238  0.000000  0.740483  1
  H  H24  1  0.131432  0.680284  0.500000  1
  H  H25  1  0.548852  0.868568  0.500000  1
  H  H26  1  0.319716  0.451148  0.500000  1
  H  H27  1  0.451148  0.319716  0.500000  1
  H  H28  1  0.868568  0.548852  0.500000  1
  H  H29  1  0.680284  0.131432  0.500000  1
  H  H30  1  0.184204  0.520339  0.765922  1
  H  H31  1  0.336133  0.815796  0.234078  1
  H  H32  1  0.479661  0.663867  0.234078  1
  W  W33  1  0.666667  0.333333  0.500000  1
  W  W34  1  0.333333  0.666667  0.500000  1
  W  W35  1  0.000000  0.000000  0.000000  1
