# generated using pymatgen
data_AlGaBi6(Sb2O11)2
_symmetry_space_group_name_H-M   'P 1'
_cell_length_a   9.62166152
_cell_length_b   9.54376042
_cell_length_c   13.57379727
_cell_angle_alpha   45.11742824
_cell_angle_beta   89.81387851
_cell_angle_gamma   89.93145238
_symmetry_Int_Tables_number   1
_chemical_formula_structural   AlGaBi6(Sb2O11)2
_chemical_formula_sum   'Al2 Ga2 Bi12 Sb8 O44'
_cell_volume   883.16413115
_cell_formula_units_Z   2
loop_
 _symmetry_equiv_pos_site_id
 _symmetry_equiv_pos_as_xyz
  1  'x, y, z'
loop_
 _atom_site_type_symbol
 _atom_site_label
 _atom_site_symmetry_multiplicity
 _atom_site_fract_x
 _atom_site_fract_y
 _atom_site_fract_z
 _atom_site_occupancy
  Al  Al0  1  0.744572  0.836586  0.754545  1
  Al  Al1  1  0.250170  0.662464  0.588010  1
  Ga  Ga2  1  0.256081  0.833605  0.255780  1
  Ga  Ga3  1  0.749807  0.664212  0.084610  1
  Bi  Bi4  1  0.992340  0.992503  0.514243  1
  Bi  Bi5  1  0.510569  0.513386  0.994975  1
  Bi  Bi6  1  0.490354  0.510648  0.499435  1
  Bi  Bi7  1  0.006714  0.993884  0.013490  1
  Bi  Bi8  1  0.387594  0.986223  0.879860  1
  Bi  Bi9  1  0.142013  0.295690  0.622910  1
  Bi  Bi10  1  0.083219  0.770506  0.868876  1
  Bi  Bi11  1  0.363781  0.963945  0.631407  1
  Bi  Bi12  1  0.634401  0.966101  0.131625  1
  Bi  Bi13  1  0.910314  0.767993  0.371598  1
  Bi  Bi14  1  0.860588  0.290563  0.123599  1
  Bi  Bi15  1  0.608709  0.993003  0.376405  1
  Sb  Sb16  1  0.247839  0.142836  0.255405  1
  Sb  Sb17  1  0.748737  0.343545  0.403442  1
  Sb  Sb18  1  0.908356  0.506454  0.745512  1
  Sb  Sb19  1  0.591123  0.506043  0.746846  1
  Sb  Sb20  1  0.752352  0.144204  0.754288  1
  Sb  Sb21  1  0.250831  0.347646  0.901084  1
  Sb  Sb22  1  0.092423  0.505380  0.246099  1
  Sb  Sb23  1  0.410011  0.501974  0.249098  1
  O  O24  1  0.141042  0.006961  0.645562  1
  O  O25  1  0.345775  0.786365  0.855752  1
  O  O26  1  0.357556  0.200813  0.648382  1
  O  O27  1  0.149791  0.007473  0.852657  1
  O  O28  1  0.848562  0.007284  0.353600  1
  O  O29  1  0.643025  0.202086  0.147059  1
  O  O30  1  0.653944  0.787983  0.356298  1
  O  O31  1  0.858016  0.006415  0.147191  1
  O  O32  1  0.241473  0.053468  0.036505  1
  O  O33  1  0.260046  0.620352  0.469272  1
  O  O34  1  0.250561  0.363978  0.040857  1
  O  O35  1  0.245714  0.942127  0.465087  1
  O  O36  1  0.965126  0.670735  0.083518  1
  O  O37  1  0.534988  0.658020  0.083970  1
  O  O38  1  0.961510  0.338083  0.407388  1
  O  O39  1  0.537860  0.331036  0.412142  1
  O  O40  1  0.913730  0.287547  0.749280  1
  O  O41  1  0.903672  0.721277  0.742510  1
  O  O42  1  0.590745  0.294088  0.743243  1
  O  O43  1  0.589734  0.709432  0.754257  1
  O  O44  1  0.755573  0.952657  0.963297  1
  O  O45  1  0.749939  0.364337  0.541145  1
  O  O46  1  0.741149  0.621553  0.961065  1
  O  O47  1  0.759574  0.048761  0.544870  1
  O  O48  1  0.037465  0.341118  0.907658  1
  O  O49  1  0.462181  0.337091  0.909855  1
  O  O50  1  0.041166  0.668942  0.586570  1
  O  O51  1  0.460406  0.657116  0.586678  1
  O  O52  1  0.088648  0.718929  0.243693  1
  O  O53  1  0.088367  0.286761  0.250702  1
  O  O54  1  0.418414  0.704711  0.256761  1
  O  O55  1  0.408642  0.292485  0.244523  1
  O  O56  1  0.245167  0.375613  0.738291  1
  O  O57  1  0.256187  0.643938  0.739239  1
  O  O58  1  0.253046  0.644467  0.110474  1
  O  O59  1  0.249344  0.364735  0.385657  1
  O  O60  1  0.886323  0.973386  0.762622  1
  O  O61  1  0.614463  0.984995  0.760105  1
  O  O62  1  0.744776  0.640368  0.244775  1
  O  O63  1  0.752263  0.363759  0.243871  1
  O  O64  1  0.750274  0.363436  0.884500  1
  O  O65  1  0.749414  0.642689  0.608545  1
  O  O66  1  0.109414  0.981721  0.259237  1
  O  O67  1  0.392035  0.991517  0.258193  1
