# generated using pymatgen
data_Ce2Pu3Si4
_symmetry_space_group_name_H-M   'P 1'
_cell_length_a   7.73105500
_cell_length_b   7.73105500
_cell_length_c   14.00384200
_cell_angle_alpha   90.00000000
_cell_angle_beta   90.00000000
_cell_angle_gamma   90.00000000
_symmetry_Int_Tables_number   1
_chemical_formula_structural   Ce2Pu3Si4
_chemical_formula_sum   'Ce8 Pu12 Si16'
_cell_volume   836.99859309
_cell_formula_units_Z   4
loop_
 _symmetry_equiv_pos_site_id
 _symmetry_equiv_pos_as_xyz
  1  'x, y, z'
loop_
 _atom_site_type_symbol
 _atom_site_label
 _atom_site_symmetry_multiplicity
 _atom_site_fract_x
 _atom_site_fract_y
 _atom_site_fract_z
 _atom_site_occupancy
  Ce  Ce0  1  0.996632  0.657274  0.034016  1
  Ce  Ce1  1  0.003368  0.342726  0.534016  1
  Ce  Ce2  1  0.657274  0.996632  0.965984  1
  Ce  Ce3  1  0.157274  0.503368  0.784016  1
  Ce  Ce4  1  0.842726  0.496632  0.284016  1
  Ce  Ce5  1  0.503368  0.157274  0.215984  1
  Ce  Ce6  1  0.496632  0.842726  0.715984  1
  Ce  Ce7  1  0.342726  0.003368  0.465984  1
  Pu  Pu8  1  0.365152  0.506670  0.374018  1
  Pu  Pu9  1  0.865152  0.993330  0.375982  1
  Pu  Pu10  1  0.006670  0.134848  0.124018  1
  Pu  Pu11  1  0.993330  0.865152  0.624018  1
  Pu  Pu12  1  0.506670  0.365152  0.625982  1
  Pu  Pu13  1  0.134848  0.006670  0.875982  1
  Pu  Pu14  1  0.674883  0.674883  0.500000  1
  Pu  Pu15  1  0.825117  0.174883  0.750000  1
  Pu  Pu16  1  0.174883  0.825117  0.250000  1
  Pu  Pu17  1  0.325117  0.325117  0.000000  1
  Pu  Pu18  1  0.493330  0.634848  0.125982  1
  Pu  Pu19  1  0.634848  0.493330  0.874018  1
  Si  Si20  1  0.062286  0.693069  0.441820  1
  Si  Si21  1  0.937714  0.306931  0.941820  1
  Si  Si22  1  0.693069  0.062286  0.558180  1
  Si  Si23  1  0.193069  0.437714  0.191820  1
  Si  Si24  1  0.806931  0.562286  0.691820  1
  Si  Si25  1  0.437714  0.193069  0.808180  1
  Si  Si26  1  0.562286  0.806931  0.308180  1
  Si  Si27  1  0.306931  0.937714  0.058180  1
  Si  Si28  1  0.778868  0.857555  0.182355  1
  Si  Si29  1  0.278868  0.642445  0.567645  1
  Si  Si30  1  0.721132  0.357555  0.067645  1
  Si  Si31  1  0.642445  0.278868  0.432355  1
  Si  Si32  1  0.357555  0.721132  0.932355  1
  Si  Si33  1  0.142445  0.221132  0.317645  1
  Si  Si34  1  0.221132  0.142445  0.682355  1
  Si  Si35  1  0.857555  0.778868  0.817645  1
