# generated using pymatgen
data_Nd6Y10Cd4TcPt3
_symmetry_space_group_name_H-M   'P 1'
_cell_length_a   9.85099396
_cell_length_b   9.85099341
_cell_length_c   9.85099269
_cell_angle_alpha   59.53493305
_cell_angle_beta   59.53493139
_cell_angle_gamma   59.53494302
_symmetry_Int_Tables_number   1
_chemical_formula_structural   Nd6Y10Cd4TcPt3
_chemical_formula_sum   'Nd6 Y10 Cd4 Tc1 Pt3'
_cell_volume   668.81830649
_cell_formula_units_Z   1
loop_
 _symmetry_equiv_pos_site_id
 _symmetry_equiv_pos_as_xyz
  1  'x, y, z'
loop_
 _atom_site_type_symbol
 _atom_site_label
 _atom_site_symmetry_multiplicity
 _atom_site_fract_x
 _atom_site_fract_y
 _atom_site_fract_z
 _atom_site_occupancy
  Nd  Nd0  1  0.937167  0.562644  0.562644  1
  Nd  Nd1  1  0.554447  0.940371  0.940371  1
  Nd  Nd2  1  0.562644  0.937167  0.562644  1
  Nd  Nd3  1  0.940371  0.554447  0.940371  1
  Nd  Nd4  1  0.562644  0.562644  0.937167  1
  Nd  Nd5  1  0.940371  0.940371  0.554447  1
  Y  Y6  1  0.351598  0.351598  0.351598  1
  Y  Y7  1  0.349898  0.349898  0.952207  1
  Y  Y8  1  0.349898  0.952207  0.349898  1
  Y  Y9  1  0.952207  0.349898  0.349898  1
  Y  Y10  1  0.816467  0.186233  0.186233  1
  Y  Y11  1  0.184940  0.810797  0.810797  1
  Y  Y12  1  0.186233  0.816467  0.186233  1
  Y  Y13  1  0.810797  0.184940  0.810797  1
  Y  Y14  1  0.186233  0.186233  0.816467  1
  Y  Y15  1  0.810797  0.810797  0.184940  1
  Cd  Cd16  1  0.579335  0.579335  0.579335  1
  Cd  Cd17  1  0.579121  0.579121  0.259523  1
  Cd  Cd18  1  0.579121  0.259523  0.579121  1
  Cd  Cd19  1  0.259523  0.579121  0.579121  1
  Tc  Tc20  1  0.143477  0.143477  0.143477  1
  Pt  Pt21  1  0.143959  0.143959  0.574794  1
  Pt  Pt22  1  0.143959  0.574794  0.143959  1
  Pt  Pt23  1  0.574794  0.143959  0.143959  1
