# generated using pymatgen
data_Nd5Dy(TmAu2)2
_symmetry_space_group_name_H-M   'P 1'
_cell_length_a   5.00688600
_cell_length_b   7.30371335
_cell_length_c   9.10460481
_cell_angle_alpha   90.03072290
_cell_angle_beta   90.00000000
_cell_angle_gamma   90.00000000
_symmetry_Int_Tables_number   1
_chemical_formula_structural   Nd5Dy(TmAu2)2
_chemical_formula_sum   'Nd5 Dy1 Tm2 Au4'
_cell_volume   332.94497163
_cell_formula_units_Z   1
loop_
 _symmetry_equiv_pos_site_id
 _symmetry_equiv_pos_as_xyz
  1  'x, y, z'
loop_
 _atom_site_type_symbol
 _atom_site_label
 _atom_site_symmetry_multiplicity
 _atom_site_fract_x
 _atom_site_fract_y
 _atom_site_fract_z
 _atom_site_occupancy
  Nd  Nd0  1  0.750000  0.652614  0.414660  1
  Nd  Nd1  1  0.250000  0.489561  0.177177  1
  Nd  Nd2  1  0.250000  0.994906  0.324487  1
  Nd  Nd3  1  0.750000  0.510260  0.820932  1
  Nd  Nd4  1  0.750000  0.010771  0.679551  1
  Dy  Dy5  1  0.750000  0.151295  0.080127  1
  Tm  Tm6  1  0.250000  0.851243  0.920937  1
  Tm  Tm7  1  0.250000  0.349047  0.583330  1
  Au  Au8  1  0.250000  0.243668  0.899903  1
  Au  Au9  1  0.250000  0.744222  0.608279  1
  Au  Au10  1  0.750000  0.756354  0.086732  1
  Au  Au11  1  0.750000  0.246059  0.403882  1
