# generated using pymatgen
data_Ce2Zr3Ge4
_symmetry_space_group_name_H-M   'P 1'
_cell_length_a   7.49361600
_cell_length_b   7.33667560
_cell_length_c   7.50495510
_cell_angle_alpha   70.64649552
_cell_angle_beta   90.00000000
_cell_angle_gamma   90.00000000
_symmetry_Int_Tables_number   1
_chemical_formula_structural   Ce2Zr3Ge4
_chemical_formula_sum   'Ce4 Zr6 Ge8'
_cell_volume   389.29338487
_cell_formula_units_Z   2
loop_
 _symmetry_equiv_pos_site_id
 _symmetry_equiv_pos_as_xyz
  1  'x, y, z'
loop_
 _atom_site_type_symbol
 _atom_site_label
 _atom_site_symmetry_multiplicity
 _atom_site_fract_x
 _atom_site_fract_y
 _atom_site_fract_z
 _atom_site_occupancy
  Ce  Ce0  1  0.669776  0.935463  0.687029  1
  Ce  Ce1  1  0.330224  0.064537  0.312971  1
  Ce  Ce2  1  0.169776  0.564537  0.312971  1
  Ce  Ce3  1  0.830224  0.435463  0.687029  1
  Zr  Zr4  1  0.671379  0.748980  0.248295  1
  Zr  Zr5  1  0.328621  0.251020  0.751705  1
  Zr  Zr6  1  0.171379  0.751020  0.751705  1
  Zr  Zr7  1  0.828621  0.248980  0.248295  1
  Zr  Zr8  1  0.000000  0.000000  0.000000  1
  Zr  Zr9  1  0.500000  0.500000  0.000000  1
  Ge  Ge10  1  0.962458  0.859116  0.413616  1
  Ge  Ge11  1  0.037542  0.140884  0.586384  1
  Ge  Ge12  1  0.462458  0.640884  0.586384  1
  Ge  Ge13  1  0.537542  0.359116  0.413616  1
  Ge  Ge14  1  0.866996  0.635755  0.990939  1
  Ge  Ge15  1  0.133004  0.364245  0.009061  1
  Ge  Ge16  1  0.366996  0.864245  0.009061  1
  Ge  Ge17  1  0.633004  0.135755  0.990939  1
