# generated using pymatgen
data_Zr6Zn20Ni2AgGe
_symmetry_space_group_name_H-M   'P 1'
_cell_length_a   8.74063370
_cell_length_b   8.81210360
_cell_length_c   8.74226207
_cell_angle_alpha   59.63036047
_cell_angle_beta   60.00616230
_cell_angle_gamma   60.26793511
_symmetry_Int_Tables_number   1
_chemical_formula_structural   Zr6Zn20Ni2AgGe
_chemical_formula_sum   'Zr6 Zn20 Ni2 Ag1 Ge1'
_cell_volume   475.76271461
_cell_formula_units_Z   1
loop_
 _symmetry_equiv_pos_site_id
 _symmetry_equiv_pos_as_xyz
  1  'x, y, z'
loop_
 _atom_site_type_symbol
 _atom_site_label
 _atom_site_symmetry_multiplicity
 _atom_site_fract_x
 _atom_site_fract_y
 _atom_site_fract_z
 _atom_site_occupancy
  Zr  Zr0  1  0.711754  0.285791  0.290701  1
  Zr  Zr1  1  0.288246  0.714209  0.709299  1
  Zr  Zr2  1  0.283311  0.716024  0.285466  1
  Zr  Zr3  1  0.716689  0.283976  0.714534  1
  Zr  Zr4  1  0.284799  0.283976  0.714534  1
  Zr  Zr5  1  0.715201  0.716024  0.285466  1
  Zn  Zn6  1  0.120377  0.121032  0.137435  1
  Zn  Zn7  1  0.879623  0.878968  0.862565  1
  Zn  Zn8  1  0.132032  0.116961  0.618974  1
  Zn  Zn9  1  0.125858  0.623795  0.124489  1
  Zn  Zn10  1  0.867968  0.883039  0.381026  1
  Zn  Zn11  1  0.874142  0.376205  0.875511  1
  Zn  Zn12  1  0.621157  0.121032  0.137435  1
  Zn  Zn13  1  0.378843  0.878968  0.862565  1
  Zn  Zn14  1  0.500000  0.000000  0.000000  1
  Zn  Zn15  1  0.000000  0.500000  0.500000  1
  Zn  Zn16  1  0.000000  0.500000  0.000000  1
  Zn  Zn17  1  0.500000  0.500000  0.000000  1
  Zn  Zn18  1  0.341236  0.330356  0.343072  1
  Zn  Zn19  1  0.658764  0.669644  0.656928  1
  Zn  Zn20  1  0.339646  0.337801  0.982908  1
  Zn  Zn21  1  0.335416  0.985520  0.343649  1
  Zn  Zn22  1  0.660354  0.662199  0.017092  1
  Zn  Zn23  1  0.664584  0.014480  0.656351  1
  Zn  Zn24  1  0.985335  0.330356  0.343072  1
  Zn  Zn25  1  0.014665  0.669644  0.656928  1
  Ni  Ni26  1  0.500000  0.000000  0.500000  1
  Ni  Ni27  1  0.000000  0.000000  0.500000  1
  Ag  Ag28  1  0.000000  0.000000  0.000000  1
  Ge  Ge29  1  0.500000  0.500000  0.500000  1
