# generated using pymatgen
data_LiErTh7(Si4Rh)3
_symmetry_space_group_name_H-M   'P 1'
_cell_length_a   8.23361000
_cell_length_b   8.23991656
_cell_length_c   8.35514383
_cell_angle_alpha   89.95616176
_cell_angle_beta   90.00000000
_cell_angle_gamma   119.97468510
_symmetry_Int_Tables_number   1
_chemical_formula_structural   LiErTh7(Si4Rh)3
_chemical_formula_sum   'Li1 Er1 Th7 Si12 Rh3'
_cell_volume   491.03022564
_cell_formula_units_Z   1
loop_
 _symmetry_equiv_pos_site_id
 _symmetry_equiv_pos_as_xyz
  1  'x, y, z'
loop_
 _atom_site_type_symbol
 _atom_site_label
 _atom_site_symmetry_multiplicity
 _atom_site_fract_x
 _atom_site_fract_y
 _atom_site_fract_z
 _atom_site_occupancy
  Li  Li0  1  0.666242  0.332482  0.503954  1
  Er  Er1  1  0.497432  0.994865  0.750938  1
  Th  Th2  1  0.999599  0.999197  0.251400  1
  Th  Th3  1  0.000329  0.000659  0.748319  1
  Th  Th4  1  0.497283  0.502887  0.249875  1
  Th  Th5  1  0.496761  0.993523  0.249528  1
  Th  Th6  1  0.005605  0.502887  0.249875  1
  Th  Th7  1  0.497018  0.503441  0.750245  1
  Th  Th8  1  0.006423  0.503441  0.750245  1
  Si  Si9  1  0.831577  0.167734  0.501001  1
  Si  Si10  1  0.832276  0.664553  0.498895  1
  Si  Si11  1  0.336156  0.167734  0.501001  1
  Si  Si12  1  0.831326  0.166206  0.997867  1
  Si  Si13  1  0.834031  0.668064  0.001283  1
  Si  Si14  1  0.334879  0.166206  0.997867  1
  Si  Si15  1  0.168059  0.834877  0.996463  1
  Si  Si16  1  0.666819  0.834877  0.996463  1
  Si  Si17  1  0.164606  0.329211  0.000692  1
  Si  Si18  1  0.167730  0.834673  0.502667  1
  Si  Si19  1  0.666944  0.834673  0.502667  1
  Si  Si20  1  0.165891  0.331781  0.499507  1
  Rh  Rh21  1  0.667007  0.334014  0.996542  1
  Rh  Rh22  1  0.332547  0.665095  0.998391  1
  Rh  Rh23  1  0.333460  0.666921  0.504312  1
