# generated using pymatgen
data_Ca2Mo3As7Rh9
_symmetry_space_group_name_H-M   'P 1'
_cell_length_a   9.88099600
_cell_length_b   9.88099689
_cell_length_c   4.03867200
_cell_angle_alpha   90.00000000
_cell_angle_beta   90.00000000
_cell_angle_gamma   120.00000372
_symmetry_Int_Tables_number   1
_chemical_formula_structural   Ca2Mo3As7Rh9
_chemical_formula_sum   'Ca2 Mo3 As7 Rh9'
_cell_volume   341.48425555
_cell_formula_units_Z   1
loop_
 _symmetry_equiv_pos_site_id
 _symmetry_equiv_pos_as_xyz
  1  'x, y, z'
loop_
 _atom_site_type_symbol
 _atom_site_label
 _atom_site_symmetry_multiplicity
 _atom_site_fract_x
 _atom_site_fract_y
 _atom_site_fract_z
 _atom_site_occupancy
  Ca  Ca0  1  0.000000  0.000000  0.764097  1
  Ca  Ca1  1  0.333333  0.666667  0.263751  1
  Mo  Mo2  1  0.788382  0.545124  0.763669  1
  Mo  Mo3  1  0.454876  0.243258  0.763669  1
  Mo  Mo4  1  0.756742  0.211618  0.763669  1
  As  As5  1  0.666667  0.333333  0.263353  1
  As  As6  1  0.073401  0.622479  0.763857  1
  As  As7  1  0.377521  0.450923  0.763857  1
  As  As8  1  0.549077  0.926599  0.763857  1
  As  As9  1  0.252544  0.038136  0.263974  1
  As  As10  1  0.961864  0.214408  0.263974  1
  As  As11  1  0.785592  0.747456  0.263974  1
  Rh  Rh12  1  0.506333  0.056774  0.263743  1
  Rh  Rh13  1  0.943226  0.449559  0.263743  1
  Rh  Rh14  1  0.550441  0.493667  0.263743  1
  Rh  Rh15  1  0.100951  0.380775  0.763850  1
  Rh  Rh16  1  0.619225  0.720177  0.763850  1
  Rh  Rh17  1  0.279823  0.899049  0.763850  1
  Rh  Rh18  1  0.233741  0.270594  0.263819  1
  Rh  Rh19  1  0.729406  0.963147  0.263819  1
  Rh  Rh20  1  0.036853  0.766259  0.263819  1
