# generated using pymatgen
data_Sm2Si7(PdPt3)3
_symmetry_space_group_name_H-M   'P 1'
_cell_length_a   9.92809100
_cell_length_b   9.92809124
_cell_length_c   3.98370600
_cell_angle_alpha   90.00000000
_cell_angle_beta   90.00000000
_cell_angle_gamma   120.00000255
_symmetry_Int_Tables_number   1
_chemical_formula_structural   Sm2Si7(PdPt3)3
_chemical_formula_sum   'Sm2 Si7 Pd3 Pt9'
_cell_volume   340.05519114
_cell_formula_units_Z   1
loop_
 _symmetry_equiv_pos_site_id
 _symmetry_equiv_pos_as_xyz
  1  'x, y, z'
loop_
 _atom_site_type_symbol
 _atom_site_label
 _atom_site_symmetry_multiplicity
 _atom_site_fract_x
 _atom_site_fract_y
 _atom_site_fract_z
 _atom_site_occupancy
  Sm  Sm0  1  0.000000  0.000000  0.000000  1
  Sm  Sm1  1  0.333333  0.666667  0.500000  1
  Si  Si2  1  0.266074  0.219983  0.500000  1
  Si  Si3  1  0.780017  0.046093  0.500000  1
  Si  Si4  1  0.953907  0.733926  0.500000  1
  Si  Si5  1  0.552257  0.630371  0.000000  1
  Si  Si6  1  0.369629  0.921885  0.000000  1
  Si  Si7  1  0.078115  0.447743  0.000000  1
  Si  Si8  1  0.666667  0.333333  0.000000  1
  Pd  Pd9  1  0.881492  0.458835  0.500000  1
  Pd  Pd10  1  0.577343  0.118508  0.500000  1
  Pd  Pd11  1  0.541165  0.422657  0.500000  1
  Pt  Pt12  1  0.220378  0.945948  0.500000  1
  Pt  Pt13  1  0.054052  0.274430  0.500000  1
  Pt  Pt14  1  0.725570  0.779622  0.500000  1
  Pt  Pt15  1  0.299898  0.407391  0.000000  1
  Pt  Pt16  1  0.592609  0.892507  0.000000  1
  Pt  Pt17  1  0.107493  0.700102  0.000000  1
  Pt  Pt18  1  0.390416  0.173729  0.000000  1
  Pt  Pt19  1  0.826271  0.216688  0.000000  1
  Pt  Pt20  1  0.783312  0.609584  0.000000  1
