# generated using pymatgen
data_Lu16MgCo4Ag3
_symmetry_space_group_name_H-M   'P 1'
_cell_length_a   9.26779760
_cell_length_b   9.26740329
_cell_length_c   9.26740400
_cell_angle_alpha   60.00000459
_cell_angle_beta   60.00141203
_cell_angle_gamma   60.00141308
_symmetry_Int_Tables_number   1
_chemical_formula_structural   Lu16MgCo4Ag3
_chemical_formula_sum   'Lu16 Mg1 Co4 Ag3'
_cell_volume   562.84263636
_cell_formula_units_Z   1
loop_
 _symmetry_equiv_pos_site_id
 _symmetry_equiv_pos_as_xyz
  1  'x, y, z'
loop_
 _atom_site_type_symbol
 _atom_site_label
 _atom_site_symmetry_multiplicity
 _atom_site_fract_x
 _atom_site_fract_y
 _atom_site_fract_z
 _atom_site_occupancy
  Lu  Lu0  1  0.809644  0.189262  0.189262  1
  Lu  Lu1  1  0.186197  0.813666  0.813666  1
  Lu  Lu2  1  0.186197  0.813666  0.186472  1
  Lu  Lu3  1  0.809644  0.189262  0.811833  1
  Lu  Lu4  1  0.186197  0.186472  0.813666  1
  Lu  Lu5  1  0.809644  0.811833  0.189262  1
  Lu  Lu6  1  0.935568  0.562507  0.562507  1
  Lu  Lu7  1  0.562750  0.936830  0.936830  1
  Lu  Lu8  1  0.562750  0.936830  0.563590  1
  Lu  Lu9  1  0.935568  0.562507  0.939419  1
  Lu  Lu10  1  0.562750  0.563590  0.936830  1
  Lu  Lu11  1  0.935568  0.939419  0.562507  1
  Lu  Lu12  1  0.346034  0.344865  0.344865  1
  Lu  Lu13  1  0.346034  0.344865  0.964235  1
  Lu  Lu14  1  0.346034  0.964235  0.344865  1
  Lu  Lu15  1  0.951479  0.349507  0.349507  1
  Mg  Mg16  1  0.286693  0.571102  0.571102  1
  Co  Co17  1  0.137294  0.143269  0.143269  1
  Co  Co18  1  0.137294  0.143269  0.576167  1
  Co  Co19  1  0.137294  0.576167  0.143269  1
  Co  Co20  1  0.576681  0.141106  0.141106  1
  Ag  Ag21  1  0.584228  0.582982  0.582982  1
  Ag  Ag22  1  0.584228  0.582982  0.249807  1
  Ag  Ag23  1  0.584228  0.249807  0.582982  1
