# generated using pymatgen
data_Ba16Sr4Si11Au
_symmetry_space_group_name_H-M   'P 1'
_cell_length_a   8.38052000
_cell_length_b   8.38052000
_cell_length_c   16.73023800
_cell_angle_alpha   90.00000000
_cell_angle_beta   90.00000000
_cell_angle_gamma   90.00000000
_symmetry_Int_Tables_number   1
_chemical_formula_structural   Ba16Sr4Si11Au
_chemical_formula_sum   'Ba16 Sr4 Si11 Au1'
_cell_volume   1175.01673730
_cell_formula_units_Z   1
loop_
 _symmetry_equiv_pos_site_id
 _symmetry_equiv_pos_as_xyz
  1  'x, y, z'
loop_
 _atom_site_type_symbol
 _atom_site_label
 _atom_site_symmetry_multiplicity
 _atom_site_fract_x
 _atom_site_fract_y
 _atom_site_fract_z
 _atom_site_occupancy
  Ba  Ba0  1  0.308212  0.672382  0.110066  1
  Ba  Ba1  1  0.172382  0.191788  0.110066  1
  Ba  Ba2  1  0.328627  0.695499  0.391267  1
  Ba  Ba3  1  0.669278  0.694655  0.890307  1
  Ba  Ba4  1  0.195499  0.171373  0.391267  1
  Ba  Ba5  1  0.671373  0.304501  0.391267  1
  Ba  Ba6  1  0.172271  0.805116  0.608890  1
  Ba  Ba7  1  0.330722  0.305345  0.890307  1
  Ba  Ba8  1  0.194655  0.830722  0.890307  1
  Ba  Ba9  1  0.827729  0.194884  0.608890  1
  Ba  Ba10  1  0.305116  0.327729  0.608890  1
  Ba  Ba11  1  0.804501  0.828627  0.391267  1
  Ba  Ba12  1  0.805345  0.169278  0.890307  1
  Ba  Ba13  1  0.827618  0.808212  0.110066  1
  Ba  Ba14  1  0.691788  0.327618  0.110066  1
  Ba  Ba15  1  0.694884  0.672271  0.608890  1
  Sr  Sr16  1  0.500000  0.000000  0.726602  1
  Sr  Sr17  1  0.500000  0.000000  0.227133  1
  Sr  Sr18  1  0.000000  0.500000  0.275221  1
  Sr  Sr19  1  0.000000  0.500000  0.769348  1
  Si  Si20  1  0.104687  0.104299  0.751242  1
  Si  Si21  1  0.395701  0.604687  0.751242  1
  Si  Si22  1  0.603305  0.605329  0.249313  1
  Si  Si23  1  0.500000  0.000000  0.015340  1
  Si  Si24  1  0.105329  0.896695  0.249313  1
  Si  Si25  1  0.604299  0.395313  0.751242  1
  Si  Si26  1  0.895313  0.895701  0.751242  1
  Si  Si27  1  0.396695  0.394671  0.249313  1
  Si  Si28  1  0.894671  0.103305  0.249313  1
  Si  Si29  1  0.500000  0.000000  0.516311  1
  Si  Si30  1  0.000000  0.500000  0.483620  1
  Au  Au31  1  0.000000  0.500000  0.982092  1
