# generated using pymatgen
data_LaY5(CrC3)4
_symmetry_space_group_name_H-M   'P 1'
_cell_length_a   8.21671394
_cell_length_b   8.18563522
_cell_length_c   5.07555900
_cell_angle_alpha   90.00000000
_cell_angle_beta   90.00000000
_cell_angle_gamma   120.32988594
_symmetry_Int_Tables_number   1
_chemical_formula_structural   LaY5(CrC3)4
_chemical_formula_sum   'La1 Y5 Cr4 C12'
_cell_volume   294.65362463
_cell_formula_units_Z   1
loop_
 _symmetry_equiv_pos_site_id
 _symmetry_equiv_pos_as_xyz
  1  'x, y, z'
loop_
 _atom_site_type_symbol
 _atom_site_label
 _atom_site_symmetry_multiplicity
 _atom_site_fract_x
 _atom_site_fract_y
 _atom_site_fract_z
 _atom_site_occupancy
  La  La0  1  0.392462  0.320467  0.250000  1
  Y  Y1  1  0.624439  0.692316  0.750000  1
  Y  Y2  1  0.933740  0.619585  0.250000  1
  Y  Y3  1  0.691448  0.069121  0.250000  1
  Y  Y4  1  0.310261  0.926898  0.750000  1
  Y  Y5  1  0.067754  0.378500  0.750000  1
  Cr  Cr6  1  0.999676  0.999225  0.499821  1
  Cr  Cr7  1  0.999676  0.999225  0.000179  1
  Cr  Cr8  1  0.668376  0.331214  0.750000  1
  Cr  Cr9  1  0.331039  0.670953  0.250000  1
  C  C10  1  0.961485  0.775486  0.750000  1
  C  C11  1  0.177664  0.957005  0.250000  1
  C  C12  1  0.770592  0.807245  0.250000  1
  C  C13  1  0.226567  0.185019  0.750000  1
  C  C14  1  0.814186  0.037773  0.750000  1
  C  C15  1  0.037534  0.226805  0.250000  1
  C  C16  1  0.863241  0.580233  0.750000  1
  C  C17  1  0.281807  0.868630  0.250000  1
  C  C18  1  0.576968  0.723468  0.250000  1
  C  C19  1  0.421022  0.273092  0.750000  1
  C  C20  1  0.131621  0.422352  0.250000  1
  C  C21  1  0.718444  0.135387  0.750000  1
