# generated using pymatgen
data_Ce5Bi3Ru
_symmetry_space_group_name_H-M   'P 1'
_cell_length_a   6.38421800
_cell_length_b   9.66692436
_cell_length_c   9.65973187
_cell_angle_alpha   120.02463965
_cell_angle_beta   90.00000000
_cell_angle_gamma   90.00000000
_symmetry_Int_Tables_number   1
_chemical_formula_structural   Ce5Bi3Ru
_chemical_formula_sum   'Ce10 Bi6 Ru2'
_cell_volume   516.15941019
_cell_formula_units_Z   2
loop_
 _symmetry_equiv_pos_site_id
 _symmetry_equiv_pos_as_xyz
  1  'x, y, z'
loop_
 _atom_site_type_symbol
 _atom_site_label
 _atom_site_symmetry_multiplicity
 _atom_site_fract_x
 _atom_site_fract_y
 _atom_site_fract_z
 _atom_site_occupancy
  Ce  Ce0  1  0.500002  0.333282  0.666560  1
  Ce  Ce1  1  0.500002  0.666722  0.333440  1
  Ce  Ce2  1  0.000002  0.666718  0.333440  1
  Ce  Ce3  1  0.000002  0.333278  0.666560  1
  Ce  Ce4  1  0.750005  0.240626  0.000000  1
  Ce  Ce5  1  0.749992  0.759249  0.759324  1
  Ce  Ce6  1  0.749992  0.999925  0.240676  1
  Ce  Ce7  1  0.250005  0.759374  0.000000  1
  Ce  Ce8  1  0.249992  0.240751  0.240676  1
  Ce  Ce9  1  0.249992  0.000075  0.759324  1
  Bi  Bi10  1  0.750000  0.607928  0.000000  1
  Bi  Bi11  1  0.749990  0.392079  0.392115  1
  Bi  Bi12  1  0.749990  0.999965  0.607885  1
  Bi  Bi13  1  0.250000  0.392072  0.000000  1
  Bi  Bi14  1  0.249990  0.607921  0.607885  1
  Bi  Bi15  1  0.249990  0.000035  0.392115  1
  Ru  Ru16  1  0.500028  0.000000  0.000000  1
  Ru  Ru17  1  0.000028  0.000000  0.000000  1
