# generated using pymatgen
data_Hf4Zr2Ta4Al12Os7
_symmetry_space_group_name_H-M   'P 1'
_cell_length_a   8.84380642
_cell_length_b   8.84380668
_cell_length_c   8.83133631
_cell_angle_alpha   60.04289336
_cell_angle_beta   60.04288938
_cell_angle_gamma   59.90636820
_symmetry_Int_Tables_number   1
_chemical_formula_structural   Hf4Zr2Ta4Al12Os7
_chemical_formula_sum   'Hf4 Zr2 Ta4 Al12 Os7'
_cell_volume   488.38519262
_cell_formula_units_Z   1
loop_
 _symmetry_equiv_pos_site_id
 _symmetry_equiv_pos_as_xyz
  1  'x, y, z'
loop_
 _atom_site_type_symbol
 _atom_site_label
 _atom_site_symmetry_multiplicity
 _atom_site_fract_x
 _atom_site_fract_y
 _atom_site_fract_z
 _atom_site_occupancy
  Hf  Hf0  1  0.701681  0.701681  0.297597  1
  Hf  Hf1  1  0.299641  0.700905  0.298842  1
  Hf  Hf2  1  0.700905  0.299641  0.298842  1
  Hf  Hf3  1  0.298319  0.298319  0.702049  1
  Zr  Zr4  1  0.699897  0.299546  0.700274  1
  Zr  Zr5  1  0.299546  0.699897  0.700274  1
  Ta  Ta6  1  0.879174  0.879174  0.362503  1
  Ta  Ta7  1  0.879072  0.362958  0.879138  1
  Ta  Ta8  1  0.362958  0.879072  0.879138  1
  Ta  Ta9  1  0.878795  0.878795  0.879024  1
  Al  Al10  1  0.121193  0.121193  0.636457  1
  Al  Al11  1  0.121119  0.636829  0.121101  1
  Al  Al12  1  0.636829  0.121119  0.121101  1
  Al  Al13  1  0.120890  0.120890  0.121012  1
  Al  Al14  1  0.659559  0.659559  0.021784  1
  Al  Al15  1  0.659258  0.021603  0.659599  1
  Al  Al16  1  0.021603  0.659258  0.659599  1
  Al  Al17  1  0.659621  0.659621  0.659367  1
  Al  Al18  1  0.334612  0.334612  0.996402  1
  Al  Al19  1  0.334624  0.996170  0.334832  1
  Al  Al20  1  0.996170  0.334624  0.334832  1
  Al  Al21  1  0.334550  0.334550  0.334944  1
  Os  Os22  1  0.000003  0.000003  0.999518  1
  Os  Os23  1  0.997576  0.997576  0.500947  1
  Os  Os24  1  0.502959  0.998844  0.501581  1
  Os  Os25  1  0.998844  0.502959  0.501581  1
  Os  Os26  1  0.502413  0.502413  0.000090  1
  Os  Os27  1  0.996539  0.501653  0.998786  1
  Os  Os28  1  0.501653  0.996539  0.998786  1
