# generated using pymatgen
data_Er16In4Ru3Rh
_symmetry_space_group_name_H-M   'P 1'
_cell_length_a   9.58299644
_cell_length_b   9.58299624
_cell_length_c   9.58299632
_cell_angle_alpha   59.80257315
_cell_angle_beta   59.80257664
_cell_angle_gamma   59.80257673
_symmetry_Int_Tables_number   1
_chemical_formula_structural   Er16In4Ru3Rh
_chemical_formula_sum   'Er16 In4 Ru3 Rh1'
_cell_volume   619.49562719
_cell_formula_units_Z   1
loop_
 _symmetry_equiv_pos_site_id
 _symmetry_equiv_pos_as_xyz
  1  'x, y, z'
loop_
 _atom_site_type_symbol
 _atom_site_label
 _atom_site_symmetry_multiplicity
 _atom_site_fract_x
 _atom_site_fract_y
 _atom_site_fract_z
 _atom_site_occupancy
  Er  Er0  1  0.191935  0.191935  0.810866  1
  Er  Er1  1  0.439370  0.059501  0.059501  1
  Er  Er2  1  0.441017  0.059393  0.441017  1
  Er  Er3  1  0.059501  0.439370  0.059501  1
  Er  Er4  1  0.650465  0.045444  0.650465  1
  Er  Er5  1  0.193370  0.808772  0.808772  1
  Er  Er6  1  0.059501  0.059501  0.439370  1
  Er  Er7  1  0.810866  0.191935  0.191935  1
  Er  Er8  1  0.808772  0.808772  0.193370  1
  Er  Er9  1  0.650465  0.650465  0.045444  1
  Er  Er10  1  0.650936  0.650936  0.650936  1
  Er  Er11  1  0.059393  0.441017  0.441017  1
  Er  Er12  1  0.045444  0.650465  0.650465  1
  Er  Er13  1  0.808772  0.193370  0.808772  1
  Er  Er14  1  0.441017  0.441017  0.059393  1
  Er  Er15  1  0.191935  0.810866  0.191935  1
  In  In16  1  0.417153  0.748412  0.417153  1
  In  In17  1  0.417153  0.417153  0.748412  1
  In  In18  1  0.748412  0.417153  0.417153  1
  In  In19  1  0.417269  0.417269  0.417269  1
  Ru  Ru20  1  0.858225  0.420994  0.858225  1
  Ru  Ru21  1  0.858225  0.858225  0.420994  1
  Ru  Ru22  1  0.420994  0.858225  0.858225  1
  Rh  Rh23  1  0.859809  0.859809  0.859809  1
