# generated using pymatgen
data_PrThCdPt2
_symmetry_space_group_name_H-M   'P 1'
_cell_length_a   7.98721000
_cell_length_b   7.98997300
_cell_length_c   3.84099400
_cell_angle_alpha   90.00000000
_cell_angle_beta   90.00000000
_cell_angle_gamma   90.00000000
_symmetry_Int_Tables_number   1
_chemical_formula_structural   PrThCdPt2
_chemical_formula_sum   'Pr2 Th2 Cd2 Pt4'
_cell_volume   245.12298891
_cell_formula_units_Z   2
loop_
 _symmetry_equiv_pos_site_id
 _symmetry_equiv_pos_as_xyz
  1  'x, y, z'
loop_
 _atom_site_type_symbol
 _atom_site_label
 _atom_site_symmetry_multiplicity
 _atom_site_fract_x
 _atom_site_fract_y
 _atom_site_fract_z
 _atom_site_occupancy
  Pr  Pr0  1  0.173597  0.326953  0.500000  1
  Pr  Pr1  1  0.673597  0.173047  0.500000  1
  Th  Th2  1  0.328310  0.830661  0.500000  1
  Th  Th3  1  0.828310  0.669339  0.500000  1
  Cd  Cd4  1  0.998049  0.003313  0.000000  1
  Cd  Cd5  1  0.498049  0.496687  0.000000  1
  Pt  Pt6  1  0.370465  0.113574  0.000000  1
  Pt  Pt7  1  0.870465  0.386426  0.000000  1
  Pt  Pt8  1  0.129580  0.641393  0.000000  1
  Pt  Pt9  1  0.629580  0.858607  0.000000  1
