# generated using pymatgen
data_Er3Co8TcAs6
_symmetry_space_group_name_H-M   'P 1'
_cell_length_a   3.80180300
_cell_length_b   10.91075000
_cell_length_c   12.62040100
_cell_angle_alpha   90.00000000
_cell_angle_beta   90.00000000
_cell_angle_gamma   90.00000000
_symmetry_Int_Tables_number   1
_chemical_formula_structural   Er3Co8TcAs6
_chemical_formula_sum   'Er6 Co16 Tc2 As12'
_cell_volume   523.50082237
_cell_formula_units_Z   2
loop_
 _symmetry_equiv_pos_site_id
 _symmetry_equiv_pos_as_xyz
  1  'x, y, z'
loop_
 _atom_site_type_symbol
 _atom_site_label
 _atom_site_symmetry_multiplicity
 _atom_site_fract_x
 _atom_site_fract_y
 _atom_site_fract_z
 _atom_site_occupancy
  Er  Er0  1  0.000000  0.500000  0.526942  1
  Er  Er1  1  0.500000  0.000000  0.473058  1
  Er  Er2  1  0.500000  0.818512  0.206274  1
  Er  Er3  1  0.500000  0.181488  0.206274  1
  Er  Er4  1  0.000000  0.681488  0.793726  1
  Er  Er5  1  0.000000  0.318512  0.793726  1
  Co  Co6  1  0.500000  0.500000  0.700997  1
  Co  Co7  1  0.000000  0.000000  0.299003  1
  Co  Co8  1  0.000000  0.500000  0.987063  1
  Co  Co9  1  0.500000  0.000000  0.012937  1
  Co  Co10  1  0.500000  0.333327  0.991972  1
  Co  Co11  1  0.500000  0.666673  0.991972  1
  Co  Co12  1  0.000000  0.166673  0.008028  1
  Co  Co13  1  0.000000  0.833327  0.008028  1
  Co  Co14  1  0.500000  0.297840  0.430962  1
  Co  Co15  1  0.500000  0.702160  0.430962  1
  Co  Co16  1  0.000000  0.202160  0.569038  1
  Co  Co17  1  0.000000  0.797840  0.569038  1
  Co  Co18  1  0.500000  0.879250  0.706972  1
  Co  Co19  1  0.500000  0.120750  0.706972  1
  Co  Co20  1  0.000000  0.620750  0.293028  1
  Co  Co21  1  0.000000  0.379250  0.293028  1
  Tc  Tc22  1  0.500000  0.500000  0.154313  1
  Tc  Tc23  1  0.000000  0.000000  0.845687  1
  As  As24  1  0.500000  0.500000  0.879425  1
  As  As25  1  0.000000  0.000000  0.120575  1
  As  As26  1  0.500000  0.500000  0.351201  1
  As  As27  1  0.000000  0.000000  0.648799  1
  As  As28  1  0.500000  0.313378  0.616679  1
  As  As29  1  0.500000  0.686622  0.616679  1
  As  As30  1  0.000000  0.186622  0.383321  1
  As  As31  1  0.000000  0.813378  0.383321  1
  As  As32  1  0.500000  0.844618  0.890371  1
  As  As33  1  0.500000  0.155382  0.890371  1
  As  As34  1  0.000000  0.655382  0.109629  1
  As  As35  1  0.000000  0.344618  0.109629  1
