# generated using pymatgen
data_Nd2Er4MnFe3(Co7P6)2
_symmetry_space_group_name_H-M   'P 1'
_cell_length_a   3.71580100
_cell_length_b   10.60450700
_cell_length_c   12.16640500
_cell_angle_alpha   90.00000000
_cell_angle_beta   90.00000000
_cell_angle_gamma   90.00000000
_symmetry_Int_Tables_number   1
_chemical_formula_structural   Nd2Er4MnFe3(Co7P6)2
_chemical_formula_sum   'Nd2 Er4 Mn1 Fe3 Co14 P12'
_cell_volume   479.40791476
_cell_formula_units_Z   1
loop_
 _symmetry_equiv_pos_site_id
 _symmetry_equiv_pos_as_xyz
  1  'x, y, z'
loop_
 _atom_site_type_symbol
 _atom_site_label
 _atom_site_symmetry_multiplicity
 _atom_site_fract_x
 _atom_site_fract_y
 _atom_site_fract_z
 _atom_site_occupancy
  Nd  Nd0  1  0.750000  0.250000  0.475977  1
  Nd  Nd1  1  0.250000  0.750000  0.522435  1
  Er  Er2  1  0.250000  0.930364  0.796877  1
  Er  Er3  1  0.250000  0.569636  0.796877  1
  Er  Er4  1  0.750000  0.069343  0.202741  1
  Er  Er5  1  0.750000  0.430657  0.202741  1
  Mn  Mn6  1  0.250000  0.250000  0.846134  1
  Fe  Fe7  1  0.750000  0.750000  0.153053  1
  Fe  Fe8  1  0.750000  0.250000  0.011522  1
  Fe  Fe9  1  0.250000  0.750000  0.988888  1
  Co  Co10  1  0.250000  0.250000  0.295033  1
  Co  Co11  1  0.750000  0.750000  0.705554  1
  Co  Co12  1  0.250000  0.418159  0.005228  1
  Co  Co13  1  0.250000  0.081841  0.005228  1
  Co  Co14  1  0.750000  0.581627  0.994713  1
  Co  Co15  1  0.750000  0.918373  0.994713  1
  Co  Co16  1  0.250000  0.454216  0.571707  1
  Co  Co17  1  0.250000  0.045784  0.571707  1
  Co  Co18  1  0.750000  0.545384  0.429391  1
  Co  Co19  1  0.750000  0.954616  0.429391  1
  Co  Co20  1  0.250000  0.871348  0.287937  1
  Co  Co21  1  0.250000  0.628652  0.287937  1
  Co  Co22  1  0.750000  0.129103  0.712574  1
  Co  Co23  1  0.750000  0.370897  0.712574  1
  P  P24  1  0.250000  0.250000  0.114953  1
  P  P25  1  0.750000  0.750000  0.885760  1
  P  P26  1  0.250000  0.250000  0.659893  1
  P  P27  1  0.750000  0.750000  0.337201  1
  P  P28  1  0.250000  0.442823  0.381189  1
  P  P29  1  0.250000  0.057177  0.381189  1
  P  P30  1  0.750000  0.557964  0.618661  1
  P  P31  1  0.750000  0.942036  0.618661  1
  P  P32  1  0.250000  0.903233  0.106082  1
  P  P33  1  0.250000  0.596767  0.106082  1
  P  P34  1  0.750000  0.096084  0.894698  1
  P  P35  1  0.750000  0.403916  0.894698  1
