# generated using pymatgen
data_Ho5Co2Rh
_symmetry_space_group_name_H-M   'P 1'
_cell_length_a   7.08795900
_cell_length_b   7.08795973
_cell_length_c   8.72249906
_cell_angle_alpha   113.97281605
_cell_angle_beta   113.97281828
_cell_angle_gamma   90.00000301
_symmetry_Int_Tables_number   1
_chemical_formula_structural   Ho5Co2Rh
_chemical_formula_sum   'Ho10 Co4 Rh2'
_cell_volume   358.64718538
_cell_formula_units_Z   2
loop_
 _symmetry_equiv_pos_site_id
 _symmetry_equiv_pos_as_xyz
  1  'x, y, z'
loop_
 _atom_site_type_symbol
 _atom_site_label
 _atom_site_symmetry_multiplicity
 _atom_site_fract_x
 _atom_site_fract_y
 _atom_site_fract_z
 _atom_site_occupancy
  Ho  Ho0  1  0.000000  0.000000  0.000000  1
  Ho  Ho1  1  0.500000  0.500000  0.000000  1
  Ho  Ho2  1  0.463956  0.318585  0.282541  1
  Ho  Ho3  1  0.963957  0.463956  0.282541  1
  Ho  Ho4  1  0.318585  0.818584  0.282541  1
  Ho  Ho5  1  0.818584  0.963957  0.282541  1
  Ho  Ho6  1  0.181415  0.036044  0.717458  1
  Ho  Ho7  1  0.681414  0.181415  0.717458  1
  Ho  Ho8  1  0.036044  0.536043  0.717458  1
  Ho  Ho9  1  0.536043  0.681414  0.717458  1
  Co  Co10  1  0.612444  0.112444  0.000000  1
  Co  Co11  1  0.112444  0.387557  0.000000  1
  Co  Co12  1  0.887556  0.612444  0.000000  1
  Co  Co13  1  0.387557  0.887556  0.000000  1
  Rh  Rh14  1  0.250000  0.250000  0.500000  1
  Rh  Rh15  1  0.750000  0.750000  0.500000  1
