# generated using pymatgen
data_Y4MoIrRu6
_symmetry_space_group_name_H-M   'P 1'
_cell_length_a   5.46763900
_cell_length_b   5.23369675
_cell_length_c   9.03543719
_cell_angle_alpha   90.16596814
_cell_angle_beta   90.00000000
_cell_angle_gamma   121.48999804
_symmetry_Int_Tables_number   1
_chemical_formula_structural   Y4MoIrRu6
_chemical_formula_sum   'Y4 Mo1 Ir1 Ru6'
_cell_volume   220.47902995
_cell_formula_units_Z   1
loop_
 _symmetry_equiv_pos_site_id
 _symmetry_equiv_pos_as_xyz
  1  'x, y, z'
loop_
 _atom_site_type_symbol
 _atom_site_label
 _atom_site_symmetry_multiplicity
 _atom_site_fract_x
 _atom_site_fract_y
 _atom_site_fract_z
 _atom_site_occupancy
  Y  Y0  1  0.337511  0.675022  0.430536  1
  Y  Y1  1  0.674526  0.349051  0.564623  1
  Y  Y2  1  0.672839  0.345678  0.935676  1
  Y  Y3  1  0.336931  0.673863  0.068909  1
  Mo  Mo4  1  0.158468  0.316936  0.746908  1
  Ir  Ir5  1  0.007802  0.015604  0.000816  1
  Ru  Ru6  1  0.175162  0.820092  0.751302  1
  Ru  Ru7  1  0.326115  0.162840  0.250028  1
  Ru  Ru8  1  0.817035  0.634071  0.250251  1
  Ru  Ru9  1  0.644931  0.820092  0.751302  1
  Ru  Ru10  1  0.836725  0.162840  0.250028  1
  Ru  Ru11  1  0.011957  0.023913  0.499622  1
