# generated using pymatgen
data_Tm8Nb11Si16Os
_symmetry_space_group_name_H-M   'P 1'
_cell_length_a   7.00495075
_cell_length_b   7.01656821
_cell_length_c   12.95301181
_cell_angle_alpha   89.76507251
_cell_angle_beta   89.93304361
_cell_angle_gamma   90.06177620
_symmetry_Int_Tables_number   1
_chemical_formula_structural   Tm8Nb11Si16Os
_chemical_formula_sum   'Tm8 Nb11 Si16 Os1'
_cell_volume   636.64362953
_cell_formula_units_Z   1
loop_
 _symmetry_equiv_pos_site_id
 _symmetry_equiv_pos_as_xyz
  1  'x, y, z'
loop_
 _atom_site_type_symbol
 _atom_site_label
 _atom_site_symmetry_multiplicity
 _atom_site_fract_x
 _atom_site_fract_y
 _atom_site_fract_z
 _atom_site_occupancy
  Tm  Tm0  1  0.999308  0.341135  0.220044  1
  Tm  Tm1  1  0.001144  0.659959  0.716459  1
  Tm  Tm2  1  0.159836  0.500994  0.467922  1
  Tm  Tm3  1  0.499810  0.840869  0.033461  1
  Tm  Tm4  1  0.839944  0.500433  0.967994  1
  Tm  Tm5  1  0.499447  0.158376  0.531068  1
  Tm  Tm6  1  0.340315  0.000074  0.781410  1
  Tm  Tm7  1  0.659763  0.000442  0.281895  1
  Nb  Nb8  1  0.169928  0.170790  0.000883  1
  Nb  Nb9  1  0.826490  0.829859  0.499871  1
  Nb  Nb10  1  0.328230  0.667107  0.249622  1
  Nb  Nb11  1  0.669379  0.330412  0.749704  1
  Nb  Nb12  1  0.846416  0.006605  0.875862  1
  Nb  Nb13  1  0.504359  0.656362  0.623968  1
  Nb  Nb14  1  0.345852  0.493185  0.874203  1
  Nb  Nb15  1  0.489303  0.342100  0.127915  1
  Nb  Nb16  1  0.655362  0.504959  0.374369  1
  Nb  Nb17  1  0.996013  0.153616  0.622684  1
  Nb  Nb18  1  0.004874  0.846024  0.124082  1
  Si  Si19  1  0.292286  0.039808  0.189742  1
  Si  Si20  1  0.705008  0.956696  0.686857  1
  Si  Si21  1  0.452277  0.795157  0.434289  1
  Si  Si22  1  0.203986  0.544349  0.063089  1
  Si  Si23  1  0.543802  0.203607  0.936717  1
  Si  Si24  1  0.794320  0.455253  0.563154  1
  Si  Si25  1  0.043793  0.296073  0.813072  1
  Si  Si26  1  0.961369  0.713710  0.314113  1
  Si  Si27  1  0.367909  0.290542  0.320192  1
  Si  Si28  1  0.632474  0.706515  0.817951  1
  Si  Si29  1  0.201999  0.868536  0.565151  1
  Si  Si30  1  0.133272  0.794951  0.931532  1
  Si  Si31  1  0.795121  0.134209  0.069029  1
  Si  Si32  1  0.873986  0.198619  0.431230  1
  Si  Si33  1  0.295577  0.366821  0.680957  1
  Si  Si34  1  0.704770  0.630244  0.182779  1
  Os  Os35  1  0.162273  0.001613  0.376729  1
