# generated using pymatgen
data_Ca2Ta4HgPbO14
_symmetry_space_group_name_H-M   'P 1'
_cell_length_a   7.56478954
_cell_length_b   7.56478884
_cell_length_c   7.43139928
_cell_angle_alpha   59.62164319
_cell_angle_beta   59.62164479
_cell_angle_gamma   60.31513823
_symmetry_Int_Tables_number   1
_chemical_formula_structural   Ca2Ta4HgPbO14
_chemical_formula_sum   'Ca2 Ta4 Hg1 Pb1 O14'
_cell_volume   299.67696442
_cell_formula_units_Z   1
loop_
 _symmetry_equiv_pos_site_id
 _symmetry_equiv_pos_as_xyz
  1  'x, y, z'
loop_
 _atom_site_type_symbol
 _atom_site_label
 _atom_site_symmetry_multiplicity
 _atom_site_fract_x
 _atom_site_fract_y
 _atom_site_fract_z
 _atom_site_occupancy
  Ca  Ca0  1  0.125000  0.625000  0.625000  1
  Ca  Ca1  1  0.625000  0.125000  0.625000  1
  Ta  Ta2  1  0.125000  0.625000  0.125000  1
  Ta  Ta3  1  0.125000  0.125000  0.625000  1
  Ta  Ta4  1  0.625000  0.125000  0.125000  1
  Ta  Ta5  1  0.125000  0.125000  0.125000  1
  Hg  Hg6  1  0.625000  0.625000  0.125000  1
  Pb  Pb7  1  0.625000  0.625000  0.625000  1
  O  O8  1  0.751852  0.751852  0.775055  1
  O  O9  1  0.189389  0.810370  0.805581  1
  O  O10  1  0.177755  0.813961  0.194821  1
  O  O11  1  0.810370  0.189389  0.805581  1
  O  O12  1  0.193224  0.193224  0.804714  1
  O  O13  1  0.814965  0.814965  0.190446  1
  O  O14  1  0.436039  0.072245  0.055179  1
  O  O15  1  0.813961  0.177755  0.194821  1
  O  O16  1  0.072245  0.436039  0.055179  1
  O  O17  1  0.056776  0.056776  0.445286  1
  O  O18  1  0.435035  0.435035  0.059554  1
  O  O19  1  0.439630  0.060611  0.444419  1
  O  O20  1  0.060611  0.439630  0.444419  1
  O  O21  1  0.498148  0.498148  0.474945  1
