# generated using pymatgen
data_Ce4TmSe5
_symmetry_space_group_name_H-M   'P 1'
_cell_length_a   7.25847163
_cell_length_b   7.25847196
_cell_length_c   10.25983200
_cell_angle_alpha   61.81622378
_cell_angle_beta   61.81622239
_cell_angle_gamma   33.37749715
_symmetry_Int_Tables_number   1
_chemical_formula_structural   Ce4TmSe5
_chemical_formula_sum   'Ce4 Tm1 Se5'
_cell_volume   258.71886559
_cell_formula_units_Z   1
loop_
 _symmetry_equiv_pos_site_id
 _symmetry_equiv_pos_as_xyz
  1  'x, y, z'
loop_
 _atom_site_type_symbol
 _atom_site_label
 _atom_site_symmetry_multiplicity
 _atom_site_fract_x
 _atom_site_fract_y
 _atom_site_fract_z
 _atom_site_occupancy
  Ce  Ce0  1  0.602563  0.602563  0.596140  1
  Ce  Ce1  1  0.197781  0.197781  0.198272  1
  Ce  Ce2  1  0.802219  0.802219  0.801728  1
  Ce  Ce3  1  0.397437  0.397437  0.403860  1
  Tm  Tm4  1  0.000000  0.000000  0.000000  1
  Se  Se5  1  0.194799  0.194799  0.710450  1
  Se  Se6  1  0.805201  0.805201  0.289550  1
  Se  Se7  1  0.407235  0.407235  0.904371  1
  Se  Se8  1  0.000000  0.000000  0.500000  1
  Se  Se9  1  0.592765  0.592765  0.095629  1
