# generated using pymatgen
data_Fe5NiMo6C
_symmetry_space_group_name_H-M   'P 1'
_cell_length_a   7.72039098
_cell_length_b   7.73298294
_cell_length_c   7.73298263
_cell_angle_alpha   60.01020872
_cell_angle_beta   60.05385574
_cell_angle_gamma   60.05384903
_symmetry_Int_Tables_number   1
_chemical_formula_structural   Fe5NiMo6C
_chemical_formula_sum   'Fe10 Ni2 Mo12 C2'
_cell_volume   326.74199840
_cell_formula_units_Z   2
loop_
 _symmetry_equiv_pos_site_id
 _symmetry_equiv_pos_as_xyz
  1  'x, y, z'
loop_
 _atom_site_type_symbol
 _atom_site_label
 _atom_site_symmetry_multiplicity
 _atom_site_fract_x
 _atom_site_fract_y
 _atom_site_fract_z
 _atom_site_occupancy
  Fe  Fe0  1  0.738245  0.420926  0.420926  1
  Fe  Fe1  1  0.419906  0.420926  0.420926  1
  Fe  Fe2  1  0.827865  0.827503  0.516766  1
  Fe  Fe3  1  0.827865  0.516766  0.827503  1
  Fe  Fe4  1  0.514794  0.828893  0.828893  1
  Fe  Fe5  1  0.827419  0.828893  0.828893  1
  Fe  Fe6  1  0.626904  0.620305  0.125886  1
  Fe  Fe7  1  0.626904  0.125886  0.620305  1
  Fe  Fe8  1  0.124058  0.622855  0.622855  1
  Fe  Fe9  1  0.630232  0.622855  0.622855  1
  Ni  Ni10  1  0.416722  0.416852  0.749706  1
  Ni  Ni11  1  0.416722  0.749706  0.416852  1
  Mo  Mo12  1  0.052631  0.053461  0.447736  1
  Mo  Mo13  1  0.446172  0.053461  0.447736  1
  Mo  Mo14  1  0.055183  0.444817  0.444817  1
  Mo  Mo15  1  0.446172  0.447736  0.053461  1
  Mo  Mo16  1  0.052631  0.447736  0.053461  1
  Mo  Mo17  1  0.447943  0.052057  0.052057  1
  Mo  Mo18  1  0.196974  0.198048  0.803535  1
  Mo  Mo19  1  0.801443  0.198048  0.803535  1
  Mo  Mo20  1  0.197952  0.802048  0.802048  1
  Mo  Mo21  1  0.801443  0.803535  0.198048  1
  Mo  Mo22  1  0.196974  0.803535  0.198048  1
  Mo  Mo23  1  0.804005  0.195995  0.195995  1
  C  C24  1  0.251869  0.248131  0.248131  1
  C  C25  1  0.000972  0.999028  0.999028  1
