# generated using pymatgen
data_Ho2Ti(AlPt2)2
_symmetry_space_group_name_H-M   'P 1'
_cell_length_a   8.13316510
_cell_length_b   8.13316615
_cell_length_c   7.70766400
_cell_angle_alpha   90.00000000
_cell_angle_beta   90.00000000
_cell_angle_gamma   140.03728618
_symmetry_Int_Tables_number   1
_chemical_formula_structural   Ho2Ti(AlPt2)2
_chemical_formula_sum   'Ho4 Ti2 Al4 Pt8'
_cell_volume   327.47071094
_cell_formula_units_Z   2
loop_
 _symmetry_equiv_pos_site_id
 _symmetry_equiv_pos_as_xyz
  1  'x, y, z'
loop_
 _atom_site_type_symbol
 _atom_site_label
 _atom_site_symmetry_multiplicity
 _atom_site_fract_x
 _atom_site_fract_y
 _atom_site_fract_z
 _atom_site_occupancy
  Ho  Ho0  1  0.107143  0.892857  0.407555  1
  Ho  Ho1  1  0.892857  0.107143  0.592445  1
  Ho  Ho2  1  0.392857  0.607143  0.907555  1
  Ho  Ho3  1  0.607143  0.392857  0.092445  1
  Ti  Ti4  1  0.000000  0.000000  0.000000  1
  Ti  Ti5  1  0.500000  0.500000  0.500000  1
  Al  Al6  1  0.022063  0.477937  0.250000  1
  Al  Al7  1  0.477937  0.022063  0.750000  1
  Al  Al8  1  0.977937  0.522063  0.750000  1
  Al  Al9  1  0.522063  0.977937  0.250000  1
  Pt  Pt10  1  0.189200  0.310800  0.250000  1
  Pt  Pt11  1  0.310800  0.189200  0.750000  1
  Pt  Pt12  1  0.810800  0.689200  0.750000  1
  Pt  Pt13  1  0.689200  0.810800  0.250000  1
  Pt  Pt14  1  0.181620  0.818380  0.027205  1
  Pt  Pt15  1  0.818380  0.181620  0.972795  1
  Pt  Pt16  1  0.318380  0.681620  0.527205  1
  Pt  Pt17  1  0.681620  0.318380  0.472795  1
