# generated using pymatgen
data_Y6IrPd5Au2
_symmetry_space_group_name_H-M   'P 1'
_cell_length_a   7.91860144
_cell_length_b   7.99272609
_cell_length_c   7.94474611
_cell_angle_alpha   114.40483467
_cell_angle_beta   113.99938838
_cell_angle_gamma   114.25048379
_symmetry_Int_Tables_number   1
_chemical_formula_structural   Y6IrPd5Au2
_chemical_formula_sum   'Y6 Ir1 Pd5 Au2'
_cell_volume   300.48672363
_cell_formula_units_Z   1
loop_
 _symmetry_equiv_pos_site_id
 _symmetry_equiv_pos_as_xyz
  1  'x, y, z'
loop_
 _atom_site_type_symbol
 _atom_site_label
 _atom_site_symmetry_multiplicity
 _atom_site_fract_x
 _atom_site_fract_y
 _atom_site_fract_z
 _atom_site_occupancy
  Y  Y0  1  0.401341  0.024379  0.272101  1
  Y  Y1  1  0.016946  0.269385  0.394512  1
  Y  Y2  1  0.275385  0.395325  0.020908  1
  Y  Y3  1  0.608748  0.974558  0.731179  1
  Y  Y4  1  0.971186  0.723991  0.607759  1
  Y  Y5  1  0.731596  0.615989  0.974481  1
  Ir  Ir6  1  0.007597  0.007608  0.005595  1
  Pd  Pd7  1  0.497142  0.498027  0.496671  1
  Pd  Pd8  1  0.554600  0.227068  0.065467  1
  Pd  Pd9  1  0.769715  0.934522  0.445162  1
  Pd  Pd10  1  0.937251  0.443486  0.770559  1
  Pd  Pd11  1  0.441215  0.767936  0.931967  1
  Au  Au12  1  0.229867  0.067013  0.561040  1
  Au  Au13  1  0.057411  0.550715  0.222600  1
