# generated using pymatgen
data_Pa2Al9OsRh2
_symmetry_space_group_name_H-M   'P 1'
_cell_length_a   7.60597413
_cell_length_b   7.60597501
_cell_length_c   9.32795800
_cell_angle_alpha   90.00000000
_cell_angle_beta   90.00000000
_cell_angle_gamma   118.64921224
_symmetry_Int_Tables_number   1
_chemical_formula_structural   Pa2Al9OsRh2
_chemical_formula_sum   'Pa4 Al18 Os2 Rh4'
_cell_volume   473.56416171
_cell_formula_units_Z   2
loop_
 _symmetry_equiv_pos_site_id
 _symmetry_equiv_pos_as_xyz
  1  'x, y, z'
loop_
 _atom_site_type_symbol
 _atom_site_label
 _atom_site_symmetry_multiplicity
 _atom_site_fract_x
 _atom_site_fract_y
 _atom_site_fract_z
 _atom_site_occupancy
  Pa  Pa0  1  0.996162  0.688911  0.250000  1
  Pa  Pa1  1  0.003838  0.311089  0.750000  1
  Pa  Pa2  1  0.688911  0.996162  0.250000  1
  Pa  Pa3  1  0.311089  0.003838  0.750000  1
  Al  Al4  1  0.142847  0.142847  0.250000  1
  Al  Al5  1  0.857153  0.857153  0.750000  1
  Al  Al6  1  0.004783  0.342940  0.078789  1
  Al  Al7  1  0.995217  0.657060  0.921211  1
  Al  Al8  1  0.995217  0.657060  0.578789  1
  Al  Al9  1  0.342940  0.004783  0.421211  1
  Al  Al10  1  0.004783  0.342940  0.421211  1
  Al  Al11  1  0.657060  0.995217  0.578789  1
  Al  Al12  1  0.657060  0.995217  0.921211  1
  Al  Al13  1  0.342940  0.004783  0.078789  1
  Al  Al14  1  0.335377  0.335377  0.546865  1
  Al  Al15  1  0.664623  0.664623  0.453135  1
  Al  Al16  1  0.664623  0.664623  0.046865  1
  Al  Al17  1  0.335377  0.335377  0.953135  1
  Al  Al18  1  0.346877  0.558475  0.250000  1
  Al  Al19  1  0.653123  0.441525  0.750000  1
  Al  Al20  1  0.558475  0.346877  0.250000  1
  Al  Al21  1  0.441525  0.653123  0.750000  1
  Os  Os22  1  0.000000  0.000000  0.000000  1
  Os  Os23  1  0.000000  0.000000  0.500000  1
  Rh  Rh24  1  0.672982  0.327018  0.000000  1
  Rh  Rh25  1  0.327018  0.672982  0.000000  1
  Rh  Rh26  1  0.327018  0.672982  0.500000  1
  Rh  Rh27  1  0.672982  0.327018  0.500000  1
