# generated using pymatgen
data_MnV8NiTe8
_symmetry_space_group_name_H-M   'P 1'
_cell_length_a   4.58832200
_cell_length_b   10.51464700
_cell_length_c   18.30520700
_cell_angle_alpha   90.00000000
_cell_angle_beta   90.00000000
_cell_angle_gamma   90.00000000
_symmetry_Int_Tables_number   1
_chemical_formula_structural   MnV8NiTe8
_chemical_formula_sum   'Mn2 V16 Ni2 Te16'
_cell_volume   883.12713615
_cell_formula_units_Z   2
loop_
 _symmetry_equiv_pos_site_id
 _symmetry_equiv_pos_as_xyz
  1  'x, y, z'
loop_
 _atom_site_type_symbol
 _atom_site_label
 _atom_site_symmetry_multiplicity
 _atom_site_fract_x
 _atom_site_fract_y
 _atom_site_fract_z
 _atom_site_occupancy
  Mn  Mn0  1  0.249570  0.500000  0.500000  1
  Mn  Mn1  1  0.750430  0.000000  0.000000  1
  V  V2  1  0.498685  0.562743  0.386442  1
  V  V3  1  0.498685  0.437257  0.613558  1
  V  V4  1  0.501315  0.062743  0.113558  1
  V  V5  1  0.501315  0.937257  0.886442  1
  V  V6  1  0.499752  0.699491  0.535510  1
  V  V7  1  0.499752  0.300509  0.464490  1
  V  V8  1  0.500248  0.199491  0.964490  1
  V  V9  1  0.500248  0.800509  0.035510  1
  V  V10  1  0.999775  0.685323  0.444401  1
  V  V11  1  0.999775  0.314677  0.555599  1
  V  V12  1  0.000225  0.185323  0.055599  1
  V  V13  1  0.000225  0.814677  0.944401  1
  V  V14  1  0.001853  0.403427  0.394547  1
  V  V15  1  0.001853  0.596573  0.605453  1
  V  V16  1  0.998147  0.903427  0.105453  1
  V  V17  1  0.998147  0.096573  0.894547  1
  Ni  Ni18  1  0.750106  0.500000  0.500000  1
  Ni  Ni19  1  0.249894  0.000000  0.000000  1
  Te  Te20  1  0.996215  0.843112  0.562006  1
  Te  Te21  1  0.996215  0.156888  0.437994  1
  Te  Te22  1  0.003785  0.343112  0.937994  1
  Te  Te23  1  0.003785  0.656888  0.062006  1
  Te  Te24  1  0.505080  0.334550  0.317917  1
  Te  Te25  1  0.505080  0.665450  0.682083  1
  Te  Te26  1  0.494920  0.834550  0.182083  1
  Te  Te27  1  0.494920  0.165450  0.817917  1
  Te  Te28  1  0.503586  0.819199  0.404116  1
  Te  Te29  1  0.503586  0.180801  0.595884  1
  Te  Te30  1  0.496414  0.319199  0.095884  1
  Te  Te31  1  0.496414  0.680801  0.904116  1
  Te  Te32  1  0.995314  0.606402  0.303504  1
  Te  Te33  1  0.995314  0.393598  0.696496  1
  Te  Te34  1  0.004686  0.106402  0.196496  1
  Te  Te35  1  0.004686  0.893598  0.803504  1
