# generated using pymatgen
data_Er2Al(ZnPt2)2
_symmetry_space_group_name_H-M   'P 1'
_cell_length_a   7.99897918
_cell_length_b   7.99897939
_cell_length_c   7.68240500
_cell_angle_alpha   90.00000000
_cell_angle_beta   90.00000000
_cell_angle_gamma   139.16760102
_symmetry_Int_Tables_number   1
_chemical_formula_structural   Er2Al(ZnPt2)2
_chemical_formula_sum   'Er4 Al2 Zn4 Pt8'
_cell_volume   321.39825315
_cell_formula_units_Z   2
loop_
 _symmetry_equiv_pos_site_id
 _symmetry_equiv_pos_as_xyz
  1  'x, y, z'
loop_
 _atom_site_type_symbol
 _atom_site_label
 _atom_site_symmetry_multiplicity
 _atom_site_fract_x
 _atom_site_fract_y
 _atom_site_fract_z
 _atom_site_occupancy
  Er  Er0  1  0.110678  0.889322  0.407941  1
  Er  Er1  1  0.889322  0.110678  0.592059  1
  Er  Er2  1  0.389322  0.610678  0.907941  1
  Er  Er3  1  0.610678  0.389322  0.092059  1
  Al  Al4  1  0.000000  0.000000  0.000000  1
  Al  Al5  1  0.500000  0.500000  0.500000  1
  Zn  Zn6  1  0.023037  0.476963  0.250000  1
  Zn  Zn7  1  0.476963  0.023037  0.750000  1
  Zn  Zn8  1  0.976963  0.523037  0.750000  1
  Zn  Zn9  1  0.523037  0.976963  0.250000  1
  Pt  Pt10  1  0.196425  0.303575  0.250000  1
  Pt  Pt11  1  0.303575  0.196425  0.750000  1
  Pt  Pt12  1  0.803575  0.696425  0.750000  1
  Pt  Pt13  1  0.696425  0.803575  0.250000  1
  Pt  Pt14  1  0.177107  0.822893  0.028063  1
  Pt  Pt15  1  0.822893  0.177107  0.971937  1
  Pt  Pt16  1  0.322893  0.677107  0.528063  1
  Pt  Pt17  1  0.677107  0.322893  0.471937  1
