# generated using pymatgen
data_Zr7Pa(P3Ir4)4
_symmetry_space_group_name_H-M   'P 1'
_cell_length_a   12.80318774
_cell_length_b   12.80318834
_cell_length_c   3.96821400
_cell_angle_alpha   90.00000000
_cell_angle_beta   90.00000000
_cell_angle_gamma   120.21912116
_symmetry_Int_Tables_number   1
_chemical_formula_structural   Zr7Pa(P3Ir4)4
_chemical_formula_sum   'Zr7 Pa1 P12 Ir16'
_cell_volume   562.08086063
_cell_formula_units_Z   1
loop_
 _symmetry_equiv_pos_site_id
 _symmetry_equiv_pos_as_xyz
  1  'x, y, z'
loop_
 _atom_site_type_symbol
 _atom_site_label
 _atom_site_symmetry_multiplicity
 _atom_site_fract_x
 _atom_site_fract_y
 _atom_site_fract_z
 _atom_site_occupancy
  Zr  Zr0  1  0.448878  0.448878  0.000000  1
  Zr  Zr1  1  0.548304  0.000304  0.000000  1
  Zr  Zr2  1  0.000304  0.548304  0.000000  1
  Zr  Zr3  1  0.666285  0.334507  0.000000  1
  Zr  Zr4  1  0.334507  0.666285  0.000000  1
  Zr  Zr5  1  0.181997  0.999604  0.500000  1
  Zr  Zr6  1  0.999604  0.181997  0.500000  1
  Pa  Pa7  1  0.823265  0.823265  0.500000  1
  P  P8  1  0.643691  0.643691  0.000000  1
  P  P9  1  0.352253  0.000739  0.000000  1
  P  P10  1  0.000739  0.352253  0.000000  1
  P  P11  1  0.482685  0.315060  0.500000  1
  P  P12  1  0.683285  0.169201  0.500000  1
  P  P13  1  0.830978  0.516036  0.500000  1
  P  P14  1  0.516036  0.830978  0.500000  1
  P  P15  1  0.169201  0.683285  0.500000  1
  P  P16  1  0.827128  0.005793  0.000000  1
  P  P17  1  0.005793  0.827128  0.000000  1
  P  P18  1  0.315060  0.482685  0.500000  1
  P  P19  1  0.173240  0.173240  0.000000  1
  Ir  Ir20  1  0.187398  0.365131  0.000000  1
  Ir  Ir21  1  0.179717  0.812327  0.000000  1
  Ir  Ir22  1  0.822885  0.632429  0.000000  1
  Ir  Ir23  1  0.812327  0.179717  0.000000  1
  Ir  Ir24  1  0.365131  0.187398  0.000000  1
  Ir  Ir25  1  0.140568  0.493208  0.500000  1
  Ir  Ir26  1  0.353993  0.858480  0.500000  1
  Ir  Ir27  1  0.507142  0.646027  0.500000  1
  Ir  Ir28  1  0.646027  0.507142  0.500000  1
  Ir  Ir29  1  0.858480  0.353993  0.500000  1
  Ir  Ir30  1  0.493208  0.140568  0.500000  1
  Ir  Ir31  1  0.998536  0.998536  0.000000  1
  Ir  Ir32  1  0.719467  0.001222  0.500000  1
  Ir  Ir33  1  0.001222  0.719467  0.500000  1
  Ir  Ir34  1  0.632429  0.822885  0.000000  1
  Ir  Ir35  1  0.278236  0.278236  0.500000  1
