# generated using pymatgen
data_DyHo3Ga4(NiIr)2
_symmetry_space_group_name_H-M   'P 1'
_cell_length_a   4.31750700
_cell_length_b   6.78707694
_cell_length_c   7.56791237
_cell_angle_alpha   90.12328338
_cell_angle_beta   90.00000000
_cell_angle_gamma   90.00000000
_symmetry_Int_Tables_number   1
_chemical_formula_structural   DyHo3Ga4(NiIr)2
_chemical_formula_sum   'Dy1 Ho3 Ga4 Ni2 Ir2'
_cell_volume   221.76393132
_cell_formula_units_Z   1
loop_
 _symmetry_equiv_pos_site_id
 _symmetry_equiv_pos_as_xyz
  1  'x, y, z'
loop_
 _atom_site_type_symbol
 _atom_site_label
 _atom_site_symmetry_multiplicity
 _atom_site_fract_x
 _atom_site_fract_y
 _atom_site_fract_z
 _atom_site_occupancy
  Dy  Dy0  1  0.750000  0.982799  0.191899  1
  Ho  Ho1  1  0.250000  0.521834  0.689738  1
  Ho  Ho2  1  0.250000  0.022520  0.809759  1
  Ho  Ho3  1  0.750000  0.482583  0.308273  1
  Ga  Ga4  1  0.750000  0.337790  0.918405  1
  Ga  Ga5  1  0.250000  0.167352  0.436879  1
  Ga  Ga6  1  0.750000  0.837098  0.581689  1
  Ga  Ga7  1  0.250000  0.666943  0.063140  1
  Ni  Ni8  1  0.750000  0.716372  0.894186  1
  Ni  Ni9  1  0.750000  0.216536  0.605543  1
  Ir  Ir10  1  0.250000  0.274858  0.105210  1
  Ir  Ir11  1  0.250000  0.773312  0.395279  1
