# generated using pymatgen
data_Ce3Ho5B24(MoOs)2
_symmetry_space_group_name_H-M   'P 1'
_cell_length_a   3.69869100
_cell_length_b   9.19944292
_cell_length_c   11.59491876
_cell_angle_alpha   89.90389300
_cell_angle_beta   90.00000000
_cell_angle_gamma   90.00000000
_symmetry_Int_Tables_number   1
_chemical_formula_structural   Ce3Ho5B24(MoOs)2
_chemical_formula_sum   'Ce3 Ho5 B24 Mo2 Os2'
_cell_volume   394.52695342
_cell_formula_units_Z   1
loop_
 _symmetry_equiv_pos_site_id
 _symmetry_equiv_pos_as_xyz
  1  'x, y, z'
loop_
 _atom_site_type_symbol
 _atom_site_label
 _atom_site_symmetry_multiplicity
 _atom_site_fract_x
 _atom_site_fract_y
 _atom_site_fract_z
 _atom_site_occupancy
  Ce  Ce0  1  0.000000  0.323426  0.415203  1
  Ce  Ce1  1  0.000000  0.676237  0.585356  1
  Ce  Ce2  1  0.000000  0.821791  0.086456  1
  Ho  Ho3  1  0.000000  0.179460  0.913141  1
  Ho  Ho4  1  0.000000  0.944247  0.373126  1
  Ho  Ho5  1  0.000000  0.056076  0.627675  1
  Ho  Ho6  1  0.000000  0.444127  0.126973  1
  Ho  Ho7  1  0.000000  0.554573  0.872707  1
  B  B8  1  0.500000  0.552995  0.432500  1
  B  B9  1  0.500000  0.446584  0.567576  1
  B  B10  1  0.500000  0.055292  0.067133  1
  B  B11  1  0.500000  0.946118  0.932038  1
  B  B12  1  0.500000  0.749623  0.419687  1
  B  B13  1  0.500000  0.250021  0.580783  1
  B  B14  1  0.500000  0.248916  0.079985  1
  B  B15  1  0.500000  0.751562  0.918537  1
  B  B16  1  0.500000  0.793931  0.264654  1
  B  B17  1  0.500000  0.205254  0.736329  1
  B  B18  1  0.500000  0.290463  0.232446  1
  B  B19  1  0.500000  0.709545  0.766930  1
  B  B20  1  0.500000  0.632261  0.183648  1
  B  B21  1  0.500000  0.367149  0.817007  1
  B  B22  1  0.500000  0.131208  0.313306  1
  B  B23  1  0.500000  0.869417  0.686973  1
  B  B24  1  0.500000  0.984567  0.211900  1
  B  B25  1  0.500000  0.017083  0.788025  1
  B  B26  1  0.500000  0.481464  0.285754  1
  B  B27  1  0.500000  0.517975  0.714588  1
  B  B28  1  0.500000  0.605720  0.028371  1
  B  B29  1  0.500000  0.392270  0.971039  1
  B  B30  1  0.500000  0.105701  0.470165  1
  B  B31  1  0.500000  0.894580  0.530295  1
  Mo  Mo32  1  0.000000  0.639262  0.319763  1
  Mo  Mo33  1  0.000000  0.361218  0.679660  1
  Os  Os34  1  0.000000  0.138182  0.178405  1
  Os  Os35  1  0.000000  0.861703  0.821865  1
