# generated using pymatgen
data_K3Gd(AsO4)2
_symmetry_space_group_name_H-M   'P 1'
_cell_length_a   7.58205621
_cell_length_b   5.83921900
_cell_length_c   9.80686900
_cell_angle_alpha   90.00000000
_cell_angle_beta   91.87122773
_cell_angle_gamma   90.00000000
_symmetry_Int_Tables_number   1
_chemical_formula_structural   K3Gd(AsO4)2
_chemical_formula_sum   'K6 Gd2 As4 O16'
_cell_volume   433.95079045
_cell_formula_units_Z   2
loop_
 _symmetry_equiv_pos_site_id
 _symmetry_equiv_pos_as_xyz
  1  'x, y, z'
loop_
 _atom_site_type_symbol
 _atom_site_label
 _atom_site_symmetry_multiplicity
 _atom_site_fract_x
 _atom_site_fract_y
 _atom_site_fract_z
 _atom_site_occupancy
  K  K0  1  0.695222  0.501942  0.083664  1
  K  K1  1  0.008420  0.993846  0.191649  1
  K  K2  1  0.135569  0.485413  0.408443  1
  K  K3  1  0.864431  0.985412  0.591557  1
  K  K4  1  0.991580  0.493847  0.808351  1
  K  K5  1  0.304778  0.001941  0.916335  1
  Gd  Gd6  1  0.511655  0.004475  0.290247  1
  Gd  Gd7  1  0.488345  0.504475  0.709753  1
  As  As8  1  0.264218  0.503721  0.086671  1
  As  As9  1  0.688755  0.481624  0.428788  1
  As  As10  1  0.311245  0.981623  0.571212  1
  As  As11  1  0.735782  0.003722  0.913329  1
  O  O12  1  0.679007  0.007902  0.081570  1
  O  O13  1  0.042445  0.514796  0.104855  1
  O  O14  1  0.347296  0.257590  0.161125  1
  O  O15  1  0.359616  0.735804  0.168545  1
  O  O16  1  0.732244  0.720488  0.332549  1
  O  O17  1  0.762376  0.244977  0.341334  1
  O  O18  1  0.211387  0.001329  0.411635  1
  O  O19  1  0.471234  0.427485  0.462277  1
  O  O20  1  0.528766  0.927484  0.537723  1
  O  O21  1  0.788613  0.501328  0.588366  1
  O  O22  1  0.237624  0.744977  0.658667  1
  O  O23  1  0.267756  0.220489  0.667450  1
  O  O24  1  0.640384  0.235805  0.831454  1
  O  O25  1  0.652704  0.757591  0.838875  1
  O  O26  1  0.957555  0.014795  0.895144  1
  O  O27  1  0.320993  0.507903  0.918431  1
