# generated using pymatgen
data_Rb3Ba3AlSb4
_symmetry_space_group_name_H-M   'P 1'
_cell_length_a   11.31121400
_cell_length_b   11.31121478
_cell_length_c   8.46458600
_cell_angle_alpha   90.00000000
_cell_angle_beta   90.00000000
_cell_angle_gamma   120.00000356
_symmetry_Int_Tables_number   1
_chemical_formula_structural   Rb3Ba3AlSb4
_chemical_formula_sum   'Rb6 Ba6 Al2 Sb8'
_cell_volume   937.89626427
_cell_formula_units_Z   2
loop_
 _symmetry_equiv_pos_site_id
 _symmetry_equiv_pos_as_xyz
  1  'x, y, z'
loop_
 _atom_site_type_symbol
 _atom_site_label
 _atom_site_symmetry_multiplicity
 _atom_site_fract_x
 _atom_site_fract_y
 _atom_site_fract_z
 _atom_site_occupancy
  Rb  Rb0  1  0.136552  0.863448  0.178595  1
  Rb  Rb1  1  0.273105  0.136552  0.678595  1
  Rb  Rb2  1  0.863448  0.726895  0.678595  1
  Rb  Rb3  1  0.136552  0.273105  0.178595  1
  Rb  Rb4  1  0.726895  0.863448  0.178595  1
  Rb  Rb5  1  0.863448  0.136552  0.678595  1
  Ba  Ba6  1  0.477096  0.954191  0.497132  1
  Ba  Ba7  1  0.522904  0.045809  0.997132  1
  Ba  Ba8  1  0.954191  0.477096  0.997132  1
  Ba  Ba9  1  0.477096  0.522904  0.497132  1
  Ba  Ba10  1  0.522904  0.477096  0.997132  1
  Ba  Ba11  1  0.045809  0.522904  0.497132  1
  Al  Al12  1  0.333333  0.666667  0.879831  1
  Al  Al13  1  0.666667  0.333333  0.379831  1
  Sb  Sb14  1  0.201031  0.798969  0.773634  1
  Sb  Sb15  1  0.402061  0.201031  0.273634  1
  Sb  Sb16  1  0.798969  0.597939  0.273634  1
  Sb  Sb17  1  0.201031  0.402061  0.773634  1
  Sb  Sb18  1  0.597939  0.798969  0.773634  1
  Sb  Sb19  1  0.798969  0.201031  0.273634  1
  Sb  Sb20  1  0.333333  0.666667  0.212770  1
  Sb  Sb21  1  0.666667  0.333333  0.712770  1
