# generated using pymatgen
data_La8Zn6Hg2Pt5Rh3
_symmetry_space_group_name_H-M   'P 1'
_cell_length_a   4.09094600
_cell_length_b   7.62135730
_cell_length_c   17.10092400
_cell_angle_alpha   91.06161232
_cell_angle_beta   90.00000000
_cell_angle_gamma   90.00000000
_symmetry_Int_Tables_number   1
_chemical_formula_structural   La8Zn6Hg2Pt5Rh3
_chemical_formula_sum   'La8 Zn6 Hg2 Pt5 Rh3'
_cell_volume   533.09068418
_cell_formula_units_Z   1
loop_
 _symmetry_equiv_pos_site_id
 _symmetry_equiv_pos_as_xyz
  1  'x, y, z'
loop_
 _atom_site_type_symbol
 _atom_site_label
 _atom_site_symmetry_multiplicity
 _atom_site_fract_x
 _atom_site_fract_y
 _atom_site_fract_z
 _atom_site_occupancy
  La  La0  1  0.750000  0.330885  0.442853  1
  La  La1  1  0.250000  0.052337  0.712147  1
  La  La2  1  0.250000  0.556067  0.779819  1
  La  La3  1  0.250000  0.675956  0.558210  1
  La  La4  1  0.750000  0.825011  0.060671  1
  La  La5  1  0.250000  0.176860  0.943110  1
  La  La6  1  0.750000  0.445415  0.215216  1
  La  La7  1  0.750000  0.940576  0.291303  1
  Zn  Zn8  1  0.250000  0.996426  0.441159  1
  Zn  Zn9  1  0.750000  0.998645  0.558493  1
  Zn  Zn10  1  0.250000  0.497935  0.061711  1
  Zn  Zn11  1  0.750000  0.384399  0.648447  1
  Zn  Zn12  1  0.750000  0.498924  0.939198  1
  Zn  Zn13  1  0.250000  0.620891  0.353034  1
  Hg  Hg14  1  0.250000  0.117874  0.151243  1
  Hg  Hg15  1  0.750000  0.882165  0.845338  1
  Pt  Pt16  1  0.750000  0.269818  0.811176  1
  Pt  Pt17  1  0.250000  0.248425  0.321597  1
  Pt  Pt18  1  0.250000  0.727239  0.941734  1
  Pt  Pt19  1  0.250000  0.241051  0.565745  1
  Pt  Pt20  1  0.250000  0.731909  0.188375  1
  Rh  Rh21  1  0.750000  0.761896  0.434324  1
  Rh  Rh22  1  0.750000  0.273181  0.058012  1
  Rh  Rh23  1  0.750000  0.746114  0.677088  1
