# generated using pymatgen
data_Er6Al24IrOs6Au
_symmetry_space_group_name_H-M   'P 1'
_cell_length_a   8.85048591
_cell_length_b   8.85048502
_cell_length_c   9.54560919
_cell_angle_alpha   90.01092283
_cell_angle_beta   89.98907605
_cell_angle_gamma   119.76522118
_symmetry_Int_Tables_number   1
_chemical_formula_structural   Er6Al24IrOs6Au
_chemical_formula_sum   'Er6 Al24 Ir1 Os6 Au1'
_cell_volume   649.06927573
_cell_formula_units_Z   1
loop_
 _symmetry_equiv_pos_site_id
 _symmetry_equiv_pos_as_xyz
  1  'x, y, z'
loop_
 _atom_site_type_symbol
 _atom_site_label
 _atom_site_symmetry_multiplicity
 _atom_site_fract_x
 _atom_site_fract_y
 _atom_site_fract_z
 _atom_site_occupancy
  Er  Er0  1  0.186871  0.387931  0.250770  1
  Er  Er1  1  0.813129  0.612069  0.749230  1
  Er  Er2  1  0.612069  0.813129  0.250770  1
  Er  Er3  1  0.387931  0.186871  0.749230  1
  Er  Er4  1  0.195083  0.804917  0.252752  1
  Er  Er5  1  0.804917  0.195083  0.747248  1
  Al  Al6  1  0.329075  0.670925  0.023673  1
  Al  Al7  1  0.670925  0.329075  0.976327  1
  Al  Al8  1  0.666943  0.333057  0.521533  1
  Al  Al9  1  0.333057  0.666943  0.478467  1
  Al  Al10  1  0.161768  0.325352  0.575525  1
  Al  Al11  1  0.838232  0.674648  0.424475  1
  Al  Al12  1  0.674648  0.838232  0.575525  1
  Al  Al13  1  0.847188  0.677549  0.079583  1
  Al  Al14  1  0.325352  0.161768  0.424475  1
  Al  Al15  1  0.152812  0.322451  0.920417  1
  Al  Al16  1  0.163983  0.836017  0.574179  1
  Al  Al17  1  0.322451  0.152812  0.079583  1
  Al  Al18  1  0.836017  0.163983  0.425821  1
  Al  Al19  1  0.677549  0.847188  0.920417  1
  Al  Al20  1  0.836145  0.163855  0.075360  1
  Al  Al21  1  0.163855  0.836145  0.924640  1
  Al  Al22  1  0.560504  0.123674  0.250155  1
  Al  Al23  1  0.439496  0.876326  0.749845  1
  Al  Al24  1  0.876326  0.439496  0.250155  1
  Al  Al25  1  0.123674  0.560504  0.749845  1
  Al  Al26  1  0.562641  0.437359  0.255359  1
  Al  Al27  1  0.437359  0.562641  0.744641  1
  Al  Al28  1  0.998870  0.001130  0.250377  1
  Al  Al29  1  0.001130  0.998870  0.749623  1
  Ir  Ir30  1  0.500000  0.500000  0.500000  1
  Os  Os31  1  0.500000  0.000000  0.000000  1
  Os  Os32  1  0.000000  0.500000  0.000000  1
  Os  Os33  1  0.500000  0.000000  0.500000  1
  Os  Os34  1  0.000000  0.500000  0.500000  1
  Os  Os35  1  0.000000  0.000000  0.000000  1
  Os  Os36  1  0.000000  0.000000  0.500000  1
  Au  Au37  1  0.500000  0.500000  0.000000  1
