# generated using pymatgen
data_La3Dy(IO4)4
_symmetry_space_group_name_H-M   'P 1'
_cell_length_a   5.74937699
_cell_length_b   5.75885461
_cell_length_c   11.16757100
_cell_angle_alpha   90.03386695
_cell_angle_beta   89.72135179
_cell_angle_gamma   90.08010531
_symmetry_Int_Tables_number   1
_chemical_formula_structural   La3Dy(IO4)4
_chemical_formula_sum   'La3 Dy1 I4 O16'
_cell_volume   369.75153770
_cell_formula_units_Z   1
loop_
 _symmetry_equiv_pos_site_id
 _symmetry_equiv_pos_as_xyz
  1  'x, y, z'
loop_
 _atom_site_type_symbol
 _atom_site_label
 _atom_site_symmetry_multiplicity
 _atom_site_fract_x
 _atom_site_fract_y
 _atom_site_fract_z
 _atom_site_occupancy
  La  La0  1  0.490642  0.315600  0.893595  1
  La  La1  1  0.498353  0.815020  0.112989  1
  La  La2  1  0.002713  0.816706  0.893762  1
  Dy  Dy3  1  0.982923  0.316798  0.099987  1
  I  I4  1  0.004306  0.326714  0.633622  1
  I  I5  1  0.999663  0.823981  0.361482  1
  I  I6  1  0.496840  0.827134  0.634007  1
  I  I7  1  0.512174  0.324879  0.363896  1
  O  O8  1  0.236287  0.072039  0.012164  1
  O  O9  1  0.755256  0.563560  0.996228  1
  O  O10  1  0.245407  0.562097  0.012067  1
  O  O11  1  0.744664  0.072292  0.996900  1
  O  O12  1  0.128788  0.430793  0.775799  1
  O  O13  1  0.875233  0.940945  0.222137  1
  O  O14  1  0.370085  0.929807  0.776823  1
  O  O15  1  0.646124  0.423083  0.221982  1
  O  O16  1  0.846580  0.085647  0.711331  1
  O  O17  1  0.149291  0.580184  0.281243  1
  O  O18  1  0.653265  0.586380  0.711423  1
  O  O19  1  0.354809  0.080977  0.290033  1
  O  O20  1  0.246331  0.164601  0.563431  1
  O  O21  1  0.755619  0.665626  0.433273  1
  O  O22  1  0.256950  0.664395  0.563149  1
  O  O23  1  0.747701  0.164388  0.438679  1
