# generated using pymatgen
data_K4BaTeO6
_symmetry_space_group_name_H-M   'P 1'
_cell_length_a   6.47460971
_cell_length_b   6.47460978
_cell_length_c   6.50960729
_cell_angle_alpha   100.09750090
_cell_angle_beta   100.09750239
_cell_angle_gamma   119.60998801
_symmetry_Int_Tables_number   1
_chemical_formula_structural   K4BaTeO6
_chemical_formula_sum   'K4 Ba1 Te1 O6'
_cell_volume   222.36805513
_cell_formula_units_Z   1
loop_
 _symmetry_equiv_pos_site_id
 _symmetry_equiv_pos_as_xyz
  1  'x, y, z'
loop_
 _atom_site_type_symbol
 _atom_site_label
 _atom_site_symmetry_multiplicity
 _atom_site_fract_x
 _atom_site_fract_y
 _atom_site_fract_z
 _atom_site_occupancy
  K  K0  1  0.499443  0.500556  0.000000  1
  K  K1  1  0.011516  0.988484  0.500000  1
  K  K2  1  0.658255  0.341745  0.500000  1
  K  K3  1  0.330136  0.669864  0.500000  1
  Ba  Ba4  1  0.833232  0.166768  0.000000  1
  Te  Te5  1  0.167073  0.832926  0.000000  1
  O  O6  1  0.223830  0.147275  0.191308  1
  O  O7  1  0.487475  0.904146  0.193461  1
  O  O8  1  0.982818  0.642383  0.185184  1
  O  O9  1  0.357617  0.017182  0.814815  1
  O  O10  1  0.095854  0.512525  0.806539  1
  O  O11  1  0.852724  0.776170  0.808691  1
