# generated using pymatgen
data_Eu7Te8
_symmetry_space_group_name_H-M   'P 1'
_cell_length_a   9.19464634
_cell_length_b   9.20564974
_cell_length_c   9.19331232
_cell_angle_alpha   120.04071359
_cell_angle_beta   90.03207516
_cell_angle_gamma   119.96706782
_symmetry_Int_Tables_number   1
_chemical_formula_structural   Eu7Te8
_chemical_formula_sum   'Eu7 Te8'
_cell_volume   550.01360881
_cell_formula_units_Z   1
loop_
 _symmetry_equiv_pos_site_id
 _symmetry_equiv_pos_as_xyz
  1  'x, y, z'
loop_
 _atom_site_type_symbol
 _atom_site_label
 _atom_site_symmetry_multiplicity
 _atom_site_fract_x
 _atom_site_fract_y
 _atom_site_fract_z
 _atom_site_occupancy
  Eu  Eu0  1  0.249997  0.999999  0.249998  1
  Eu  Eu1  1  0.249999  0.499997  0.249999  1
  Eu  Eu2  1  0.750003  0.000002  0.249999  1
  Eu  Eu3  1  0.250000  0.500000  0.750002  1
  Eu  Eu4  1  0.250000  0.000000  0.750004  1
  Eu  Eu5  1  0.750000  0.999998  0.750001  1
  Eu  Eu6  1  0.750003  0.500005  0.750003  1
  Te  Te7  1  0.999983  0.999992  0.000013  1
  Te  Te8  1  0.500017  0.000008  0.499986  1
  Te  Te9  1  0.002461  0.004932  0.502427  1
  Te  Te10  1  0.002445  0.499953  0.502437  1
  Te  Te11  1  0.497525  0.499949  0.502427  1
  Te  Te12  1  0.002474  0.500050  0.997574  1
  Te  Te13  1  0.497556  0.500049  0.997565  1
  Te  Te14  1  0.497540  0.995069  0.997575  1
