# generated using pymatgen
data_Ta6Cr5Si6Ru
_symmetry_space_group_name_H-M   'P 1'
_cell_length_a   7.43360521
_cell_length_b   7.43356504
_cell_length_c   7.43356506
_cell_angle_alpha   126.74714177
_cell_angle_beta   127.04367460
_cell_angle_gamma   78.42149001
_symmetry_Int_Tables_number   1
_chemical_formula_structural   Ta6Cr5Si6Ru
_chemical_formula_sum   'Ta6 Cr5 Si6 Ru1'
_cell_volume   254.38848461
_cell_formula_units_Z   1
loop_
 _symmetry_equiv_pos_site_id
 _symmetry_equiv_pos_as_xyz
  1  'x, y, z'
loop_
 _atom_site_type_symbol
 _atom_site_label
 _atom_site_symmetry_multiplicity
 _atom_site_fract_x
 _atom_site_fract_y
 _atom_site_fract_z
 _atom_site_occupancy
  Ta  Ta0  1  0.542476  0.092713  0.044803  1
  Ta  Ta1  1  0.457524  0.502326  0.550237  1
  Ta  Ta2  1  0.952336  0.502266  0.044498  1
  Ta  Ta3  1  0.047664  0.092162  0.549930  1
  Ta  Ta4  1  0.746900  0.891932  0.638665  1
  Ta  Ta5  1  0.253100  0.891765  0.145033  1
  Cr  Cr6  1  0.126767  0.750013  0.623763  1
  Cr  Cr7  1  0.873233  0.496995  0.623246  1
  Cr  Cr8  1  0.627387  0.752054  0.124140  1
  Cr  Cr9  1  0.372613  0.496753  0.124668  1
  Cr  Cr10  1  0.500000  0.241416  0.741416  1
  Si  Si11  1  0.334092  0.832080  0.498275  1
  Si  Si12  1  0.665908  0.164183  0.497988  1
  Si  Si13  1  0.834092  0.832732  0.998373  1
  Si  Si14  1  0.165908  0.164280  0.998640  1
  Si  Si15  1  0.745951  0.497385  0.242927  1
  Si  Si16  1  0.254049  0.496976  0.751434  1
  Ru  Ru17  1  0.000000  0.243965  0.243965  1
