# generated using pymatgen
data_NdB4IrRu3
_symmetry_space_group_name_H-M   'P 1'
_cell_length_a   7.56245279
_cell_length_b   7.58654684
_cell_length_c   4.01263700
_cell_angle_alpha   90.00105820
_cell_angle_beta   89.99899133
_cell_angle_gamma   90.28124100
_symmetry_Int_Tables_number   1
_chemical_formula_structural   NdB4IrRu3
_chemical_formula_sum   'Nd2 B8 Ir2 Ru6'
_cell_volume   230.21385702
_cell_formula_units_Z   2
loop_
 _symmetry_equiv_pos_site_id
 _symmetry_equiv_pos_as_xyz
  1  'x, y, z'
loop_
 _atom_site_type_symbol
 _atom_site_label
 _atom_site_symmetry_multiplicity
 _atom_site_fract_x
 _atom_site_fract_y
 _atom_site_fract_z
 _atom_site_occupancy
  Nd  Nd0  1  0.499990  0.500092  0.998527  1
  Nd  Nd1  1  0.999986  0.000103  0.501444  1
  B  B2  1  0.668409  0.789087  0.610432  1
  B  B3  1  0.168425  0.289083  0.889572  1
  B  B4  1  0.285298  0.836350  0.108325  1
  B  B5  1  0.709190  0.162992  0.112451  1
  B  B6  1  0.337294  0.217353  0.608531  1
  B  B7  1  0.837271  0.717370  0.891472  1
  B  B8  1  0.209202  0.663014  0.387536  1
  B  B9  1  0.785296  0.336331  0.391678  1
  Ir  Ir10  1  0.890947  0.350776  0.890522  1
  Ir  Ir11  1  0.390928  0.850758  0.609482  1
  Ru  Ru12  1  0.355301  0.109223  0.108445  1
  Ru  Ru13  1  0.644590  0.889864  0.109959  1
  Ru  Ru14  1  0.609005  0.144277  0.610160  1
  Ru  Ru15  1  0.108975  0.644235  0.889849  1
  Ru  Ru16  1  0.144559  0.389890  0.390046  1
  Ru  Ru17  1  0.855336  0.609201  0.391571  1
