# generated using pymatgen
data_LiY3Ho2(Si3Ru)8
_symmetry_space_group_name_H-M   'P 1'
_cell_length_a   10.11862441
_cell_length_b   10.11868111
_cell_length_c   8.10310208
_cell_angle_alpha   90.00431587
_cell_angle_beta   89.99509912
_cell_angle_gamma   132.73535474
_symmetry_Int_Tables_number   1
_chemical_formula_structural   LiY3Ho2(Si3Ru)8
_chemical_formula_sum   'Li1 Y3 Ho2 Si24 Ru8'
_cell_volume   609.37709139
_cell_formula_units_Z   1
loop_
 _symmetry_equiv_pos_site_id
 _symmetry_equiv_pos_as_xyz
  1  'x, y, z'
loop_
 _atom_site_type_symbol
 _atom_site_label
 _atom_site_symmetry_multiplicity
 _atom_site_fract_x
 _atom_site_fract_y
 _atom_site_fract_z
 _atom_site_occupancy
  Li  Li0  1  0.499997  0.499994  0.500004  1
  Y  Y1  1  0.502012  0.002013  0.749218  1
  Y  Y2  1  0.997976  0.497974  0.250780  1
  Y  Y3  1  0.497968  0.997966  0.250772  1
  Ho  Ho4  1  0.999998  0.999996  0.999988  1
  Ho  Ho5  1  0.002023  0.502022  0.749223  1
  Si  Si6  1  0.797020  0.203439  0.500227  1
  Si  Si7  1  0.296251  0.703276  0.999764  1
  Si  Si8  1  0.202964  0.796542  0.500239  1
  Si  Si9  1  0.703734  0.296713  0.999773  1
  Si  Si10  1  0.336654  0.336644  0.827382  1
  Si  Si11  1  0.663376  0.663359  0.172603  1
  Si  Si12  1  0.172417  0.172437  0.336654  1
  Si  Si13  1  0.827583  0.827587  0.663359  1
  Si  Si14  1  0.123320  0.890163  0.728622  1
  Si  Si15  1  0.109642  0.876571  0.271324  1
  Si  Si16  1  0.607260  0.378216  0.234542  1
  Si  Si17  1  0.621989  0.392827  0.765526  1
  Si  Si18  1  0.876588  0.109647  0.271316  1
  Si  Si19  1  0.890453  0.123632  0.728631  1
  Si  Si20  1  0.392559  0.621705  0.765534  1
  Si  Si21  1  0.378199  0.607258  0.234531  1
  Si  Si22  1  0.349380  0.120777  0.507243  1
  Si  Si23  1  0.879338  0.650637  0.492906  1
  Si  Si24  1  0.387673  0.154780  0.006157  1
  Si  Si25  1  0.845231  0.612218  0.993656  1
  Si  Si26  1  0.650609  0.879209  0.492785  1
  Si  Si27  1  0.120667  0.349379  0.507391  1
  Si  Si28  1  0.612318  0.845214  0.993813  1
  Si  Si29  1  0.154785  0.387783  0.006031  1
  Ru  Ru30  1  0.672009  0.328594  0.500271  1
  Ru  Ru31  1  0.170378  0.829066  0.999699  1
  Ru  Ru32  1  0.328005  0.671425  0.500311  1
  Ru  Ru33  1  0.829629  0.170938  0.999722  1
  Ru  Ru34  1  0.123712  0.123707  0.628770  1
  Ru  Ru35  1  0.876288  0.876294  0.371219  1
  Ru  Ru36  1  0.371425  0.371418  0.123946  1
  Ru  Ru37  1  0.628573  0.628580  0.876067  1
