# generated using pymatgen
data_Nd5GeSe4
_symmetry_space_group_name_H-M   'P 1'
_cell_length_a   7.39948125
_cell_length_b   7.39948203
_cell_length_c   7.39948200
_cell_angle_alpha   99.34151432
_cell_angle_beta   99.34152030
_cell_angle_gamma   132.48228727
_symmetry_Int_Tables_number   1
_chemical_formula_structural   Nd5GeSe4
_chemical_formula_sum   'Nd5 Ge1 Se4'
_cell_volume   273.46210537
_cell_formula_units_Z   1
loop_
 _symmetry_equiv_pos_site_id
 _symmetry_equiv_pos_as_xyz
  1  'x, y, z'
loop_
 _atom_site_type_symbol
 _atom_site_label
 _atom_site_symmetry_multiplicity
 _atom_site_fract_x
 _atom_site_fract_y
 _atom_site_fract_z
 _atom_site_occupancy
  Nd  Nd0  1  0.402584  0.792880  0.195463  1
  Nd  Nd1  1  0.000000  0.000000  0.000000  1
  Nd  Nd2  1  0.597416  0.207120  0.804537  1
  Nd  Nd3  1  0.207120  0.402584  0.609704  1
  Nd  Nd4  1  0.792880  0.597416  0.390296  1
  Ge  Ge5  1  0.500000  0.500000  0.000000  1
  Se  Se6  1  0.099045  0.698322  0.797365  1
  Se  Se7  1  0.698322  0.900955  0.599277  1
  Se  Se8  1  0.301678  0.099045  0.400723  1
  Se  Se9  1  0.900955  0.301678  0.202635  1
