# generated using pymatgen
data_K3Rb9(VTe4)4
_symmetry_space_group_name_H-M   'P 1'
_cell_length_a   10.59351396
_cell_length_b   10.59302163
_cell_length_c   12.00774073
_cell_angle_alpha   90.08990664
_cell_angle_beta   90.09405928
_cell_angle_gamma   89.96945260
_symmetry_Int_Tables_number   1
_chemical_formula_structural   K3Rb9(VTe4)4
_chemical_formula_sum   'K3 Rb9 V4 Te16'
_cell_volume   1347.47284937
_cell_formula_units_Z   1
loop_
 _symmetry_equiv_pos_site_id
 _symmetry_equiv_pos_as_xyz
  1  'x, y, z'
loop_
 _atom_site_type_symbol
 _atom_site_label
 _atom_site_symmetry_multiplicity
 _atom_site_fract_x
 _atom_site_fract_y
 _atom_site_fract_z
 _atom_site_occupancy
  K  K0  1  0.053030  0.202446  0.451130  1
  K  K1  1  0.446954  0.702768  0.549639  1
  K  K2  1  0.947237  0.797280  0.950228  1
  Rb  Rb3  1  0.051258  0.202203  0.045827  1
  Rb  Rb4  1  0.135328  0.410587  0.749707  1
  Rb  Rb5  1  0.364810  0.910710  0.250321  1
  Rb  Rb6  1  0.634870  0.089071  0.749638  1
  Rb  Rb7  1  0.864890  0.589390  0.249929  1
  Rb  Rb8  1  0.948341  0.797779  0.545786  1
  Rb  Rb9  1  0.551577  0.297647  0.454184  1
  Rb  Rb10  1  0.448501  0.702519  0.954171  1
  Rb  Rb11  1  0.551837  0.297424  0.046977  1
  V  V12  1  0.785378  0.013932  0.250435  1
  V  V13  1  0.716128  0.515444  0.749102  1
  V  V14  1  0.283753  0.485717  0.251268  1
  V  V15  1  0.214829  0.984866  0.749299  1
  Te  Te16  1  0.332405  0.051047  0.921301  1
  Te  Te17  1  0.196440  0.748531  0.750608  1
  Te  Te18  1  0.300307  0.249067  0.251560  1
  Te  Te19  1  0.696558  0.751824  0.748678  1
  Te  Te20  1  0.805691  0.250165  0.253036  1
  Te  Te21  1  0.996183  0.080211  0.749123  1
  Te  Te22  1  0.502759  0.580675  0.252112  1
  Te  Te23  1  0.497058  0.420800  0.748497  1
  Te  Te24  1  0.003998  0.918942  0.249582  1
  Te  Te25  1  0.666773  0.947203  0.421430  1
  Te  Te26  1  0.833798  0.447380  0.577847  1
  Te  Te27  1  0.166884  0.552601  0.078932  1
  Te  Te28  1  0.670714  0.948121  0.076445  1
  Te  Te29  1  0.329689  0.050482  0.575970  1
  Te  Te30  1  0.169655  0.551818  0.424717  1
  Te  Te31  1  0.832365  0.451351  0.922518  1
