# generated using pymatgen
data_LiEr16In3(IrRh)2
_symmetry_space_group_name_H-M   'P 1'
_cell_length_a   9.54629527
_cell_length_b   9.59365829
_cell_length_c   9.55480946
_cell_angle_alpha   60.27653278
_cell_angle_beta   60.02946792
_cell_angle_gamma   60.16318195
_symmetry_Int_Tables_number   1
_chemical_formula_structural   LiEr16In3(IrRh)2
_chemical_formula_sum   'Li1 Er16 In3 Ir2 Rh2'
_cell_volume   620.95168975
_cell_formula_units_Z   1
loop_
 _symmetry_equiv_pos_site_id
 _symmetry_equiv_pos_as_xyz
  1  'x, y, z'
loop_
 _atom_site_type_symbol
 _atom_site_label
 _atom_site_symmetry_multiplicity
 _atom_site_fract_x
 _atom_site_fract_y
 _atom_site_fract_z
 _atom_site_occupancy
  Li  Li0  1  0.427950  0.714967  0.429132  1
  Er  Er1  1  0.189688  0.192328  0.809093  1
  Er  Er2  1  0.438347  0.061253  0.062053  1
  Er  Er3  1  0.440313  0.060463  0.436195  1
  Er  Er4  1  0.063479  0.435707  0.063005  1
  Er  Er5  1  0.648914  0.053988  0.648184  1
  Er  Er6  1  0.187702  0.812168  0.812429  1
  Er  Er7  1  0.063029  0.060463  0.436195  1
  Er  Er8  1  0.807675  0.193754  0.190896  1
  Er  Er9  1  0.812917  0.812718  0.187815  1
  Er  Er10  1  0.652442  0.648120  0.046996  1
  Er  Er11  1  0.655859  0.650413  0.652347  1
  Er  Er12  1  0.064514  0.433800  0.437173  1
  Er  Er13  1  0.041381  0.650413  0.652347  1
  Er  Er14  1  0.808890  0.192328  0.809093  1
  Er  Er15  1  0.437811  0.435707  0.063005  1
  Er  Er16  1  0.186550  0.812718  0.187815  1
  In  In17  1  0.415469  0.422356  0.746706  1
  In  In18  1  0.747443  0.421290  0.416363  1
  In  In19  1  0.414905  0.421290  0.416363  1
  Ir  Ir20  1  0.857833  0.425473  0.858860  1
  Ir  Ir21  1  0.855592  0.864738  0.424078  1
  Rh  Rh22  1  0.425894  0.861774  0.856928  1
  Rh  Rh23  1  0.855404  0.861774  0.856928  1
