# generated using pymatgen
data_Li4ZnSn2Se7
_symmetry_space_group_name_H-M   'P 1'
_cell_length_a   9.87306162
_cell_length_b   9.87306222
_cell_length_c   10.79694854
_cell_angle_alpha   87.31379299
_cell_angle_beta   87.31379158
_cell_angle_gamma   43.50646001
_symmetry_Int_Tables_number   1
_chemical_formula_structural   Li4ZnSn2Se7
_chemical_formula_sum   'Li8 Zn2 Sn4 Se14'
_cell_volume   723.62732618
_cell_formula_units_Z   2
loop_
 _symmetry_equiv_pos_site_id
 _symmetry_equiv_pos_as_xyz
  1  'x, y, z'
loop_
 _atom_site_type_symbol
 _atom_site_label
 _atom_site_symmetry_multiplicity
 _atom_site_fract_x
 _atom_site_fract_y
 _atom_site_fract_z
 _atom_site_occupancy
  Li  Li0  1  0.526816  0.181755  0.412181  1
  Li  Li1  1  0.181755  0.526816  0.912181  1
  Li  Li2  1  0.913589  0.221971  0.334497  1
  Li  Li3  1  0.221971  0.913589  0.834497  1
  Li  Li4  1  0.680047  0.310079  0.698717  1
  Li  Li5  1  0.310079  0.680047  0.198717  1
  Li  Li6  1  0.040516  0.384576  0.614410  1
  Li  Li7  1  0.384576  0.040516  0.114410  1
  Zn  Zn8  1  0.928272  0.635976  0.259753  1
  Zn  Zn9  1  0.635976  0.928272  0.759753  1
  Sn  Sn10  1  0.474336  0.809089  0.471170  1
  Sn  Sn11  1  0.809089  0.474336  0.971170  1
  Sn  Sn12  1  0.075610  0.769738  0.537857  1
  Sn  Sn13  1  0.769738  0.075610  0.037857  1
  Se  Se14  1  0.370007  0.688460  0.635471  1
  Se  Se15  1  0.688460  0.370007  0.135471  1
  Se  Se16  1  0.216689  0.548613  0.348226  1
  Se  Se17  1  0.548613  0.216689  0.848226  1
  Se  Se18  1  0.991535  0.648038  0.710020  1
  Se  Se19  1  0.648038  0.991535  0.210020  1
  Se  Se20  1  0.273049  0.941131  0.278796  1
  Se  Se21  1  0.941131  0.273049  0.778796  1
  Se  Se22  1  0.417996  0.076117  0.575446  1
  Se  Se23  1  0.076117  0.417996  0.075446  1
  Se  Se24  1  0.839192  0.512958  0.415126  1
  Se  Se25  1  0.512958  0.839192  0.915126  1
  Se  Se26  1  0.794197  0.134150  0.496661  1
  Se  Se27  1  0.134150  0.794197  0.996661  1
