# generated using pymatgen
data_LiGa4Ag3I16
_symmetry_space_group_name_H-M   'P 1'
_cell_length_a   8.61475900
_cell_length_b   8.50042067
_cell_length_c   16.64957448
_cell_angle_alpha   92.02523780
_cell_angle_beta   90.00000000
_cell_angle_gamma   90.00000000
_symmetry_Int_Tables_number   1
_chemical_formula_structural   LiGa4Ag3I16
_chemical_formula_sum   'Li1 Ga4 Ag3 I16'
_cell_volume   1218.47136126
_cell_formula_units_Z   1
loop_
 _symmetry_equiv_pos_site_id
 _symmetry_equiv_pos_as_xyz
  1  'x, y, z'
loop_
 _atom_site_type_symbol
 _atom_site_label
 _atom_site_symmetry_multiplicity
 _atom_site_fract_x
 _atom_site_fract_y
 _atom_site_fract_z
 _atom_site_occupancy
  Li  Li0  1  0.250000  0.943696  0.601003  1
  Ga  Ga1  1  0.250000  0.388175  0.891044  1
  Ga  Ga2  1  0.750000  0.900781  0.602529  1
  Ga  Ga3  1  0.750000  0.597835  0.096121  1
  Ga  Ga4  1  0.250000  0.112062  0.411103  1
  Ag  Ag5  1  0.250000  0.581739  0.088133  1
  Ag  Ag6  1  0.750000  0.072884  0.408282  1
  Ag  Ag7  1  0.750000  0.400316  0.899858  1
  I  I8  1  0.250000  0.253977  0.028607  1
  I  I9  1  0.750000  0.755012  0.462317  1
  I  I10  1  0.750000  0.729774  0.958275  1
  I  I11  1  0.250000  0.257770  0.550318  1
  I  I12  1  0.250000  0.815793  0.439767  1
  I  I13  1  0.750000  0.296432  0.065597  1
  I  I14  1  0.750000  0.199653  0.577783  1
  I  I15  1  0.250000  0.689231  0.922582  1
  I  I16  1  0.990295  0.682903  0.182416  1
  I  I17  1  0.011225  0.192988  0.326085  1
  I  I18  1  0.490266  0.304790  0.804666  1
  I  I19  1  0.507148  0.821752  0.685172  1
  I  I20  1  0.009734  0.304790  0.804666  1
  I  I21  1  0.992852  0.821752  0.685172  1
  I  I22  1  0.509705  0.682903  0.182416  1
  I  I23  1  0.488775  0.192988  0.326085  1
