# generated using pymatgen
data_Sc(NbC)5
_symmetry_space_group_name_H-M   'P 1'
_cell_length_a   5.52392690
_cell_length_b   5.52392671
_cell_length_c   5.52512757
_cell_angle_alpha   80.64590063
_cell_angle_beta   80.64589703
_cell_angle_gamma   119.93231135
_symmetry_Int_Tables_number   1
_chemical_formula_structural   Sc(NbC)5
_chemical_formula_sum   'Sc1 Nb5 C5'
_cell_volume   138.18649086
_cell_formula_units_Z   1
loop_
 _symmetry_equiv_pos_site_id
 _symmetry_equiv_pos_as_xyz
  1  'x, y, z'
loop_
 _atom_site_type_symbol
 _atom_site_label
 _atom_site_symmetry_multiplicity
 _atom_site_fract_x
 _atom_site_fract_y
 _atom_site_fract_z
 _atom_site_occupancy
  Sc  Sc0  1  0.743467  0.743467  0.740997  1
  Nb  Nb1  1  0.260958  0.260958  0.262888  1
  Nb  Nb2  1  0.086505  0.441601  0.745429  1
  Nb  Nb3  1  0.559196  0.910229  0.252935  1
  Nb  Nb4  1  0.910229  0.559196  0.252935  1
  Nb  Nb5  1  0.441601  0.086505  0.745429  1
  C  C6  1  0.497075  0.497075  0.498286  1
  C  C7  1  0.665215  0.329818  0.003468  1
  C  C8  1  0.329818  0.665215  0.003468  1
  C  C9  1  0.834460  0.171476  0.497082  1
  C  C10  1  0.171476  0.834460  0.497082  1
