# generated using pymatgen
data_Dy4Al6ReTc
_symmetry_space_group_name_H-M   'P 1'
_cell_length_a   5.52679000
_cell_length_b   5.52679040
_cell_length_c   8.94065500
_cell_angle_alpha   90.00000000
_cell_angle_beta   90.00000000
_cell_angle_gamma   119.99999762
_symmetry_Int_Tables_number   1
_chemical_formula_structural   Dy4Al6ReTc
_chemical_formula_sum   'Dy4 Al6 Re1 Tc1'
_cell_volume   236.50805487
_cell_formula_units_Z   1
loop_
 _symmetry_equiv_pos_site_id
 _symmetry_equiv_pos_as_xyz
  1  'x, y, z'
loop_
 _atom_site_type_symbol
 _atom_site_label
 _atom_site_symmetry_multiplicity
 _atom_site_fract_x
 _atom_site_fract_y
 _atom_site_fract_z
 _atom_site_occupancy
  Dy  Dy0  1  0.666667  0.333333  0.051036  1
  Dy  Dy1  1  0.666667  0.333333  0.449023  1
  Dy  Dy2  1  0.333333  0.666666  0.550977  1
  Dy  Dy3  1  0.333333  0.666666  0.948964  1
  Al  Al4  1  0.162016  0.324032  0.250060  1
  Al  Al5  1  0.162015  0.837983  0.250060  1
  Al  Al6  1  0.675969  0.837983  0.250060  1
  Al  Al7  1  0.324031  0.162016  0.749941  1
  Al  Al8  1  0.837983  0.162016  0.749941  1
  Al  Al9  1  0.837983  0.675967  0.749941  1
  Re  Re10  1  0.000000  0.000000  0.500000  1
  Tc  Tc11  1  0.000000  0.000000  0.000000  1
