# generated using pymatgen
data_Sm6CoAs7P5Rh17
_symmetry_space_group_name_H-M   'P 1'
_cell_length_a   3.98558700
_cell_length_b   11.39172784
_cell_length_c   13.22994935
_cell_angle_alpha   90.08123807
_cell_angle_beta   90.00000000
_cell_angle_gamma   90.00000000
_symmetry_Int_Tables_number   1
_chemical_formula_structural   Sm6CoAs7P5Rh17
_chemical_formula_sum   'Sm6 Co1 As7 P5 Rh17'
_cell_volume   600.67511379
_cell_formula_units_Z   1
loop_
 _symmetry_equiv_pos_site_id
 _symmetry_equiv_pos_as_xyz
  1  'x, y, z'
loop_
 _atom_site_type_symbol
 _atom_site_label
 _atom_site_symmetry_multiplicity
 _atom_site_fract_x
 _atom_site_fract_y
 _atom_site_fract_z
 _atom_site_occupancy
  Sm  Sm0  1  0.000000  0.500262  0.517573  1
  Sm  Sm1  1  0.500000  0.000378  0.480320  1
  Sm  Sm2  1  0.500000  0.818142  0.204004  1
  Sm  Sm3  1  0.500000  0.184557  0.200921  1
  Sm  Sm4  1  0.000000  0.686107  0.797671  1
  Sm  Sm5  1  0.000000  0.312726  0.797441  1
  Co  Co6  1  0.500000  0.001200  0.028969  1
  As  As7  1  0.500000  0.316780  0.617914  1
  As  As8  1  0.500000  0.682892  0.620423  1
  As  As9  1  0.000000  0.184518  0.378146  1
  As  As10  1  0.000000  0.814887  0.381195  1
  As  As11  1  0.500000  0.858711  0.894672  1
  As  As12  1  0.500000  0.141989  0.895111  1
  As  As13  1  0.000000  0.651469  0.110079  1
  P  P14  1  0.500000  0.499163  0.884826  1
  P  P15  1  0.000000  0.000393  0.116975  1
  P  P16  1  0.500000  0.500771  0.346905  1
  P  P17  1  0.000000  0.000848  0.649550  1
  P  P18  1  0.000000  0.346105  0.104250  1
  Rh  Rh19  1  0.500000  0.498133  0.170669  1
  Rh  Rh20  1  0.000000  0.002691  0.825212  1
  Rh  Rh21  1  0.500000  0.498728  0.713564  1
  Rh  Rh22  1  0.000000  0.998353  0.288905  1
  Rh  Rh23  1  0.000000  0.496869  0.979272  1
  Rh  Rh24  1  0.500000  0.334100  0.999452  1
  Rh  Rh25  1  0.500000  0.666110  0.991630  1
  Rh  Rh26  1  0.000000  0.162525  0.011537  1
  Rh  Rh27  1  0.000000  0.841573  0.008364  1
  Rh  Rh28  1  0.500000  0.306831  0.427520  1
  Rh  Rh29  1  0.500000  0.698491  0.431742  1
  Rh  Rh30  1  0.000000  0.198962  0.566760  1
  Rh  Rh31  1  0.000000  0.803891  0.569485  1
  Rh  Rh32  1  0.500000  0.880247  0.706182  1
  Rh  Rh33  1  0.500000  0.120517  0.704443  1
  Rh  Rh34  1  0.000000  0.615608  0.296300  1
  Rh  Rh35  1  0.000000  0.374472  0.282016  1
