# generated using pymatgen
data_Pr5CoAu2
_symmetry_space_group_name_H-M   'P 1'
_cell_length_a   8.81541100
_cell_length_b   8.32700700
_cell_length_c   12.18850600
_cell_angle_alpha   90.00000000
_cell_angle_beta   90.00000000
_cell_angle_gamma   90.00000000
_symmetry_Int_Tables_number   1
_chemical_formula_structural   Pr5CoAu2
_chemical_formula_sum   'Pr20 Co4 Au8'
_cell_volume   894.70933864
_cell_formula_units_Z   4
loop_
 _symmetry_equiv_pos_site_id
 _symmetry_equiv_pos_as_xyz
  1  'x, y, z'
loop_
 _atom_site_type_symbol
 _atom_site_label
 _atom_site_symmetry_multiplicity
 _atom_site_fract_x
 _atom_site_fract_y
 _atom_site_fract_z
 _atom_site_occupancy
  Pr  Pr0  1  0.834993  0.750000  0.786777  1
  Pr  Pr1  1  0.165007  0.250000  0.213223  1
  Pr  Pr2  1  0.334993  0.250000  0.713223  1
  Pr  Pr3  1  0.665007  0.750000  0.286777  1
  Pr  Pr4  1  0.379582  0.750000  0.695717  1
  Pr  Pr5  1  0.620418  0.250000  0.304283  1
  Pr  Pr6  1  0.879582  0.250000  0.804283  1
  Pr  Pr7  1  0.120418  0.750000  0.195717  1
  Pr  Pr8  1  0.955654  0.750000  0.489130  1
  Pr  Pr9  1  0.044346  0.250000  0.510870  1
  Pr  Pr10  1  0.455654  0.250000  0.010870  1
  Pr  Pr11  1  0.544346  0.750000  0.989130  1
  Pr  Pr12  1  0.671328  0.036439  0.574208  1
  Pr  Pr13  1  0.328672  0.963561  0.425792  1
  Pr  Pr14  1  0.171328  0.963561  0.925792  1
  Pr  Pr15  1  0.328672  0.536439  0.425792  1
  Pr  Pr16  1  0.828672  0.036439  0.074208  1
  Pr  Pr17  1  0.671328  0.463561  0.574208  1
  Pr  Pr18  1  0.828672  0.463561  0.074208  1
  Pr  Pr19  1  0.171328  0.536439  0.925792  1
  Co  Co20  1  0.573099  0.750000  0.507268  1
  Co  Co21  1  0.426901  0.250000  0.492732  1
  Co  Co22  1  0.073099  0.250000  0.992732  1
  Co  Co23  1  0.926901  0.750000  0.007268  1
  Au  Au24  1  0.575252  0.472314  0.824200  1
  Au  Au25  1  0.424748  0.527686  0.175800  1
  Au  Au26  1  0.075252  0.527686  0.675800  1
  Au  Au27  1  0.424748  0.972314  0.175800  1
  Au  Au28  1  0.924748  0.472314  0.324200  1
  Au  Au29  1  0.575252  0.027686  0.824200  1
  Au  Au30  1  0.924748  0.027686  0.324200  1
  Au  Au31  1  0.075252  0.972314  0.675800  1
