# generated using pymatgen
data_YbCd(GaBr4)4
_symmetry_space_group_name_H-M   'P 1'
_cell_length_a   7.57304099
_cell_length_b   7.71140808
_cell_length_c   14.17966482
_cell_angle_alpha   87.67278855
_cell_angle_beta   89.90791975
_cell_angle_gamma   89.95345859
_symmetry_Int_Tables_number   1
_chemical_formula_structural   YbCd(GaBr4)4
_chemical_formula_sum   'Yb1 Cd1 Ga4 Br16'
_cell_volume   827.39126602
_cell_formula_units_Z   1
loop_
 _symmetry_equiv_pos_site_id
 _symmetry_equiv_pos_as_xyz
  1  'x, y, z'
loop_
 _atom_site_type_symbol
 _atom_site_label
 _atom_site_symmetry_multiplicity
 _atom_site_fract_x
 _atom_site_fract_y
 _atom_site_fract_z
 _atom_site_occupancy
  Yb  Yb0  1  0.755805  0.076929  0.813162  1
  Cd  Cd1  1  0.245274  0.076691  0.312592  1
  Ga  Ga2  1  0.936000  0.222650  0.576940  1
  Ga  Ga3  1  0.068487  0.221925  0.079539  1
  Ga  Ga4  1  0.572159  0.639741  0.776505  1
  Ga  Ga5  1  0.423145  0.637998  0.276789  1
  Br  Br6  1  0.420685  0.614523  0.637345  1
  Br  Br7  1  0.579540  0.613363  0.138991  1
  Br  Br8  1  0.873304  0.731297  0.760448  1
  Br  Br9  1  0.124084  0.736686  0.261441  1
  Br  Br10  1  0.936898  0.485336  0.494741  1
  Br  Br11  1  0.060733  0.482604  0.995642  1
  Br  Br12  1  0.918074  0.997514  0.999309  1
  Br  Br13  1  0.086655  0.999521  0.494290  1
  Br  Br14  1  0.643057  0.124484  0.616177  1
  Br  Br15  1  0.360833  0.123784  0.119503  1
  Br  Br16  1  0.563793  0.380128  0.875955  1
  Br  Br17  1  0.429988  0.373737  0.374154  1
  Br  Br18  1  0.448288  0.866955  0.867501  1
  Br  Br19  1  0.541569  0.871111  0.367137  1
  Br  Br20  1  0.940513  0.228818  0.235840  1
  Br  Br21  1  0.071117  0.229006  0.730403  1
