# generated using pymatgen
data_Er2Re2B4Ru3
_symmetry_space_group_name_H-M   'P 1'
_cell_length_a   3.08725100
_cell_length_b   8.73854903
_cell_length_c   10.19483701
_cell_angle_alpha   89.99802554
_cell_angle_beta   90.00000000
_cell_angle_gamma   90.00000000
_symmetry_Int_Tables_number   1
_chemical_formula_structural   Er2Re2B4Ru3
_chemical_formula_sum   'Er4 Re4 B8 Ru6'
_cell_volume   275.03727329
_cell_formula_units_Z   2
loop_
 _symmetry_equiv_pos_site_id
 _symmetry_equiv_pos_as_xyz
  1  'x, y, z'
loop_
 _atom_site_type_symbol
 _atom_site_label
 _atom_site_symmetry_multiplicity
 _atom_site_fract_x
 _atom_site_fract_y
 _atom_site_fract_z
 _atom_site_occupancy
  Er  Er0  1  0.500000  0.841819  0.181756  1
  Er  Er1  1  0.500000  0.158181  0.818244  1
  Er  Er2  1  0.500000  0.658195  0.681719  1
  Er  Er3  1  0.500000  0.341805  0.318281  1
  Re  Re4  1  0.000000  0.658779  0.954043  1
  Re  Re5  1  0.000000  0.341221  0.045957  1
  Re  Re6  1  0.000000  0.841240  0.454010  1
  Re  Re7  1  0.000000  0.158760  0.545990  1
  B  B8  1  0.500000  0.965478  0.587859  1
  B  B9  1  0.500000  0.034522  0.412141  1
  B  B10  1  0.500000  0.847017  0.902608  1
  B  B11  1  0.500000  0.152983  0.097392  1
  B  B12  1  0.500000  0.652988  0.402564  1
  B  B13  1  0.500000  0.347012  0.597436  1
  B  B14  1  0.500000  0.465559  0.912131  1
  B  B15  1  0.500000  0.534441  0.087869  1
  Ru  Ru16  1  0.000000  0.000000  0.000000  1
  Ru  Ru17  1  0.000000  0.405416  0.759659  1
  Ru  Ru18  1  0.000000  0.594584  0.240341  1
  Ru  Ru19  1  0.000000  0.500000  0.500000  1
  Ru  Ru20  1  0.000000  0.905405  0.740370  1
  Ru  Ru21  1  0.000000  0.094595  0.259630  1
