# generated using pymatgen
data_Tb17Dy3IrRh11
_symmetry_space_group_name_H-M   'P 1'
_cell_length_a   10.94208806
_cell_length_b   10.94219594
_cell_length_c   6.37848700
_cell_angle_alpha   89.99734863
_cell_angle_beta   89.99819068
_cell_angle_gamma   90.04706301
_symmetry_Int_Tables_number   1
_chemical_formula_structural   Tb17Dy3IrRh11
_chemical_formula_sum   'Tb17 Dy3 Ir1 Rh11'
_cell_volume   763.69899815
_cell_formula_units_Z   1
loop_
 _symmetry_equiv_pos_site_id
 _symmetry_equiv_pos_as_xyz
  1  'x, y, z'
loop_
 _atom_site_type_symbol
 _atom_site_label
 _atom_site_symmetry_multiplicity
 _atom_site_fract_x
 _atom_site_fract_y
 _atom_site_fract_z
 _atom_site_occupancy
  Tb  Tb0  1  0.290819  0.088996  0.378851  1
  Tb  Tb1  1  0.291096  0.909688  0.878775  1
  Tb  Tb2  1  0.709147  0.088801  0.878824  1
  Tb  Tb3  1  0.708998  0.910963  0.378692  1
  Tb  Tb4  1  0.587628  0.790266  0.878514  1
  Tb  Tb5  1  0.588970  0.209170  0.379171  1
  Tb  Tb6  1  0.410639  0.790177  0.379780  1
  Tb  Tb7  1  0.410983  0.209000  0.878702  1
  Tb  Tb8  1  0.209735  0.412390  0.621471  1
  Tb  Tb9  1  0.209822  0.589385  0.120233  1
  Tb  Tb10  1  0.790836  0.411005  0.120844  1
  Tb  Tb11  1  0.790999  0.588996  0.621282  1
  Tb  Tb12  1  0.911009  0.709237  0.121092  1
  Tb  Tb13  1  0.911197  0.290909  0.621232  1
  Tb  Tb14  1  0.090321  0.708848  0.621282  1
  Tb  Tb15  1  0.089035  0.290947  0.121255  1
  Tb  Tb16  1  0.999840  0.999923  0.500088  1
  Dy  Dy17  1  0.000077  0.000156  0.999915  1
  Dy  Dy18  1  0.499731  0.500054  0.000072  1
  Dy  Dy19  1  0.499948  0.500270  0.499922  1
  Ir  Ir20  1  0.346323  0.653675  0.749995  1
  Rh  Rh21  1  0.846177  0.153824  0.249825  1
  Rh  Rh22  1  0.846070  0.846320  0.750369  1
  Rh  Rh23  1  0.153664  0.153934  0.749996  1
  Rh  Rh24  1  0.153233  0.846778  0.249813  1
  Rh  Rh25  1  0.653750  0.346249  0.749993  1
  Rh  Rh26  1  0.654351  0.653827  0.250086  1
  Rh  Rh27  1  0.346174  0.345644  0.249931  1
  Rh  Rh28  1  0.500217  0.000417  0.124684  1
  Rh  Rh29  1  0.500270  0.000640  0.624127  1
  Rh  Rh30  1  0.999360  0.499725  0.875858  1
  Rh  Rh31  1  0.999587  0.499781  0.375325  1
