# generated using pymatgen
data_Rb2LiErAs2
_symmetry_space_group_name_H-M   'P 1'
_cell_length_a   10.58465042
_cell_length_b   10.58465085
_cell_length_c   6.82448000
_cell_angle_alpha   90.00000000
_cell_angle_beta   90.00000000
_cell_angle_gamma   99.72927329
_symmetry_Int_Tables_number   1
_chemical_formula_structural   Rb2LiErAs2
_chemical_formula_sum   'Rb8 Li4 Er4 As8'
_cell_volume   753.58269966
_cell_formula_units_Z   4
loop_
 _symmetry_equiv_pos_site_id
 _symmetry_equiv_pos_as_xyz
  1  'x, y, z'
loop_
 _atom_site_type_symbol
 _atom_site_label
 _atom_site_symmetry_multiplicity
 _atom_site_fract_x
 _atom_site_fract_y
 _atom_site_fract_z
 _atom_site_occupancy
  Rb  Rb0  1  0.568560  0.931440  0.750000  1
  Rb  Rb1  1  0.931440  0.568560  0.250000  1
  Rb  Rb2  1  0.431440  0.068560  0.250000  1
  Rb  Rb3  1  0.068560  0.431440  0.750000  1
  Rb  Rb4  1  0.677130  0.322870  0.786399  1
  Rb  Rb5  1  0.822870  0.177130  0.286399  1
  Rb  Rb6  1  0.322870  0.677130  0.213601  1
  Rb  Rb7  1  0.177130  0.822870  0.713601  1
  Li  Li8  1  0.618340  0.618340  0.000000  1
  Li  Li9  1  0.881660  0.881660  0.500000  1
  Li  Li10  1  0.381660  0.381660  0.000000  1
  Li  Li11  1  0.118340  0.118340  0.500000  1
  Er  Er12  1  0.868344  0.868344  0.000000  1
  Er  Er13  1  0.631656  0.631656  0.500000  1
  Er  Er14  1  0.131656  0.131656  0.000000  1
  Er  Er15  1  0.368344  0.368344  0.500000  1
  As  As16  1  0.342313  0.157687  0.750000  1
  As  As17  1  0.157687  0.342313  0.250000  1
  As  As18  1  0.657687  0.842313  0.250000  1
  As  As19  1  0.842313  0.657687  0.750000  1
  As  As20  1  0.910061  0.089939  0.765237  1
  As  As21  1  0.589939  0.410061  0.265237  1
  As  As22  1  0.089939  0.910061  0.234763  1
  As  As23  1  0.410061  0.589939  0.734763  1
