# generated using pymatgen
data_Ho2Lu4VCo17P12
_symmetry_space_group_name_H-M   'P 1'
_cell_length_a   3.66676500
_cell_length_b   10.48072100
_cell_length_c   12.12880600
_cell_angle_alpha   90.00000000
_cell_angle_beta   90.00000000
_cell_angle_gamma   90.00000000
_symmetry_Int_Tables_number   1
_chemical_formula_structural   Ho2Lu4VCo17P12
_chemical_formula_sum   'Ho2 Lu4 V1 Co17 P12'
_cell_volume   466.11414975
_cell_formula_units_Z   1
loop_
 _symmetry_equiv_pos_site_id
 _symmetry_equiv_pos_as_xyz
  1  'x, y, z'
loop_
 _atom_site_type_symbol
 _atom_site_label
 _atom_site_symmetry_multiplicity
 _atom_site_fract_x
 _atom_site_fract_y
 _atom_site_fract_z
 _atom_site_occupancy
  Ho  Ho0  1  0.000000  0.500000  0.524103  1
  Ho  Ho1  1  0.500000  0.000000  0.476642  1
  Lu  Lu2  1  0.500000  0.818340  0.206025  1
  Lu  Lu3  1  0.500000  0.181660  0.206025  1
  Lu  Lu4  1  0.000000  0.681712  0.796382  1
  Lu  Lu5  1  0.000000  0.318288  0.796382  1
  V  V6  1  0.500000  0.500000  0.154483  1
  Co  Co7  1  0.000000  0.000000  0.840219  1
  Co  Co8  1  0.500000  0.500000  0.702765  1
  Co  Co9  1  0.000000  0.000000  0.295995  1
  Co  Co10  1  0.000000  0.500000  0.985977  1
  Co  Co11  1  0.500000  0.000000  0.014653  1
  Co  Co12  1  0.500000  0.331547  0.991800  1
  Co  Co13  1  0.500000  0.668453  0.991800  1
  Co  Co14  1  0.000000  0.166511  0.006318  1
  Co  Co15  1  0.000000  0.833489  0.006318  1
  Co  Co16  1  0.500000  0.295964  0.431337  1
  Co  Co17  1  0.500000  0.704036  0.431337  1
  Co  Co18  1  0.000000  0.202914  0.569941  1
  Co  Co19  1  0.000000  0.797086  0.569941  1
  Co  Co20  1  0.500000  0.878225  0.709066  1
  Co  Co21  1  0.500000  0.121775  0.709066  1
  Co  Co22  1  0.000000  0.622249  0.291249  1
  Co  Co23  1  0.000000  0.377751  0.291249  1
  P  P24  1  0.500000  0.500000  0.880688  1
  P  P25  1  0.000000  0.000000  0.118274  1
  P  P26  1  0.500000  0.500000  0.347438  1
  P  P27  1  0.000000  0.000000  0.655728  1
  P  P28  1  0.500000  0.311045  0.617919  1
  P  P29  1  0.500000  0.688955  0.617919  1
  P  P30  1  0.000000  0.188380  0.383447  1
  P  P31  1  0.000000  0.811620  0.383447  1
  P  P32  1  0.500000  0.848413  0.890882  1
  P  P33  1  0.500000  0.151587  0.890882  1
  P  P34  1  0.000000  0.655837  0.107154  1
  P  P35  1  0.000000  0.344163  0.107154  1
