# generated using pymatgen
data_YbTm2Zr(Ga3Rh)6
_symmetry_space_group_name_H-M   'P 1'
_cell_length_a   7.52512360
_cell_length_b   7.52110351
_cell_length_c   9.48140500
_cell_angle_alpha   90.00000000
_cell_angle_beta   90.00000000
_cell_angle_gamma   119.74509450
_symmetry_Int_Tables_number   1
_chemical_formula_structural   YbTm2Zr(Ga3Rh)6
_chemical_formula_sum   'Yb1 Tm2 Zr1 Ga18 Rh6'
_cell_volume   465.91676669
_cell_formula_units_Z   1
loop_
 _symmetry_equiv_pos_site_id
 _symmetry_equiv_pos_as_xyz
  1  'x, y, z'
loop_
 _atom_site_type_symbol
 _atom_site_label
 _atom_site_symmetry_multiplicity
 _atom_site_fract_x
 _atom_site_fract_y
 _atom_site_fract_z
 _atom_site_occupancy
  Yb  Yb0  1  0.003637  0.330983  0.750000  1
  Tm  Tm1  1  0.669460  0.998115  0.250000  1
  Tm  Tm2  1  0.332082  0.003629  0.750000  1
  Zr  Zr3  1  0.997103  0.667792  0.250000  1
  Ga  Ga4  1  0.123091  0.121889  0.250000  1
  Ga  Ga5  1  0.874750  0.874535  0.750000  1
  Ga  Ga6  1  0.999831  0.337234  0.082239  1
  Ga  Ga7  1  0.000387  0.664923  0.922018  1
  Ga  Ga8  1  0.000387  0.664923  0.577982  1
  Ga  Ga9  1  0.331881  0.997250  0.416966  1
  Ga  Ga10  1  0.999831  0.337234  0.417761  1
  Ga  Ga11  1  0.665886  0.000251  0.580279  1
  Ga  Ga12  1  0.665886  0.000251  0.919721  1
  Ga  Ga13  1  0.331881  0.997250  0.083034  1
  Ga  Ga14  1  0.331863  0.332502  0.564604  1
  Ga  Ga15  1  0.669879  0.668127  0.431283  1
  Ga  Ga16  1  0.669879  0.668127  0.068717  1
  Ga  Ga17  1  0.331863  0.332502  0.935396  1
  Ga  Ga18  1  0.336514  0.549055  0.250000  1
  Ga  Ga19  1  0.661789  0.451940  0.750000  1
  Ga  Ga20  1  0.552002  0.340195  0.250000  1
  Ga  Ga21  1  0.451133  0.661594  0.750000  1
  Rh  Rh22  1  0.671705  0.328770  0.001741  1
  Rh  Rh23  1  0.328402  0.672452  0.001829  1
  Rh  Rh24  1  0.328402  0.672452  0.498171  1
  Rh  Rh25  1  0.671705  0.328770  0.498259  1
  Rh  Rh26  1  0.999386  0.998627  0.001564  1
  Rh  Rh27  1  0.999386  0.998627  0.498436  1
