# generated using pymatgen
data_Ac4Ni3O10
_symmetry_space_group_name_H-M   'P 1'
_cell_length_a   3.94906779
_cell_length_b   3.94944335
_cell_length_c   14.72122416
_cell_angle_alpha   97.72343524
_cell_angle_beta   97.71450984
_cell_angle_gamma   89.99053910
_symmetry_Int_Tables_number   1
_chemical_formula_structural   Ac4Ni3O10
_chemical_formula_sum   'Ac4 Ni3 O10'
_cell_volume   225.42188688
_cell_formula_units_Z   1
loop_
 _symmetry_equiv_pos_site_id
 _symmetry_equiv_pos_as_xyz
  1  'x, y, z'
loop_
 _atom_site_type_symbol
 _atom_site_label
 _atom_site_symmetry_multiplicity
 _atom_site_fract_x
 _atom_site_fract_y
 _atom_site_fract_z
 _atom_site_occupancy
  Ac  Ac0  1  0.301947  0.301932  0.604454  1
  Ac  Ac1  1  0.698106  0.697993  0.395507  1
  Ac  Ac2  1  0.433781  0.433836  0.867171  1
  Ac  Ac3  1  0.566350  0.566351  0.132841  1
  Ni  Ni4  1  0.138378  0.137684  0.276453  1
  Ni  Ni5  1  0.861436  0.861768  0.723398  1
  Ni  Ni6  1  0.999649  0.000160  0.000131  1
  O  O7  1  0.214126  0.214061  0.429798  1
  O  O8  1  0.785955  0.785921  0.570156  1
  O  O9  1  0.861633  0.361730  0.722766  1
  O  O10  1  0.638523  0.138366  0.277166  1
  O  O11  1  0.138438  0.637951  0.277165  1
  O  O12  1  0.361448  0.861587  0.722765  1
  O  O13  1  0.068729  0.068775  0.136511  1
  O  O14  1  0.499894  0.000185  0.000054  1
  O  O15  1  0.931503  0.931504  0.863611  1
  O  O16  1  0.000100  0.500197  0.000054  1
