# generated using pymatgen
data_Pa2B(IrRh2)2
_symmetry_space_group_name_H-M   'P 1'
_cell_length_a   5.87393312
_cell_length_b   5.86111602
_cell_length_c   5.87393262
_cell_angle_alpha   60.07215142
_cell_angle_beta   59.74567777
_cell_angle_gamma   60.07214680
_symmetry_Int_Tables_number   1
_chemical_formula_structural   Pa2B(IrRh2)2
_chemical_formula_sum   'Pa2 B1 Ir2 Rh4'
_cell_volume   142.87378025
_cell_formula_units_Z   1
loop_
 _symmetry_equiv_pos_site_id
 _symmetry_equiv_pos_as_xyz
  1  'x, y, z'
loop_
 _atom_site_type_symbol
 _atom_site_label
 _atom_site_symmetry_multiplicity
 _atom_site_fract_x
 _atom_site_fract_y
 _atom_site_fract_z
 _atom_site_occupancy
  Pa  Pa0  1  0.750045  0.750133  0.749690  1
  Pa  Pa1  1  0.250310  0.249867  0.249955  1
  B  B2  1  0.498765  0.500000  0.501235  1
  Ir  Ir3  1  0.755826  0.755899  0.244174  1
  Ir  Ir4  1  0.755826  0.244101  0.244174  1
  Rh  Rh5  1  0.244172  0.755775  0.244277  1
  Rh  Rh6  1  0.244667  0.244990  0.755333  1
  Rh  Rh7  1  0.755723  0.244225  0.755828  1
  Rh  Rh8  1  0.244667  0.755010  0.755333  1
