# generated using pymatgen
data_Cs2Li2Ta5NbBr18
_symmetry_space_group_name_H-M   'P 1'
_cell_length_a   10.08539645
_cell_length_b   10.12400481
_cell_length_c   10.19186423
_cell_angle_alpha   119.55021210
_cell_angle_beta   105.00263106
_cell_angle_gamma   96.77831230
_symmetry_Int_Tables_number   1
_chemical_formula_structural   Cs2Li2Ta5NbBr18
_chemical_formula_sum   'Cs2 Li2 Ta5 Nb1 Br18'
_cell_volume   836.20142060
_cell_formula_units_Z   1
loop_
 _symmetry_equiv_pos_site_id
 _symmetry_equiv_pos_as_xyz
  1  'x, y, z'
loop_
 _atom_site_type_symbol
 _atom_site_label
 _atom_site_symmetry_multiplicity
 _atom_site_fract_x
 _atom_site_fract_y
 _atom_site_fract_z
 _atom_site_occupancy
  Cs  Cs0  1  0.331678  0.265166  0.476369  1
  Cs  Cs1  1  0.668158  0.734568  0.523476  1
  Li  Li2  1  0.618125  0.045301  0.184792  1
  Li  Li3  1  0.381418  0.954539  0.815276  1
  Ta  Ta4  1  0.129260  0.568887  0.231057  1
  Ta  Ta5  1  0.870806  0.431212  0.768964  1
  Ta  Ta6  1  0.122925  0.354320  0.901555  1
  Ta  Ta7  1  0.867124  0.314800  0.980656  1
  Ta  Ta8  1  0.877164  0.645778  0.098446  1
  Nb  Nb9  1  0.134469  0.687446  0.019612  1
  Br  Br10  1  0.004226  0.645152  0.736247  1
  Br  Br11  1  0.687248  0.595224  0.834641  1
  Br  Br12  1  0.331824  0.954580  0.053783  1
  Br  Br13  1  0.987853  0.089072  0.857627  1
  Br  Br14  1  0.009587  0.765051  0.407260  1
  Br  Br15  1  0.685312  0.332545  0.445607  1
  Br  Br16  1  0.318423  0.550840  0.904913  1
  Br  Br17  1  0.312758  0.404814  0.165354  1
  Br  Br18  1  0.291728  0.156261  0.763988  1
  Br  Br19  1  0.994078  0.353526  0.261766  1
  Br  Br20  1  0.681932  0.447167  0.094142  1
  Br  Br21  1  0.673937  0.181573  0.688088  1
  Br  Br22  1  0.708061  0.843292  0.236016  1
  Br  Br23  1  0.010625  0.911394  0.143206  1
  Br  Br24  1  0.990460  0.235000  0.592754  1
  Br  Br25  1  0.314457  0.667004  0.554321  1
  Br  Br26  1  0.669804  0.047222  0.946453  1
  Br  Br27  1  0.326560  0.818264  0.313631  1
