# generated using pymatgen
data_Cs6LuTlF12
_symmetry_space_group_name_H-M   'P 1'
_cell_length_a   7.03140413
_cell_length_b   6.78332553
_cell_length_c   11.78768400
_cell_angle_alpha   55.26956668
_cell_angle_beta   89.92437324
_cell_angle_gamma   90.02447822
_symmetry_Int_Tables_number   1
_chemical_formula_structural   Cs6LuTlF12
_chemical_formula_sum   'Cs6 Lu1 Tl1 F12'
_cell_volume   462.06223040
_cell_formula_units_Z   1
loop_
 _symmetry_equiv_pos_site_id
 _symmetry_equiv_pos_as_xyz
  1  'x, y, z'
loop_
 _atom_site_type_symbol
 _atom_site_label
 _atom_site_symmetry_multiplicity
 _atom_site_fract_x
 _atom_site_fract_y
 _atom_site_fract_z
 _atom_site_occupancy
  Cs  Cs0  1  0.500000  0.500000  0.000000  1
  Cs  Cs1  1  0.000000  0.500000  0.500000  1
  Cs  Cs2  1  0.048404  0.735901  0.749202  1
  Cs  Cs3  1  0.951596  0.264099  0.250798  1
  Cs  Cs4  1  0.547692  0.267286  0.745289  1
  Cs  Cs5  1  0.452308  0.732714  0.254711  1
  Lu  Lu6  1  0.500000  0.000000  0.500000  1
  Tl  Tl7  1  0.000000  0.000000  0.000000  1
  F  F8  1  0.749017  0.782715  0.559021  1
  F  F9  1  0.250983  0.217285  0.440979  1
  F  F10  1  0.258395  0.224212  0.935850  1
  F  F11  1  0.741605  0.775788  0.064150  1
  F  F12  1  0.455941  0.888224  0.707346  1
  F  F13  1  0.544059  0.111776  0.292654  1
  F  F14  1  0.951816  0.112088  0.786314  1
  F  F15  1  0.048184  0.887912  0.213686  1
  F  F16  1  0.332951  0.704169  0.540715  1
  F  F17  1  0.667049  0.295831  0.459285  1
  F  F18  1  0.830740  0.309085  0.955573  1
  F  F19  1  0.169260  0.690915  0.044427  1
