# generated using pymatgen
data_Tm4Bi3Sb
_symmetry_space_group_name_H-M   'P 1'
_cell_length_a   7.62551627
_cell_length_b   7.62551643
_cell_length_c   7.62551655
_cell_angle_alpha   131.83297079
_cell_angle_beta   131.83297605
_cell_angle_gamma   70.49295938
_symmetry_Int_Tables_number   1
_chemical_formula_structural   Tm4Bi3Sb
_chemical_formula_sum   'Tm4 Bi3 Sb1'
_cell_volume   241.20300354
_cell_formula_units_Z   1
loop_
 _symmetry_equiv_pos_site_id
 _symmetry_equiv_pos_as_xyz
  1  'x, y, z'
loop_
 _atom_site_type_symbol
 _atom_site_label
 _atom_site_symmetry_multiplicity
 _atom_site_fract_x
 _atom_site_fract_y
 _atom_site_fract_z
 _atom_site_occupancy
  Tm  Tm0  1  0.254306  0.254306  0.000000  1
  Tm  Tm1  1  0.745694  0.745694  0.000000  1
  Tm  Tm2  1  0.500000  0.000000  0.500000  1
  Tm  Tm3  1  0.000000  0.500000  0.500000  1
  Bi  Bi4  1  0.000000  0.000000  0.000000  1
  Bi  Bi5  1  0.750000  0.250000  0.500000  1
  Bi  Bi6  1  0.250000  0.750000  0.500000  1
  Sb  Sb7  1  0.500000  0.500000  0.000000  1
