# generated using pymatgen
data_ErTl(Bi3O7)2
_symmetry_space_group_name_H-M   'P 1'
_cell_length_a   6.64815471
_cell_length_b   6.85537352
_cell_length_c   7.84190800
_cell_angle_alpha   106.68834528
_cell_angle_beta   89.39248478
_cell_angle_gamma   99.31733223
_symmetry_Int_Tables_number   1
_chemical_formula_structural   ErTl(Bi3O7)2
_chemical_formula_sum   'Er1 Tl1 Bi6 O14'
_cell_volume   337.58594969
_cell_formula_units_Z   1
loop_
 _symmetry_equiv_pos_site_id
 _symmetry_equiv_pos_as_xyz
  1  'x, y, z'
loop_
 _atom_site_type_symbol
 _atom_site_label
 _atom_site_symmetry_multiplicity
 _atom_site_fract_x
 _atom_site_fract_y
 _atom_site_fract_z
 _atom_site_occupancy
  Er  Er0  1  0.539787  0.995433  0.749297  1
  Tl  Tl1  1  0.468491  0.002655  0.250743  1
  Bi  Bi2  1  0.002295  0.999616  0.500968  1
  Bi  Bi3  1  0.001702  0.000179  0.998999  1
  Bi  Bi4  1  0.261717  0.521752  0.879740  1
  Bi  Bi5  1  0.744545  0.479296  0.118639  1
  Bi  Bi6  1  0.722946  0.460177  0.610786  1
  Bi  Bi7  1  0.272594  0.536398  0.393552  1
  O  O8  1  0.461521  0.663976  0.186287  1
  O  O9  1  0.535380  0.338577  0.816608  1
  O  O10  1  0.298895  0.938585  0.940555  1
  O  O11  1  0.696223  0.060638  0.040113  1
  O  O12  1  0.293256  0.912639  0.520070  1
  O  O13  1  0.703194  0.083768  0.497188  1
  O  O14  1  0.530658  0.345608  0.348773  1
  O  O15  1  0.472019  0.649225  0.646975  1
  O  O16  1  0.916990  0.674056  0.959200  1
  O  O17  1  0.080034  0.328336  0.040687  1
  O  O18  1  0.097769  0.326396  0.624399  1
  O  O19  1  0.905462  0.674239  0.374520  1
  O  O20  1  0.875846  0.933334  0.732963  1
  O  O21  1  0.118677  0.075120  0.268941  1
