# generated using pymatgen
data_Tb20Os7Pt5
_symmetry_space_group_name_H-M   'P 1'
_cell_length_a   10.96866159
_cell_length_b   10.96866224
_cell_length_c   6.47298454
_cell_angle_alpha   90.06077948
_cell_angle_beta   90.06078208
_cell_angle_gamma   89.71493998
_symmetry_Int_Tables_number   1
_chemical_formula_structural   Tb20Os7Pt5
_chemical_formula_sum   'Tb20 Os7 Pt5'
_cell_volume   778.76425465
_cell_formula_units_Z   1
loop_
 _symmetry_equiv_pos_site_id
 _symmetry_equiv_pos_as_xyz
  1  'x, y, z'
loop_
 _atom_site_type_symbol
 _atom_site_label
 _atom_site_symmetry_multiplicity
 _atom_site_fract_x
 _atom_site_fract_y
 _atom_site_fract_z
 _atom_site_occupancy
  Tb  Tb0  1  0.297140  0.089295  0.373644  1
  Tb  Tb1  1  0.297049  0.909492  0.873031  1
  Tb  Tb2  1  0.701750  0.083290  0.872159  1
  Tb  Tb3  1  0.702037  0.909869  0.373646  1
  Tb  Tb4  1  0.582449  0.788974  0.878584  1
  Tb  Tb5  1  0.580845  0.206140  0.372128  1
  Tb  Tb6  1  0.416431  0.791690  0.377063  1
  Tb  Tb7  1  0.412337  0.206788  0.880320  1
  Tb  Tb8  1  0.211026  0.417551  0.621416  1
  Tb  Tb9  1  0.208310  0.583569  0.122937  1
  Tb  Tb10  1  0.793860  0.419155  0.127872  1
  Tb  Tb11  1  0.793212  0.587663  0.619680  1
  Tb  Tb12  1  0.910705  0.702860  0.126356  1
  Tb  Tb13  1  0.916710  0.298250  0.627841  1
  Tb  Tb14  1  0.090508  0.702951  0.626969  1
  Tb  Tb15  1  0.090131  0.297963  0.126354  1
  Tb  Tb16  1  0.999688  0.999861  0.499452  1
  Tb  Tb17  1  0.000139  0.000312  0.000548  1
  Tb  Tb18  1  0.497296  0.501375  0.002286  1
  Tb  Tb19  1  0.498625  0.502704  0.497714  1
  Os  Os20  1  0.653776  0.651731  0.248986  1
  Os  Os21  1  0.348269  0.346224  0.251014  1
  Os  Os22  1  0.345638  0.654362  0.750000  1
  Os  Os23  1  0.499912  0.000512  0.121300  1
  Os  Os24  1  0.500000  0.000426  0.623483  1
  Os  Os25  1  0.999574  0.500000  0.876517  1
  Os  Os26  1  0.999488  0.500088  0.378700  1
  Pt  Pt27  1  0.848126  0.151874  0.250000  1
  Pt  Pt28  1  0.849669  0.850473  0.750102  1
  Pt  Pt29  1  0.149527  0.150331  0.749898  1
  Pt  Pt30  1  0.150544  0.849456  0.250000  1
  Pt  Pt31  1  0.655226  0.344774  0.750000  1
