# generated using pymatgen
data_LiLa2(TbSi2)2
_symmetry_space_group_name_H-M   'P 1'
_cell_length_a   7.87118600
_cell_length_b   7.87118600
_cell_length_c   14.04458500
_cell_angle_alpha   90.00000000
_cell_angle_beta   90.00000000
_cell_angle_gamma   90.00000000
_symmetry_Int_Tables_number   1
_chemical_formula_structural   LiLa2(TbSi2)2
_chemical_formula_sum   'Li4 La8 Tb8 Si16'
_cell_volume   870.14025570
_cell_formula_units_Z   4
loop_
 _symmetry_equiv_pos_site_id
 _symmetry_equiv_pos_as_xyz
  1  'x, y, z'
loop_
 _atom_site_type_symbol
 _atom_site_label
 _atom_site_symmetry_multiplicity
 _atom_site_fract_x
 _atom_site_fract_y
 _atom_site_fract_z
 _atom_site_occupancy
  Li  Li0  1  0.687103  0.687103  0.500000  1
  Li  Li1  1  0.812897  0.187103  0.750000  1
  Li  Li2  1  0.187103  0.812897  0.250000  1
  Li  Li3  1  0.312897  0.312897  0.000000  1
  La  La4  1  0.998745  0.632409  0.041914  1
  La  La5  1  0.001255  0.367591  0.541914  1
  La  La6  1  0.632409  0.998745  0.958086  1
  La  La7  1  0.132409  0.501255  0.791914  1
  La  La8  1  0.867591  0.498745  0.291914  1
  La  La9  1  0.501255  0.132409  0.208086  1
  La  La10  1  0.498745  0.867591  0.708086  1
  La  La11  1  0.367591  0.001255  0.458086  1
  Tb  Tb12  1  0.370411  0.504708  0.375273  1
  Tb  Tb13  1  0.870411  0.995292  0.374727  1
  Tb  Tb14  1  0.004708  0.129589  0.125273  1
  Tb  Tb15  1  0.995292  0.870411  0.625273  1
  Tb  Tb16  1  0.629589  0.495292  0.875273  1
  Tb  Tb17  1  0.504708  0.370411  0.624727  1
  Tb  Tb18  1  0.495292  0.629589  0.124727  1
  Tb  Tb19  1  0.129589  0.004708  0.874727  1
  Si  Si20  1  0.082627  0.713594  0.440582  1
  Si  Si21  1  0.917373  0.286406  0.940582  1
  Si  Si22  1  0.713594  0.082627  0.559418  1
  Si  Si23  1  0.213595  0.417373  0.190582  1
  Si  Si24  1  0.786406  0.582627  0.690582  1
  Si  Si25  1  0.417373  0.213595  0.809418  1
  Si  Si26  1  0.582627  0.786406  0.309418  1
  Si  Si27  1  0.286406  0.917373  0.059418  1
  Si  Si28  1  0.847659  0.784988  0.816082  1
  Si  Si29  1  0.152341  0.215012  0.316082  1
  Si  Si30  1  0.784988  0.847659  0.183918  1
  Si  Si31  1  0.284988  0.652341  0.566082  1
  Si  Si32  1  0.715012  0.347659  0.066082  1
  Si  Si33  1  0.652341  0.284988  0.433918  1
  Si  Si34  1  0.347659  0.715012  0.933918  1
  Si  Si35  1  0.215012  0.152341  0.683918  1
