# generated using pymatgen
data_Ti6TcSn6Ru11
_symmetry_space_group_name_H-M   'P 1'
_cell_length_a   4.46345302
_cell_length_b   6.29770206
_cell_length_c   13.39510808
_cell_angle_alpha   89.98797466
_cell_angle_beta   89.99910520
_cell_angle_gamma   89.98854101
_symmetry_Int_Tables_number   1
_chemical_formula_structural   Ti6TcSn6Ru11
_chemical_formula_sum   'Ti6 Tc1 Sn6 Ru11'
_cell_volume   376.52973867
_cell_formula_units_Z   1
loop_
 _symmetry_equiv_pos_site_id
 _symmetry_equiv_pos_as_xyz
  1  'x, y, z'
loop_
 _atom_site_type_symbol
 _atom_site_label
 _atom_site_symmetry_multiplicity
 _atom_site_fract_x
 _atom_site_fract_y
 _atom_site_fract_z
 _atom_site_occupancy
  Ti  Ti0  1  0.999963  0.003340  0.000007  1
  Ti  Ti1  1  0.499890  0.498074  0.165051  1
  Ti  Ti2  1  0.999925  0.999948  0.333004  1
  Ti  Ti3  1  0.500155  0.500124  0.499979  1
  Ti  Ti4  1  0.000096  0.000032  0.667013  1
  Ti  Ti5  1  0.499941  0.498162  0.834964  1
  Tc  Tc6  1  0.500057  0.250458  0.999998  1
  Sn  Sn7  1  0.999795  0.500736  0.000056  1
  Sn  Sn8  1  0.499939  0.999606  0.166635  1
  Sn  Sn9  1  0.000030  0.499973  0.333632  1
  Sn  Sn10  1  0.500064  0.000005  0.499975  1
  Sn  Sn11  1  0.000143  0.500105  0.666364  1
  Sn  Sn12  1  0.499937  0.999602  0.833348  1
  Ru  Ru13  1  0.499761  0.748514  0.999986  1
  Ru  Ru14  1  0.999850  0.250001  0.168168  1
  Ru  Ru15  1  0.999954  0.750138  0.167976  1
  Ru  Ru16  1  0.500073  0.249710  0.334426  1
  Ru  Ru17  1  0.499882  0.750675  0.334203  1
  Ru  Ru18  1  0.000102  0.250098  0.500017  1
  Ru  Ru19  1  0.000238  0.749904  0.499967  1
  Ru  Ru20  1  0.500227  0.249749  0.665539  1
  Ru  Ru21  1  0.500071  0.750738  0.665752  1
  Ru  Ru22  1  0.999859  0.250126  0.831873  1
  Ru  Ru23  1  0.000045  0.750181  0.832064  1
