# generated using pymatgen
data_Ti8Co3Tc4Os
_symmetry_space_group_name_H-M   'P 1'
_cell_length_a   6.10072700
_cell_length_b   4.32406500
_cell_length_c   8.64641700
_cell_angle_alpha   90.00000000
_cell_angle_beta   89.99990666
_cell_angle_gamma   90.00000000
_symmetry_Int_Tables_number   1
_chemical_formula_structural   Ti8Co3Tc4Os
_chemical_formula_sum   'Ti8 Co3 Tc4 Os1'
_cell_volume   228.09196250
_cell_formula_units_Z   1
loop_
 _symmetry_equiv_pos_site_id
 _symmetry_equiv_pos_as_xyz
  1  'x, y, z'
loop_
 _atom_site_type_symbol
 _atom_site_label
 _atom_site_symmetry_multiplicity
 _atom_site_fract_x
 _atom_site_fract_y
 _atom_site_fract_z
 _atom_site_occupancy
  Ti  Ti0  1  0.498490  0.749999  0.124985  1
  Ti  Ti1  1  0.001496  0.749999  0.124988  1
  Ti  Ti2  1  0.498971  0.250000  0.376363  1
  Ti  Ti3  1  0.001020  0.250000  0.376364  1
  Ti  Ti4  1  0.999509  0.749999  0.625012  1
  Ti  Ti5  1  0.500497  0.749999  0.625015  1
  Ti  Ti6  1  0.001049  0.250000  0.873637  1
  Ti  Ti7  1  0.498964  0.250000  0.873637  1
  Co  Co8  1  0.249997  0.749999  0.376194  1
  Co  Co9  1  0.750001  0.250000  0.624998  1
  Co  Co10  1  0.250007  0.749999  0.873812  1
  Tc  Tc11  1  0.249997  0.250000  0.124989  1
  Tc  Tc12  1  0.749990  0.749999  0.379351  1
  Tc  Tc13  1  0.250010  0.250000  0.625010  1
  Tc  Tc14  1  0.750001  0.749999  0.870650  1
  Os  Os15  1  0.749999  0.250000  0.124994  1
