# generated using pymatgen
data_YbLu3AlGa17Ir6
_symmetry_space_group_name_H-M   'P 1'
_cell_length_a   7.54667947
_cell_length_b   7.54894921
_cell_length_c   9.47058203
_cell_angle_alpha   89.98535919
_cell_angle_beta   89.98435037
_cell_angle_gamma   119.79039576
_symmetry_Int_Tables_number   1
_chemical_formula_structural   YbLu3AlGa17Ir6
_chemical_formula_sum   'Yb1 Lu3 Al1 Ga17 Ir6'
_cell_volume   468.23412102
_cell_formula_units_Z   1
loop_
 _symmetry_equiv_pos_site_id
 _symmetry_equiv_pos_as_xyz
  1  'x, y, z'
loop_
 _atom_site_type_symbol
 _atom_site_label
 _atom_site_symmetry_multiplicity
 _atom_site_fract_x
 _atom_site_fract_y
 _atom_site_fract_z
 _atom_site_occupancy
  Yb  Yb0  1  0.998738  0.668643  0.249924  1
  Lu  Lu1  1  0.001069  0.329821  0.749532  1
  Lu  Lu2  1  0.668710  0.999577  0.249972  1
  Lu  Lu3  1  0.329182  0.000827  0.749547  1
  Al  Al4  1  0.336235  0.336145  0.949153  1
  Ga  Ga5  1  0.126310  0.126627  0.248940  1
  Ga  Ga6  1  0.871771  0.871755  0.748986  1
  Ga  Ga7  1  0.998321  0.335008  0.080643  1
  Ga  Ga8  1  0.000093  0.664101  0.917638  1
  Ga  Ga9  1  0.999821  0.663814  0.582183  1
  Ga  Ga10  1  0.334148  0.998941  0.417885  1
  Ga  Ga11  1  0.999509  0.335143  0.417669  1
  Ga  Ga12  1  0.664070  0.000192  0.582393  1
  Ga  Ga13  1  0.664330  0.000473  0.917441  1
  Ga  Ga14  1  0.334385  0.997907  0.080416  1
  Ga  Ga15  1  0.331106  0.331036  0.565394  1
  Ga  Ga16  1  0.669485  0.668897  0.433533  1
  Ga  Ga17  1  0.673696  0.673277  0.066524  1
  Ga  Ga18  1  0.339987  0.548657  0.249636  1
  Ga  Ga19  1  0.656025  0.450102  0.750197  1
  Ga  Ga20  1  0.548291  0.339354  0.249652  1
  Ga  Ga21  1  0.449929  0.655799  0.750170  1
  Ir  Ir22  1  0.669137  0.327740  0.998633  1
  Ir  Ir23  1  0.328528  0.669369  0.998373  1
  Ir  Ir24  1  0.328821  0.671724  0.500204  1
  Ir  Ir25  1  0.671409  0.327910  0.499983  1
  Ir  Ir26  1  0.006301  0.006364  0.995458  1
  Ir  Ir27  1  0.000587  0.000794  0.499919  1
