# generated using pymatgen
data_ErZr(Al3Ni)6
_symmetry_space_group_name_H-M   'P 1'
_cell_length_a   10.01679848
_cell_length_b   10.01679846
_cell_length_c   10.01679867
_cell_angle_alpha   42.39315998
_cell_angle_beta   42.39316271
_cell_angle_gamma   42.39316061
_symmetry_Int_Tables_number   1
_chemical_formula_structural   ErZr(Al3Ni)6
_chemical_formula_sum   'Er1 Zr1 Al18 Ni6'
_cell_volume   413.58835227
_cell_formula_units_Z   1
loop_
 _symmetry_equiv_pos_site_id
 _symmetry_equiv_pos_as_xyz
  1  'x, y, z'
loop_
 _atom_site_type_symbol
 _atom_site_label
 _atom_site_symmetry_multiplicity
 _atom_site_fract_x
 _atom_site_fract_y
 _atom_site_fract_z
 _atom_site_occupancy
  Er  Er0  1  0.833004  0.833004  0.833004  1
  Zr  Zr1  1  0.167049  0.167049  0.167049  1
  Al  Al2  1  0.103649  0.431920  0.766263  1
  Al  Al3  1  0.431920  0.766263  0.103649  1
  Al  Al4  1  0.564575  0.897875  0.235510  1
  Al  Al5  1  0.947560  0.947560  0.947560  1
  Al  Al6  1  0.052585  0.052585  0.052585  1
  Al  Al7  1  0.291885  0.715050  0.493121  1
  Al  Al8  1  0.897875  0.235510  0.564575  1
  Al  Al9  1  0.387679  0.387679  0.387679  1
  Al  Al10  1  0.493121  0.291885  0.715050  1
  Al  Al11  1  0.235510  0.564575  0.897875  1
  Al  Al12  1  0.718347  0.718347  0.718347  1
  Al  Al13  1  0.612596  0.612596  0.612596  1
  Al  Al14  1  0.333304  0.000693  0.666049  1
  Al  Al15  1  0.715050  0.493121  0.291885  1
  Al  Al16  1  0.666049  0.333304  0.000693  1
  Al  Al17  1  0.281121  0.281121  0.281121  1
  Al  Al18  1  0.000693  0.666049  0.333304  1
  Al  Al19  1  0.766263  0.103649  0.431920  1
  Ni  Ni20  1  0.419124  0.078262  0.758889  1
  Ni  Ni21  1  0.581441  0.240922  0.921527  1
  Ni  Ni22  1  0.078262  0.758889  0.419124  1
  Ni  Ni23  1  0.758889  0.419124  0.078262  1
  Ni  Ni24  1  0.921527  0.581441  0.240922  1
  Ni  Ni25  1  0.240922  0.921527  0.581441  1
