# generated using pymatgen
data_KCd11
_symmetry_space_group_name_H-M   'P 1'
_cell_length_a   9.53018853
_cell_length_b   9.53018862
_cell_length_c   9.53018914
_cell_angle_alpha   99.96480058
_cell_angle_beta   99.96479850
_cell_angle_gamma   130.83733300
_symmetry_Int_Tables_number   1
_chemical_formula_structural   KCd11
_chemical_formula_sum   'K2 Cd22'
_cell_volume   595.51755808
_cell_formula_units_Z   2
loop_
 _symmetry_equiv_pos_site_id
 _symmetry_equiv_pos_as_xyz
  1  'x, y, z'
loop_
 _atom_site_type_symbol
 _atom_site_label
 _atom_site_symmetry_multiplicity
 _atom_site_fract_x
 _atom_site_fract_y
 _atom_site_fract_z
 _atom_site_occupancy
  K  K0  1  0.000000  0.000000  0.000000  1
  K  K1  1  0.250000  0.750000  0.500000  1
  Cd  Cd2  1  0.067855  0.653462  0.826475  1
  Cd  Cd3  1  0.826987  0.241380  0.173525  1
  Cd  Cd4  1  0.750000  0.250000  0.500000  1
  Cd  Cd5  1  0.500000  0.500000  0.000000  1
  Cd  Cd6  1  0.625000  0.375000  0.750000  1
  Cd  Cd7  1  0.625000  0.375000  0.250000  1
  Cd  Cd8  1  0.125000  0.375000  0.750000  1
  Cd  Cd9  1  0.625000  0.875000  0.250000  1
  Cd  Cd10  1  0.826987  0.653462  0.585606  1
  Cd  Cd11  1  0.903462  0.817855  0.326475  1
  Cd  Cd12  1  0.491380  0.576987  0.673525  1
  Cd  Cd13  1  0.067855  0.241380  0.414394  1
  Cd  Cd14  1  0.758620  0.932145  0.585606  1
  Cd  Cd15  1  0.346538  0.173013  0.414394  1
  Cd  Cd16  1  0.423013  0.508620  0.326475  1
  Cd  Cd17  1  0.182145  0.096538  0.673525  1
  Cd  Cd18  1  0.423013  0.096538  0.914394  1
  Cd  Cd19  1  0.346538  0.932145  0.173525  1
  Cd  Cd20  1  0.758620  0.173013  0.826475  1
  Cd  Cd21  1  0.182145  0.508620  0.085606  1
  Cd  Cd22  1  0.491380  0.817855  0.914394  1
  Cd  Cd23  1  0.903462  0.576987  0.085606  1
