# generated using pymatgen
data_TaNb5N3
_symmetry_space_group_name_H-M   'P 1'
_cell_length_a   5.32477888
_cell_length_b   5.32477884
_cell_length_c   5.01680307
_cell_angle_alpha   90.13309776
_cell_angle_beta   90.13309850
_cell_angle_gamma   119.94360336
_symmetry_Int_Tables_number   1
_chemical_formula_structural   TaNb5N3
_chemical_formula_sum   'Ta1 Nb5 N3'
_cell_volume   123.25447114
_cell_formula_units_Z   1
loop_
 _symmetry_equiv_pos_site_id
 _symmetry_equiv_pos_as_xyz
  1  'x, y, z'
loop_
 _atom_site_type_symbol
 _atom_site_label
 _atom_site_symmetry_multiplicity
 _atom_site_fract_x
 _atom_site_fract_y
 _atom_site_fract_z
 _atom_site_occupancy
  Ta  Ta0  1  0.666199  0.666199  0.751122  1
  Nb  Nb1  1  0.000294  0.334198  0.751839  1
  Nb  Nb2  1  0.334198  0.000294  0.751839  1
  Nb  Nb3  1  0.334105  0.334105  0.245365  1
  Nb  Nb4  1  0.000625  0.666081  0.248989  1
  Nb  Nb5  1  0.666081  0.000625  0.248989  1
  N  N6  1  0.665869  0.335971  0.501652  1
  N  N7  1  0.335971  0.665869  0.501652  1
  N  N8  1  0.996658  0.996658  0.998553  1
