# generated using pymatgen
data_Pr10Ir2OsRu
_symmetry_space_group_name_H-M   'P 1'
_cell_length_a   9.06372668
_cell_length_b   9.06543225
_cell_length_c   7.44323975
_cell_angle_alpha   83.66232402
_cell_angle_beta   83.70603541
_cell_angle_gamma   43.34940685
_symmetry_Int_Tables_number   1
_chemical_formula_structural   Pr10Ir2OsRu
_chemical_formula_sum   'Pr10 Ir2 Os1 Ru1'
_cell_volume   416.86817874
_cell_formula_units_Z   1
loop_
 _symmetry_equiv_pos_site_id
 _symmetry_equiv_pos_as_xyz
  1  'x, y, z'
loop_
 _atom_site_type_symbol
 _atom_site_label
 _atom_site_symmetry_multiplicity
 _atom_site_fract_x
 _atom_site_fract_y
 _atom_site_fract_z
 _atom_site_occupancy
  Pr  Pr0  1  0.012861  0.801545  0.917399  1
  Pr  Pr1  1  0.199405  0.985982  0.582367  1
  Pr  Pr2  1  0.982546  0.202252  0.085294  1
  Pr  Pr3  1  0.797781  0.018193  0.414105  1
  Pr  Pr4  1  0.359261  0.209424  0.816379  1
  Pr  Pr5  1  0.790720  0.641141  0.683833  1
  Pr  Pr6  1  0.645609  0.788113  0.185734  1
  Pr  Pr7  1  0.209136  0.355665  0.314997  1
  Pr  Pr8  1  0.569818  0.430494  0.749257  1
  Pr  Pr9  1  0.430209  0.570318  0.250430  1
  Ir  Ir10  1  0.178289  0.596928  0.575811  1
  Ir  Ir11  1  0.403188  0.821407  0.924771  1
  Os  Os12  1  0.821375  0.401842  0.426507  1
  Ru  Ru13  1  0.599804  0.176695  0.073117  1
