# generated using pymatgen
data_TmLu3PdPt3O14
_symmetry_space_group_name_H-M   'P 1'
_cell_length_a   7.18487320
_cell_length_b   7.18208312
_cell_length_c   7.17685200
_cell_angle_alpha   60.02409093
_cell_angle_beta   60.03692336
_cell_angle_gamma   60.06229570
_symmetry_Int_Tables_number   1
_chemical_formula_structural   TmLu3PdPt3O14
_chemical_formula_sum   'Tm1 Lu3 Pd1 Pt3 O14'
_cell_volume   262.11559426
_cell_formula_units_Z   1
loop_
 _symmetry_equiv_pos_site_id
 _symmetry_equiv_pos_as_xyz
  1  'x, y, z'
loop_
 _atom_site_type_symbol
 _atom_site_label
 _atom_site_symmetry_multiplicity
 _atom_site_fract_x
 _atom_site_fract_y
 _atom_site_fract_z
 _atom_site_occupancy
  Tm  Tm0  1  0.625000  0.125000  0.625000  1
  Lu  Lu1  1  0.625000  0.625000  0.125000  1
  Lu  Lu2  1  0.625000  0.625000  0.625000  1
  Lu  Lu3  1  0.125000  0.625000  0.625000  1
  Pd  Pd4  1  0.625000  0.125000  0.125000  1
  Pt  Pt5  1  0.125000  0.125000  0.125000  1
  Pt  Pt6  1  0.125000  0.125000  0.625000  1
  Pt  Pt7  1  0.125000  0.625000  0.125000  1
  O  O8  1  0.030255  0.469955  0.469943  1
  O  O9  1  0.781487  0.779598  0.219457  1
  O  O10  1  0.781798  0.219764  0.218511  1
  O  O11  1  0.468202  0.030236  0.470073  1
  O  O12  1  0.750861  0.747725  0.750706  1
  O  O13  1  0.030255  0.469955  0.029846  1
  O  O14  1  0.031217  0.029505  0.469639  1
  O  O15  1  0.219745  0.780045  0.220154  1
  O  O16  1  0.218783  0.220495  0.780361  1
  O  O17  1  0.781798  0.219764  0.779927  1
  O  O18  1  0.499139  0.502275  0.499294  1
  O  O19  1  0.468202  0.030236  0.031489  1
  O  O20  1  0.468513  0.470402  0.030543  1
  O  O21  1  0.219745  0.780045  0.780057  1
