# generated using pymatgen
data_TbTh3(B10Rh)2
_symmetry_space_group_name_H-M   'P 1'
_cell_length_a   4.19140500
_cell_length_b   5.72070010
_cell_length_c   11.42616720
_cell_angle_alpha   90.02163789
_cell_angle_beta   90.00000000
_cell_angle_gamma   90.00000000
_symmetry_Int_Tables_number   1
_chemical_formula_structural   TbTh3(B10Rh)2
_chemical_formula_sum   'Tb1 Th3 B20 Rh2'
_cell_volume   273.97400121
_cell_formula_units_Z   1
loop_
 _symmetry_equiv_pos_site_id
 _symmetry_equiv_pos_as_xyz
  1  'x, y, z'
loop_
 _atom_site_type_symbol
 _atom_site_label
 _atom_site_symmetry_multiplicity
 _atom_site_fract_x
 _atom_site_fract_y
 _atom_site_fract_z
 _atom_site_occupancy
  Tb  Tb0  1  0.500000  0.698914  0.137879  1
  Th  Th1  1  0.500000  0.202157  0.362840  1
  Th  Th2  1  0.500000  0.797697  0.636750  1
  Th  Th3  1  0.500000  0.296165  0.864964  1
  B  B4  1  0.000000  0.382349  0.043326  1
  B  B5  1  0.000000  0.618583  0.957582  1
  B  B6  1  0.000000  0.117609  0.542817  1
  B  B7  1  0.000000  0.881602  0.456331  1
  B  B8  1  0.000000  0.362700  0.197585  1
  B  B9  1  0.000000  0.636025  0.803334  1
  B  B10  1  0.000000  0.136292  0.697768  1
  B  B11  1  0.000000  0.863606  0.301678  1
  B  B12  1  0.000000  0.054595  0.192054  1
  B  B13  1  0.000000  0.945360  0.807718  1
  B  B14  1  0.000000  0.445283  0.693255  1
  B  B15  1  0.000000  0.554243  0.306853  1
  B  B16  1  0.301851  0.221341  0.118373  1
  B  B17  1  0.698720  0.782513  0.881720  1
  B  B18  1  0.301280  0.782513  0.881720  1
  B  B19  1  0.698257  0.281833  0.618993  1
  B  B20  1  0.698149  0.221341  0.118373  1
  B  B21  1  0.302010  0.718106  0.379232  1
  B  B22  1  0.697990  0.718106  0.379232  1
  B  B23  1  0.301743  0.281833  0.618993  1
  Rh  Rh24  1  0.000000  0.999334  0.001084  1
  Rh  Rh25  1  0.000000  0.499902  0.499548  1
