# generated using pymatgen
data_Y3Ho7In8PdRh3
_symmetry_space_group_name_H-M   'P 1'
_cell_length_a   3.62182600
_cell_length_b   8.07308560
_cell_length_c   18.26171647
_cell_angle_alpha   89.90902767
_cell_angle_beta   90.00000000
_cell_angle_gamma   90.00000000
_symmetry_Int_Tables_number   1
_chemical_formula_structural   Y3Ho7In8PdRh3
_chemical_formula_sum   'Y3 Ho7 In8 Pd1 Rh3'
_cell_volume   533.95934020
_cell_formula_units_Z   1
loop_
 _symmetry_equiv_pos_site_id
 _symmetry_equiv_pos_as_xyz
  1  'x, y, z'
loop_
 _atom_site_type_symbol
 _atom_site_label
 _atom_site_symmetry_multiplicity
 _atom_site_fract_x
 _atom_site_fract_y
 _atom_site_fract_z
 _atom_site_occupancy
  Y  Y0  1  0.000000  0.500196  0.500683  1
  Y  Y1  1  0.000000  0.000716  0.999913  1
  Y  Y2  1  0.000000  0.734246  0.278387  1
  Ho  Ho3  1  0.000000  0.254398  0.721965  1
  Ho  Ho4  1  0.000000  0.754317  0.777947  1
  Ho  Ho5  1  0.000000  0.255117  0.219526  1
  Ho  Ho6  1  0.000000  0.616290  0.086909  1
  Ho  Ho7  1  0.000000  0.384516  0.910455  1
  Ho  Ho8  1  0.000000  0.883701  0.589709  1
  Ho  Ho9  1  0.000000  0.117361  0.414985  1
  In  In10  1  0.500000  0.706736  0.931266  1
  In  In11  1  0.500000  0.294719  0.067727  1
  In  In12  1  0.500000  0.793289  0.432833  1
  In  In13  1  0.500000  0.205756  0.568884  1
  In  In14  1  0.500000  0.570899  0.650332  1
  In  In15  1  0.500000  0.424392  0.350178  1
  In  In16  1  0.500000  0.925154  0.150033  1
  In  In17  1  0.500000  0.071156  0.849952  1
  Pd  Pd18  1  0.500000  0.025463  0.304195  1
  Rh  Rh19  1  0.500000  0.521196  0.194065  1
  Rh  Rh20  1  0.500000  0.480352  0.804746  1
  Rh  Rh21  1  0.500000  0.980033  0.695311  1
