# generated using pymatgen
data_Pr16MgInAg2Ir3Pt
_symmetry_space_group_name_H-M   'P 1'
_cell_length_a   9.94009765
_cell_length_b   9.99223456
_cell_length_c   9.99223400
_cell_angle_alpha   60.57720156
_cell_angle_beta   60.44352751
_cell_angle_gamma   60.44352603
_symmetry_Int_Tables_number   1
_chemical_formula_structural   Pr16MgInAg2Ir3Pt
_chemical_formula_sum   'Pr16 Mg1 In1 Ag2 Ir3 Pt1'
_cell_volume   709.51897252
_cell_formula_units_Z   1
loop_
 _symmetry_equiv_pos_site_id
 _symmetry_equiv_pos_as_xyz
  1  'x, y, z'
loop_
 _atom_site_type_symbol
 _atom_site_label
 _atom_site_symmetry_multiplicity
 _atom_site_fract_x
 _atom_site_fract_y
 _atom_site_fract_z
 _atom_site_occupancy
  Pr  Pr0  1  0.347629  0.346886  0.346886  1
  Pr  Pr1  1  0.350357  0.350155  0.952546  1
  Pr  Pr2  1  0.350357  0.952546  0.350155  1
  Pr  Pr3  1  0.941859  0.353532  0.353532  1
  Pr  Pr4  1  0.804296  0.191445  0.191445  1
  Pr  Pr5  1  0.188483  0.811116  0.811116  1
  Pr  Pr6  1  0.188307  0.807477  0.189267  1
  Pr  Pr7  1  0.807282  0.191988  0.808567  1
  Pr  Pr8  1  0.188307  0.189267  0.807477  1
  Pr  Pr9  1  0.807282  0.808567  0.191988  1
  Pr  Pr10  1  0.939992  0.562482  0.562482  1
  Pr  Pr11  1  0.563215  0.938301  0.938301  1
  Pr  Pr12  1  0.561774  0.941810  0.563441  1
  Pr  Pr13  1  0.937298  0.564420  0.937862  1
  Pr  Pr14  1  0.561774  0.563441  0.941810  1
  Pr  Pr15  1  0.937298  0.937862  0.564420  1
  Mg  Mg16  1  0.292955  0.568300  0.568300  1
  In  In17  1  0.580744  0.583398  0.583398  1
  Ag  Ag18  1  0.580082  0.584948  0.251537  1
  Ag  Ag19  1  0.580082  0.251537  0.584948  1
  Ir  Ir20  1  0.139216  0.142917  0.572414  1
  Ir  Ir21  1  0.139216  0.572414  0.142917  1
  Ir  Ir22  1  0.572203  0.141254  0.141254  1
  Pt  Pt23  1  0.139987  0.143939  0.143939  1
