# generated using pymatgen
data_Zr9CoCuP4
_symmetry_space_group_name_H-M   'P 1'
_cell_length_a   12.12031400
_cell_length_b   12.08801500
_cell_length_c   3.69760300
_cell_angle_alpha   90.00000000
_cell_angle_beta   90.00000000
_cell_angle_gamma   90.00000000
_symmetry_Int_Tables_number   1
_chemical_formula_structural   Zr9CoCuP4
_chemical_formula_sum   'Zr18 Co2 Cu2 P8'
_cell_volume   541.73780276
_cell_formula_units_Z   2
loop_
 _symmetry_equiv_pos_site_id
 _symmetry_equiv_pos_as_xyz
  1  'x, y, z'
loop_
 _atom_site_type_symbol
 _atom_site_label
 _atom_site_symmetry_multiplicity
 _atom_site_fract_x
 _atom_site_fract_y
 _atom_site_fract_z
 _atom_site_occupancy
  Zr  Zr0  1  0.000385  0.999225  0.000000  1
  Zr  Zr1  1  0.499615  0.499225  0.000000  1
  Zr  Zr2  1  0.098709  0.180978  0.500000  1
  Zr  Zr3  1  0.180053  0.899772  0.500000  1
  Zr  Zr4  1  0.819732  0.106038  0.500000  1
  Zr  Zr5  1  0.893883  0.819346  0.500000  1
  Zr  Zr6  1  0.401291  0.680978  0.500000  1
  Zr  Zr7  1  0.606117  0.319346  0.500000  1
  Zr  Zr8  1  0.680268  0.606038  0.500000  1
  Zr  Zr9  1  0.319947  0.399772  0.500000  1
  Zr  Zr10  1  0.094034  0.404554  0.000000  1
  Zr  Zr11  1  0.405966  0.904554  0.000000  1
  Zr  Zr12  1  0.597954  0.097641  0.000000  1
  Zr  Zr13  1  0.902046  0.597641  0.000000  1
  Zr  Zr14  1  0.382530  0.118261  0.500000  1
  Zr  Zr15  1  0.117470  0.618261  0.500000  1
  Zr  Zr16  1  0.879237  0.380074  0.500000  1
  Zr  Zr17  1  0.620763  0.880074  0.500000  1
  Co  Co18  1  0.752127  0.250689  0.000000  1
  Co  Co19  1  0.747873  0.750689  0.000000  1
  Cu  Cu20  1  0.255197  0.244584  0.000000  1
  Cu  Cu21  1  0.244803  0.744584  0.000000  1
  P  P22  1  0.224606  0.054312  0.000000  1
  P  P23  1  0.054316  0.775396  0.000000  1
  P  P24  1  0.943770  0.225434  0.000000  1
  P  P25  1  0.774750  0.943695  0.000000  1
  P  P26  1  0.275394  0.554312  0.000000  1
  P  P27  1  0.725250  0.443695  0.000000  1
  P  P28  1  0.556230  0.725434  0.000000  1
  P  P29  1  0.445684  0.275396  0.000000  1
