# generated using pymatgen
data_Tb3MnVC6
_symmetry_space_group_name_H-M   'P 1'
_cell_length_a   8.18412600
_cell_length_b   8.18412598
_cell_length_c   4.98421300
_cell_angle_alpha   90.00000000
_cell_angle_beta   90.00000000
_cell_angle_gamma   120.00000008
_symmetry_Int_Tables_number   1
_chemical_formula_structural   Tb3MnVC6
_chemical_formula_sum   'Tb6 Mn2 V2 C12'
_cell_volume   289.11580772
_cell_formula_units_Z   2
loop_
 _symmetry_equiv_pos_site_id
 _symmetry_equiv_pos_as_xyz
  1  'x, y, z'
loop_
 _atom_site_type_symbol
 _atom_site_label
 _atom_site_symmetry_multiplicity
 _atom_site_fract_x
 _atom_site_fract_y
 _atom_site_fract_z
 _atom_site_occupancy
  Tb  Tb0  1  0.621251  0.682278  0.750000  1
  Tb  Tb1  1  0.938973  0.621251  0.250000  1
  Tb  Tb2  1  0.682278  0.061027  0.250000  1
  Tb  Tb3  1  0.317722  0.938973  0.750000  1
  Tb  Tb4  1  0.061027  0.378749  0.750000  1
  Tb  Tb5  1  0.378749  0.317722  0.250000  1
  Mn  Mn6  1  0.666667  0.333333  0.750000  1
  Mn  Mn7  1  0.333333  0.666667  0.250000  1
  V  V8  1  0.000000  0.000000  0.500000  1
  V  V9  1  0.000000  0.000000  0.000000  1
  C  C10  1  0.961262  0.766595  0.750000  1
  C  C11  1  0.194668  0.961262  0.250000  1
  C  C12  1  0.766595  0.805332  0.250000  1
  C  C13  1  0.233405  0.194668  0.750000  1
  C  C14  1  0.805332  0.038738  0.750000  1
  C  C15  1  0.038738  0.233405  0.250000  1
  C  C16  1  0.863319  0.573067  0.750000  1
  C  C17  1  0.290252  0.863319  0.250000  1
  C  C18  1  0.573067  0.709748  0.250000  1
  C  C19  1  0.426933  0.290252  0.750000  1
  C  C20  1  0.136681  0.426933  0.250000  1
  C  C21  1  0.709748  0.136681  0.750000  1
