# generated using pymatgen
data_Tb4GeAsS2
_symmetry_space_group_name_H-M   'P 1'
_cell_length_a   7.04238450
_cell_length_b   7.04238547
_cell_length_c   7.04238506
_cell_angle_alpha   132.02890083
_cell_angle_beta   132.02891325
_cell_angle_gamma   70.18337791
_symmetry_Int_Tables_number   1
_chemical_formula_structural   Tb4GeAsS2
_chemical_formula_sum   'Tb4 Ge1 As1 S2'
_cell_volume   188.89942557
_cell_formula_units_Z   1
loop_
 _symmetry_equiv_pos_site_id
 _symmetry_equiv_pos_as_xyz
  1  'x, y, z'
loop_
 _atom_site_type_symbol
 _atom_site_label
 _atom_site_symmetry_multiplicity
 _atom_site_fract_x
 _atom_site_fract_y
 _atom_site_fract_z
 _atom_site_occupancy
  Tb  Tb0  1  0.750892  0.750892  0.000000  1
  Tb  Tb1  1  0.249109  0.249109  0.000000  1
  Tb  Tb2  1  0.999123  0.499123  0.500000  1
  Tb  Tb3  1  0.500877  0.000877  0.500000  1
  Ge  Ge4  1  0.000000  0.000000  0.000000  1
  As  As5  1  0.250000  0.750000  0.500000  1
  S  S6  1  0.500000  0.500000  0.000000  1
  S  S7  1  0.750000  0.250000  0.500000  1
