# generated using pymatgen
data_HfSc7Fe2(Si8Os5)2
_symmetry_space_group_name_H-M   'P 1'
_cell_length_a   9.92431125
_cell_length_b   9.93348957
_cell_length_c   13.34663832
_cell_angle_alpha   53.70932337
_cell_angle_beta   53.65769344
_cell_angle_gamma   30.91385275
_symmetry_Int_Tables_number   1
_chemical_formula_structural   HfSc7Fe2(Si8Os5)2
_chemical_formula_sum   'Hf1 Sc7 Fe2 Si16 Os10'
_cell_volume   533.29605411
_cell_formula_units_Z   1
loop_
 _symmetry_equiv_pos_site_id
 _symmetry_equiv_pos_as_xyz
  1  'x, y, z'
loop_
 _atom_site_type_symbol
 _atom_site_label
 _atom_site_symmetry_multiplicity
 _atom_site_fract_x
 _atom_site_fract_y
 _atom_site_fract_z
 _atom_site_occupancy
  Hf  Hf0  1  0.292507  0.040868  0.137844  1
  Sc  Sc1  1  0.298234  0.557784  0.643485  1
  Sc  Sc2  1  0.441059  0.704099  0.855995  1
  Sc  Sc3  1  0.702664  0.445360  0.353132  1
  Sc  Sc4  1  0.557163  0.294851  0.146811  1
  Sc  Sc5  1  0.035584  0.295188  0.634227  1
  Sc  Sc6  1  0.707314  0.961695  0.865802  1
  Sc  Sc7  1  0.962723  0.707024  0.359657  1
  Fe  Fe8  1  0.649135  0.830682  0.278878  1
  Fe  Fe9  1  0.168476  0.349059  0.219669  1
  Si  Si10  1  0.872166  0.125593  0.251531  1
  Si  Si11  1  0.128748  0.872238  0.749452  1
  Si  Si12  1  0.382290  0.616955  0.250493  1
  Si  Si13  1  0.617414  0.381562  0.750558  1
  Si  Si14  1  0.974789  0.251310  0.891581  1
  Si  Si15  1  0.749806  0.024488  0.608905  1
  Si  Si16  1  0.022726  0.736178  0.115432  1
  Si  Si17  1  0.262096  0.978902  0.384400  1
  Si  Si18  1  0.566562  0.082747  0.076157  1
  Si  Si19  1  0.919910  0.433274  0.422028  1
  Si  Si20  1  0.423080  0.921374  0.934798  1
  Si  Si21  1  0.076371  0.579330  0.566035  1
  Si  Si22  1  0.389958  0.137851  0.391777  1
  Si  Si23  1  0.856880  0.613276  0.109510  1
  Si  Si24  1  0.610960  0.859515  0.598662  1
  Si  Si25  1  0.145180  0.386602  0.898995  1
  Os  Os26  1  0.757662  0.486918  0.073000  1
  Os  Os27  1  0.829906  0.648103  0.784805  1
  Os  Os28  1  0.898103  0.145265  0.582790  1
  Os  Os29  1  0.854593  0.102581  0.916780  1
  Os  Os30  1  0.107813  0.858528  0.413602  1
  Os  Os31  1  0.141998  0.893121  0.086751  1
  Os  Os32  1  0.241450  0.509484  0.937027  1
  Os  Os33  1  0.498068  0.750529  0.562962  1
  Os  Os34  1  0.504362  0.247281  0.430366  1
  Os  Os35  1  0.352249  0.170385  0.716104  1
