# generated using pymatgen
data_Eu4MgRh
_symmetry_space_group_name_H-M   'P 1'
_cell_length_a   10.29111833
_cell_length_b   10.29111831
_cell_length_c   10.29111900
_cell_angle_alpha   60.00000101
_cell_angle_beta   60.00000105
_cell_angle_gamma   60.00000066
_symmetry_Int_Tables_number   1
_chemical_formula_structural   Eu4MgRh
_chemical_formula_sum   'Eu16 Mg4 Rh4'
_cell_volume   770.67763176
_cell_formula_units_Z   4
loop_
 _symmetry_equiv_pos_site_id
 _symmetry_equiv_pos_as_xyz
  1  'x, y, z'
loop_
 _atom_site_type_symbol
 _atom_site_label
 _atom_site_symmetry_multiplicity
 _atom_site_fract_x
 _atom_site_fract_y
 _atom_site_fract_z
 _atom_site_occupancy
  Eu  Eu0  1  0.054622  0.445378  0.445378  1
  Eu  Eu1  1  0.054622  0.445378  0.054622  1
  Eu  Eu2  1  0.054622  0.054622  0.445378  1
  Eu  Eu3  1  0.445378  0.054622  0.054622  1
  Eu  Eu4  1  0.445378  0.054622  0.445378  1
  Eu  Eu5  1  0.445378  0.445378  0.054622  1
  Eu  Eu6  1  0.189909  0.810091  0.810091  1
  Eu  Eu7  1  0.189909  0.810091  0.189909  1
  Eu  Eu8  1  0.189909  0.189909  0.810091  1
  Eu  Eu9  1  0.810091  0.189909  0.189909  1
  Eu  Eu10  1  0.810091  0.189909  0.810091  1
  Eu  Eu11  1  0.810091  0.810091  0.189909  1
  Eu  Eu12  1  0.028157  0.657281  0.657281  1
  Eu  Eu13  1  0.657281  0.028157  0.657281  1
  Eu  Eu14  1  0.657281  0.657281  0.028157  1
  Eu  Eu15  1  0.657281  0.657281  0.657281  1
  Mg  Mg16  1  0.730846  0.423051  0.423051  1
  Mg  Mg17  1  0.423051  0.730846  0.423051  1
  Mg  Mg18  1  0.423051  0.423051  0.730846  1
  Mg  Mg19  1  0.423051  0.423051  0.423051  1
  Rh  Rh20  1  0.412895  0.862368  0.862368  1
  Rh  Rh21  1  0.862368  0.412895  0.862368  1
  Rh  Rh22  1  0.862368  0.862368  0.412895  1
  Rh  Rh23  1  0.862368  0.862368  0.862368  1
