# generated using pymatgen
data_Nb3V2NiGe2P
_symmetry_space_group_name_H-M   'P 1'
_cell_length_a   6.69378004
_cell_length_b   6.69378025
_cell_length_c   3.44787600
_cell_angle_alpha   90.00000000
_cell_angle_beta   90.00000000
_cell_angle_gamma   120.73446804
_symmetry_Int_Tables_number   1
_chemical_formula_structural   Nb3V2NiGe2P
_chemical_formula_sum   'Nb3 V2 Ni1 Ge2 P1'
_cell_volume   132.78931667
_cell_formula_units_Z   1
loop_
 _symmetry_equiv_pos_site_id
 _symmetry_equiv_pos_as_xyz
  1  'x, y, z'
loop_
 _atom_site_type_symbol
 _atom_site_label
 _atom_site_symmetry_multiplicity
 _atom_site_fract_x
 _atom_site_fract_y
 _atom_site_fract_z
 _atom_site_occupancy
  Nb  Nb0  1  0.397424  0.982932  0.500000  1
  Nb  Nb1  1  0.982932  0.397424  0.500000  1
  Nb  Nb2  1  0.619448  0.619448  0.500000  1
  V  V3  1  0.757521  0.002606  0.000000  1
  V  V4  1  0.002606  0.757521  0.000000  1
  Ni  Ni5  1  0.241639  0.241639  0.000000  1
  Ge  Ge6  1  0.328803  0.649627  0.000000  1
  Ge  Ge7  1  0.649627  0.328803  0.000000  1
  P  P8  1  0.019999  0.019999  0.500000  1
