# generated using pymatgen
data_CaSmSc3Sn4
_symmetry_space_group_name_H-M   'P 1'
_cell_length_a   7.73199900
_cell_length_b   8.04240900
_cell_length_c   15.08079700
_cell_angle_alpha   90.00000000
_cell_angle_beta   90.00000000
_cell_angle_gamma   90.00000000
_symmetry_Int_Tables_number   1
_chemical_formula_structural   CaSmSc3Sn4
_chemical_formula_sum   'Ca4 Sm4 Sc12 Sn16'
_cell_volume   937.78274762
_cell_formula_units_Z   4
loop_
 _symmetry_equiv_pos_site_id
 _symmetry_equiv_pos_as_xyz
  1  'x, y, z'
loop_
 _atom_site_type_symbol
 _atom_site_label
 _atom_site_symmetry_multiplicity
 _atom_site_fract_x
 _atom_site_fract_y
 _atom_site_fract_z
 _atom_site_occupancy
  Ca  Ca0  1  0.512042  0.324900  0.905982  1
  Ca  Ca1  1  0.012042  0.175100  0.594018  1
  Ca  Ca2  1  0.487958  0.675100  0.405982  1
  Ca  Ca3  1  0.987958  0.824900  0.094018  1
  Sm  Sm4  1  0.493438  0.675634  0.095013  1
  Sm  Sm5  1  0.993438  0.824366  0.404987  1
  Sm  Sm6  1  0.506562  0.324366  0.595013  1
  Sm  Sm7  1  0.006562  0.175634  0.904987  1
  Sc  Sc8  1  0.339052  0.837732  0.872376  1
  Sc  Sc9  1  0.839052  0.662268  0.627624  1
  Sc  Sc10  1  0.660948  0.162268  0.372376  1
  Sc  Sc11  1  0.160948  0.337732  0.127624  1
  Sc  Sc12  1  0.661212  0.160183  0.127075  1
  Sc  Sc13  1  0.161212  0.339817  0.372925  1
  Sc  Sc14  1  0.338788  0.839817  0.627075  1
  Sc  Sc15  1  0.838788  0.660183  0.872925  1
  Sc  Sc16  1  0.175642  0.501619  0.751100  1
  Sc  Sc17  1  0.675642  0.998381  0.748900  1
  Sc  Sc18  1  0.824358  0.498381  0.251100  1
  Sc  Sc19  1  0.324358  0.001619  0.248900  1
  Sn  Sn20  1  0.323272  0.040674  0.042355  1
  Sn  Sn21  1  0.823272  0.459326  0.457645  1
  Sn  Sn22  1  0.676728  0.959326  0.542355  1
  Sn  Sn23  1  0.176728  0.540674  0.957645  1
  Sn  Sn24  1  0.673507  0.954479  0.957429  1
  Sn  Sn25  1  0.173507  0.545521  0.542571  1
  Sn  Sn26  1  0.326493  0.045521  0.457429  1
  Sn  Sn27  1  0.826493  0.454479  0.042571  1
  Sn  Sn28  1  0.535102  0.629058  0.748808  1
  Sn  Sn29  1  0.035102  0.870942  0.751192  1
  Sn  Sn30  1  0.464898  0.370942  0.248808  1
  Sn  Sn31  1  0.964898  0.129058  0.251192  1
  Sn  Sn32  1  0.315988  0.145201  0.750946  1
  Sn  Sn33  1  0.815988  0.354799  0.749054  1
  Sn  Sn34  1  0.684012  0.854799  0.250946  1
  Sn  Sn35  1  0.184012  0.645201  0.249054  1
