# generated using pymatgen
data_Ac5In3O
_symmetry_space_group_name_H-M   'P 1'
_cell_length_a   9.89139680
_cell_length_b   9.89139814
_cell_length_c   9.89139700
_cell_angle_alpha   126.87065874
_cell_angle_beta   126.87066457
_cell_angle_gamma   78.46178875
_symmetry_Int_Tables_number   1
_chemical_formula_structural   Ac5In3O
_chemical_formula_sum   'Ac10 In6 O2'
_cell_volume   599.69557629
_cell_formula_units_Z   2
loop_
 _symmetry_equiv_pos_site_id
 _symmetry_equiv_pos_as_xyz
  1  'x, y, z'
loop_
 _atom_site_type_symbol
 _atom_site_label
 _atom_site_symmetry_multiplicity
 _atom_site_fract_x
 _atom_site_fract_y
 _atom_site_fract_z
 _atom_site_occupancy
  Ac  Ac0  1  0.496527  0.314263  0.500000  1
  Ac  Ac1  1  0.814263  0.996527  0.500000  1
  Ac  Ac2  1  0.996527  0.496527  0.182265  1
  Ac  Ac3  1  0.314263  0.814263  0.817735  1
  Ac  Ac4  1  0.505713  0.687760  0.500000  1
  Ac  Ac5  1  0.187760  0.005713  0.500000  1
  Ac  Ac6  1  0.005713  0.505713  0.817953  1
  Ac  Ac7  1  0.687760  0.187760  0.182047  1
  Ac  Ac8  1  0.502161  0.502161  0.000000  1
  Ac  Ac9  1  0.002161  0.002161  0.000000  1
  In  In10  1  0.126511  0.375609  0.500000  1
  In  In11  1  0.875609  0.626511  0.500000  1
  In  In12  1  0.626511  0.126511  0.750901  1
  In  In13  1  0.375609  0.875609  0.249099  1
  In  In14  1  0.751831  0.751831  0.000000  1
  In  In15  1  0.251831  0.251831  0.000000  1
  O  O16  1  0.751046  0.251046  0.500000  1
  O  O17  1  0.251046  0.751046  0.500000  1
