# generated using pymatgen
data_Dy3Cd4CoAg
_symmetry_space_group_name_H-M   'P 1'
_cell_length_a   7.97104900
_cell_length_b   7.97104981
_cell_length_c   3.73022200
_cell_angle_alpha   90.00000000
_cell_angle_beta   90.00000000
_cell_angle_gamma   120.00000908
_symmetry_Int_Tables_number   1
_chemical_formula_structural   Dy3Cd4CoAg
_chemical_formula_sum   'Dy3 Cd4 Co1 Ag1'
_cell_volume   205.25619464
_cell_formula_units_Z   1
loop_
 _symmetry_equiv_pos_site_id
 _symmetry_equiv_pos_as_xyz
  1  'x, y, z'
loop_
 _atom_site_type_symbol
 _atom_site_label
 _atom_site_symmetry_multiplicity
 _atom_site_fract_x
 _atom_site_fract_y
 _atom_site_fract_z
 _atom_site_occupancy
  Dy  Dy0  1  0.046214  0.284145  0.500000  1
  Dy  Dy1  1  0.715855  0.762068  0.500000  1
  Dy  Dy2  1  0.237932  0.953786  0.500000  1
  Cd  Cd3  1  0.662313  0.058274  0.000000  1
  Cd  Cd4  1  0.941726  0.604040  0.000000  1
  Cd  Cd5  1  0.395960  0.337687  0.000000  1
  Cd  Cd6  1  0.333333  0.666667  0.000000  1
  Co  Co7  1  0.000000  0.000000  0.000000  1
  Ag  Ag8  1  0.666667  0.333333  0.500000  1
