# generated using pymatgen
data_Dy5Er3Ti12Si15As
_symmetry_space_group_name_H-M   'P 1'
_cell_length_a   7.04590382
_cell_length_b   7.03733683
_cell_length_c   12.93941633
_cell_angle_alpha   89.99647459
_cell_angle_beta   89.80707961
_cell_angle_gamma   89.96877867
_symmetry_Int_Tables_number   1
_chemical_formula_structural   Dy5Er3Ti12Si15As
_chemical_formula_sum   'Dy5 Er3 Ti12 Si15 As1'
_cell_volume   641.58944156
_cell_formula_units_Z   1
loop_
 _symmetry_equiv_pos_site_id
 _symmetry_equiv_pos_as_xyz
  1  'x, y, z'
loop_
 _atom_site_type_symbol
 _atom_site_label
 _atom_site_symmetry_multiplicity
 _atom_site_fract_x
 _atom_site_fract_y
 _atom_site_fract_z
 _atom_site_occupancy
  Dy  Dy0  1  0.340937  0.001885  0.466127  1
  Dy  Dy1  1  0.497209  0.842221  0.717625  1
  Dy  Dy2  1  0.502317  0.159127  0.216369  1
  Dy  Dy3  1  0.840073  0.496731  0.283124  1
  Dy  Dy4  1  0.159174  0.501503  0.783291  1
  Er  Er5  1  0.661095  0.995432  0.967719  1
  Er  Er6  1  0.999142  0.343377  0.531736  1
  Er  Er7  1  0.998980  0.659307  0.033489  1
  Ti  Ti8  1  0.326549  0.326793  0.999818  1
  Ti  Ti9  1  0.172558  0.827079  0.249779  1
  Ti  Ti10  1  0.824292  0.173572  0.750307  1
  Ti  Ti11  1  0.672598  0.672576  0.500048  1
  Ti  Ti12  1  0.154083  0.009363  0.875297  1
  Ti  Ti13  1  0.492175  0.651630  0.125221  1
  Ti  Ti14  1  0.508800  0.347497  0.626962  1
  Ti  Ti15  1  0.655099  0.495174  0.875518  1
  Ti  Ti16  1  0.346678  0.507616  0.374150  1
  Ti  Ti17  1  0.847038  0.992325  0.375487  1
  Ti  Ti18  1  0.007998  0.150988  0.124205  1
  Ti  Ti19  1  0.989547  0.844498  0.623292  1
  Si  Si20  1  0.368916  0.704083  0.933608  1
  Si  Si21  1  0.629550  0.297474  0.434579  1
  Si  Si22  1  0.704094  0.369380  0.066311  1
  Si  Si23  1  0.296297  0.629892  0.566260  1
  Si  Si24  1  0.797041  0.868941  0.183715  1
  Si  Si25  1  0.130145  0.203079  0.316445  1
  Si  Si26  1  0.870584  0.798007  0.816184  1
  Si  Si27  1  0.291398  0.952851  0.064093  1
  Si  Si28  1  0.546687  0.790098  0.314369  1
  Si  Si29  1  0.462576  0.211335  0.819922  1
  Si  Si30  1  0.790794  0.546462  0.685225  1
  Si  Si31  1  0.208670  0.453251  0.185259  1
  Si  Si32  1  0.708901  0.046638  0.564130  1
  Si  Si33  1  0.954009  0.290938  0.935851  1
  Si  Si34  1  0.046243  0.709214  0.435000  1
  As  As35  1  0.197749  0.129664  0.679486  1
