# generated using pymatgen
data_Na6Th2UCl18
_symmetry_space_group_name_H-M   'P 1'
_cell_length_a   12.20721500
_cell_length_b   12.20721399
_cell_length_c   6.32899000
_cell_angle_alpha   90.00000000
_cell_angle_beta   90.00000000
_cell_angle_gamma   119.99999461
_symmetry_Int_Tables_number   1
_chemical_formula_structural   Na6Th2UCl18
_chemical_formula_sum   'Na6 Th2 U1 Cl18'
_cell_volume   816.76706330
_cell_formula_units_Z   1
loop_
 _symmetry_equiv_pos_site_id
 _symmetry_equiv_pos_as_xyz
  1  'x, y, z'
loop_
 _atom_site_type_symbol
 _atom_site_label
 _atom_site_symmetry_multiplicity
 _atom_site_fract_x
 _atom_site_fract_y
 _atom_site_fract_z
 _atom_site_occupancy
  Na  Na0  1  0.660890  0.000000  0.000000  1
  Na  Na1  1  0.339110  0.000000  0.000000  1
  Na  Na2  1  0.000000  0.660890  0.000000  1
  Na  Na3  1  0.660890  0.660890  0.000000  1
  Na  Na4  1  0.339110  0.339110  0.000000  1
  Na  Na5  1  0.000000  0.339110  0.000000  1
  Th  Th6  1  0.666667  0.333333  0.504230  1
  Th  Th7  1  0.333333  0.666667  0.495770  1
  U  U8  1  0.000000  0.000000  0.000000  1
  Cl  Cl9  1  0.562018  0.124036  0.753336  1
  Cl  Cl10  1  0.771859  0.228141  0.263442  1
  Cl  Cl11  1  0.790318  0.895159  0.226024  1
  Cl  Cl12  1  0.437982  0.562018  0.246664  1
  Cl  Cl13  1  0.771859  0.543719  0.263442  1
  Cl  Cl14  1  0.104841  0.209682  0.226024  1
  Cl  Cl15  1  0.228141  0.771859  0.736558  1
  Cl  Cl16  1  0.562018  0.437982  0.753336  1
  Cl  Cl17  1  0.228141  0.456281  0.736558  1
  Cl  Cl18  1  0.124036  0.562018  0.246664  1
  Cl  Cl19  1  0.209682  0.104841  0.773976  1
  Cl  Cl20  1  0.104841  0.895159  0.226024  1
  Cl  Cl21  1  0.543719  0.771859  0.736558  1
  Cl  Cl22  1  0.437982  0.875964  0.246664  1
  Cl  Cl23  1  0.895159  0.104841  0.773976  1
  Cl  Cl24  1  0.875964  0.437982  0.753336  1
  Cl  Cl25  1  0.456281  0.228141  0.263442  1
  Cl  Cl26  1  0.895159  0.790318  0.773976  1
