# generated using pymatgen
data_Pr4NdSmTa2O14
_symmetry_space_group_name_H-M   'P 1'
_cell_length_a   6.72943960
_cell_length_b   6.70357465
_cell_length_c   7.74416500
_cell_angle_alpha   90.00000000
_cell_angle_beta   90.00000000
_cell_angle_gamma   108.72512581
_symmetry_Int_Tables_number   1
_chemical_formula_structural   Pr4NdSmTa2O14
_chemical_formula_sum   'Pr4 Nd1 Sm1 Ta2 O14'
_cell_volume   330.85815081
_cell_formula_units_Z   1
loop_
 _symmetry_equiv_pos_site_id
 _symmetry_equiv_pos_as_xyz
  1  'x, y, z'
loop_
 _atom_site_type_symbol
 _atom_site_label
 _atom_site_symmetry_multiplicity
 _atom_site_fract_x
 _atom_site_fract_y
 _atom_site_fract_z
 _atom_site_occupancy
  Pr  Pr0  1  0.466550  0.468118  0.500752  1
  Pr  Pr1  1  0.466550  0.468118  0.999248  1
  Pr  Pr2  1  0.539268  0.994417  0.750000  1
  Pr  Pr3  1  0.993508  0.537009  0.250000  1
  Nd  Nd4  1  0.467136  0.995856  0.250000  1
  Sm  Sm5  1  0.996376  0.468139  0.750000  1
  Ta  Ta6  1  0.999503  0.999235  0.500827  1
  Ta  Ta7  1  0.999503  0.999235  0.999173  1
  O  O8  1  0.696901  0.944703  0.467409  1
  O  O9  1  0.952679  0.698863  0.536458  1
  O  O10  1  0.696901  0.944703  0.032591  1
  O  O11  1  0.952679  0.698863  0.963542  1
  O  O12  1  0.317762  0.076545  0.527368  1
  O  O13  1  0.073344  0.318974  0.475368  1
  O  O14  1  0.317762  0.076545  0.972632  1
  O  O15  1  0.073344  0.318974  0.024632  1
  O  O16  1  0.945374  0.059926  0.750000  1
  O  O17  1  0.057370  0.945500  0.250000  1
  O  O18  1  0.360806  0.624180  0.750000  1
  O  O19  1  0.626545  0.365734  0.250000  1
  O  O20  1  0.640167  0.362617  0.750000  1
  O  O21  1  0.359973  0.633745  0.250000  1
