# generated using pymatgen
data_Na2V3CoNi8As7
_symmetry_space_group_name_H-M   'P 1'
_cell_length_a   9.48021627
_cell_length_b   9.48151435
_cell_length_c   3.74900300
_cell_angle_alpha   90.00000000
_cell_angle_beta   90.00000000
_cell_angle_gamma   120.07705889
_symmetry_Int_Tables_number   1
_chemical_formula_structural   Na2V3CoNi8As7
_chemical_formula_sum   'Na2 V3 Co1 Ni8 As7'
_cell_volume   291.61148140
_cell_formula_units_Z   1
loop_
 _symmetry_equiv_pos_site_id
 _symmetry_equiv_pos_as_xyz
  1  'x, y, z'
loop_
 _atom_site_type_symbol
 _atom_site_label
 _atom_site_symmetry_multiplicity
 _atom_site_fract_x
 _atom_site_fract_y
 _atom_site_fract_z
 _atom_site_occupancy
  Na  Na0  1  0.333045  0.666344  0.000000  1
  Na  Na1  1  0.667711  0.333218  0.500000  1
  V  V2  1  0.216283  0.120651  0.500000  1
  V  V3  1  0.880115  0.097048  0.500000  1
  V  V4  1  0.903152  0.783782  0.500000  1
  Co  Co5  1  0.122033  0.278980  0.000000  1
  Ni  Ni6  1  0.719701  0.842233  0.000000  1
  Ni  Ni7  1  0.156945  0.877680  0.000000  1
  Ni  Ni8  1  0.430303  0.374064  0.000000  1
  Ni  Ni9  1  0.625546  0.056190  0.000000  1
  Ni  Ni10  1  0.944553  0.568011  0.000000  1
  Ni  Ni11  1  0.048790  0.431377  0.500000  1
  Ni  Ni12  1  0.568520  0.617709  0.500000  1
  Ni  Ni13  1  0.382239  0.952094  0.500000  1
  As  As14  1  0.290631  0.410864  0.500000  1
  As  As15  1  0.588059  0.880750  0.500000  1
  As  As16  1  0.118923  0.708177  0.500000  1
  As  As17  1  0.413068  0.119929  0.000000  1
  As  As18  1  0.882443  0.291935  0.000000  1
  As  As19  1  0.707216  0.586805  0.000000  1
  As  As20  1  0.000723  0.002159  0.000000  1
