# generated using pymatgen
data_Tm6Zn20Cu3Se
_symmetry_space_group_name_H-M   'P 1'
_cell_length_a   8.85916054
_cell_length_b   8.85919298
_cell_length_c   8.86682000
_cell_angle_alpha   59.97146475
_cell_angle_beta   59.97123144
_cell_angle_gamma   59.95828133
_symmetry_Int_Tables_number   1
_chemical_formula_structural   Tm6Zn20Cu3Se
_chemical_formula_sum   'Tm6 Zn20 Cu3 Se1'
_cell_volume   491.71608411
_cell_formula_units_Z   1
loop_
 _symmetry_equiv_pos_site_id
 _symmetry_equiv_pos_as_xyz
  1  'x, y, z'
loop_
 _atom_site_type_symbol
 _atom_site_label
 _atom_site_symmetry_multiplicity
 _atom_site_fract_x
 _atom_site_fract_y
 _atom_site_fract_z
 _atom_site_occupancy
  Tm  Tm0  1  0.713619  0.282133  0.282670  1
  Tm  Tm1  1  0.713622  0.282137  0.721568  1
  Tm  Tm2  1  0.719138  0.719114  0.280873  1
  Tm  Tm3  1  0.282125  0.713646  0.721546  1
  Tm  Tm4  1  0.282128  0.713648  0.282683  1
  Tm  Tm5  1  0.283799  0.283818  0.716192  1
  Zn  Zn6  1  0.121176  0.121194  0.635143  1
  Zn  Zn7  1  0.121174  0.121192  0.122486  1
  Zn  Zn8  1  0.361775  0.876536  0.880842  1
  Zn  Zn9  1  0.876521  0.361779  0.880847  1
  Zn  Zn10  1  0.879812  0.879829  0.356936  1
  Zn  Zn11  1  0.879814  0.879833  0.883420  1
  Zn  Zn12  1  0.501676  0.000518  0.000204  1
  Zn  Zn13  1  0.501678  0.000519  0.497598  1
  Zn  Zn14  1  0.499419  0.499408  0.000585  1
  Zn  Zn15  1  0.000504  0.501701  0.497586  1
  Zn  Zn16  1  0.000506  0.501702  0.000211  1
  Zn  Zn17  1  0.000355  0.000368  0.499639  1
  Zn  Zn18  1  0.008226  0.333926  0.328925  1
  Zn  Zn19  1  0.333889  0.008239  0.328938  1
  Zn  Zn20  1  0.330222  0.330248  0.012993  1
  Zn  Zn21  1  0.330225  0.330243  0.326538  1
  Zn  Zn22  1  0.990397  0.669358  0.670124  1
  Zn  Zn23  1  0.669345  0.990415  0.670120  1
  Zn  Zn24  1  0.669341  0.669349  0.991901  1
  Zn  Zn25  1  0.669340  0.669350  0.669410  1
  Cu  Cu26  1  0.636018  0.120900  0.121594  1
  Cu  Cu27  1  0.121262  0.635992  0.121319  1
  Cu  Cu28  1  0.001872  0.001871  0.998134  1
  Se  Se29  1  0.501018  0.501032  0.498975  1
