# generated using pymatgen
data_Ba3CdOs2O9
_symmetry_space_group_name_H-M   'P 1'
_cell_length_a   5.99480300
_cell_length_b   5.99480302
_cell_length_c   14.54595500
_cell_angle_alpha   90.00000000
_cell_angle_beta   90.00000000
_cell_angle_gamma   119.99999437
_symmetry_Int_Tables_number   1
_chemical_formula_structural   Ba3CdOs2O9
_chemical_formula_sum   'Ba6 Cd2 Os4 O18'
_cell_volume   452.71275357
_cell_formula_units_Z   2
loop_
 _symmetry_equiv_pos_site_id
 _symmetry_equiv_pos_as_xyz
  1  'x, y, z'
loop_
 _atom_site_type_symbol
 _atom_site_label
 _atom_site_symmetry_multiplicity
 _atom_site_fract_x
 _atom_site_fract_y
 _atom_site_fract_z
 _atom_site_occupancy
  Ba  Ba0  1  0.666667  0.333333  0.089563  1
  Ba  Ba1  1  0.333333  0.666667  0.589563  1
  Ba  Ba2  1  0.333333  0.666667  0.910437  1
  Ba  Ba3  1  0.666667  0.333333  0.410437  1
  Ba  Ba4  1  0.000000  0.000000  0.250000  1
  Ba  Ba5  1  0.000000  0.000000  0.750000  1
  Cd  Cd6  1  0.000000  0.000000  0.000000  1
  Cd  Cd7  1  0.000000  0.000000  0.500000  1
  Os  Os8  1  0.333333  0.666667  0.164209  1
  Os  Os9  1  0.666667  0.333333  0.664209  1
  Os  Os10  1  0.666667  0.333333  0.835791  1
  Os  Os11  1  0.333333  0.666667  0.335791  1
  O  O12  1  0.178406  0.356813  0.090220  1
  O  O13  1  0.821594  0.178406  0.590220  1
  O  O14  1  0.356813  0.178406  0.590220  1
  O  O15  1  0.643187  0.821594  0.090220  1
  O  O16  1  0.178406  0.821594  0.090220  1
  O  O17  1  0.821594  0.643187  0.909780  1
  O  O18  1  0.821594  0.178406  0.909780  1
  O  O19  1  0.821594  0.643187  0.590220  1
  O  O20  1  0.356813  0.178406  0.909780  1
  O  O21  1  0.643187  0.821594  0.409780  1
  O  O22  1  0.178406  0.356813  0.409780  1
  O  O23  1  0.178406  0.821594  0.409780  1
  O  O24  1  0.015813  0.507906  0.250000  1
  O  O25  1  0.507906  0.015813  0.750000  1
  O  O26  1  0.507906  0.492094  0.750000  1
  O  O27  1  0.492094  0.507906  0.250000  1
  O  O28  1  0.492094  0.984187  0.250000  1
  O  O29  1  0.984187  0.492094  0.750000  1
