# generated using pymatgen
data_Hf9Ta(ReN)3
_symmetry_space_group_name_H-M   'P 1'
_cell_length_a   8.56606800
_cell_length_b   8.56606893
_cell_length_c   8.44980200
_cell_angle_alpha   90.00000000
_cell_angle_beta   90.00000000
_cell_angle_gamma   120.00000412
_symmetry_Int_Tables_number   1
_chemical_formula_structural   Hf9Ta(ReN)3
_chemical_formula_sum   'Hf18 Ta2 Re6 N6'
_cell_volume   536.95789067
_cell_formula_units_Z   2
loop_
 _symmetry_equiv_pos_site_id
 _symmetry_equiv_pos_as_xyz
  1  'x, y, z'
loop_
 _atom_site_type_symbol
 _atom_site_label
 _atom_site_symmetry_multiplicity
 _atom_site_fract_x
 _atom_site_fract_y
 _atom_site_fract_z
 _atom_site_occupancy
  Hf  Hf0  1  0.454621  0.909241  0.250000  1
  Hf  Hf1  1  0.545379  0.090759  0.750000  1
  Hf  Hf2  1  0.090759  0.545379  0.250000  1
  Hf  Hf3  1  0.909241  0.454621  0.750000  1
  Hf  Hf4  1  0.454621  0.545379  0.250000  1
  Hf  Hf5  1  0.545379  0.454621  0.750000  1
  Hf  Hf6  1  0.205364  0.410729  0.558089  1
  Hf  Hf7  1  0.794636  0.589271  0.441911  1
  Hf  Hf8  1  0.589271  0.794636  0.558089  1
  Hf  Hf9  1  0.794636  0.589271  0.058089  1
  Hf  Hf10  1  0.410729  0.205364  0.441911  1
  Hf  Hf11  1  0.205364  0.410729  0.941911  1
  Hf  Hf12  1  0.205364  0.794636  0.558089  1
  Hf  Hf13  1  0.410729  0.205364  0.058089  1
  Hf  Hf14  1  0.794636  0.205364  0.441911  1
  Hf  Hf15  1  0.589271  0.794636  0.941911  1
  Hf  Hf16  1  0.794636  0.205364  0.058089  1
  Hf  Hf17  1  0.205364  0.794636  0.941911  1
  Ta  Ta18  1  0.000000  0.000000  0.000000  1
  Ta  Ta19  1  0.000000  0.000000  0.500000  1
  Re  Re20  1  0.111547  0.223094  0.250000  1
  Re  Re21  1  0.888453  0.776906  0.750000  1
  Re  Re22  1  0.776906  0.888453  0.250000  1
  Re  Re23  1  0.223094  0.111547  0.750000  1
  Re  Re24  1  0.111547  0.888453  0.250000  1
  Re  Re25  1  0.888453  0.111547  0.750000  1
  N  N26  1  0.500000  0.000000  0.000000  1
  N  N27  1  0.000000  0.500000  0.000000  1
  N  N28  1  0.500000  0.000000  0.500000  1
  N  N29  1  0.500000  0.500000  0.000000  1
  N  N30  1  0.000000  0.500000  0.500000  1
  N  N31  1  0.500000  0.500000  0.500000  1
