# generated using pymatgen
data_Li2P2Rh
_symmetry_space_group_name_H-M   'P 1'
_cell_length_a   4.08796300
_cell_length_b   5.93073700
_cell_length_c   5.93073700
_cell_angle_alpha   90.00000000
_cell_angle_beta   90.00000000
_cell_angle_gamma   90.00000000
_symmetry_Int_Tables_number   1
_chemical_formula_structural   Li2P2Rh
_chemical_formula_sum   'Li4 P4 Rh2'
_cell_volume   143.78854447
_cell_formula_units_Z   2
loop_
 _symmetry_equiv_pos_site_id
 _symmetry_equiv_pos_as_xyz
  1  'x, y, z'
loop_
 _atom_site_type_symbol
 _atom_site_label
 _atom_site_symmetry_multiplicity
 _atom_site_fract_x
 _atom_site_fract_y
 _atom_site_fract_z
 _atom_site_occupancy
  Li  Li0  1  0.500002  0.322963  0.177036  1
  Li  Li1  1  0.500002  0.822964  0.322963  1
  Li  Li2  1  0.500002  0.177036  0.677037  1
  Li  Li3  1  0.500002  0.677037  0.822964  1
  P  P4  1  0.000000  0.630639  0.130639  1
  P  P5  1  0.000000  0.130639  0.369360  1
  P  P6  1  0.000000  0.869361  0.630639  1
  P  P7  1  0.000000  0.369360  0.869361  1
  Rh  Rh8  1  0.000000  0.000000  0.000000  1
  Rh  Rh9  1  0.000000  0.500001  0.500001  1
