# generated using pymatgen
data_HoCo6SiGe3
_symmetry_space_group_name_H-M   'P 1'
_cell_length_a   6.74639400
_cell_length_b   6.74639349
_cell_length_c   3.64745300
_cell_angle_alpha   90.00000000
_cell_angle_beta   90.00000000
_cell_angle_gamma   120.00000250
_symmetry_Int_Tables_number   1
_chemical_formula_structural   HoCo6SiGe3
_chemical_formula_sum   'Ho1 Co6 Si1 Ge3'
_cell_volume   143.76848443
_cell_formula_units_Z   1
loop_
 _symmetry_equiv_pos_site_id
 _symmetry_equiv_pos_as_xyz
  1  'x, y, z'
loop_
 _atom_site_type_symbol
 _atom_site_label
 _atom_site_symmetry_multiplicity
 _atom_site_fract_x
 _atom_site_fract_y
 _atom_site_fract_z
 _atom_site_occupancy
  Ho  Ho0  1  0.000000  0.000000  0.000000  1
  Co  Co1  1  0.530831  0.469169  0.000000  1
  Co  Co2  1  0.530831  0.061662  0.000000  1
  Co  Co3  1  0.938338  0.469169  0.000000  1
  Co  Co4  1  0.208806  0.791194  0.500000  1
  Co  Co5  1  0.208806  0.417611  0.500000  1
  Co  Co6  1  0.582389  0.791194  0.500000  1
  Si  Si7  1  0.333333  0.666667  0.000000  1
  Ge  Ge8  1  0.805672  0.194328  0.500000  1
  Ge  Ge9  1  0.805672  0.611345  0.500000  1
  Ge  Ge10  1  0.388655  0.194328  0.500000  1
