# generated using pymatgen
data_Th6IrRuAu6
_symmetry_space_group_name_H-M   'P 1'
_cell_length_a   8.27696538
_cell_length_b   8.27696609
_cell_length_c   8.27696578
_cell_angle_alpha   114.19217148
_cell_angle_beta   114.19216747
_cell_angle_gamma   114.19215114
_symmetry_Int_Tables_number   1
_chemical_formula_structural   Th6IrRuAu6
_chemical_formula_sum   'Th6 Ir1 Ru1 Au6'
_cell_volume   339.54150479
_cell_formula_units_Z   1
loop_
 _symmetry_equiv_pos_site_id
 _symmetry_equiv_pos_as_xyz
  1  'x, y, z'
loop_
 _atom_site_type_symbol
 _atom_site_label
 _atom_site_symmetry_multiplicity
 _atom_site_fract_x
 _atom_site_fract_y
 _atom_site_fract_z
 _atom_site_occupancy
  Th  Th0  1  0.042995  0.391382  0.282120  1
  Th  Th1  1  0.391382  0.282120  0.042995  1
  Th  Th2  1  0.717880  0.957005  0.608618  1
  Th  Th3  1  0.282120  0.042995  0.391382  1
  Th  Th4  1  0.608618  0.717880  0.957005  1
  Th  Th5  1  0.957005  0.608618  0.717880  1
  Ir  Ir6  1  0.500000  0.500000  0.500000  1
  Ru  Ru7  1  0.000000  0.000000  0.000000  1
  Au  Au8  1  0.431946  0.938843  0.773187  1
  Au  Au9  1  0.938843  0.773187  0.431946  1
  Au  Au10  1  0.226813  0.568054  0.061157  1
  Au  Au11  1  0.773187  0.431946  0.938843  1
  Au  Au12  1  0.061157  0.226813  0.568054  1
  Au  Au13  1  0.568054  0.061157  0.226813  1
