# generated using pymatgen
data_Eu6Al24IrOs7
_symmetry_space_group_name_H-M   'P 1'
_cell_length_a   8.88734774
_cell_length_b   8.88627867
_cell_length_c   9.71755310
_cell_angle_alpha   90.00000086
_cell_angle_beta   89.86284301
_cell_angle_gamma   119.99600834
_symmetry_Int_Tables_number   1
_chemical_formula_structural   Eu6Al24IrOs7
_chemical_formula_sum   'Eu6 Al24 Ir1 Os7'
_cell_volume   664.65375695
_cell_formula_units_Z   1
loop_
 _symmetry_equiv_pos_site_id
 _symmetry_equiv_pos_as_xyz
  1  'x, y, z'
loop_
 _atom_site_type_symbol
 _atom_site_label
 _atom_site_symmetry_multiplicity
 _atom_site_fract_x
 _atom_site_fract_y
 _atom_site_fract_z
 _atom_site_occupancy
  Eu  Eu0  1  0.194676  0.385444  0.251544  1
  Eu  Eu1  1  0.805324  0.614556  0.748456  1
  Eu  Eu2  1  0.614561  0.807281  0.250012  1
  Eu  Eu3  1  0.385439  0.192719  0.749988  1
  Eu  Eu4  1  0.194676  0.809232  0.251544  1
  Eu  Eu5  1  0.805324  0.190768  0.748456  1
  Al  Al6  1  0.334685  0.667343  0.006537  1
  Al  Al7  1  0.665315  0.332657  0.993463  1
  Al  Al8  1  0.666461  0.333230  0.505706  1
  Al  Al9  1  0.333539  0.666770  0.494294  1
  Al  Al10  1  0.162730  0.325725  0.572982  1
  Al  Al11  1  0.837270  0.674275  0.427018  1
  Al  Al12  1  0.673560  0.836780  0.571325  1
  Al  Al13  1  0.835826  0.674392  0.072667  1
  Al  Al14  1  0.326440  0.163220  0.428675  1
  Al  Al15  1  0.164174  0.325608  0.927333  1
  Al  Al16  1  0.162730  0.837006  0.572982  1
  Al  Al17  1  0.325567  0.162784  0.071953  1
  Al  Al18  1  0.837270  0.162994  0.427018  1
  Al  Al19  1  0.674433  0.837216  0.928047  1
  Al  Al20  1  0.835826  0.161434  0.072667  1
  Al  Al21  1  0.164174  0.838566  0.927333  1
  Al  Al22  1  0.563447  0.125547  0.249699  1
  Al  Al23  1  0.436553  0.874453  0.750301  1
  Al  Al24  1  0.874873  0.437437  0.250580  1
  Al  Al25  1  0.125127  0.562563  0.749420  1
  Al  Al26  1  0.563447  0.437901  0.249699  1
  Al  Al27  1  0.436553  0.562099  0.750301  1
  Al  Al28  1  0.999381  0.999690  0.250022  1
  Al  Al29  1  0.000619  0.000310  0.749978  1
  Ir  Ir30  1  0.000000  0.500000  0.000000  1
  Os  Os31  1  0.500000  0.000000  0.000000  1
  Os  Os32  1  0.500000  0.000000  0.500000  1
  Os  Os33  1  0.500000  0.500000  0.000000  1
  Os  Os34  1  0.000000  0.500000  0.500000  1
  Os  Os35  1  0.500000  0.500000  0.500000  1
  Os  Os36  1  0.000000  0.000000  0.000000  1
  Os  Os37  1  0.000000  0.000000  0.500000  1
