# generated using pymatgen
data_YLu2Co8P6Ru
_symmetry_space_group_name_H-M   'P 1'
_cell_length_a   3.68341500
_cell_length_b   10.46911400
_cell_length_c   12.18979400
_cell_angle_alpha   90.00000000
_cell_angle_beta   90.00000000
_cell_angle_gamma   90.00000000
_symmetry_Int_Tables_number   1
_chemical_formula_structural   YLu2Co8P6Ru
_chemical_formula_sum   'Y2 Lu4 Co16 P12 Ru2'
_cell_volume   470.06395213
_cell_formula_units_Z   2
loop_
 _symmetry_equiv_pos_site_id
 _symmetry_equiv_pos_as_xyz
  1  'x, y, z'
loop_
 _atom_site_type_symbol
 _atom_site_label
 _atom_site_symmetry_multiplicity
 _atom_site_fract_x
 _atom_site_fract_y
 _atom_site_fract_z
 _atom_site_occupancy
  Y  Y0  1  0.000000  0.500000  0.525373  1
  Y  Y1  1  0.500000  0.000000  0.474627  1
  Lu  Lu2  1  0.500000  0.818256  0.206869  1
  Lu  Lu3  1  0.500000  0.181744  0.206869  1
  Lu  Lu4  1  0.000000  0.681744  0.793131  1
  Lu  Lu5  1  0.000000  0.318256  0.793131  1
  Co  Co6  1  0.500000  0.500000  0.705944  1
  Co  Co7  1  0.000000  0.000000  0.294056  1
  Co  Co8  1  0.000000  0.500000  0.986868  1
  Co  Co9  1  0.500000  0.000000  0.013132  1
  Co  Co10  1  0.500000  0.332256  0.990408  1
  Co  Co11  1  0.500000  0.667744  0.990408  1
  Co  Co12  1  0.000000  0.167744  0.009592  1
  Co  Co13  1  0.000000  0.832256  0.009592  1
  Co  Co14  1  0.500000  0.296820  0.430795  1
  Co  Co15  1  0.500000  0.703180  0.430795  1
  Co  Co16  1  0.000000  0.203180  0.569205  1
  Co  Co17  1  0.000000  0.796820  0.569205  1
  Co  Co18  1  0.500000  0.877710  0.708155  1
  Co  Co19  1  0.500000  0.122290  0.708155  1
  Co  Co20  1  0.000000  0.622290  0.291845  1
  Co  Co21  1  0.000000  0.377710  0.291845  1
  P  P22  1  0.500000  0.500000  0.881677  1
  P  P23  1  0.000000  0.000000  0.118323  1
  P  P24  1  0.500000  0.500000  0.350351  1
  P  P25  1  0.000000  0.000000  0.649649  1
  P  P26  1  0.500000  0.311786  0.617729  1
  P  P27  1  0.500000  0.688214  0.617729  1
  P  P28  1  0.000000  0.188214  0.382271  1
  P  P29  1  0.000000  0.811786  0.382271  1
  P  P30  1  0.500000  0.845313  0.892119  1
  P  P31  1  0.500000  0.154687  0.892119  1
  P  P32  1  0.000000  0.654687  0.107881  1
  P  P33  1  0.000000  0.345313  0.107881  1
  Ru  Ru34  1  0.500000  0.500000  0.159597  1
  Ru  Ru35  1  0.000000  0.000000  0.840403  1
