# generated using pymatgen
data_Y7TmCu3Si12Pd
_symmetry_space_group_name_H-M   'P 1'
_cell_length_a   8.04674600
_cell_length_b   8.03412581
_cell_length_c   8.13364303
_cell_angle_alpha   89.98239382
_cell_angle_beta   90.00000000
_cell_angle_gamma   120.05196780
_symmetry_Int_Tables_number   1
_chemical_formula_structural   Y7TmCu3Si12Pd
_chemical_formula_sum   'Y7 Tm1 Cu3 Si12 Pd1'
_cell_volume   455.14206076
_cell_formula_units_Z   1
loop_
 _symmetry_equiv_pos_site_id
 _symmetry_equiv_pos_as_xyz
  1  'x, y, z'
loop_
 _atom_site_type_symbol
 _atom_site_label
 _atom_site_symmetry_multiplicity
 _atom_site_fract_x
 _atom_site_fract_y
 _atom_site_fract_z
 _atom_site_occupancy
  Y  Y0  1  0.500541  0.001082  0.750709  1
  Y  Y1  1  0.998032  0.499003  0.249185  1
  Y  Y2  1  0.998900  0.499456  0.750766  1
  Y  Y3  1  0.500972  0.499003  0.249185  1
  Y  Y4  1  0.500556  0.499456  0.750766  1
  Y  Y5  1  0.000022  0.000044  0.249087  1
  Y  Y6  1  0.000023  0.000045  0.750893  1
  Tm  Tm7  1  0.500596  0.001191  0.249479  1
  Cu  Cu8  1  0.333733  0.667467  0.002937  1
  Cu  Cu9  1  0.666282  0.332564  0.001175  1
  Cu  Cu10  1  0.666204  0.332406  0.498558  1
  Si  Si11  1  0.169598  0.339195  0.999911  1
  Si  Si12  1  0.830934  0.661868  0.000169  1
  Si  Si13  1  0.660800  0.830556  0.000799  1
  Si  Si14  1  0.831055  0.662110  0.500073  1
  Si  Si15  1  0.338104  0.168806  0.001125  1
  Si  Si16  1  0.166327  0.332652  0.499913  1
  Si  Si17  1  0.169757  0.830556  0.000799  1
  Si  Si18  1  0.337617  0.168753  0.499136  1
  Si  Si19  1  0.830702  0.168806  0.001125  1
  Si  Si20  1  0.667941  0.834069  0.498948  1
  Si  Si21  1  0.831139  0.168753  0.499136  1
  Si  Si22  1  0.166130  0.834069  0.498948  1
  Pd  Pd23  1  0.334041  0.668084  0.497181  1
