# generated using pymatgen
data_La4Al18HgIr5
_symmetry_space_group_name_H-M   'P 1'
_cell_length_a   7.72569602
_cell_length_b   7.72569697
_cell_length_c   9.68858558
_cell_angle_alpha   89.83476121
_cell_angle_beta   89.83475968
_cell_angle_gamma   119.30556281
_symmetry_Int_Tables_number   1
_chemical_formula_structural   La4Al18HgIr5
_chemical_formula_sum   'La4 Al18 Hg1 Ir5'
_cell_volume   504.26161381
_cell_formula_units_Z   1
loop_
 _symmetry_equiv_pos_site_id
 _symmetry_equiv_pos_as_xyz
  1  'x, y, z'
loop_
 _atom_site_type_symbol
 _atom_site_label
 _atom_site_symmetry_multiplicity
 _atom_site_fract_x
 _atom_site_fract_y
 _atom_site_fract_z
 _atom_site_occupancy
  La  La0  1  0.996505  0.675343  0.250693  1
  La  La1  1  0.003495  0.324657  0.749307  1
  La  La2  1  0.675343  0.996505  0.250693  1
  La  La3  1  0.324657  0.003495  0.749307  1
  Al  Al4  1  0.143732  0.143732  0.263525  1
  Al  Al5  1  0.856268  0.856268  0.736475  1
  Al  Al6  1  0.005807  0.351613  0.078489  1
  Al  Al7  1  0.994193  0.648387  0.921511  1
  Al  Al8  1  0.998238  0.662896  0.569823  1
  Al  Al9  1  0.337104  0.001762  0.430177  1
  Al  Al10  1  0.001762  0.337104  0.430177  1
  Al  Al11  1  0.662896  0.998238  0.569823  1
  Al  Al12  1  0.648387  0.994193  0.921511  1
  Al  Al13  1  0.351613  0.005807  0.078489  1
  Al  Al14  1  0.334719  0.334719  0.545018  1
  Al  Al15  1  0.665281  0.665281  0.454982  1
  Al  Al16  1  0.649458  0.649458  0.059170  1
  Al  Al17  1  0.350542  0.350542  0.940830  1
  Al  Al18  1  0.340021  0.548829  0.252340  1
  Al  Al19  1  0.659979  0.451171  0.747660  1
  Al  Al20  1  0.548829  0.340021  0.252340  1
  Al  Al21  1  0.451171  0.659979  0.747660  1
  Hg  Hg22  1  0.000000  0.000000  0.000000  1
  Ir  Ir23  1  0.670610  0.329390  0.000000  1
  Ir  Ir24  1  0.329390  0.670610  0.000000  1
  Ir  Ir25  1  0.329550  0.670450  0.500000  1
  Ir  Ir26  1  0.670450  0.329550  0.500000  1
  Ir  Ir27  1  0.000000  0.000000  0.500000  1
