# generated using pymatgen
data_Y6Fe15Co2P12Ru
_symmetry_space_group_name_H-M   'P 1'
_cell_length_a   3.73006600
_cell_length_b   10.53353400
_cell_length_c   12.23813100
_cell_angle_alpha   90.00000000
_cell_angle_beta   90.00000000
_cell_angle_gamma   90.00000000
_symmetry_Int_Tables_number   1
_chemical_formula_structural   Y6Fe15Co2P12Ru
_chemical_formula_sum   'Y6 Fe15 Co2 P12 Ru1'
_cell_volume   480.84567642
_cell_formula_units_Z   1
loop_
 _symmetry_equiv_pos_site_id
 _symmetry_equiv_pos_as_xyz
  1  'x, y, z'
loop_
 _atom_site_type_symbol
 _atom_site_label
 _atom_site_symmetry_multiplicity
 _atom_site_fract_x
 _atom_site_fract_y
 _atom_site_fract_z
 _atom_site_occupancy
  Y  Y0  1  0.000000  0.500000  0.526644  1
  Y  Y1  1  0.500000  0.000000  0.475094  1
  Y  Y2  1  0.500000  0.819383  0.207173  1
  Y  Y3  1  0.500000  0.180617  0.207173  1
  Y  Y4  1  0.000000  0.680903  0.793218  1
  Y  Y5  1  0.000000  0.319097  0.793218  1
  Fe  Fe6  1  0.000000  0.000000  0.847055  1
  Fe  Fe7  1  0.000000  0.500000  0.987717  1
  Fe  Fe8  1  0.500000  0.000000  0.010748  1
  Fe  Fe9  1  0.500000  0.326145  0.993742  1
  Fe  Fe10  1  0.500000  0.673855  0.993742  1
  Fe  Fe11  1  0.000000  0.170678  0.003016  1
  Fe  Fe12  1  0.000000  0.829322  0.003016  1
  Fe  Fe13  1  0.500000  0.298636  0.430759  1
  Fe  Fe14  1  0.500000  0.701364  0.430759  1
  Fe  Fe15  1  0.000000  0.200708  0.570679  1
  Fe  Fe16  1  0.000000  0.799292  0.570679  1
  Fe  Fe17  1  0.500000  0.882979  0.708945  1
  Fe  Fe18  1  0.500000  0.117021  0.708945  1
  Fe  Fe19  1  0.000000  0.618538  0.291836  1
  Fe  Fe20  1  0.000000  0.381462  0.291836  1
  Co  Co21  1  0.500000  0.500000  0.699918  1
  Co  Co22  1  0.000000  0.000000  0.299911  1
  P  P23  1  0.500000  0.500000  0.883896  1
  P  P24  1  0.000000  0.000000  0.115453  1
  P  P25  1  0.500000  0.500000  0.344893  1
  P  P26  1  0.000000  0.000000  0.660269  1
  P  P27  1  0.500000  0.305112  0.614482  1
  P  P28  1  0.500000  0.694888  0.614482  1
  P  P29  1  0.000000  0.194502  0.386571  1
  P  P30  1  0.000000  0.805498  0.386571  1
  P  P31  1  0.500000  0.851948  0.888202  1
  P  P32  1  0.500000  0.148052  0.888202  1
  P  P33  1  0.000000  0.652133  0.108888  1
  P  P34  1  0.000000  0.347867  0.108888  1
  Ru  Ru35  1  0.500000  0.500000  0.153378  1
