# generated using pymatgen
data_Dy3Er(Si4Tc3)2
_symmetry_space_group_name_H-M   'P 1'
_cell_length_a   6.78933626
_cell_length_b   6.78288146
_cell_length_c   6.77503998
_cell_angle_alpha   69.81843573
_cell_angle_beta   89.91368544
_cell_angle_gamma   90.00379053
_symmetry_Int_Tables_number   1
_chemical_formula_structural   Dy3Er(Si4Tc3)2
_chemical_formula_sum   'Dy3 Er1 Si8 Tc6'
_cell_volume   292.84328346
_cell_formula_units_Z   1
loop_
 _symmetry_equiv_pos_site_id
 _symmetry_equiv_pos_as_xyz
  1  'x, y, z'
loop_
 _atom_site_type_symbol
 _atom_site_label
 _atom_site_symmetry_multiplicity
 _atom_site_fract_x
 _atom_site_fract_y
 _atom_site_fract_z
 _atom_site_occupancy
  Dy  Dy0  1  0.167427  0.057651  0.808798  1
  Dy  Dy1  1  0.332697  0.557630  0.808920  1
  Dy  Dy2  1  0.832384  0.942313  0.191186  1
  Er  Er3  1  0.668184  0.442386  0.192026  1
  Si  Si4  1  0.448535  0.122364  0.103410  1
  Si  Si5  1  0.947669  0.378315  0.897264  1
  Si  Si6  1  0.551965  0.877657  0.897173  1
  Si  Si7  1  0.050871  0.621347  0.103409  1
  Si  Si8  1  0.857496  0.132413  0.512350  1
  Si  Si9  1  0.358696  0.368748  0.486151  1
  Si  Si10  1  0.141940  0.868485  0.486818  1
  Si  Si11  1  0.642028  0.630966  0.512513  1
  Tc  Tc12  1  0.500246  0.000657  0.499642  1
  Tc  Tc13  1  0.999632  0.499849  0.499723  1
  Tc  Tc14  1  0.149725  0.242518  0.240224  1
  Tc  Tc15  1  0.649878  0.257558  0.760238  1
  Tc  Tc16  1  0.849898  0.757264  0.760214  1
  Tc  Tc17  1  0.350729  0.741879  0.239942  1
