# generated using pymatgen
data_Zr3Si4Ir4Ru
_symmetry_space_group_name_H-M   'P 1'
_cell_length_a   3.93357000
_cell_length_b   6.49310943
_cell_length_c   7.37152584
_cell_angle_alpha   88.99865331
_cell_angle_beta   90.00000000
_cell_angle_gamma   90.00000000
_symmetry_Int_Tables_number   1
_chemical_formula_structural   Zr3Si4Ir4Ru
_chemical_formula_sum   'Zr3 Si4 Ir4 Ru1'
_cell_volume   188.24812939
_cell_formula_units_Z   1
loop_
 _symmetry_equiv_pos_site_id
 _symmetry_equiv_pos_as_xyz
  1  'x, y, z'
loop_
 _atom_site_type_symbol
 _atom_site_label
 _atom_site_symmetry_multiplicity
 _atom_site_fract_x
 _atom_site_fract_y
 _atom_site_fract_z
 _atom_site_occupancy
  Zr  Zr0  1  0.250000  0.515296  0.183247  1
  Zr  Zr1  1  0.750000  0.980209  0.670145  1
  Zr  Zr2  1  0.750000  0.471716  0.825829  1
  Si  Si3  1  0.250000  0.275208  0.608655  1
  Si  Si4  1  0.250000  0.772274  0.880539  1
  Si  Si5  1  0.750000  0.737652  0.373347  1
  Si  Si6  1  0.750000  0.203187  0.139645  1
  Ir  Ir7  1  0.250000  0.148174  0.932806  1
  Ir  Ir8  1  0.250000  0.654957  0.561905  1
  Ir  Ir9  1  0.750000  0.846927  0.062680  1
  Ir  Ir10  1  0.750000  0.355194  0.438347  1
  Ru  Ru11  1  0.250000  0.039206  0.322855  1
