# generated using pymatgen
data_Pa(NbSe2)5
_symmetry_space_group_name_H-M   'P 1'
_cell_length_a   6.08986271
_cell_length_b   8.08453612
_cell_length_c   8.86198300
_cell_angle_alpha   113.61665828
_cell_angle_beta   96.82954491
_cell_angle_gamma   104.25118319
_symmetry_Int_Tables_number   1
_chemical_formula_structural   Pa(NbSe2)5
_chemical_formula_sum   'Pa1 Nb5 Se10'
_cell_volume   375.65864196
_cell_formula_units_Z   1
loop_
 _symmetry_equiv_pos_site_id
 _symmetry_equiv_pos_as_xyz
  1  'x, y, z'
loop_
 _atom_site_type_symbol
 _atom_site_label
 _atom_site_symmetry_multiplicity
 _atom_site_fract_x
 _atom_site_fract_y
 _atom_site_fract_z
 _atom_site_occupancy
  Pa  Pa0  1  0.667506  0.512025  0.991982  1
  Nb  Nb1  1  0.002517  0.994852  0.000252  1
  Nb  Nb2  1  0.599141  0.207416  0.202568  1
  Nb  Nb3  1  0.196491  0.398923  0.397561  1
  Nb  Nb4  1  0.797378  0.599370  0.605116  1
  Nb  Nb5  1  0.404047  0.793289  0.798834  1
  Se  Se6  1  0.237446  0.058592  0.296171  1
  Se  Se7  1  0.053093  0.652241  0.896774  1
  Se  Se8  1  0.833840  0.255807  0.492580  1
  Se  Se9  1  0.636667  0.871169  0.109847  1
  Se  Se10  1  0.418927  0.436173  0.680929  1
  Se  Se11  1  0.900693  0.554381  0.312242  1
  Se  Se12  1  0.698487  0.137784  0.900298  1
  Se  Se13  1  0.498663  0.743186  0.507511  1
  Se  Se14  1  0.288817  0.343742  0.101945  1
  Se  Se15  1  0.099087  0.938649  0.706988  1
