# generated using pymatgen
data_Dy8Ho2BiPb5
_symmetry_space_group_name_H-M   'P 1'
_cell_length_a   9.09531400
_cell_length_b   9.09100033
_cell_length_c   6.56990301
_cell_angle_alpha   90.00553059
_cell_angle_beta   90.00000000
_cell_angle_gamma   120.01570481
_symmetry_Int_Tables_number   1
_chemical_formula_structural   Dy8Ho2BiPb5
_chemical_formula_sum   'Dy8 Ho2 Bi1 Pb5'
_cell_volume   470.38147322
_cell_formula_units_Z   1
loop_
 _symmetry_equiv_pos_site_id
 _symmetry_equiv_pos_as_xyz
  1  'x, y, z'
loop_
 _atom_site_type_symbol
 _atom_site_label
 _atom_site_symmetry_multiplicity
 _atom_site_fract_x
 _atom_site_fract_y
 _atom_site_fract_z
 _atom_site_occupancy
  Dy  Dy0  1  0.331661  0.664639  0.999957  1
  Dy  Dy1  1  0.667022  0.335361  0.500043  1
  Dy  Dy2  1  0.236215  0.000000  0.250000  1
  Dy  Dy3  1  0.237415  0.238045  0.750012  1
  Dy  Dy4  1  0.999370  0.761955  0.749988  1
  Dy  Dy5  1  0.003324  0.239668  0.249995  1
  Dy  Dy6  1  0.763655  0.760332  0.250005  1
  Dy  Dy7  1  0.762416  0.000000  0.750000  1
  Ho  Ho8  1  0.667027  0.335376  0.999970  1
  Ho  Ho9  1  0.331650  0.664624  0.500030  1
  Bi  Bi10  1  0.606448  0.000000  0.250000  1
  Pb  Pb11  1  0.605417  0.606403  0.749990  1
  Pb  Pb12  1  0.999014  0.393597  0.750010  1
  Pb  Pb13  1  0.000190  0.605123  0.249986  1
  Pb  Pb14  1  0.395067  0.394877  0.250014  1
  Pb  Pb15  1  0.394109  0.000000  0.750000  1
