# generated using pymatgen
data_Cs(SnS2)12
_symmetry_space_group_name_H-M   'P 1'
_cell_length_a   11.81757971
_cell_length_b   11.95029414
_cell_length_c   11.07574193
_cell_angle_alpha   108.38078915
_cell_angle_beta   108.55052635
_cell_angle_gamma   65.74294582
_symmetry_Int_Tables_number   1
_chemical_formula_structural   Cs(SnS2)12
_chemical_formula_sum   'Cs1 Sn12 S24'
_cell_volume   1320.76204139
_cell_formula_units_Z   1
loop_
 _symmetry_equiv_pos_site_id
 _symmetry_equiv_pos_as_xyz
  1  'x, y, z'
loop_
 _atom_site_type_symbol
 _atom_site_label
 _atom_site_symmetry_multiplicity
 _atom_site_fract_x
 _atom_site_fract_y
 _atom_site_fract_z
 _atom_site_occupancy
  Cs  Cs0  1  0.000000  0.500000  0.000000  1
  Sn  Sn1  1  0.498614  0.500682  0.666369  1
  Sn  Sn2  1  0.999145  0.998773  0.664835  1
  Sn  Sn3  1  0.745915  0.246246  0.830594  1
  Sn  Sn4  1  0.251825  0.753053  0.833964  1
  Sn  Sn5  1  0.500000  0.500000  0.000000  1
  Sn  Sn6  1  0.000000  0.000000  0.000000  1
  Sn  Sn7  1  0.748175  0.246947  0.166036  1
  Sn  Sn8  1  0.254085  0.753754  0.169406  1
  Sn  Sn9  1  0.501386  0.499318  0.333631  1
  Sn  Sn10  1  0.000855  0.001227  0.335165  1
  Sn  Sn11  1  0.747511  0.247216  0.497591  1
  Sn  Sn12  1  0.252489  0.752784  0.502409  1
  S  S13  1  0.500168  0.337935  0.778404  1
  S  S14  1  0.003936  0.837423  0.779817  1
  S  S15  1  0.752210  0.084312  0.944925  1
  S  S16  1  0.252175  0.590667  0.947058  1
  S  S17  1  0.747066  0.409763  0.720753  1
  S  S18  1  0.247112  0.916305  0.722175  1
  S  S19  1  0.501006  0.337588  0.111324  1
  S  S20  1  0.005164  0.836773  0.113563  1
  S  S21  1  0.994836  0.163227  0.886437  1
  S  S22  1  0.498994  0.662412  0.888676  1
  S  S23  1  0.252934  0.590237  0.279247  1
  S  S24  1  0.752888  0.083695  0.277825  1
  S  S25  1  0.747825  0.409333  0.052942  1
  S  S26  1  0.247790  0.915688  0.055075  1
  S  S27  1  0.500890  0.337656  0.445465  1
  S  S28  1  0.004625  0.836516  0.444678  1
  S  S29  1  0.996064  0.162577  0.220183  1
  S  S30  1  0.499832  0.662065  0.221596  1
  S  S31  1  0.252258  0.590472  0.613104  1
  S  S32  1  0.751411  0.084391  0.610553  1
  S  S33  1  0.747742  0.409528  0.386896  1
  S  S34  1  0.248589  0.915609  0.389447  1
  S  S35  1  0.995375  0.163484  0.555322  1
  S  S36  1  0.499110  0.662344  0.554535  1
