# generated using pymatgen
data_Pr3Y13Cd4(CoPd)2
_symmetry_space_group_name_H-M   'P 1'
_cell_length_a   9.70906667
_cell_length_b   9.69775399
_cell_length_c   9.70511300
_cell_angle_alpha   59.97489812
_cell_angle_beta   60.01347305
_cell_angle_gamma   60.20864229
_symmetry_Int_Tables_number   1
_chemical_formula_structural   Pr3Y13Cd4(CoPd)2
_chemical_formula_sum   'Pr3 Y13 Cd4 Co2 Pd2'
_cell_volume   647.10682145
_cell_formula_units_Z   1
loop_
 _symmetry_equiv_pos_site_id
 _symmetry_equiv_pos_as_xyz
  1  'x, y, z'
loop_
 _atom_site_type_symbol
 _atom_site_label
 _atom_site_symmetry_multiplicity
 _atom_site_fract_x
 _atom_site_fract_y
 _atom_site_fract_z
 _atom_site_occupancy
  Pr  Pr0  1  0.346910  0.347363  0.362831  1
  Pr  Pr1  1  0.346910  0.347363  0.942896  1
  Pr  Pr2  1  0.340196  0.952980  0.353411  1
  Y  Y3  1  0.950050  0.343920  0.353015  1
  Y  Y4  1  0.822117  0.187551  0.188637  1
  Y  Y5  1  0.186777  0.821690  0.804299  1
  Y  Y6  1  0.186777  0.821690  0.187233  1
  Y  Y7  1  0.822117  0.187551  0.801694  1
  Y  Y8  1  0.185878  0.185841  0.814140  1
  Y  Y9  1  0.811119  0.811432  0.188724  1
  Y  Y10  1  0.934705  0.562480  0.566483  1
  Y  Y11  1  0.564152  0.932333  0.936198  1
  Y  Y12  1  0.564152  0.932333  0.567318  1
  Y  Y13  1  0.934705  0.562480  0.936332  1
  Y  Y14  1  0.563875  0.562676  0.936725  1
  Y  Y15  1  0.934438  0.934821  0.565371  1
  Cd  Cd16  1  0.584338  0.580233  0.578230  1
  Cd  Cd17  1  0.584338  0.580233  0.257200  1
  Cd  Cd18  1  0.588903  0.250312  0.580393  1
  Cd  Cd19  1  0.250819  0.585216  0.581982  1
  Co  Co20  1  0.138950  0.145120  0.141457  1
  Co  Co21  1  0.138950  0.145120  0.574472  1
  Pd  Pd22  1  0.140750  0.574979  0.142136  1
  Pd  Pd23  1  0.578075  0.144281  0.138822  1
