# generated using pymatgen
data_Mg4V(SbPt)5
_symmetry_space_group_name_H-M   'P 1'
_cell_length_a   18.59441488
_cell_length_b   18.59441481
_cell_length_c   18.59441500
_cell_angle_alpha   13.76476297
_cell_angle_beta   13.76476384
_cell_angle_gamma   13.76476214
_symmetry_Int_Tables_number   1
_chemical_formula_structural   Mg4V(SbPt)5
_chemical_formula_sum   'Mg4 V1 Sb5 Pt5'
_cell_volume   316.72529490
_cell_formula_units_Z   1
loop_
 _symmetry_equiv_pos_site_id
 _symmetry_equiv_pos_as_xyz
  1  'x, y, z'
loop_
 _atom_site_type_symbol
 _atom_site_label
 _atom_site_symmetry_multiplicity
 _atom_site_fract_x
 _atom_site_fract_y
 _atom_site_fract_z
 _atom_site_occupancy
  Mg  Mg0  1  0.699368  0.699368  0.699368  1
  Mg  Mg1  1  0.098993  0.098993  0.098993  1
  Mg  Mg2  1  0.499960  0.499960  0.499960  1
  Mg  Mg3  1  0.899797  0.899797  0.899797  1
  V  V4  1  0.300377  0.300377  0.300377  1
  Sb  Sb5  1  0.600080  0.600080  0.600080  1
  Sb  Sb6  1  0.801504  0.801504  0.801504  1
  Sb  Sb7  1  0.201712  0.201712  0.201712  1
  Sb  Sb8  1  0.999120  0.999120  0.999120  1
  Sb  Sb9  1  0.400109  0.400109  0.400109  1
  Pt  Pt10  1  0.049353  0.049353  0.049353  1
  Pt  Pt11  1  0.449677  0.449677  0.449677  1
  Pt  Pt12  1  0.850144  0.850144  0.850144  1
  Pt  Pt13  1  0.252070  0.252070  0.252070  1
  Pt  Pt14  1  0.647738  0.647738  0.647738  1
