# generated using pymatgen
data_USb(P2O7)2
_symmetry_space_group_name_H-M   'P 1'
_cell_length_a   8.87380929
_cell_length_b   5.22683819
_cell_length_c   7.42740375
_cell_angle_alpha   72.30348851
_cell_angle_beta   88.03692140
_cell_angle_gamma   90.69874776
_symmetry_Int_Tables_number   1
_chemical_formula_structural   USb(P2O7)2
_chemical_formula_sum   'U1 Sb1 P4 O14'
_cell_volume   327.91085893
_cell_formula_units_Z   1
loop_
 _symmetry_equiv_pos_site_id
 _symmetry_equiv_pos_as_xyz
  1  'x, y, z'
loop_
 _atom_site_type_symbol
 _atom_site_label
 _atom_site_symmetry_multiplicity
 _atom_site_fract_x
 _atom_site_fract_y
 _atom_site_fract_z
 _atom_site_occupancy
  U  U0  1  0.545478  0.791632  0.712026  1
  Sb  Sb1  1  0.050143  0.216913  0.272608  1
  P  P2  1  0.880581  0.596155  0.529984  1
  P  P3  1  0.286801  0.778304  0.108757  1
  P  P4  1  0.769740  0.233705  0.898392  1
  P  P5  1  0.357523  0.391041  0.469265  1
  O  O6  1  0.709123  0.013782  0.815029  1
  O  O7  1  0.385477  0.830315  0.921024  1
  O  O8  1  0.003208  0.810033  0.496152  1
  O  O9  1  0.718595  0.717993  0.527742  1
  O  O10  1  0.382173  0.563463  0.602569  1
  O  O11  1  0.636439  0.429362  0.894618  1
  O  O12  1  0.896031  0.406089  0.747253  1
  O  O13  1  0.398366  0.578497  0.259342  1
  O  O14  1  0.143671  0.620207  0.100799  1
  O  O15  1  0.882694  0.414808  0.403531  1
  O  O16  1  0.196164  0.282501  0.484217  1
  O  O17  1  0.474732  0.166128  0.510427  1
  O  O18  1  0.838483  0.125689  0.085331  1
  O  O19  1  0.267791  0.033383  0.160933  1
