# generated using pymatgen
data_Dy2Er14CdAg2HgPt4
_symmetry_space_group_name_H-M   'P 1'
_cell_length_a   9.59086916
_cell_length_b   9.59858190
_cell_length_c   9.58497200
_cell_angle_alpha   60.04689293
_cell_angle_beta   60.02033772
_cell_angle_gamma   60.00293360
_symmetry_Int_Tables_number   1
_chemical_formula_structural   Dy2Er14CdAg2HgPt4
_chemical_formula_sum   'Dy2 Er14 Cd1 Ag2 Hg1 Pt4'
_cell_volume   624.26783516
_cell_formula_units_Z   1
loop_
 _symmetry_equiv_pos_site_id
 _symmetry_equiv_pos_as_xyz
  1  'x, y, z'
loop_
 _atom_site_type_symbol
 _atom_site_label
 _atom_site_symmetry_multiplicity
 _atom_site_fract_x
 _atom_site_fract_y
 _atom_site_fract_z
 _atom_site_occupancy
  Dy  Dy0  1  0.565035  0.565825  0.934570  1
  Dy  Dy1  1  0.934908  0.935863  0.564614  1
  Er  Er2  1  0.353736  0.353049  0.351975  1
  Er  Er3  1  0.353736  0.353049  0.941243  1
  Er  Er4  1  0.356399  0.936223  0.353690  1
  Er  Er5  1  0.932862  0.356789  0.355175  1
  Er  Er6  1  0.810496  0.189996  0.190110  1
  Er  Er7  1  0.188828  0.811432  0.810114  1
  Er  Er8  1  0.188828  0.811432  0.189628  1
  Er  Er9  1  0.810496  0.189996  0.809398  1
  Er  Er10  1  0.189374  0.190275  0.810175  1
  Er  Er11  1  0.810719  0.810985  0.189148  1
  Er  Er12  1  0.934105  0.564050  0.564664  1
  Er  Er13  1  0.563168  0.935237  0.936912  1
  Er  Er14  1  0.563168  0.935237  0.564685  1
  Er  Er15  1  0.934105  0.564049  0.937182  1
  Cd  Cd16  1  0.257318  0.580622  0.581030  1
  Ag  Ag17  1  0.584676  0.587019  0.585464  1
  Ag  Ag18  1  0.584676  0.587019  0.242839  1
  Hg  Hg19  1  0.584745  0.241774  0.586740  1
  Pt  Pt20  1  0.143657  0.144255  0.145058  1
  Pt  Pt21  1  0.143657  0.144255  0.567032  1
  Pt  Pt22  1  0.141514  0.569400  0.144543  1
  Pt  Pt23  1  0.569799  0.142172  0.144015  1
