# generated using pymatgen
data_Er3Sc4Pa(ReB6)4
_symmetry_space_group_name_H-M   'P 1'
_cell_length_a   3.59735300
_cell_length_b   8.98730580
_cell_length_c   11.35741316
_cell_angle_alpha   90.07080162
_cell_angle_beta   90.00000000
_cell_angle_gamma   90.00000000
_symmetry_Int_Tables_number   1
_chemical_formula_structural   Er3Sc4Pa(ReB6)4
_chemical_formula_sum   'Er3 Sc4 Pa1 Re4 B24'
_cell_volume   367.19069638
_cell_formula_units_Z   1
loop_
 _symmetry_equiv_pos_site_id
 _symmetry_equiv_pos_as_xyz
  1  'x, y, z'
loop_
 _atom_site_type_symbol
 _atom_site_label
 _atom_site_symmetry_multiplicity
 _atom_site_fract_x
 _atom_site_fract_y
 _atom_site_fract_z
 _atom_site_occupancy
  Er  Er0  1  0.000000  0.681126  0.586903  1
  Er  Er1  1  0.000000  0.821275  0.085406  1
  Er  Er2  1  0.000000  0.177640  0.913382  1
  Sc  Sc3  1  0.000000  0.943468  0.372062  1
  Sc  Sc4  1  0.000000  0.054342  0.629037  1
  Sc  Sc5  1  0.000000  0.444404  0.127000  1
  Sc  Sc6  1  0.000000  0.556669  0.871184  1
  Pa  Pa7  1  0.000000  0.321593  0.414263  1
  Re  Re8  1  0.000000  0.638177  0.319321  1
  Re  Re9  1  0.000000  0.360164  0.679605  1
  Re  Re10  1  0.000000  0.142354  0.182582  1
  Re  Re11  1  0.000000  0.859577  0.818999  1
  B  B12  1  0.500000  0.554137  0.432179  1
  B  B13  1  0.500000  0.445456  0.567907  1
  B  B14  1  0.500000  0.054288  0.066870  1
  B  B15  1  0.500000  0.946123  0.933515  1
  B  B16  1  0.500000  0.753693  0.418343  1
  B  B17  1  0.500000  0.246208  0.582177  1
  B  B18  1  0.500000  0.253206  0.080229  1
  B  B19  1  0.500000  0.746478  0.919033  1
  B  B20  1  0.500000  0.794575  0.264872  1
  B  B21  1  0.500000  0.205509  0.735843  1
  B  B22  1  0.500000  0.293926  0.234302  1
  B  B23  1  0.500000  0.705599  0.765169  1
  B  B24  1  0.500000  0.629746  0.182237  1
  B  B25  1  0.500000  0.371331  0.817219  1
  B  B26  1  0.500000  0.129296  0.316535  1
  B  B27  1  0.500000  0.870649  0.683575  1
  B  B28  1  0.500000  0.981171  0.213142  1
  B  B29  1  0.500000  0.018821  0.786902  1
  B  B30  1  0.500000  0.482018  0.285622  1
  B  B31  1  0.500000  0.519269  0.714682  1
  B  B32  1  0.500000  0.596916  0.026084  1
  B  B33  1  0.500000  0.403157  0.972979  1
  B  B34  1  0.500000  0.097129  0.473544  1
  B  B35  1  0.500000  0.900511  0.527299  1
