# generated using pymatgen
data_Ce5Mg3(Ni4As3)4
_symmetry_space_group_name_H-M   'P 1'
_cell_length_a   12.98924300
_cell_length_b   12.98924409
_cell_length_c   4.03979700
_cell_angle_alpha   90.00000000
_cell_angle_beta   90.00000000
_cell_angle_gamma   120.02142494
_symmetry_Int_Tables_number   1
_chemical_formula_structural   Ce5Mg3(Ni4As3)4
_chemical_formula_sum   'Ce5 Mg3 Ni16 As12'
_cell_volume   590.15228425
_cell_formula_units_Z   1
loop_
 _symmetry_equiv_pos_site_id
 _symmetry_equiv_pos_as_xyz
  1  'x, y, z'
loop_
 _atom_site_type_symbol
 _atom_site_label
 _atom_site_symmetry_multiplicity
 _atom_site_fract_x
 _atom_site_fract_y
 _atom_site_fract_z
 _atom_site_occupancy
  Ce  Ce0  1  0.666625  0.333276  0.000000  1
  Ce  Ce1  1  0.333276  0.666625  0.000000  1
  Ce  Ce2  1  0.188370  0.000191  0.500000  1
  Ce  Ce3  1  0.000191  0.188370  0.500000  1
  Ce  Ce4  1  0.811801  0.811801  0.500000  1
  Mg  Mg5  1  0.569304  0.999978  0.000000  1
  Mg  Mg6  1  0.430650  0.430650  0.000000  1
  Mg  Mg7  1  0.999978  0.569304  0.000000  1
  Ni  Ni8  1  0.999711  0.999711  0.000000  1
  Ni  Ni9  1  0.804851  0.183892  0.000000  1
  Ni  Ni10  1  0.379064  0.195143  0.000000  1
  Ni  Ni11  1  0.195143  0.379064  0.000000  1
  Ni  Ni12  1  0.815960  0.620850  0.000000  1
  Ni  Ni13  1  0.183891  0.804851  0.000000  1
  Ni  Ni14  1  0.620850  0.815960  0.000000  1
  Ni  Ni15  1  0.719899  0.000026  0.500000  1
  Ni  Ni16  1  0.481476  0.117676  0.500000  1
  Ni  Ni17  1  0.280079  0.280079  0.500000  1
  Ni  Ni18  1  0.882361  0.363852  0.500000  1
  Ni  Ni19  1  0.117675  0.481476  0.500000  1
  Ni  Ni20  1  0.636373  0.518722  0.500000  1
  Ni  Ni21  1  0.518721  0.636373  0.500000  1
  Ni  Ni22  1  0.000026  0.719899  0.500000  1
  Ni  Ni23  1  0.363852  0.882361  0.500000  1
  As  As24  1  0.363892  0.000013  0.000000  1
  As  As25  1  0.820198  0.999789  0.000000  1
  As  As26  1  0.179595  0.179595  0.000000  1
  As  As27  1  0.000013  0.363892  0.000000  1
  As  As28  1  0.636387  0.636387  0.000000  1
  As  As29  1  0.999789  0.820197  0.000000  1
  As  As30  1  0.697723  0.174210  0.500000  1
  As  As31  1  0.476560  0.302346  0.500000  1
  As  As32  1  0.302346  0.476560  0.500000  1
  As  As33  1  0.825788  0.523441  0.500000  1
  As  As34  1  0.174210  0.697723  0.500000  1
  As  As35  1  0.523440  0.825788  0.500000  1
