# generated using pymatgen
data_Y2Ni5P6Rh5
_symmetry_space_group_name_H-M   'P 1'
_cell_length_a   3.79684800
_cell_length_b   10.64840800
_cell_length_c   12.20575200
_cell_angle_alpha   90.00000000
_cell_angle_beta   90.00000000
_cell_angle_gamma   90.00000000
_symmetry_Int_Tables_number   1
_chemical_formula_structural   Y2Ni5P6Rh5
_chemical_formula_sum   'Y4 Ni10 P12 Rh10'
_cell_volume   493.48327232
_cell_formula_units_Z   2
loop_
 _symmetry_equiv_pos_site_id
 _symmetry_equiv_pos_as_xyz
  1  'x, y, z'
loop_
 _atom_site_type_symbol
 _atom_site_label
 _atom_site_symmetry_multiplicity
 _atom_site_fract_x
 _atom_site_fract_y
 _atom_site_fract_z
 _atom_site_occupancy
  Y  Y0  1  0.250000  0.590544  0.709660  1
  Y  Y1  1  0.250000  0.909456  0.209660  1
  Y  Y2  1  0.750000  0.419502  0.293215  1
  Y  Y3  1  0.750000  0.080498  0.793215  1
  Ni  Ni4  1  0.750000  0.779301  0.817961  1
  Ni  Ni5  1  0.750000  0.720699  0.317961  1
  Ni  Ni6  1  0.250000  0.885189  0.696506  1
  Ni  Ni7  1  0.250000  0.614811  0.196506  1
  Ni  Ni8  1  0.750000  0.105220  0.301281  1
  Ni  Ni9  1  0.750000  0.394780  0.801281  1
  Ni  Ni10  1  0.250000  0.462090  0.933078  1
  Ni  Ni11  1  0.250000  0.037910  0.433078  1
  Ni  Ni12  1  0.750000  0.533199  0.066088  1
  Ni  Ni13  1  0.750000  0.966801  0.566088  1
  P  P14  1  0.250000  0.422787  0.112348  1
  P  P15  1  0.250000  0.077213  0.612348  1
  P  P16  1  0.750000  0.584555  0.887511  1
  P  P17  1  0.750000  0.915445  0.387511  1
  P  P18  1  0.250000  0.269682  0.874175  1
  P  P19  1  0.250000  0.230318  0.374175  1
  P  P20  1  0.750000  0.724342  0.134196  1
  P  P21  1  0.750000  0.775658  0.634196  1
  P  P22  1  0.250000  0.605144  0.381721  1
  P  P23  1  0.250000  0.894856  0.881721  1
  P  P24  1  0.750000  0.405082  0.615459  1
  P  P25  1  0.750000  0.094918  0.115459  1
  Rh  Rh26  1  0.250000  0.705130  0.982347  1
  Rh  Rh27  1  0.250000  0.794870  0.482347  1
  Rh  Rh28  1  0.750000  0.284917  0.009465  1
  Rh  Rh29  1  0.750000  0.215083  0.509465  1
  Rh  Rh30  1  0.250000  0.413254  0.483613  1
  Rh  Rh31  1  0.250000  0.086746  0.983613  1
  Rh  Rh32  1  0.750000  0.599865  0.517168  1
  Rh  Rh33  1  0.750000  0.900135  0.017168  1
  Rh  Rh34  1  0.250000  0.224242  0.184208  1
  Rh  Rh35  1  0.250000  0.275758  0.684208  1
