# generated using pymatgen
data_Ho5Ta3(P3Rh4)4
_symmetry_space_group_name_H-M   'P 1'
_cell_length_a   12.75708800
_cell_length_b   12.75708875
_cell_length_c   3.91817700
_cell_angle_alpha   90.00000000
_cell_angle_beta   90.00000000
_cell_angle_gamma   120.00000842
_symmetry_Int_Tables_number   1
_chemical_formula_structural   Ho5Ta3(P3Rh4)4
_chemical_formula_sum   'Ho5 Ta3 P12 Rh16'
_cell_volume   552.22717464
_cell_formula_units_Z   1
loop_
 _symmetry_equiv_pos_site_id
 _symmetry_equiv_pos_as_xyz
  1  'x, y, z'
loop_
 _atom_site_type_symbol
 _atom_site_label
 _atom_site_symmetry_multiplicity
 _atom_site_fract_x
 _atom_site_fract_y
 _atom_site_fract_z
 _atom_site_occupancy
  Ho  Ho0  1  0.666667  0.333333  0.000000  1
  Ho  Ho1  1  0.333333  0.666667  0.000000  1
  Ho  Ho2  1  0.813331  0.813331  0.500000  1
  Ho  Ho3  1  0.186669  0.000000  0.500000  1
  Ho  Ho4  1  0.000000  0.186669  0.500000  1
  Ta  Ta5  1  0.449871  0.449871  0.000000  1
  Ta  Ta6  1  0.550129  0.000000  0.000000  1
  Ta  Ta7  1  0.000000  0.550129  0.000000  1
  P  P8  1  0.682671  0.165211  0.500000  1
  P  P9  1  0.834789  0.517459  0.500000  1
  P  P10  1  0.482541  0.317329  0.500000  1
  P  P11  1  0.165211  0.682671  0.500000  1
  P  P12  1  0.517459  0.834789  0.500000  1
  P  P13  1  0.317329  0.482541  0.500000  1
  P  P14  1  0.175288  0.175288  0.000000  1
  P  P15  1  0.824712  0.000000  0.000000  1
  P  P16  1  0.000000  0.824712  0.000000  1
  P  P17  1  0.641731  0.641731  0.000000  1
  P  P18  1  0.358269  0.000000  0.000000  1
  P  P19  1  0.000000  0.358269  0.000000  1
  Rh  Rh20  1  0.866502  0.354957  0.500000  1
  Rh  Rh21  1  0.645043  0.511545  0.500000  1
  Rh  Rh22  1  0.488455  0.133498  0.500000  1
  Rh  Rh23  1  0.354957  0.866502  0.500000  1
  Rh  Rh24  1  0.511545  0.645043  0.500000  1
  Rh  Rh25  1  0.133498  0.488455  0.500000  1
  Rh  Rh26  1  0.802937  0.176931  0.000000  1
  Rh  Rh27  1  0.823069  0.626005  0.000000  1
  Rh  Rh28  1  0.373995  0.197063  0.000000  1
  Rh  Rh29  1  0.176931  0.802937  0.000000  1
  Rh  Rh30  1  0.626005  0.823069  0.000000  1
  Rh  Rh31  1  0.197063  0.373995  0.000000  1
  Rh  Rh32  1  0.280664  0.280664  0.500000  1
  Rh  Rh33  1  0.719336  0.000000  0.500000  1
  Rh  Rh34  1  0.000000  0.719336  0.500000  1
  Rh  Rh35  1  0.000000  0.000000  0.000000  1
