# generated using pymatgen
data_Ce10SiBi6Os
_symmetry_space_group_name_H-M   'P 1'
_cell_length_a   6.50664954
_cell_length_b   9.62285975
_cell_length_c   9.63230300
_cell_angle_alpha   119.96758253
_cell_angle_beta   90.03940563
_cell_angle_gamma   89.92111455
_symmetry_Int_Tables_number   1
_chemical_formula_structural   Ce10SiBi6Os
_chemical_formula_sum   'Ce10 Si1 Bi6 Os1'
_cell_volume   522.47281805
_cell_formula_units_Z   1
loop_
 _symmetry_equiv_pos_site_id
 _symmetry_equiv_pos_as_xyz
  1  'x, y, z'
loop_
 _atom_site_type_symbol
 _atom_site_label
 _atom_site_symmetry_multiplicity
 _atom_site_fract_x
 _atom_site_fract_y
 _atom_site_fract_z
 _atom_site_occupancy
  Ce  Ce0  1  0.500284  0.333250  0.666833  1
  Ce  Ce1  1  0.500284  0.666418  0.333167  1
  Ce  Ce2  1  0.999822  0.666539  0.333231  1
  Ce  Ce3  1  0.999822  0.333309  0.666769  1
  Ce  Ce4  1  0.759150  0.246137  0.000000  1
  Ce  Ce5  1  0.758498  0.753437  0.753583  1
  Ce  Ce6  1  0.758498  0.999854  0.246417  1
  Ce  Ce7  1  0.240657  0.754679  0.000000  1
  Ce  Ce8  1  0.241349  0.246087  0.245809  1
  Ce  Ce9  1  0.241349  0.000278  0.754191  1
  Si  Si10  1  0.501278  0.000116  0.000000  1
  Bi  Bi11  1  0.747323  0.609976  0.000000  1
  Bi  Bi12  1  0.747627  0.389734  0.389957  1
  Bi  Bi13  1  0.747627  0.999779  0.610043  1
  Bi  Bi14  1  0.252733  0.390025  0.000000  1
  Bi  Bi15  1  0.252426  0.609892  0.609740  1
  Bi  Bi16  1  0.252426  0.000152  0.390260  1
  Os  Os17  1  0.998851  0.000339  0.000000  1
