# generated using pymatgen
data_Ho4B12MoIr
_symmetry_space_group_name_H-M   'P 1'
_cell_length_a   3.65490800
_cell_length_b   9.19015629
_cell_length_c   11.59089059
_cell_angle_alpha   90.30026967
_cell_angle_beta   90.00000000
_cell_angle_gamma   90.00000000
_symmetry_Int_Tables_number   1
_chemical_formula_structural   Ho4B12MoIr
_chemical_formula_sum   'Ho8 B24 Mo2 Ir2'
_cell_volume   389.32311463
_cell_formula_units_Z   2
loop_
 _symmetry_equiv_pos_site_id
 _symmetry_equiv_pos_as_xyz
  1  'x, y, z'
loop_
 _atom_site_type_symbol
 _atom_site_label
 _atom_site_symmetry_multiplicity
 _atom_site_fract_x
 _atom_site_fract_y
 _atom_site_fract_z
 _atom_site_occupancy
  Ho  Ho0  1  0.000000  0.318223  0.410825  1
  Ho  Ho1  1  0.000000  0.681777  0.589175  1
  Ho  Ho2  1  0.000000  0.825698  0.083508  1
  Ho  Ho3  1  0.000000  0.174302  0.916492  1
  Ho  Ho4  1  0.000000  0.945737  0.372535  1
  Ho  Ho5  1  0.000000  0.054263  0.627465  1
  Ho  Ho6  1  0.000000  0.442833  0.125664  1
  Ho  Ho7  1  0.000000  0.557167  0.874336  1
  B  B8  1  0.500000  0.553634  0.434139  1
  B  B9  1  0.500000  0.446366  0.565861  1
  B  B10  1  0.500000  0.051443  0.066094  1
  B  B11  1  0.500000  0.948557  0.933906  1
  B  B12  1  0.500000  0.748849  0.420800  1
  B  B13  1  0.500000  0.251151  0.579200  1
  B  B14  1  0.500000  0.249141  0.078986  1
  B  B15  1  0.500000  0.750859  0.921014  1
  B  B16  1  0.500000  0.791062  0.266828  1
  B  B17  1  0.500000  0.208938  0.733172  1
  B  B18  1  0.500000  0.295254  0.235477  1
  B  B19  1  0.500000  0.704746  0.764523  1
  B  B20  1  0.500000  0.631753  0.185118  1
  B  B21  1  0.500000  0.368247  0.814882  1
  B  B22  1  0.500000  0.133248  0.316773  1
  B  B23  1  0.500000  0.866752  0.683227  1
  B  B24  1  0.500000  0.979933  0.213845  1
  B  B25  1  0.500000  0.020067  0.786155  1
  B  B26  1  0.500000  0.482860  0.287686  1
  B  B27  1  0.500000  0.517140  0.712314  1
  B  B28  1  0.500000  0.607993  0.030999  1
  B  B29  1  0.500000  0.392007  0.969001  1
  B  B30  1  0.500000  0.109542  0.470958  1
  B  B31  1  0.500000  0.890458  0.529042  1
  Mo  Mo32  1  0.000000  0.138991  0.180471  1
  Mo  Mo33  1  0.000000  0.861009  0.819529  1
  Ir  Ir34  1  0.000000  0.637152  0.322442  1
  Ir  Ir35  1  0.000000  0.362848  0.677558  1
