# generated using pymatgen
data_TiNb3AsP2
_symmetry_space_group_name_H-M   'P 1'
_cell_length_a   7.33806932
_cell_length_b   7.33806933
_cell_length_c   18.62208500
_cell_angle_alpha   90.00000000
_cell_angle_beta   90.00000000
_cell_angle_gamma   152.69812804
_symmetry_Int_Tables_number   1
_chemical_formula_structural   TiNb3AsP2
_chemical_formula_sum   'Ti4 Nb12 As4 P8'
_cell_volume   459.93916429
_cell_formula_units_Z   4
loop_
 _symmetry_equiv_pos_site_id
 _symmetry_equiv_pos_as_xyz
  1  'x, y, z'
loop_
 _atom_site_type_symbol
 _atom_site_label
 _atom_site_symmetry_multiplicity
 _atom_site_fract_x
 _atom_site_fract_y
 _atom_site_fract_z
 _atom_site_occupancy
  Ti  Ti0  1  0.738642  0.261358  0.152789  1
  Ti  Ti1  1  0.261358  0.738642  0.847211  1
  Ti  Ti2  1  0.261358  0.738642  0.652789  1
  Ti  Ti3  1  0.738642  0.261358  0.347211  1
  Nb  Nb4  1  0.534151  0.465849  0.119825  1
  Nb  Nb5  1  0.465849  0.534151  0.880175  1
  Nb  Nb6  1  0.465849  0.534151  0.619825  1
  Nb  Nb7  1  0.534151  0.465849  0.380175  1
  Nb  Nb8  1  0.667769  0.332231  0.972439  1
  Nb  Nb9  1  0.332231  0.667769  0.027561  1
  Nb  Nb10  1  0.332231  0.667769  0.472439  1
  Nb  Nb11  1  0.667769  0.332231  0.527561  1
  Nb  Nb12  1  0.000000  0.000000  0.000000  1
  Nb  Nb13  1  0.000000  0.000000  0.500000  1
  Nb  Nb14  1  0.057922  0.942078  0.750000  1
  Nb  Nb15  1  0.942078  0.057922  0.250000  1
  As  As16  1  0.703651  0.296349  0.750000  1
  As  As17  1  0.296349  0.703651  0.250000  1
  As  As18  1  0.409876  0.590124  0.750000  1
  As  As19  1  0.590124  0.409876  0.250000  1
  P  P20  1  0.901802  0.098198  0.117623  1
  P  P21  1  0.098198  0.901802  0.882377  1
  P  P22  1  0.098198  0.901802  0.617623  1
  P  P23  1  0.901802  0.098198  0.382377  1
  P  P24  1  0.841595  0.158405  0.923900  1
  P  P25  1  0.158405  0.841595  0.076100  1
  P  P26  1  0.158405  0.841595  0.423900  1
  P  P27  1  0.841595  0.158405  0.576100  1
