# generated using pymatgen
data_NdSn3Pd2
_symmetry_space_group_name_H-M   'P 1'
_cell_length_a   6.13152200
_cell_length_b   6.37280400
_cell_length_c   14.05130300
_cell_angle_alpha   90.00000000
_cell_angle_beta   90.00000000
_cell_angle_gamma   90.00000000
_symmetry_Int_Tables_number   1
_chemical_formula_structural   NdSn3Pd2
_chemical_formula_sum   'Nd4 Sn12 Pd8'
_cell_volume   549.05449509
_cell_formula_units_Z   4
loop_
 _symmetry_equiv_pos_site_id
 _symmetry_equiv_pos_as_xyz
  1  'x, y, z'
loop_
 _atom_site_type_symbol
 _atom_site_label
 _atom_site_symmetry_multiplicity
 _atom_site_fract_x
 _atom_site_fract_y
 _atom_site_fract_z
 _atom_site_occupancy
  Nd  Nd0  1  0.250000  0.514634  0.799449  1
  Nd  Nd1  1  0.750000  0.485366  0.200551  1
  Nd  Nd2  1  0.750000  0.985366  0.799449  1
  Nd  Nd3  1  0.250000  0.014634  0.200551  1
  Sn  Sn4  1  0.250000  0.018852  0.695305  1
  Sn  Sn5  1  0.750000  0.981148  0.304695  1
  Sn  Sn6  1  0.750000  0.481148  0.695305  1
  Sn  Sn7  1  0.250000  0.518852  0.304695  1
  Sn  Sn8  1  0.250000  0.893866  0.438165  1
  Sn  Sn9  1  0.750000  0.106134  0.561835  1
  Sn  Sn10  1  0.750000  0.606134  0.438165  1
  Sn  Sn11  1  0.250000  0.393866  0.561835  1
  Sn  Sn12  1  0.500000  0.750000  0.996174  1
  Sn  Sn13  1  0.000000  0.250000  0.003826  1
  Sn  Sn14  1  0.500000  0.250000  0.003826  1
  Sn  Sn15  1  0.000000  0.750000  0.996174  1
  Pd  Pd16  1  0.250000  0.014098  0.882953  1
  Pd  Pd17  1  0.750000  0.985902  0.117047  1
  Pd  Pd18  1  0.750000  0.485902  0.882953  1
  Pd  Pd19  1  0.250000  0.514098  0.117047  1
  Pd  Pd20  1  0.500000  0.750000  0.592911  1
  Pd  Pd21  1  0.000000  0.250000  0.407089  1
  Pd  Pd22  1  0.500000  0.250000  0.407089  1
  Pd  Pd23  1  0.000000  0.750000  0.592911  1
