# generated using pymatgen
data_Hf2Sc3Ru6W
_symmetry_space_group_name_H-M   'P 1'
_cell_length_a   4.53126200
_cell_length_b   6.37558200
_cell_length_c   13.64007400
_cell_angle_alpha   90.00049946
_cell_angle_beta   90.00015572
_cell_angle_gamma   90.00023063
_symmetry_Int_Tables_number   1
_chemical_formula_structural   Hf2Sc3Ru6W
_chemical_formula_sum   'Hf4 Sc6 Ru12 W2'
_cell_volume   394.05399635
_cell_formula_units_Z   2
loop_
 _symmetry_equiv_pos_site_id
 _symmetry_equiv_pos_as_xyz
  1  'x, y, z'
loop_
 _atom_site_type_symbol
 _atom_site_label
 _atom_site_symmetry_multiplicity
 _atom_site_fract_x
 _atom_site_fract_y
 _atom_site_fract_z
 _atom_site_occupancy
  Hf  Hf0  1  0.999998  0.000005  0.332825  1
  Hf  Hf1  1  0.500000  0.500003  0.499555  1
  Hf  Hf2  1  0.000016  0.999997  0.667109  1
  Hf  Hf3  1  0.500005  0.499991  0.833824  1
  Sc  Sc4  1  0.999998  0.499928  0.001069  1
  Sc  Sc5  1  0.499990  0.000077  0.165658  1
  Sc  Sc6  1  0.999986  0.499968  0.332374  1
  Sc  Sc7  1  0.500023  0.999991  0.500261  1
  Sc  Sc8  1  0.000016  0.500015  0.666380  1
  Sc  Sc9  1  0.500002  0.000028  0.834228  1
  Ru  Ru10  1  0.499993  0.245497  0.004764  1
  Ru  Ru11  1  0.499999  0.754534  0.004764  1
  Ru  Ru12  1  0.999990  0.254540  0.161990  1
  Ru  Ru13  1  0.999985  0.745422  0.161985  1
  Ru  Ru14  1  0.499980  0.255563  0.326400  1
  Ru  Ru15  1  0.499986  0.744427  0.326403  1
  Ru  Ru16  1  0.999998  0.249268  0.498385  1
  Ru  Ru17  1  0.000003  0.750732  0.498386  1
  Ru  Ru18  1  0.500013  0.250721  0.668236  1
  Ru  Ru19  1  0.500006  0.749279  0.668237  1
  Ru  Ru20  1  0.000008  0.244423  0.840280  1
  Ru  Ru21  1  0.000013  0.755589  0.840276  1
  W  W22  1  0.999998  0.999925  0.999456  1
  W  W23  1  0.499993  0.500077  0.167154  1
