# generated using pymatgen
data_Yb2HoTm(NiB4)4
_symmetry_space_group_name_H-M   'P 1'
_cell_length_a   6.79974664
_cell_length_b   6.79974573
_cell_length_c   6.79974578
_cell_angle_alpha   112.87012979
_cell_angle_beta   112.87012449
_cell_angle_gamma   102.86842218
_symmetry_Int_Tables_number   1
_chemical_formula_structural   Yb2HoTm(NiB4)4
_chemical_formula_sum   'Yb2 Ho1 Tm1 Ni4 B16'
_cell_volume   239.65046537
_cell_formula_units_Z   1
loop_
 _symmetry_equiv_pos_site_id
 _symmetry_equiv_pos_as_xyz
  1  'x, y, z'
loop_
 _atom_site_type_symbol
 _atom_site_label
 _atom_site_symmetry_multiplicity
 _atom_site_fract_x
 _atom_site_fract_y
 _atom_site_fract_z
 _atom_site_occupancy
  Yb  Yb0  1  0.796114  0.796114  0.000000  1
  Yb  Yb1  1  0.203886  0.203886  0.000000  1
  Ho  Ho2  1  0.250000  0.750000  0.500000  1
  Tm  Tm3  1  0.750000  0.250000  0.500000  1
  Ni  Ni4  1  0.272464  0.499630  0.772833  1
  Ni  Ni5  1  0.726796  0.499630  0.227167  1
  Ni  Ni6  1  0.500370  0.727536  0.227167  1
  Ni  Ni7  1  0.500370  0.273204  0.772833  1
  B  B8  1  0.276173  0.111729  0.388409  1
  B  B9  1  0.723320  0.887765  0.611591  1
  B  B10  1  0.276173  0.887765  0.164444  1
  B  B11  1  0.723320  0.111729  0.835556  1
  B  B12  1  0.112235  0.723827  0.835556  1
  B  B13  1  0.888271  0.276680  0.164444  1
  B  B14  1  0.112235  0.276680  0.388409  1
  B  B15  1  0.888271  0.723827  0.611591  1
  B  B16  1  0.112934  0.113836  0.531033  1
  B  B17  1  0.582804  0.581902  0.468967  1
  B  B18  1  0.112934  0.581902  0.999098  1
  B  B19  1  0.582804  0.113836  0.000902  1
  B  B20  1  0.886164  0.887066  0.468967  1
  B  B21  1  0.418098  0.417196  0.531033  1
  B  B22  1  0.886164  0.417196  0.999098  1
  B  B23  1  0.418098  0.887066  0.000902  1
