# generated using pymatgen
data_FeReIr6
_symmetry_space_group_name_H-M   'P 1'
_cell_length_a   5.49613700
_cell_length_b   5.49613789
_cell_length_c   4.39526800
_cell_angle_alpha   90.00000000
_cell_angle_beta   90.00000000
_cell_angle_gamma   120.00000068
_symmetry_Int_Tables_number   1
_chemical_formula_structural   FeReIr6
_chemical_formula_sum   'Fe1 Re1 Ir6'
_cell_volume   114.98234440
_cell_formula_units_Z   1
loop_
 _symmetry_equiv_pos_site_id
 _symmetry_equiv_pos_as_xyz
  1  'x, y, z'
loop_
 _atom_site_type_symbol
 _atom_site_label
 _atom_site_symmetry_multiplicity
 _atom_site_fract_x
 _atom_site_fract_y
 _atom_site_fract_z
 _atom_site_occupancy
  Fe  Fe0  1  0.333334  0.666667  0.750000  1
  Re  Re1  1  0.666666  0.333331  0.249999  1
  Ir  Ir2  1  0.167454  0.334907  0.249999  1
  Ir  Ir3  1  0.665092  0.832545  0.249999  1
  Ir  Ir4  1  0.167454  0.832545  0.249999  1
  Ir  Ir5  1  0.832521  0.665040  0.750000  1
  Ir  Ir6  1  0.334961  0.167481  0.750000  1
  Ir  Ir7  1  0.832520  0.167481  0.750000  1
