# generated using pymatgen
data_Pr5SnTe2
_symmetry_space_group_name_H-M   'P 1'
_cell_length_a   9.45785921
_cell_length_b   9.45785970
_cell_length_c   6.53169100
_cell_angle_alpha   90.00000000
_cell_angle_beta   90.00000000
_cell_angle_gamma   120.02432390
_symmetry_Int_Tables_number   1
_chemical_formula_structural   Pr5SnTe2
_chemical_formula_sum   'Pr10 Sn2 Te4'
_cell_volume   505.86598235
_cell_formula_units_Z   2
loop_
 _symmetry_equiv_pos_site_id
 _symmetry_equiv_pos_as_xyz
  1  'x, y, z'
loop_
 _atom_site_type_symbol
 _atom_site_label
 _atom_site_symmetry_multiplicity
 _atom_site_fract_x
 _atom_site_fract_y
 _atom_site_fract_z
 _atom_site_occupancy
  Pr  Pr0  1  0.666663  0.333297  0.500376  1
  Pr  Pr1  1  0.333297  0.666663  0.500376  1
  Pr  Pr2  1  0.333297  0.666663  0.999624  1
  Pr  Pr3  1  0.666663  0.333297  0.999624  1
  Pr  Pr4  1  0.743822  0.743822  0.250000  1
  Pr  Pr5  1  0.254062  0.997831  0.250000  1
  Pr  Pr6  1  0.997831  0.254062  0.250000  1
  Pr  Pr7  1  0.251357  0.251357  0.750000  1
  Pr  Pr8  1  0.746890  0.004105  0.750000  1
  Pr  Pr9  1  0.004105  0.746890  0.750000  1
  Sn  Sn10  1  0.385030  0.000209  0.750000  1
  Sn  Sn11  1  0.000209  0.385030  0.750000  1
  Te  Te12  1  0.380807  0.380807  0.250000  1
  Te  Te13  1  0.616779  0.001572  0.250000  1
  Te  Te14  1  0.001572  0.616779  0.250000  1
  Te  Te15  1  0.617614  0.617614  0.750000  1
