# generated using pymatgen
data_Pr19YSi15Os
_symmetry_space_group_name_H-M   'P 1'
_cell_length_a   7.90892295
_cell_length_b   7.90873022
_cell_length_c   15.26495160
_cell_angle_alpha   90.20041946
_cell_angle_beta   89.84842846
_cell_angle_gamma   89.91453233
_symmetry_Int_Tables_number   1
_chemical_formula_structural   Pr19YSi15Os
_chemical_formula_sum   'Pr19 Y1 Si15 Os1'
_cell_volume   954.80541195
_cell_formula_units_Z   1
loop_
 _symmetry_equiv_pos_site_id
 _symmetry_equiv_pos_as_xyz
  1  'x, y, z'
loop_
 _atom_site_type_symbol
 _atom_site_label
 _atom_site_symmetry_multiplicity
 _atom_site_fract_x
 _atom_site_fract_y
 _atom_site_fract_z
 _atom_site_occupancy
  Pr  Pr0  1  0.191707  0.807736  0.249920  1
  Pr  Pr1  1  0.825883  0.189238  0.748563  1
  Pr  Pr2  1  0.695534  0.688860  0.501656  1
  Pr  Pr3  1  0.371180  0.011950  0.450175  1
  Pr  Pr4  1  0.485194  0.881305  0.697623  1
  Pr  Pr5  1  0.510240  0.123868  0.197754  1
  Pr  Pr6  1  0.876788  0.488700  0.300557  1
  Pr  Pr7  1  0.128316  0.503273  0.799596  1
  Pr  Pr8  1  0.625722  0.988296  0.948470  1
  Pr  Pr9  1  0.008323  0.375657  0.551807  1
  Pr  Pr10  1  0.987840  0.625412  0.050796  1
  Pr  Pr11  1  0.133539  0.983703  0.872799  1
  Pr  Pr12  1  0.517201  0.631050  0.125896  1
  Pr  Pr13  1  0.471819  0.361413  0.629647  1
  Pr  Pr14  1  0.627826  0.514469  0.874265  1
  Pr  Pr15  1  0.374832  0.482846  0.372661  1
  Pr  Pr16  1  0.873042  0.020682  0.376240  1
  Pr  Pr17  1  0.981457  0.127262  0.124111  1
  Pr  Pr18  1  0.026274  0.880485  0.626374  1
  Y  Y19  1  0.309466  0.308381  0.999377  1
  Si  Si20  1  0.331724  0.691430  0.952455  1
  Si  Si21  1  0.663320  0.302271  0.451865  1
  Si  Si22  1  0.693485  0.332115  0.048429  1
  Si  Si23  1  0.304642  0.668201  0.546973  1
  Si  Si24  1  0.805461  0.832119  0.202906  1
  Si  Si25  1  0.168089  0.197606  0.297080  1
  Si  Si26  1  0.831444  0.801958  0.800073  1
  Si  Si27  1  0.288921  0.926305  0.057726  1
  Si  Si28  1  0.579905  0.787301  0.310507  1
  Si  Si29  1  0.418355  0.211137  0.815518  1
  Si  Si30  1  0.778813  0.582929  0.691636  1
  Si  Si31  1  0.213119  0.419533  0.186500  1
  Si  Si32  1  0.703755  0.073987  0.558399  1
  Si  Si33  1  0.924599  0.288607  0.942524  1
  Si  Si34  1  0.079698  0.715182  0.440745  1
  Os  Os35  1  0.192487  0.174735  0.698376  1
