# generated using pymatgen
data_Ti8Al13Fe7Si2
_symmetry_space_group_name_H-M   'P 1'
_cell_length_a   8.42578328
_cell_length_b   8.39540185
_cell_length_c   8.42581500
_cell_angle_alpha   119.91845574
_cell_angle_beta   120.04088889
_cell_angle_gamma   90.13878192
_symmetry_Int_Tables_number   1
_chemical_formula_structural   Ti8Al13Fe7Si2
_chemical_formula_sum   'Ti8 Al13 Fe7 Si2'
_cell_volume   421.19866840
_cell_formula_units_Z   1
loop_
 _symmetry_equiv_pos_site_id
 _symmetry_equiv_pos_as_xyz
  1  'x, y, z'
loop_
 _atom_site_type_symbol
 _atom_site_label
 _atom_site_symmetry_multiplicity
 _atom_site_fract_x
 _atom_site_fract_y
 _atom_site_fract_z
 _atom_site_occupancy
  Ti  Ti0  1  0.803982  0.290754  0.081247  1
  Ti  Ti1  1  0.209515  0.290742  0.486803  1
  Ti  Ti2  1  0.206896  0.702283  0.495429  1
  Ti  Ti3  1  0.215051  0.718912  0.926622  1
  Ti  Ti4  1  0.792248  0.718898  0.503895  1
  Ti  Ti5  1  0.782973  0.282978  0.499996  1
  Ti  Ti6  1  0.380444  0.119595  0.738983  1
  Ti  Ti7  1  0.377581  0.636342  0.258607  1
  Al  Al8  1  0.160720  0.980558  0.819340  1
  Al  Al9  1  0.157747  0.341133  0.812165  1
  Al  Al10  1  0.528987  0.341378  0.183431  1
  Al  Al11  1  0.841194  0.659324  0.818260  1
  Al  Al12  1  0.840219  0.022615  0.182839  1
  Al  Al13  1  0.839035  0.659478  0.179894  1
  Al  Al14  1  0.479623  0.659208  0.820361  1
  Al  Al15  1  0.380177  0.119549  0.259797  1
  Al  Al16  1  0.859806  0.119524  0.739173  1
  Al  Al17  1  0.618272  0.877214  0.259309  1
  Al  Al18  1  0.618395  0.359088  0.740818  1
  Al  Al19  1  0.619108  0.880252  0.739908  1
  Al  Al20  1  0.140292  0.880247  0.261248  1
  Fe  Fe21  1  0.999610  0.999260  0.501443  1
  Fe  Fe22  1  0.497723  0.999171  0.999411  1
  Fe  Fe23  1  0.498122  0.498048  0.999878  1
  Fe  Fe24  1  0.489389  0.496237  0.491706  1
  Fe  Fe25  1  0.004560  0.496252  0.006909  1
  Fe  Fe26  1  0.004709  0.012936  0.008205  1
  Fe  Fe27  1  0.497972  0.996902  0.498886  1
  Si  Si28  1  0.994224  0.498902  0.504669  1
  Si  Si29  1  0.161419  0.342219  0.180766  1
