# generated using pymatgen
data_MnP2Ru3
_symmetry_space_group_name_H-M   'P 1'
_cell_length_a   3.84271300
_cell_length_b   6.00396971
_cell_length_c   6.94723637
_cell_angle_alpha   90.26981576
_cell_angle_beta   90.00000000
_cell_angle_gamma   90.00000000
_symmetry_Int_Tables_number   1
_chemical_formula_structural   MnP2Ru3
_chemical_formula_sum   'Mn2 P4 Ru6'
_cell_volume   160.28161213
_cell_formula_units_Z   2
loop_
 _symmetry_equiv_pos_site_id
 _symmetry_equiv_pos_as_xyz
  1  'x, y, z'
loop_
 _atom_site_type_symbol
 _atom_site_label
 _atom_site_symmetry_multiplicity
 _atom_site_fract_x
 _atom_site_fract_y
 _atom_site_fract_z
 _atom_site_occupancy
  Mn  Mn0  1  0.750000  0.034954  0.673789  1
  Mn  Mn1  1  0.250000  0.965046  0.326211  1
  P  P2  1  0.250000  0.737383  0.614355  1
  P  P3  1  0.750000  0.262617  0.385645  1
  P  P4  1  0.250000  0.243830  0.886729  1
  P  P5  1  0.750000  0.756170  0.113271  1
  Ru  Ru6  1  0.750000  0.522061  0.841794  1
  Ru  Ru7  1  0.250000  0.477939  0.158206  1
  Ru  Ru8  1  0.250000  0.350849  0.566513  1
  Ru  Ru9  1  0.750000  0.649151  0.433487  1
  Ru  Ru10  1  0.250000  0.856685  0.923529  1
  Ru  Ru11  1  0.750000  0.143315  0.076471  1
