# generated using pymatgen
data_Er12Tc2IrOs
_symmetry_space_group_name_H-M   'P 1'
_cell_length_a   6.24302132
_cell_length_b   7.37262730
_cell_length_c   9.02094500
_cell_angle_alpha   90.00000000
_cell_angle_beta   90.00000000
_cell_angle_gamma   89.94765333
_symmetry_Int_Tables_number   1
_chemical_formula_structural   Er12Tc2IrOs
_chemical_formula_sum   'Er12 Tc2 Ir1 Os1'
_cell_volume   415.21109681
_cell_formula_units_Z   1
loop_
 _symmetry_equiv_pos_site_id
 _symmetry_equiv_pos_as_xyz
  1  'x, y, z'
loop_
 _atom_site_type_symbol
 _atom_site_label
 _atom_site_symmetry_multiplicity
 _atom_site_fract_x
 _atom_site_fract_y
 _atom_site_fract_z
 _atom_site_occupancy
  Er  Er0  1  0.334476  0.676084  0.064265  1
  Er  Er1  1  0.162630  0.175965  0.437224  1
  Er  Er2  1  0.664916  0.322006  0.561280  1
  Er  Er3  1  0.836395  0.825335  0.938622  1
  Er  Er4  1  0.664916  0.322006  0.938720  1
  Er  Er5  1  0.836395  0.825335  0.561378  1
  Er  Er6  1  0.334476  0.676084  0.435735  1
  Er  Er7  1  0.162630  0.175965  0.062776  1
  Er  Er8  1  0.875355  0.539879  0.250000  1
  Er  Er9  1  0.623284  0.038616  0.250000  1
  Er  Er10  1  0.131081  0.458972  0.750000  1
  Er  Er11  1  0.370216  0.961325  0.750000  1
  Tc  Tc12  1  0.038586  0.883814  0.250000  1
  Tc  Tc13  1  0.462689  0.384806  0.250000  1
  Ir  Ir14  1  0.542344  0.616620  0.750000  1
  Os  Os15  1  0.959610  0.117191  0.750000  1
