# generated using pymatgen
data_Tm3Lu(Al8Pt3)3
_symmetry_space_group_name_H-M   'P 1'
_cell_length_a   7.51116674
_cell_length_b   7.52978383
_cell_length_c   13.13172786
_cell_angle_alpha   84.59507173
_cell_angle_beta   79.11063892
_cell_angle_gamma   59.97424829
_symmetry_Int_Tables_number   1
_chemical_formula_structural   Tm3Lu(Al8Pt3)3
_chemical_formula_sum   'Tm3 Lu1 Al24 Pt9'
_cell_volume   631.44914268
_cell_formula_units_Z   1
loop_
 _symmetry_equiv_pos_site_id
 _symmetry_equiv_pos_as_xyz
  1  'x, y, z'
loop_
 _atom_site_type_symbol
 _atom_site_label
 _atom_site_symmetry_multiplicity
 _atom_site_fract_x
 _atom_site_fract_y
 _atom_site_fract_z
 _atom_site_occupancy
  Tm  Tm0  1  0.393592  0.168478  0.807473  1
  Tm  Tm1  1  0.606409  0.831631  0.192560  1
  Tm  Tm2  1  0.733720  0.498852  0.807426  1
  Lu  Lu3  1  0.266135  0.500998  0.193205  1
  Al  Al4  1  0.683919  0.833964  0.944102  1
  Al  Al5  1  0.315991  0.166599  0.056242  1
  Al  Al6  1  0.146579  0.832371  0.561669  1
  Al  Al7  1  0.853502  0.167587  0.438129  1
  Al  Al8  1  0.479488  0.166787  0.558679  1
  Al  Al9  1  0.520583  0.833143  0.441132  1
  Al  Al10  1  0.217775  0.165430  0.328535  1
  Al  Al11  1  0.782331  0.834617  0.671099  1
  Al  Al12  1  0.437138  0.506184  0.671360  1
  Al  Al13  1  0.562961  0.493726  0.328225  1
  Al  Al14  1  0.109142  0.159912  0.670233  1
  Al  Al15  1  0.891128  0.839930  0.329358  1
  Al  Al16  1  0.353383  0.498948  0.944338  1
  Al  Al17  1  0.645842  0.501295  0.056341  1
  Al  Al18  1  0.015827  0.167997  0.952105  1
  Al  Al19  1  0.984269  0.831635  0.048474  1
  Al  Al20  1  0.186868  0.499215  0.441210  1
  Al  Al21  1  0.813229  0.500737  0.558672  1
  Al  Al22  1  0.733821  0.164451  0.183304  1
  Al  Al23  1  0.265938  0.835940  0.816696  1
  Al  Al24  1  0.061258  0.630782  0.815607  1
  Al  Al25  1  0.939230  0.369301  0.184327  1
  Al  Al26  1  0.854703  0.042269  0.816166  1
  Al  Al27  1  0.145350  0.957421  0.183778  1
  Pt  Pt28  1  0.119623  0.490808  0.639469  1
  Pt  Pt29  1  0.880558  0.509135  0.360408  1
  Pt  Pt30  1  0.656961  0.171526  0.000013  1
  Pt  Pt31  1  0.343061  0.828528  0.000170  1
  Pt  Pt32  1  0.537191  0.166868  0.360462  1
  Pt  Pt33  1  0.462660  0.833146  0.639283  1
  Pt  Pt34  1  0.777754  0.175708  0.637603  1
  Pt  Pt35  1  0.222340  0.823940  0.362144  1
  Pt  Pt36  1  0.999739  0.500141  0.999996  1
