# generated using pymatgen
data_ErTmGa8Fe9
_symmetry_space_group_name_H-M   'P 1'
_cell_length_a   6.55651126
_cell_length_b   6.55117704
_cell_length_c   6.55333650
_cell_angle_alpha   83.72100045
_cell_angle_beta   96.18957416
_cell_angle_gamma   96.22057759
_symmetry_Int_Tables_number   1
_chemical_formula_structural   ErTmGa8Fe9
_chemical_formula_sum   'Er1 Tm1 Ga8 Fe9'
_cell_volume   276.83372476
_cell_formula_units_Z   1
loop_
 _symmetry_equiv_pos_site_id
 _symmetry_equiv_pos_as_xyz
  1  'x, y, z'
loop_
 _atom_site_type_symbol
 _atom_site_label
 _atom_site_symmetry_multiplicity
 _atom_site_fract_x
 _atom_site_fract_y
 _atom_site_fract_z
 _atom_site_occupancy
  Er  Er0  1  0.365669  0.634580  0.634342  1
  Tm  Tm1  1  0.633706  0.366361  0.366259  1
  Ga  Ga2  1  0.320536  0.320041  0.000061  1
  Ga  Ga3  1  0.679980  0.679644  0.000293  1
  Ga  Ga4  1  0.868122  0.131564  0.131630  1
  Ga  Ga5  1  0.320537  0.000120  0.319919  1
  Ga  Ga6  1  0.999601  0.679705  0.319914  1
  Ga  Ga7  1  0.679991  0.000290  0.679584  1
  Ga  Ga8  1  0.999717  0.319982  0.679684  1
  Ga  Ga9  1  0.130872  0.868976  0.869216  1
  Fe  Fe10  1  0.500138  0.999885  0.999365  1
  Fe  Fe11  1  0.000240  0.499616  0.999788  1
  Fe  Fe12  1  0.336948  0.663225  0.165070  1
  Fe  Fe13  1  0.165797  0.336903  0.337002  1
  Fe  Fe14  1  0.662757  0.834943  0.336597  1
  Fe  Fe15  1  0.000162  0.999563  0.500232  1
  Fe  Fe16  1  0.337456  0.165500  0.663129  1
  Fe  Fe17  1  0.834415  0.662598  0.663072  1
  Fe  Fe18  1  0.663358  0.336501  0.834845  1
