# generated using pymatgen
data_K3Ba3AlAs4
_symmetry_space_group_name_H-M   'P 1'
_cell_length_a   10.48369600
_cell_length_b   10.48369595
_cell_length_c   8.02257100
_cell_angle_alpha   90.00000000
_cell_angle_beta   90.00000000
_cell_angle_gamma   120.00000017
_symmetry_Int_Tables_number   1
_chemical_formula_structural   K3Ba3AlAs4
_chemical_formula_sum   'K6 Ba6 Al2 As8'
_cell_volume   763.61251258
_cell_formula_units_Z   2
loop_
 _symmetry_equiv_pos_site_id
 _symmetry_equiv_pos_as_xyz
  1  'x, y, z'
loop_
 _atom_site_type_symbol
 _atom_site_label
 _atom_site_symmetry_multiplicity
 _atom_site_fract_x
 _atom_site_fract_y
 _atom_site_fract_z
 _atom_site_occupancy
  K  K0  1  0.136560  0.863440  0.173338  1
  K  K1  1  0.273121  0.136560  0.673338  1
  K  K2  1  0.863440  0.726879  0.673338  1
  K  K3  1  0.136560  0.273121  0.173338  1
  K  K4  1  0.726879  0.863440  0.173338  1
  K  K5  1  0.863440  0.136560  0.673338  1
  Ba  Ba6  1  0.475743  0.951485  0.500083  1
  Ba  Ba7  1  0.524257  0.048515  0.000083  1
  Ba  Ba8  1  0.951485  0.475743  0.000083  1
  Ba  Ba9  1  0.475743  0.524257  0.500083  1
  Ba  Ba10  1  0.524257  0.475743  0.000083  1
  Ba  Ba11  1  0.048515  0.524257  0.500083  1
  Al  Al12  1  0.333333  0.666667  0.877313  1
  Al  Al13  1  0.666667  0.333333  0.377313  1
  As  As14  1  0.199730  0.800270  0.778921  1
  As  As15  1  0.399460  0.199730  0.278921  1
  As  As16  1  0.800270  0.600540  0.278921  1
  As  As17  1  0.199730  0.399460  0.778921  1
  As  As18  1  0.600540  0.800270  0.778921  1
  As  As19  1  0.800270  0.199730  0.278921  1
  As  As20  1  0.333333  0.666667  0.206343  1
  As  As21  1  0.666667  0.333333  0.706343  1
