# generated using pymatgen
data_Sm8Lu12Si15Hg
_symmetry_space_group_name_H-M   'P 1'
_cell_length_a   7.39029294
_cell_length_b   7.65325349
_cell_length_c   14.57794800
_cell_angle_alpha   89.95584485
_cell_angle_beta   89.59685660
_cell_angle_gamma   90.13459212
_symmetry_Int_Tables_number   1
_chemical_formula_structural   Sm8Lu12Si15Hg
_chemical_formula_sum   'Sm8 Lu12 Si15 Hg1'
_cell_volume   824.50266703
_cell_formula_units_Z   1
loop_
 _symmetry_equiv_pos_site_id
 _symmetry_equiv_pos_as_xyz
  1  'x, y, z'
loop_
 _atom_site_type_symbol
 _atom_site_label
 _atom_site_symmetry_multiplicity
 _atom_site_fract_x
 _atom_site_fract_y
 _atom_site_fract_z
 _atom_site_occupancy
  Sm  Sm0  1  0.014140  0.175971  0.098642  1
  Sm  Sm1  1  0.985370  0.824745  0.903273  1
  Sm  Sm2  1  0.485716  0.676689  0.902732  1
  Sm  Sm3  1  0.987142  0.831505  0.599063  1
  Sm  Sm4  1  0.513576  0.323447  0.097765  1
  Sm  Sm5  1  0.009557  0.171234  0.397559  1
  Sm  Sm6  1  0.513384  0.322322  0.397954  1
  Sm  Sm7  1  0.493843  0.682183  0.600808  1
  Lu  Lu8  1  0.163272  0.505977  0.753394  1
  Lu  Lu9  1  0.836746  0.493898  0.250188  1
  Lu  Lu10  1  0.336823  0.005283  0.248615  1
  Lu  Lu11  1  0.665748  0.992561  0.751911  1
  Lu  Lu12  1  0.339027  0.169404  0.627038  1
  Lu  Lu13  1  0.666173  0.824344  0.374704  1
  Lu  Lu14  1  0.168490  0.677321  0.372856  1
  Lu  Lu15  1  0.671270  0.823331  0.122808  1
  Lu  Lu16  1  0.825368  0.325787  0.624173  1
  Lu  Lu17  1  0.327599  0.175409  0.877637  1
  Lu  Lu18  1  0.827658  0.322332  0.877858  1
  Lu  Lu19  1  0.170845  0.676789  0.123470  1
  Si  Si20  1  0.036163  0.118990  0.751737  1
  Si  Si21  1  0.963732  0.884851  0.248439  1
  Si  Si22  1  0.465264  0.615022  0.248022  1
  Si  Si23  1  0.535194  0.386197  0.752111  1
  Si  Si24  1  0.282957  0.873766  0.751931  1
  Si  Si25  1  0.714470  0.126545  0.247635  1
  Si  Si26  1  0.215490  0.371978  0.248280  1
  Si  Si27  1  0.786053  0.626647  0.752641  1
  Si  Si28  1  0.835054  0.536654  0.458868  1
  Si  Si29  1  0.340765  0.964300  0.460059  1
  Si  Si30  1  0.846094  0.533800  0.038803  1
  Si  Si31  1  0.658106  0.036393  0.537311  1
  Si  Si32  1  0.153362  0.465497  0.962158  1
  Si  Si33  1  0.653811  0.032992  0.960786  1
  Si  Si34  1  0.345268  0.966390  0.039711  1
  Hg  Hg35  1  0.166470  0.459447  0.539059  1
