# generated using pymatgen
data_Y4V3ReB16
_symmetry_space_group_name_H-M   'P 1'
_cell_length_a   3.50776400
_cell_length_b   5.99237504
_cell_length_c   11.60044207
_cell_angle_alpha   89.98711005
_cell_angle_beta   90.00000000
_cell_angle_gamma   90.00000000
_symmetry_Int_Tables_number   1
_chemical_formula_structural   Y4V3ReB16
_chemical_formula_sum   'Y4 V3 Re1 B16'
_cell_volume   243.83940036
_cell_formula_units_Z   1
loop_
 _symmetry_equiv_pos_site_id
 _symmetry_equiv_pos_as_xyz
  1  'x, y, z'
loop_
 _atom_site_type_symbol
 _atom_site_label
 _atom_site_symmetry_multiplicity
 _atom_site_fract_x
 _atom_site_fract_y
 _atom_site_fract_z
 _atom_site_occupancy
  Y  Y0  1  0.000000  0.623737  0.350021  1
  Y  Y1  1  0.000000  0.375727  0.651144  1
  Y  Y2  1  0.000000  0.126397  0.151796  1
  Y  Y3  1  0.000000  0.875175  0.848615  1
  V  V4  1  0.000000  0.371830  0.917761  1
  V  V5  1  0.000000  0.126985  0.416434  1
  V  V6  1  0.000000  0.873245  0.582374  1
  Re  Re7  1  0.000000  0.627784  0.082912  1
  B  B8  1  0.500000  0.785054  0.185070  1
  B  B9  1  0.500000  0.215120  0.814799  1
  B  B10  1  0.500000  0.285621  0.314658  1
  B  B11  1  0.500000  0.714018  0.685452  1
  B  B12  1  0.500000  0.864706  0.031809  1
  B  B13  1  0.500000  0.135503  0.967407  1
  B  B14  1  0.500000  0.364115  0.467519  1
  B  B15  1  0.500000  0.635757  0.532646  1
  B  B16  1  0.500000  0.885862  0.452739  1
  B  B17  1  0.500000  0.114534  0.547391  1
  B  B18  1  0.500000  0.385920  0.046926  1
  B  B19  1  0.500000  0.613759  0.952416  1
  B  B20  1  0.500000  0.976815  0.307852  1
  B  B21  1  0.500000  0.023222  0.692295  1
  B  B22  1  0.500000  0.476619  0.192245  1
  B  B23  1  0.500000  0.522496  0.807717  1
