# generated using pymatgen
data_Ho3Er9Co2Ni3Bi
_symmetry_space_group_name_H-M   'P 1'
_cell_length_a   8.26871474
_cell_length_b   8.26871474
_cell_length_c   8.26648791
_cell_angle_alpha   109.46130724
_cell_angle_beta   111.11487461
_cell_angle_gamma   107.86512847
_symmetry_Int_Tables_number   1
_chemical_formula_structural   Ho3Er9Co2Ni3Bi
_chemical_formula_sum   'Ho3 Er9 Co2 Ni3 Bi1'
_cell_volume   434.67511285
_cell_formula_units_Z   1
loop_
 _symmetry_equiv_pos_site_id
 _symmetry_equiv_pos_as_xyz
  1  'x, y, z'
loop_
 _atom_site_type_symbol
 _atom_site_label
 _atom_site_symmetry_multiplicity
 _atom_site_fract_x
 _atom_site_fract_y
 _atom_site_fract_z
 _atom_site_occupancy
  Ho  Ho0  1  0.289826  0.181013  0.470840  1
  Ho  Ho1  1  0.710739  0.819964  0.530703  1
  Ho  Ho2  1  0.290079  0.819074  0.109153  1
  Er  Er3  1  0.711059  0.180989  0.892048  1
  Er  Er4  1  0.627201  0.316198  0.310983  1
  Er  Er5  1  0.374925  0.684637  0.690371  1
  Er  Er6  1  0.005736  0.315446  0.690371  1
  Er  Er7  1  0.994784  0.683783  0.310983  1
  Er  Er8  1  0.210650  0.404531  0.193758  1
  Er  Er9  1  0.791067  0.597055  0.806675  1
  Er  Er10  1  0.209620  0.015610  0.806675  1
  Er  Er11  1  0.789226  0.983106  0.193758  1
  Co  Co12  1  0.385441  0.885645  0.500530  1
  Co  Co13  1  0.614885  0.115090  0.500530  1
  Ni  Ni14  1  0.998851  0.364409  0.363260  1
  Ni  Ni15  1  0.002417  0.632439  0.634856  1
  Ni  Ni16  1  0.992999  0.001442  0.994441  1
  Bi  Bi17  1  0.500496  0.499570  0.000065  1
