# generated using pymatgen
data_La2Eu2Sn3WO14
_symmetry_space_group_name_H-M   'P 1'
_cell_length_a   7.60835555
_cell_length_b   7.61719855
_cell_length_c   7.60835534
_cell_angle_alpha   59.74720400
_cell_angle_beta   59.72623541
_cell_angle_gamma   59.74720534
_symmetry_Int_Tables_number   1
_chemical_formula_structural   La2Eu2Sn3WO14
_chemical_formula_sum   'La2 Eu2 Sn3 W1 O14'
_cell_volume   309.95033254
_cell_formula_units_Z   1
loop_
 _symmetry_equiv_pos_site_id
 _symmetry_equiv_pos_as_xyz
  1  'x, y, z'
loop_
 _atom_site_type_symbol
 _atom_site_label
 _atom_site_symmetry_multiplicity
 _atom_site_fract_x
 _atom_site_fract_y
 _atom_site_fract_z
 _atom_site_occupancy
  La  La0  1  0.125000  0.125000  0.125000  1
  La  La1  1  0.125000  0.625000  0.125000  1
  Eu  Eu2  1  0.625000  0.125000  0.125000  1
  Eu  Eu3  1  0.125000  0.125000  0.625000  1
  Sn  Sn4  1  0.125000  0.625000  0.625000  1
  Sn  Sn5  1  0.625000  0.125000  0.625000  1
  Sn  Sn6  1  0.625000  0.625000  0.125000  1
  W  W7  1  0.625000  0.625000  0.625000  1
  O  O8  1  0.957473  0.545876  0.957473  1
  O  O9  1  0.704055  0.293216  0.292593  1
  O  O10  1  0.305152  0.700409  0.701922  1
  O  O11  1  0.699813  0.307660  0.699813  1
  O  O12  1  0.292593  0.293216  0.704055  1
  O  O13  1  0.701922  0.700409  0.305152  1
  O  O14  1  0.957407  0.956784  0.545945  1
  O  O15  1  0.545945  0.956784  0.957407  1
  O  O16  1  0.944848  0.549591  0.548078  1
  O  O17  1  0.548078  0.549591  0.944848  1
  O  O18  1  0.292527  0.704124  0.292527  1
  O  O19  1  0.550187  0.942340  0.550187  1
  O  O20  1  0.999649  0.999203  0.999649  1
  O  O21  1  0.250351  0.250797  0.250351  1
