# generated using pymatgen
data_YbPr3In2Ir3
_symmetry_space_group_name_H-M   'P 1'
_cell_length_a   7.71677812
_cell_length_b   7.71677879
_cell_length_c   4.17873900
_cell_angle_alpha   90.00000000
_cell_angle_beta   90.00000000
_cell_angle_gamma   120.11688753
_symmetry_Int_Tables_number   1
_chemical_formula_structural   YbPr3In2Ir3
_chemical_formula_sum   'Yb1 Pr3 In2 Ir3'
_cell_volume   215.24605909
_cell_formula_units_Z   1
loop_
 _symmetry_equiv_pos_site_id
 _symmetry_equiv_pos_as_xyz
  1  'x, y, z'
loop_
 _atom_site_type_symbol
 _atom_site_label
 _atom_site_symmetry_multiplicity
 _atom_site_fract_x
 _atom_site_fract_y
 _atom_site_fract_z
 _atom_site_occupancy
  Yb  Yb0  1  0.757058  0.757058  0.000000  1
  Pr  Pr1  1  0.020076  0.586696  0.500000  1
  Pr  Pr2  1  0.390463  0.390463  0.500000  1
  Pr  Pr3  1  0.586696  0.020076  0.500000  1
  In  In4  1  0.991528  0.245648  0.000000  1
  In  In5  1  0.245648  0.991528  0.000000  1
  Ir  Ir6  1  0.330988  0.662455  0.000000  1
  Ir  Ir7  1  0.015088  0.015088  0.500000  1
  Ir  Ir8  1  0.662455  0.330988  0.000000  1
