# generated using pymatgen
data_Nd12OsPd3
_symmetry_space_group_name_H-M   'P 1'
_cell_length_a   6.62117128
_cell_length_b   7.35311928
_cell_length_c   9.95890700
_cell_angle_alpha   90.00000000
_cell_angle_beta   90.00000000
_cell_angle_gamma   90.03259075
_symmetry_Int_Tables_number   1
_chemical_formula_structural   Nd12OsPd3
_chemical_formula_sum   'Nd12 Os1 Pd3'
_cell_volume   484.86187923
_cell_formula_units_Z   1
loop_
 _symmetry_equiv_pos_site_id
 _symmetry_equiv_pos_as_xyz
  1  'x, y, z'
loop_
 _atom_site_type_symbol
 _atom_site_label
 _atom_site_symmetry_multiplicity
 _atom_site_fract_x
 _atom_site_fract_y
 _atom_site_fract_z
 _atom_site_occupancy
  Nd  Nd0  1  0.332765  0.679705  0.055466  1
  Nd  Nd1  1  0.166429  0.178089  0.438377  1
  Nd  Nd2  1  0.667548  0.326712  0.565779  1
  Nd  Nd3  1  0.823565  0.817431  0.935656  1
  Nd  Nd4  1  0.667548  0.326712  0.934221  1
  Nd  Nd5  1  0.823565  0.817431  0.564344  1
  Nd  Nd6  1  0.332765  0.679705  0.444534  1
  Nd  Nd7  1  0.166429  0.178089  0.061623  1
  Nd  Nd8  1  0.865321  0.527283  0.250000  1
  Nd  Nd9  1  0.637794  0.028537  0.250000  1
  Nd  Nd10  1  0.143707  0.474789  0.750000  1
  Nd  Nd11  1  0.369399  0.960662  0.750000  1
  Os  Os12  1  0.563155  0.617024  0.750000  1
  Pd  Pd13  1  0.070143  0.884197  0.250000  1
  Pd  Pd14  1  0.429952  0.389181  0.250000  1
  Pd  Pd15  1  0.939916  0.114453  0.750000  1
