# generated using pymatgen
data_Pr5Nd5BiPb5Br2
_symmetry_space_group_name_H-M   'P 1'
_cell_length_a   9.67572499
_cell_length_b   9.67911892
_cell_length_c   6.87119600
_cell_angle_alpha   90.00000000
_cell_angle_beta   90.00000000
_cell_angle_gamma   120.09233670
_symmetry_Int_Tables_number   1
_chemical_formula_structural   Pr5Nd5BiPb5Br2
_chemical_formula_sum   'Pr5 Nd5 Bi1 Pb5 Br2'
_cell_volume   556.77210732
_cell_formula_units_Z   1
loop_
 _symmetry_equiv_pos_site_id
 _symmetry_equiv_pos_as_xyz
  1  'x, y, z'
loop_
 _atom_site_type_symbol
 _atom_site_label
 _atom_site_symmetry_multiplicity
 _atom_site_fract_x
 _atom_site_fract_y
 _atom_site_fract_z
 _atom_site_occupancy
  Pr  Pr0  1  0.732860  0.999648  0.250000  1
  Pr  Pr1  1  0.997344  0.265962  0.750000  1
  Pr  Pr2  1  0.999807  0.732675  0.250000  1
  Pr  Pr3  1  0.734563  0.734855  0.750000  1
  Pr  Pr4  1  0.267017  0.266899  0.250000  1
  Nd  Nd5  1  0.265667  0.997432  0.750000  1
  Nd  Nd6  1  0.332746  0.667893  0.500101  1
  Nd  Nd7  1  0.667695  0.332762  0.500121  1
  Nd  Nd8  1  0.667695  0.332762  0.999879  1
  Nd  Nd9  1  0.332746  0.667893  0.999899  1
  Bi  Bi10  1  0.386194  0.385501  0.750000  1
  Pb  Pb11  1  0.611456  0.999656  0.750000  1
  Pb  Pb12  1  0.386922  0.000354  0.250000  1
  Pb  Pb13  1  0.000376  0.613552  0.750000  1
  Pb  Pb14  1  0.000445  0.386908  0.250000  1
  Pb  Pb15  1  0.613402  0.613522  0.250000  1
  Br  Br16  1  0.001533  0.000863  0.500606  1
  Br  Br17  1  0.001533  0.000863  0.999394  1
