# generated using pymatgen
data_Y5Mg3(P3Ir4)4
_symmetry_space_group_name_H-M   'P 1'
_cell_length_a   12.82366800
_cell_length_b   12.82366864
_cell_length_c   3.99017700
_cell_angle_alpha   90.00000000
_cell_angle_beta   90.00000000
_cell_angle_gamma   119.99999834
_symmetry_Int_Tables_number   1
_chemical_formula_structural   Y5Mg3(P3Ir4)4
_chemical_formula_sum   'Y5 Mg3 P12 Ir16'
_cell_volume   568.26034834
_cell_formula_units_Z   1
loop_
 _symmetry_equiv_pos_site_id
 _symmetry_equiv_pos_as_xyz
  1  'x, y, z'
loop_
 _atom_site_type_symbol
 _atom_site_label
 _atom_site_symmetry_multiplicity
 _atom_site_fract_x
 _atom_site_fract_y
 _atom_site_fract_z
 _atom_site_occupancy
  Y  Y0  1  0.333333  0.666667  0.500000  1
  Y  Y1  1  0.666667  0.333333  0.500000  1
  Y  Y2  1  0.000000  0.808973  0.000000  1
  Y  Y3  1  0.191027  0.191027  0.000000  1
  Y  Y4  1  0.808973  0.000000  0.000000  1
  Mg  Mg5  1  0.000000  0.445766  0.500000  1
  Mg  Mg6  1  0.554234  0.554234  0.500000  1
  Mg  Mg7  1  0.445766  0.000000  0.500000  1
  P  P8  1  0.000000  0.641517  0.500000  1
  P  P9  1  0.358483  0.358483  0.500000  1
  P  P10  1  0.641517  0.000000  0.500000  1
  P  P11  1  0.516075  0.688348  0.000000  1
  P  P12  1  0.311652  0.827727  0.000000  1
  P  P13  1  0.172273  0.483925  0.000000  1
  P  P14  1  0.483925  0.172273  0.000000  1
  P  P15  1  0.688348  0.516075  0.000000  1
  P  P16  1  0.827727  0.311652  0.000000  1
  P  P17  1  0.000000  0.177708  0.500000  1
  P  P18  1  0.822292  0.822292  0.500000  1
  P  P19  1  0.177708  0.000000  0.500000  1
  Ir  Ir20  1  0.509000  0.868293  0.000000  1
  Ir  Ir21  1  0.131707  0.640708  0.000000  1
  Ir  Ir22  1  0.359292  0.491000  0.000000  1
  Ir  Ir23  1  0.491000  0.359292  0.000000  1
  Ir  Ir24  1  0.868293  0.509000  0.000000  1
  Ir  Ir25  1  0.640708  0.131707  0.000000  1
  Ir  Ir26  1  0.000000  0.279281  0.000000  1
  Ir  Ir27  1  0.720719  0.720719  0.000000  1
  Ir  Ir28  1  0.279281  0.000000  0.000000  1
  Ir  Ir29  1  0.626991  0.804974  0.500000  1
  Ir  Ir30  1  0.195026  0.822016  0.500000  1
  Ir  Ir31  1  0.177984  0.373009  0.500000  1
  Ir  Ir32  1  0.373009  0.177984  0.500000  1
  Ir  Ir33  1  0.804974  0.626991  0.500000  1
  Ir  Ir34  1  0.822016  0.195026  0.500000  1
  Ir  Ir35  1  0.000000  0.000000  0.500000  1
