# generated using pymatgen
data_Sc4Be4AlVIr10
_symmetry_space_group_name_H-M   'P 1'
_cell_length_a   9.47030100
_cell_length_b   9.47030100
_cell_length_c   3.11166500
_cell_angle_alpha   90.00000000
_cell_angle_beta   90.00000000
_cell_angle_gamma   90.00000000
_symmetry_Int_Tables_number   1
_chemical_formula_structural   Sc4Be4AlVIr10
_chemical_formula_sum   'Sc4 Be4 Al1 V1 Ir10'
_cell_volume   279.07465740
_cell_formula_units_Z   1
loop_
 _symmetry_equiv_pos_site_id
 _symmetry_equiv_pos_as_xyz
  1  'x, y, z'
loop_
 _atom_site_type_symbol
 _atom_site_label
 _atom_site_symmetry_multiplicity
 _atom_site_fract_x
 _atom_site_fract_y
 _atom_site_fract_z
 _atom_site_occupancy
  Sc  Sc0  1  0.672752  0.178244  0.000000  1
  Sc  Sc1  1  0.327248  0.821756  0.000000  1
  Sc  Sc2  1  0.178244  0.327248  0.000000  1
  Sc  Sc3  1  0.821756  0.672752  0.000000  1
  Be  Be4  1  0.125521  0.621855  0.000000  1
  Be  Be5  1  0.874479  0.378145  0.000000  1
  Be  Be6  1  0.621855  0.874479  0.000000  1
  Be  Be7  1  0.378145  0.125521  0.000000  1
  Al  Al8  1  0.500000  0.500000  0.000000  1
  V  V9  1  0.000000  0.000000  0.000000  1
  Ir  Ir10  1  0.207814  0.066693  0.500000  1
  Ir  Ir11  1  0.792186  0.933307  0.500000  1
  Ir  Ir12  1  0.066693  0.792186  0.500000  1
  Ir  Ir13  1  0.709461  0.430627  0.500000  1
  Ir  Ir14  1  0.933307  0.207814  0.500000  1
  Ir  Ir15  1  0.290539  0.569373  0.500000  1
  Ir  Ir16  1  0.569373  0.709461  0.500000  1
  Ir  Ir17  1  0.430627  0.290539  0.500000  1
  Ir  Ir18  1  0.500000  0.000000  0.500000  1
  Ir  Ir19  1  0.000000  0.500000  0.500000  1
