# generated using pymatgen
data_Zr3Hg3Rh2
_symmetry_space_group_name_H-M   'P 1'
_cell_length_a   7.50601800
_cell_length_b   7.50601963
_cell_length_c   3.30171800
_cell_angle_alpha   90.00000000
_cell_angle_beta   90.00000000
_cell_angle_gamma   120.00001043
_symmetry_Int_Tables_number   1
_chemical_formula_structural   Zr3Hg3Rh2
_chemical_formula_sum   'Zr3 Hg3 Rh2'
_cell_volume   161.09789325
_cell_formula_units_Z   1
loop_
 _symmetry_equiv_pos_site_id
 _symmetry_equiv_pos_as_xyz
  1  'x, y, z'
loop_
 _atom_site_type_symbol
 _atom_site_label
 _atom_site_symmetry_multiplicity
 _atom_site_fract_x
 _atom_site_fract_y
 _atom_site_fract_z
 _atom_site_occupancy
  Zr  Zr0  1  0.577505  0.000000  0.499999  1
  Zr  Zr1  1  0.422494  0.422494  0.499999  1
  Zr  Zr2  1  0.000000  0.577505  0.499999  1
  Hg  Hg3  1  0.231825  0.000000  0.000000  1
  Hg  Hg4  1  0.000000  0.231824  0.000000  1
  Hg  Hg5  1  0.768175  0.768175  0.000000  1
  Rh  Rh6  1  0.666666  0.333334  0.000000  1
  Rh  Rh7  1  0.333334  0.666667  0.000000  1
