# generated using pymatgen
data_Dy3Tm5Lu2(SiSb)4
_symmetry_space_group_name_H-M   'P 1'
_cell_length_a   8.31390838
_cell_length_b   8.53784769
_cell_length_c   7.76402046
_cell_angle_alpha   89.94527281
_cell_angle_beta   89.79832998
_cell_angle_gamma   125.35043715
_symmetry_Int_Tables_number   1
_chemical_formula_structural   Dy3Tm5Lu2(SiSb)4
_chemical_formula_sum   'Dy3 Tm5 Lu2 Si4 Sb4'
_cell_volume   449.49735104
_cell_formula_units_Z   1
loop_
 _symmetry_equiv_pos_site_id
 _symmetry_equiv_pos_as_xyz
  1  'x, y, z'
loop_
 _atom_site_type_symbol
 _atom_site_label
 _atom_site_symmetry_multiplicity
 _atom_site_fract_x
 _atom_site_fract_y
 _atom_site_fract_z
 _atom_site_occupancy
  Dy  Dy0  1  0.193838  0.452777  0.830849  1
  Dy  Dy1  1  0.695452  0.954095  0.669732  1
  Dy  Dy2  1  0.308763  0.047444  0.329672  1
  Tm  Tm3  1  0.036862  0.281005  0.336586  1
  Tm  Tm4  1  0.965641  0.720757  0.662701  1
  Tm  Tm5  1  0.463776  0.218476  0.836195  1
  Tm  Tm6  1  0.799752  0.546428  0.167262  1
  Tm  Tm7  1  0.535286  0.779560  0.163331  1
  Lu  Lu8  1  0.999109  0.999451  0.000548  1
  Lu  Lu9  1  0.501107  0.500296  0.500040  1
  Si  Si10  1  0.368350  0.367858  0.130859  1
  Si  Si11  1  0.631954  0.631553  0.868697  1
  Si  Si12  1  0.133197  0.132750  0.631699  1
  Si  Si13  1  0.868640  0.866735  0.366681  1
  Sb  Sb14  1  0.780468  0.196008  0.017078  1
  Sb  Sb15  1  0.212655  0.800852  0.988295  1
  Sb  Sb16  1  0.719986  0.307905  0.512567  1
  Sb  Sb17  1  0.285166  0.696049  0.487209  1
