# generated using pymatgen
data_Ho8V7Si16W5
_symmetry_space_group_name_H-M   'P 1'
_cell_length_a   6.82006713
_cell_length_b   6.82219930
_cell_length_c   12.68601367
_cell_angle_alpha   89.99422038
_cell_angle_beta   90.00920464
_cell_angle_gamma   89.99670041
_symmetry_Int_Tables_number   1
_chemical_formula_structural   Ho8V7Si16W5
_chemical_formula_sum   'Ho8 V7 Si16 W5'
_cell_volume   590.25302067
_cell_formula_units_Z   1
loop_
 _symmetry_equiv_pos_site_id
 _symmetry_equiv_pos_as_xyz
  1  'x, y, z'
loop_
 _atom_site_type_symbol
 _atom_site_label
 _atom_site_symmetry_multiplicity
 _atom_site_fract_x
 _atom_site_fract_y
 _atom_site_fract_z
 _atom_site_occupancy
  Ho  Ho0  1  0.000293  0.663713  0.029600  1
  Ho  Ho1  1  0.835446  0.499037  0.279931  1
  Ho  Ho2  1  0.165115  0.500596  0.779087  1
  Ho  Ho3  1  0.500068  0.835790  0.720137  1
  Ho  Ho4  1  0.500233  0.164591  0.220303  1
  Ho  Ho5  1  0.999700  0.335862  0.530071  1
  Ho  Ho6  1  0.665351  0.999912  0.969975  1
  Ho  Ho7  1  0.335706  0.999409  0.470862  1
  V  V8  1  0.339408  0.506434  0.374640  1
  V  V9  1  0.659816  0.492992  0.874891  1
  V  V10  1  0.507272  0.339754  0.625008  1
  V  V11  1  0.493880  0.660465  0.125238  1
  V  V12  1  0.992912  0.839546  0.624895  1
  V  V13  1  0.160547  0.006687  0.875752  1
  V  V14  1  0.840578  0.994538  0.373894  1
  Si  Si15  1  0.293367  0.958857  0.063572  1
  Si  Si16  1  0.538271  0.789850  0.314972  1
  Si  Si17  1  0.461032  0.210218  0.813793  1
  Si  Si18  1  0.789615  0.538975  0.686046  1
  Si  Si19  1  0.212512  0.464170  0.186755  1
  Si  Si20  1  0.710923  0.038202  0.563569  1
  Si  Si21  1  0.960459  0.291755  0.933415  1
  Si  Si22  1  0.037743  0.711126  0.436278  1
  Si  Si23  1  0.700254  0.379040  0.065487  1
  Si  Si24  1  0.124959  0.203723  0.318756  1
  Si  Si25  1  0.877169  0.798029  0.815901  1
  Si  Si26  1  0.201879  0.122785  0.683963  1
  Si  Si27  1  0.794809  0.871777  0.184126  1
  Si  Si28  1  0.297549  0.622741  0.566212  1
  Si  Si29  1  0.377131  0.701654  0.933347  1
  Si  Si30  1  0.623116  0.297465  0.433935  1
  W  W31  1  0.332839  0.333012  0.999447  1
  W  W32  1  0.166650  0.833423  0.250961  1
  W  W33  1  0.832575  0.166767  0.749513  1
  W  W34  1  0.666771  0.666446  0.500503  1
  W  W35  1  0.004054  0.160662  0.125161  1
