# generated using pymatgen
data_Hf14Sc4Re7P2W
_symmetry_space_group_name_H-M   'P 1'
_cell_length_a   8.62704997
_cell_length_b   8.62704983
_cell_length_c   8.54884421
_cell_angle_alpha   90.05260751
_cell_angle_beta   89.94739194
_cell_angle_gamma   119.97869066
_symmetry_Int_Tables_number   1
_chemical_formula_structural   Hf14Sc4Re7P2W
_chemical_formula_sum   'Hf14 Sc4 Re7 P2 W1'
_cell_volume   551.13199733
_cell_formula_units_Z   1
loop_
 _symmetry_equiv_pos_site_id
 _symmetry_equiv_pos_as_xyz
  1  'x, y, z'
loop_
 _atom_site_type_symbol
 _atom_site_label
 _atom_site_symmetry_multiplicity
 _atom_site_fract_x
 _atom_site_fract_y
 _atom_site_fract_z
 _atom_site_occupancy
  Hf  Hf0  1  0.196888  0.803112  0.452123  1
  Hf  Hf1  1  0.196555  0.392844  0.451114  1
  Hf  Hf2  1  0.607156  0.803445  0.451114  1
  Hf  Hf3  1  0.803301  0.196699  0.548298  1
  Hf  Hf4  1  0.802853  0.606529  0.548843  1
  Hf  Hf5  1  0.393471  0.197147  0.548843  1
  Hf  Hf6  1  0.804914  0.195086  0.951114  1
  Hf  Hf7  1  0.804427  0.609789  0.950785  1
  Hf  Hf8  1  0.390211  0.195573  0.950785  1
  Hf  Hf9  1  0.195502  0.804498  0.048472  1
  Hf  Hf10  1  0.195029  0.389241  0.049544  1
  Hf  Hf11  1  0.610759  0.804971  0.049544  1
  Hf  Hf12  1  0.460021  0.920399  0.750523  1
  Hf  Hf13  1  0.079601  0.539979  0.750523  1
  Sc  Sc14  1  0.540863  0.459137  0.249410  1
  Sc  Sc15  1  0.540464  0.081229  0.249324  1
  Sc  Sc16  1  0.918771  0.459536  0.249324  1
  Sc  Sc17  1  0.457718  0.542282  0.750519  1
  Re  Re18  1  0.890143  0.109857  0.251258  1
  Re  Re19  1  0.890187  0.779470  0.251153  1
  Re  Re20  1  0.220530  0.109813  0.251153  1
  Re  Re21  1  0.109560  0.890440  0.748838  1
  Re  Re22  1  0.109504  0.220122  0.748925  1
  Re  Re23  1  0.779878  0.890496  0.748925  1
  Re  Re24  1  0.000153  0.999847  0.000717  1
  P  P25  1  0.333469  0.666531  0.248569  1
  P  P26  1  0.668020  0.331980  0.751455  1
  W  W27  1  0.000051  0.999949  0.498804  1
