# generated using pymatgen
data_DyYPa(InRh)3
_symmetry_space_group_name_H-M   'P 1'
_cell_length_a   7.58532364
_cell_length_b   7.86014044
_cell_length_c   3.80527600
_cell_angle_alpha   90.00000000
_cell_angle_beta   90.00000000
_cell_angle_gamma   121.15469605
_symmetry_Int_Tables_number   1
_chemical_formula_structural   DyYPa(InRh)3
_chemical_formula_sum   'Dy1 Y1 Pa1 In3 Rh3'
_cell_volume   194.15539693
_cell_formula_units_Z   1
loop_
 _symmetry_equiv_pos_site_id
 _symmetry_equiv_pos_as_xyz
  1  'x, y, z'
loop_
 _atom_site_type_symbol
 _atom_site_label
 _atom_site_symmetry_multiplicity
 _atom_site_fract_x
 _atom_site_fract_y
 _atom_site_fract_z
 _atom_site_occupancy
  Dy  Dy0  1  0.403466  0.404997  0.500000  1
  Y  Y1  1  0.596576  0.001790  0.500000  1
  Pa  Pa2  1  0.999943  0.583355  0.500000  1
  In  In3  1  0.999817  0.242213  0.000000  1
  In  In4  1  0.271638  0.012080  0.000000  1
  In  In5  1  0.728765  0.741462  0.000000  1
  Rh  Rh6  1  0.001107  0.986218  0.500000  1
  Rh  Rh7  1  0.705088  0.367945  0.000000  1
  Rh  Rh8  1  0.293601  0.659940  0.000000  1
