# generated using pymatgen
data_Ti13Ga9Co8
_symmetry_space_group_name_H-M   'P 1'
_cell_length_a   8.44638985
_cell_length_b   8.44638991
_cell_length_c   8.44638941
_cell_angle_alpha   59.93623864
_cell_angle_beta   59.93623432
_cell_angle_gamma   59.93625128
_symmetry_Int_Tables_number   1
_chemical_formula_structural   Ti13Ga9Co8
_chemical_formula_sum   'Ti13 Ga9 Co8'
_cell_volume   425.47088155
_cell_formula_units_Z   1
loop_
 _symmetry_equiv_pos_site_id
 _symmetry_equiv_pos_as_xyz
  1  'x, y, z'
loop_
 _atom_site_type_symbol
 _atom_site_label
 _atom_site_symmetry_multiplicity
 _atom_site_fract_x
 _atom_site_fract_y
 _atom_site_fract_z
 _atom_site_occupancy
  Ti  Ti0  1  0.205102  0.205102  0.794459  1
  Ti  Ti1  1  0.794459  0.205102  0.205102  1
  Ti  Ti2  1  0.205102  0.794459  0.205102  1
  Ti  Ti3  1  0.801211  0.801211  0.182539  1
  Ti  Ti4  1  0.182539  0.801211  0.801211  1
  Ti  Ti5  1  0.801211  0.182539  0.801211  1
  Ti  Ti6  1  0.378579  0.378579  0.378579  1
  Ti  Ti7  1  0.379580  0.864199  0.379580  1
  Ti  Ti8  1  0.864199  0.379580  0.379580  1
  Ti  Ti9  1  0.379580  0.379580  0.864199  1
  Ti  Ti10  1  0.840445  0.484357  0.840445  1
  Ti  Ti11  1  0.484357  0.840445  0.840445  1
  Ti  Ti12  1  0.840445  0.840445  0.484357  1
  Ga  Ga13  1  0.156728  0.156728  0.156728  1
  Ga  Ga14  1  0.159693  0.524200  0.159693  1
  Ga  Ga15  1  0.524200  0.159693  0.159693  1
  Ga  Ga16  1  0.159693  0.159693  0.524200  1
  Ga  Ga17  1  0.619305  0.619305  0.619305  1
  Ga  Ga18  1  0.616290  0.149413  0.616290  1
  Ga  Ga19  1  0.149413  0.616290  0.616290  1
  Ga  Ga20  1  0.616290  0.616290  0.149413  1
  Ga  Ga21  1  0.830287  0.830287  0.830287  1
  Co  Co22  1  0.003889  0.003889  0.495516  1
  Co  Co23  1  0.495516  0.003889  0.003889  1
  Co  Co24  1  0.003889  0.495516  0.003889  1
  Co  Co25  1  0.500062  0.500062  0.002439  1
  Co  Co26  1  0.002439  0.500062  0.500062  1
  Co  Co27  1  0.500062  0.002439  0.500062  1
  Co  Co28  1  0.501878  0.501878  0.501878  1
  Co  Co29  1  0.003557  0.003557  0.003557  1
