# generated using pymatgen
data_TaTi2Al2AuC
_symmetry_space_group_name_H-M   'P 1'
_cell_length_a   8.35529040
_cell_length_b   8.34058210
_cell_length_c   8.35538503
_cell_angle_alpha   60.06142069
_cell_angle_beta   59.88807179
_cell_angle_gamma   60.05878983
_symmetry_Int_Tables_number   1
_chemical_formula_structural   TaTi2Al2AuC
_chemical_formula_sum   'Ta4 Ti8 Al8 Au4 C4'
_cell_volume   411.75032994
_cell_formula_units_Z   4
loop_
 _symmetry_equiv_pos_site_id
 _symmetry_equiv_pos_as_xyz
  1  'x, y, z'
loop_
 _atom_site_type_symbol
 _atom_site_label
 _atom_site_symmetry_multiplicity
 _atom_site_fract_x
 _atom_site_fract_y
 _atom_site_fract_z
 _atom_site_occupancy
  Ta  Ta0  1  0.929510  0.929537  0.570474  1
  Ta  Ta1  1  0.680443  0.320179  0.320509  1
  Ta  Ta2  1  0.320234  0.680471  0.678820  1
  Ta  Ta3  1  0.678683  0.678729  0.321325  1
  Ti  Ti4  1  0.679926  0.320716  0.678464  1
  Ti  Ti5  1  0.320710  0.679930  0.320896  1
  Ti  Ti6  1  0.571595  0.929257  0.569542  1
  Ti  Ti7  1  0.571743  0.929194  0.929496  1
  Ti  Ti8  1  0.929214  0.571734  0.569571  1
  Ti  Ti9  1  0.929275  0.571574  0.929620  1
  Ti  Ti10  1  0.320362  0.320347  0.679622  1
  Ti  Ti11  1  0.569870  0.569863  0.930144  1
  Al  Al12  1  0.912937  0.261388  0.913130  1
  Al  Al13  1  0.337511  0.335218  0.990022  1
  Al  Al14  1  0.992183  0.335109  0.337565  1
  Al  Al15  1  0.335212  0.337505  0.337254  1
  Al  Al16  1  0.261411  0.912935  0.912521  1
  Al  Al17  1  0.912997  0.912419  0.914880  1
  Al  Al18  1  0.912382  0.912985  0.259758  1
  Al  Al19  1  0.335107  0.992209  0.335153  1
  Au  Au20  1  0.125679  0.624417  0.125561  1
  Au  Au21  1  0.124835  0.126176  0.625594  1
  Au  Au22  1  0.624413  0.125680  0.124348  1
  Au  Au23  1  0.126171  0.124837  0.123397  1
  C  C24  1  0.620163  0.125804  0.628999  1
  C  C25  1  0.623717  0.627909  0.119794  1
  C  C26  1  0.125819  0.620144  0.624997  1
  C  C27  1  0.627900  0.623733  0.628545  1
