# generated using pymatgen
data_K4RbAu6
_symmetry_space_group_name_H-M   'P 1'
_cell_length_a   15.04859964
_cell_length_b   15.04860069
_cell_length_c   5.12829600
_cell_angle_alpha   90.00000000
_cell_angle_beta   90.00000000
_cell_angle_gamma   160.68487096
_symmetry_Int_Tables_number   1
_chemical_formula_structural   K4RbAu6
_chemical_formula_sum   'K4 Rb1 Au6'
_cell_volume   384.13421533
_cell_formula_units_Z   1
loop_
 _symmetry_equiv_pos_site_id
 _symmetry_equiv_pos_as_xyz
  1  'x, y, z'
loop_
 _atom_site_type_symbol
 _atom_site_label
 _atom_site_symmetry_multiplicity
 _atom_site_fract_x
 _atom_site_fract_y
 _atom_site_fract_z
 _atom_site_occupancy
  K  K0  1  0.617531  0.382469  0.000000  1
  K  K1  1  0.382469  0.617531  0.000000  1
  K  K2  1  0.807764  0.192235  0.500000  1
  K  K3  1  0.192235  0.807764  0.500000  1
  Rb  Rb4  1  0.000000  0.000000  0.000000  1
  Au  Au5  1  0.736570  0.263430  0.000000  1
  Au  Au6  1  0.263430  0.736570  0.000000  1
  Au  Au7  1  0.921710  0.078290  0.500000  1
  Au  Au8  1  0.549038  0.450961  0.500000  1
  Au  Au9  1  0.450961  0.549038  0.500000  1
  Au  Au10  1  0.078290  0.921710  0.500000  1
