# generated using pymatgen
data_Ce7IF30
_symmetry_space_group_name_H-M   'P 1'
_cell_length_a   8.65205627
_cell_length_b   8.65205770
_cell_length_c   8.65205800
_cell_angle_alpha   100.29724661
_cell_angle_beta   100.29724833
_cell_angle_gamma   100.29724906
_symmetry_Int_Tables_number   1
_chemical_formula_structural   Ce7IF30
_chemical_formula_sum   'Ce7 I1 F30'
_cell_volume   611.94855237
_cell_formula_units_Z   1
loop_
 _symmetry_equiv_pos_site_id
 _symmetry_equiv_pos_as_xyz
  1  'x, y, z'
loop_
 _atom_site_type_symbol
 _atom_site_label
 _atom_site_symmetry_multiplicity
 _atom_site_fract_x
 _atom_site_fract_y
 _atom_site_fract_z
 _atom_site_occupancy
  Ce  Ce0  1  0.174444  0.750000  0.325556  1
  Ce  Ce1  1  0.250000  0.677735  0.822265  1
  Ce  Ce2  1  0.677735  0.822265  0.250000  1
  Ce  Ce3  1  0.750000  0.750000  0.750000  1
  Ce  Ce4  1  0.325556  0.174444  0.750000  1
  Ce  Ce5  1  0.750000  0.325556  0.174444  1
  Ce  Ce6  1  0.822265  0.250000  0.677735  1
  I  I7  1  0.250000  0.250000  0.250000  1
  F  F8  1  0.970691  0.529309  0.250000  1
  F  F9  1  0.810452  0.343928  0.443888  1
  F  F10  1  0.486722  0.725594  0.717830  1
  F  F11  1  0.343928  0.443888  0.810452  1
  F  F12  1  0.013278  0.782170  0.774406  1
  F  F13  1  0.750000  0.034255  0.465745  1
  F  F14  1  0.952044  0.853158  0.316645  1
  F  F15  1  0.211111  0.230174  0.011104  1
  F  F16  1  0.774406  0.013278  0.782170  1
  F  F17  1  0.316645  0.952044  0.853158  1
  F  F18  1  0.269826  0.288889  0.488896  1
  F  F19  1  0.443888  0.810452  0.343928  1
  F  F20  1  0.529309  0.250000  0.970691  1
  F  F21  1  0.288889  0.488896  0.269826  1
  F  F22  1  0.156072  0.689548  0.056112  1
  F  F23  1  0.853158  0.316645  0.952044  1
  F  F24  1  0.717830  0.486722  0.725594  1
  F  F25  1  0.465745  0.750000  0.034255  1
  F  F26  1  0.547956  0.183355  0.646842  1
  F  F27  1  0.725594  0.717830  0.486722  1
  F  F28  1  0.689548  0.056112  0.156072  1
  F  F29  1  0.230174  0.011104  0.211111  1
  F  F30  1  0.782170  0.774406  0.013278  1
  F  F31  1  0.056112  0.156072  0.689548  1
  F  F32  1  0.250000  0.970691  0.529309  1
  F  F33  1  0.011104  0.211111  0.230174  1
  F  F34  1  0.646842  0.547956  0.183355  1
  F  F35  1  0.488896  0.269826  0.288889  1
  F  F36  1  0.183355  0.646842  0.547956  1
  F  F37  1  0.034255  0.465745  0.750000  1
