# generated using pymatgen
data_AlBiO4
_symmetry_space_group_name_H-M   'P 1'
_cell_length_a   4.67575300
_cell_length_b   5.00012300
_cell_length_c   11.78707600
_cell_angle_alpha   90.00000000
_cell_angle_beta   90.00000000
_cell_angle_gamma   90.00000000
_symmetry_Int_Tables_number   1
_chemical_formula_structural   AlBiO4
_chemical_formula_sum   'Al4 Bi4 O16'
_cell_volume   275.57405880
_cell_formula_units_Z   4
loop_
 _symmetry_equiv_pos_site_id
 _symmetry_equiv_pos_as_xyz
  1  'x, y, z'
loop_
 _atom_site_type_symbol
 _atom_site_label
 _atom_site_symmetry_multiplicity
 _atom_site_fract_x
 _atom_site_fract_y
 _atom_site_fract_z
 _atom_site_occupancy
  Al  Al0  1  0.000000  0.250000  0.436812  1
  Al  Al1  1  0.000000  0.750000  0.563188  1
  Al  Al2  1  0.500000  0.750000  0.063188  1
  Al  Al3  1  0.500000  0.250000  0.936812  1
  Bi  Bi4  1  0.000000  0.250000  0.165304  1
  Bi  Bi5  1  0.000000  0.750000  0.834696  1
  Bi  Bi6  1  0.500000  0.250000  0.665304  1
  Bi  Bi7  1  0.500000  0.750000  0.334696  1
  O  O8  1  0.221519  0.099541  0.316659  1
  O  O9  1  0.221519  0.599541  0.683341  1
  O  O10  1  0.224345  0.564201  0.453561  1
  O  O11  1  0.224345  0.064201  0.546439  1
  O  O12  1  0.275655  0.064201  0.046439  1
  O  O13  1  0.275655  0.564201  0.953561  1
  O  O14  1  0.278481  0.599541  0.183341  1
  O  O15  1  0.278481  0.099541  0.816659  1
  O  O16  1  0.721519  0.900459  0.183341  1
  O  O17  1  0.721519  0.400459  0.816659  1
  O  O18  1  0.724345  0.435799  0.046439  1
  O  O19  1  0.724345  0.935799  0.953561  1
  O  O20  1  0.775655  0.935799  0.453561  1
  O  O21  1  0.775655  0.435799  0.546439  1
  O  O22  1  0.778481  0.400459  0.316659  1
  O  O23  1  0.778481  0.900459  0.683341  1
