# generated using pymatgen
data_Sm3Ni2Ir7
_symmetry_space_group_name_H-M   'P 1'
_cell_length_a   9.03303091
_cell_length_b   9.03303039
_cell_length_c   9.03303061
_cell_angle_alpha   34.28455512
_cell_angle_beta   34.28456085
_cell_angle_gamma   34.28455770
_symmetry_Int_Tables_number   1
_chemical_formula_structural   Sm3Ni2Ir7
_chemical_formula_sum   'Sm3 Ni2 Ir7'
_cell_volume   208.57037589
_cell_formula_units_Z   1
loop_
 _symmetry_equiv_pos_site_id
 _symmetry_equiv_pos_as_xyz
  1  'x, y, z'
loop_
 _atom_site_type_symbol
 _atom_site_label
 _atom_site_symmetry_multiplicity
 _atom_site_fract_x
 _atom_site_fract_y
 _atom_site_fract_z
 _atom_site_occupancy
  Sm  Sm0  1  0.859939  0.859939  0.859939  1
  Sm  Sm1  1  0.140061  0.140061  0.140061  1
  Sm  Sm2  1  0.000000  0.000000  0.000000  1
  Ni  Ni3  1  0.666757  0.666757  0.666757  1
  Ni  Ni4  1  0.333243  0.333243  0.333243  1
  Ir  Ir5  1  0.420251  0.921777  0.420251  1
  Ir  Ir6  1  0.420251  0.420251  0.921777  1
  Ir  Ir7  1  0.921777  0.420251  0.420251  1
  Ir  Ir8  1  0.579749  0.078223  0.579749  1
  Ir  Ir9  1  0.579749  0.579749  0.078223  1
  Ir  Ir10  1  0.078223  0.579749  0.579749  1
  Ir  Ir11  1  0.500000  0.500000  0.500000  1
