# generated using pymatgen
data_Ac3LaRe4F28
_symmetry_space_group_name_H-M   'P 1'
_cell_length_a   5.94332563
_cell_length_b   9.54523869
_cell_length_c   12.76280250
_cell_angle_alpha   61.85145188
_cell_angle_beta   89.94972279
_cell_angle_gamma   89.96211115
_symmetry_Int_Tables_number   1
_chemical_formula_structural   Ac3LaRe4F28
_chemical_formula_sum   'Ac3 La1 Re4 F28'
_cell_volume   638.40538871
_cell_formula_units_Z   1
loop_
 _symmetry_equiv_pos_site_id
 _symmetry_equiv_pos_as_xyz
  1  'x, y, z'
loop_
 _atom_site_type_symbol
 _atom_site_label
 _atom_site_symmetry_multiplicity
 _atom_site_fract_x
 _atom_site_fract_y
 _atom_site_fract_z
 _atom_site_occupancy
  Ac  Ac0  1  0.757557  0.807578  0.265374  1
  Ac  Ac1  1  0.257689  0.191709  0.234588  1
  Ac  Ac2  1  0.241997  0.188533  0.734983  1
  La  La3  1  0.740901  0.809048  0.764935  1
  Re  Re4  1  0.243424  0.726616  0.545856  1
  Re  Re5  1  0.743952  0.277059  0.955451  1
  Re  Re6  1  0.755573  0.271802  0.457955  1
  Re  Re7  1  0.256131  0.726482  0.040748  1
  F  F8  1  0.970466  0.714927  0.460166  1
  F  F9  1  0.468246  0.286363  0.040086  1
  F  F10  1  0.031654  0.284235  0.541374  1
  F  F11  1  0.532615  0.716837  0.955561  1
  F  F12  1  0.056642  0.710704  0.922182  1
  F  F13  1  0.559590  0.290461  0.576633  1
  F  F14  1  0.939162  0.292001  0.075543  1
  F  F15  1  0.438610  0.709329  0.426061  1
  F  F16  1  0.736429  0.512862  0.861411  1
  F  F17  1  0.236245  0.491257  0.638479  1
  F  F18  1  0.264284  0.492216  0.136524  1
  F  F19  1  0.763712  0.506840  0.362980  1
  F  F20  1  0.740479  0.041828  0.048024  1
  F  F21  1  0.240200  0.961245  0.451834  1
  F  F22  1  0.259125  0.961768  0.950083  1
  F  F23  1  0.759503  0.036904  0.551416  1
  F  F24  1  0.047297  0.743847  0.666070  1
  F  F25  1  0.553013  0.259215  0.834432  1
  F  F26  1  0.945924  0.257685  0.335558  1
  F  F27  1  0.446372  0.741467  0.163308  1
  F  F28  1  0.013165  0.269631  0.866144  1
  F  F29  1  0.513253  0.732583  0.635769  1
  F  F30  1  0.988812  0.730474  0.132386  1
  F  F31  1  0.486847  0.268829  0.367449  1
  F  F32  1  0.091866  0.965863  0.231063  1
  F  F33  1  0.592671  0.033862  0.268902  1
  F  F34  1  0.906224  0.025267  0.768149  1
  F  F35  1  0.420369  0.962671  0.732522  1
