# generated using pymatgen
data_Y(ErSi2)5
_symmetry_space_group_name_H-M   'P 1'
_cell_length_a   6.63655131
_cell_length_b   6.63655036
_cell_length_c   8.19795839
_cell_angle_alpha   89.96941416
_cell_angle_beta   90.03058406
_cell_angle_gamma   119.93488208
_symmetry_Int_Tables_number   1
_chemical_formula_structural   Y(ErSi2)5
_chemical_formula_sum   'Y1 Er5 Si10'
_cell_volume   312.90010365
_cell_formula_units_Z   1
loop_
 _symmetry_equiv_pos_site_id
 _symmetry_equiv_pos_as_xyz
  1  'x, y, z'
loop_
 _atom_site_type_symbol
 _atom_site_label
 _atom_site_symmetry_multiplicity
 _atom_site_fract_x
 _atom_site_fract_y
 _atom_site_fract_z
 _atom_site_occupancy
  Y  Y0  1  0.668832  0.668832  0.500000  1
  Er  Er1  1  0.331090  0.999925  0.999994  1
  Er  Er2  1  0.331057  0.999977  0.500022  1
  Er  Er3  1  0.999977  0.331057  0.499978  1
  Er  Er4  1  0.999925  0.331090  0.000006  1
  Er  Er5  1  0.668885  0.668885  0.000000  1
  Si  Si6  1  0.382154  0.330083  0.249114  1
  Si  Si7  1  0.668925  0.052547  0.249628  1
  Si  Si8  1  0.948857  0.616960  0.248933  1
  Si  Si9  1  0.616960  0.948857  0.751067  1
  Si  Si10  1  0.000556  0.000444  0.249219  1
  Si  Si11  1  0.666721  0.332988  0.750747  1
  Si  Si12  1  0.052547  0.668925  0.750372  1
  Si  Si13  1  0.330083  0.382154  0.750886  1
  Si  Si14  1  0.332988  0.666721  0.249253  1
  Si  Si15  1  0.000444  0.000556  0.750781  1
