# generated using pymatgen
data_LiPrInPt3
_symmetry_space_group_name_H-M   'P 1'
_cell_length_a   5.54224751
_cell_length_b   5.54224832
_cell_length_c   5.27042352
_cell_angle_alpha   58.27871863
_cell_angle_beta   58.27871069
_cell_angle_gamma   60.00000287
_symmetry_Int_Tables_number   1
_chemical_formula_structural   LiPrInPt3
_chemical_formula_sum   'Li1 Pr1 In1 Pt3'
_cell_volume   111.40356961
_cell_formula_units_Z   1
loop_
 _symmetry_equiv_pos_site_id
 _symmetry_equiv_pos_as_xyz
  1  'x, y, z'
loop_
 _atom_site_type_symbol
 _atom_site_label
 _atom_site_symmetry_multiplicity
 _atom_site_fract_x
 _atom_site_fract_y
 _atom_site_fract_z
 _atom_site_occupancy
  Li  Li0  1  0.621560  0.621560  0.135319  1
  Pr  Pr1  1  0.005148  0.005148  0.984555  1
  In  In2  1  0.255736  0.255736  0.232791  1
  Pt  Pt3  1  0.622248  0.123058  0.632445  1
  Pt  Pt4  1  0.123058  0.622248  0.632445  1
  Pt  Pt5  1  0.622248  0.622248  0.632445  1
