# generated using pymatgen
data_Sm2Dy7Tm11Pt16
_symmetry_space_group_name_H-M   'P 1'
_cell_length_a   7.44096900
_cell_length_b   7.51495820
_cell_length_c   14.62789400
_cell_angle_alpha   89.96862629
_cell_angle_beta   90.00099331
_cell_angle_gamma   90.00799836
_symmetry_Int_Tables_number   1
_chemical_formula_structural   Sm2Dy7Tm11Pt16
_chemical_formula_sum   'Sm2 Dy7 Tm11 Pt16'
_cell_volume   817.97079864
_cell_formula_units_Z   1
loop_
 _symmetry_equiv_pos_site_id
 _symmetry_equiv_pos_as_xyz
  1  'x, y, z'
loop_
 _atom_site_type_symbol
 _atom_site_label
 _atom_site_symmetry_multiplicity
 _atom_site_fract_x
 _atom_site_fract_y
 _atom_site_fract_z
 _atom_site_occupancy
  Sm  Sm0  1  0.499331  0.678448  0.407095  1
  Sm  Sm1  1  0.999531  0.821375  0.092985  1
  Dy  Dy2  1  0.656046  0.831972  0.877885  1
  Dy  Dy3  1  0.998605  0.821209  0.406753  1
  Dy  Dy4  1  0.498198  0.678389  0.094078  1
  Dy  Dy5  1  0.501544  0.320425  0.593048  1
  Dy  Dy6  1  0.002022  0.180667  0.906666  1
  Dy  Dy7  1  0.001235  0.178870  0.592997  1
  Dy  Dy8  1  0.501104  0.321081  0.906785  1
  Tm  Tm9  1  0.680766  0.990442  0.250233  1
  Tm  Tm10  1  0.180729  0.509614  0.250164  1
  Tm  Tm11  1  0.819534  0.489505  0.749420  1
  Tm  Tm12  1  0.318911  0.010613  0.749520  1
  Tm  Tm13  1  0.656512  0.832794  0.622578  1
  Tm  Tm14  1  0.156691  0.667182  0.876996  1
  Tm  Tm15  1  0.844433  0.332231  0.377513  1
  Tm  Tm16  1  0.344137  0.168094  0.122807  1
  Tm  Tm17  1  0.343754  0.167606  0.377571  1
  Tm  Tm18  1  0.844222  0.332582  0.123018  1
  Tm  Tm19  1  0.156039  0.667639  0.622231  1
  Pt  Pt20  1  0.816711  0.641317  0.250773  1
  Pt  Pt21  1  0.316357  0.858777  0.249601  1
  Pt  Pt22  1  0.683155  0.143229  0.749039  1
  Pt  Pt23  1  0.182327  0.357135  0.749752  1
  Pt  Pt24  1  0.546447  0.382670  0.249719  1
  Pt  Pt25  1  0.046550  0.117350  0.250794  1
  Pt  Pt26  1  0.954702  0.884549  0.749034  1
  Pt  Pt27  1  0.452989  0.614614  0.749073  1
  Pt  Pt28  1  0.818135  0.533045  0.542493  1
  Pt  Pt29  1  0.316029  0.967719  0.957893  1
  Pt  Pt30  1  0.683436  0.035631  0.458348  1
  Pt  Pt31  1  0.184056  0.464678  0.041710  1
  Pt  Pt32  1  0.180267  0.464518  0.458218  1
  Pt  Pt33  1  0.679844  0.036530  0.043093  1
  Pt  Pt34  1  0.317004  0.967531  0.542363  1
  Pt  Pt35  1  0.818645  0.529971  0.957760  1
