# generated using pymatgen
data_Hf16Fe3NiIr4
_symmetry_space_group_name_H-M   'P 1'
_cell_length_a   8.59016821
_cell_length_b   8.58970347
_cell_length_c   8.59210400
_cell_angle_alpha   60.08340840
_cell_angle_beta   60.08698497
_cell_angle_gamma   60.08021164
_symmetry_Int_Tables_number   1
_chemical_formula_structural   Hf16Fe3NiIr4
_chemical_formula_sum   'Hf16 Fe3 Ni1 Ir4'
_cell_volume   449.14408385
_cell_formula_units_Z   1
loop_
 _symmetry_equiv_pos_site_id
 _symmetry_equiv_pos_as_xyz
  1  'x, y, z'
loop_
 _atom_site_type_symbol
 _atom_site_label
 _atom_site_symmetry_multiplicity
 _atom_site_fract_x
 _atom_site_fract_y
 _atom_site_fract_z
 _atom_site_occupancy
  Hf  Hf0  1  0.185742  0.605787  0.605834  1
  Hf  Hf1  1  0.605833  0.185844  0.605757  1
  Hf  Hf2  1  0.605859  0.605742  0.185708  1
  Hf  Hf3  1  0.602255  0.602099  0.602190  1
  Hf  Hf4  1  0.812157  0.812093  0.187789  1
  Hf  Hf5  1  0.187417  0.187403  0.813911  1
  Hf  Hf6  1  0.812145  0.187796  0.812077  1
  Hf  Hf7  1  0.187428  0.813916  0.187403  1
  Hf  Hf8  1  0.187795  0.812128  0.812109  1
  Hf  Hf9  1  0.813939  0.187429  0.187415  1
  Hf  Hf10  1  0.449532  0.449497  0.045949  1
  Hf  Hf11  1  0.054490  0.054649  0.446886  1
  Hf  Hf12  1  0.449458  0.045984  0.449523  1
  Hf  Hf13  1  0.054511  0.446859  0.054607  1
  Hf  Hf14  1  0.045899  0.449424  0.449512  1
  Hf  Hf15  1  0.446889  0.054581  0.054508  1
  Fe  Fe16  1  0.825718  0.390918  0.390876  1
  Fe  Fe17  1  0.390926  0.825648  0.390929  1
  Fe  Fe18  1  0.390914  0.390940  0.825729  1
  Ni  Ni19  1  0.391284  0.391473  0.391464  1
  Ir  Ir20  1  0.497180  0.834179  0.834176  1
  Ir  Ir21  1  0.834185  0.497143  0.834195  1
  Ir  Ir22  1  0.834167  0.834184  0.497191  1
  Ir  Ir23  1  0.834274  0.834279  0.834260  1
