# generated using pymatgen
data_Li5GaSi
_symmetry_space_group_name_H-M   'P 1'
_cell_length_a   6.66213357
_cell_length_b   6.66213264
_cell_length_c   6.66213347
_cell_angle_alpha   38.89781742
_cell_angle_beta   38.89781379
_cell_angle_gamma   38.89780941
_symmetry_Int_Tables_number   1
_chemical_formula_structural   Li5GaSi
_chemical_formula_sum   'Li5 Ga1 Si1'
_cell_volume   104.83247981
_cell_formula_units_Z   1
loop_
 _symmetry_equiv_pos_site_id
 _symmetry_equiv_pos_as_xyz
  1  'x, y, z'
loop_
 _atom_site_type_symbol
 _atom_site_label
 _atom_site_symmetry_multiplicity
 _atom_site_fract_x
 _atom_site_fract_y
 _atom_site_fract_z
 _atom_site_occupancy
  Li  Li0  1  0.212208  0.212208  0.212208  1
  Li  Li1  1  0.349628  0.349628  0.349628  1
  Li  Li2  1  0.502129  0.502129  0.502129  1
  Li  Li3  1  0.644527  0.644527  0.644527  1
  Li  Li4  1  0.792058  0.792058  0.792058  1
  Ga  Ga5  1  0.066464  0.066464  0.066464  1
  Si  Si6  1  0.932985  0.932985  0.932985  1
