# generated using pymatgen
data_PrNd7(Tm3Sn4)4
_symmetry_space_group_name_H-M   'P 1'
_cell_length_a   8.00036237
_cell_length_b   8.20931038
_cell_length_c   15.40133900
_cell_angle_alpha   90.00144473
_cell_angle_beta   89.98261152
_cell_angle_gamma   89.96682053
_symmetry_Int_Tables_number   1
_chemical_formula_structural   PrNd7(Tm3Sn4)4
_chemical_formula_sum   'Pr1 Nd7 Tm12 Sn16'
_cell_volume   1011.52057615
_cell_formula_units_Z   1
loop_
 _symmetry_equiv_pos_site_id
 _symmetry_equiv_pos_as_xyz
  1  'x, y, z'
loop_
 _atom_site_type_symbol
 _atom_site_label
 _atom_site_symmetry_multiplicity
 _atom_site_fract_x
 _atom_site_fract_y
 _atom_site_fract_z
 _atom_site_occupancy
  Pr  Pr0  1  0.009327  0.175582  0.904091  1
  Nd  Nd1  1  0.509794  0.324636  0.903891  1
  Nd  Nd2  1  0.009855  0.175519  0.596163  1
  Nd  Nd3  1  0.490285  0.675515  0.403879  1
  Nd  Nd4  1  0.990308  0.824398  0.096193  1
  Nd  Nd5  1  0.490180  0.675437  0.096201  1
  Nd  Nd6  1  0.990237  0.824473  0.403880  1
  Nd  Nd7  1  0.509711  0.324547  0.595978  1
  Tm  Tm8  1  0.348913  0.835625  0.874977  1
  Tm  Tm9  1  0.848976  0.664330  0.624667  1
  Tm  Tm10  1  0.651002  0.164229  0.375113  1
  Tm  Tm11  1  0.151145  0.335877  0.124922  1
  Tm  Tm12  1  0.651205  0.164402  0.125058  1
  Tm  Tm13  1  0.150969  0.335694  0.375122  1
  Tm  Tm14  1  0.349115  0.835688  0.624780  1
  Tm  Tm15  1  0.848952  0.664173  0.875178  1
  Tm  Tm16  1  0.181526  0.502266  0.749906  1
  Tm  Tm17  1  0.681509  0.997510  0.749879  1
  Tm  Tm18  1  0.818541  0.497716  0.250055  1
  Tm  Tm19  1  0.318614  0.002329  0.250080  1
  Sn  Sn20  1  0.315011  0.041189  0.041982  1
  Sn  Sn21  1  0.814008  0.458404  0.458216  1
  Sn  Sn22  1  0.686210  0.958654  0.541601  1
  Sn  Sn23  1  0.186430  0.542236  0.958524  1
  Sn  Sn24  1  0.684715  0.957776  0.958607  1
  Sn  Sn25  1  0.186004  0.541571  0.541603  1
  Sn  Sn26  1  0.313951  0.041416  0.458275  1
  Sn  Sn27  1  0.813531  0.458879  0.041965  1
  Sn  Sn28  1  0.546204  0.623992  0.749957  1
  Sn  Sn29  1  0.046206  0.875401  0.749854  1
  Sn  Sn30  1  0.453856  0.375900  0.250099  1
  Sn  Sn31  1  0.953942  0.124234  0.249991  1
  Sn  Sn32  1  0.317209  0.145277  0.749748  1
  Sn  Sn33  1  0.815988  0.355210  0.749544  1
  Sn  Sn34  1  0.683294  0.854673  0.250014  1
  Sn  Sn35  1  0.183279  0.645241  0.250007  1
