# generated using pymatgen
data_Ba3InRh2O9
_symmetry_space_group_name_H-M   'P 1'
_cell_length_a   5.90400700
_cell_length_b   5.90400634
_cell_length_c   14.66686200
_cell_angle_alpha   90.00000000
_cell_angle_beta   90.00000000
_cell_angle_gamma   120.00000928
_symmetry_Int_Tables_number   1
_chemical_formula_structural   Ba3InRh2O9
_chemical_formula_sum   'Ba6 In2 Rh4 O18'
_cell_volume   442.75296277
_cell_formula_units_Z   2
loop_
 _symmetry_equiv_pos_site_id
 _symmetry_equiv_pos_as_xyz
  1  'x, y, z'
loop_
 _atom_site_type_symbol
 _atom_site_label
 _atom_site_symmetry_multiplicity
 _atom_site_fract_x
 _atom_site_fract_y
 _atom_site_fract_z
 _atom_site_occupancy
  Ba  Ba0  1  0.333333  0.666667  0.588180  1
  Ba  Ba1  1  0.666667  0.333333  0.088180  1
  Ba  Ba2  1  0.666667  0.333333  0.411820  1
  Ba  Ba3  1  0.333333  0.666667  0.911820  1
  Ba  Ba4  1  0.000000  0.000000  0.750000  1
  Ba  Ba5  1  0.000000  0.000000  0.250000  1
  In  In6  1  0.000000  0.000000  0.500000  1
  In  In7  1  0.000000  0.000000  0.000000  1
  Rh  Rh8  1  0.333333  0.666667  0.340381  1
  Rh  Rh9  1  0.666667  0.333333  0.840381  1
  Rh  Rh10  1  0.666667  0.333333  0.659619  1
  Rh  Rh11  1  0.333333  0.666667  0.159619  1
  O  O12  1  0.171163  0.828837  0.084896  1
  O  O13  1  0.171163  0.342327  0.084896  1
  O  O14  1  0.657673  0.828837  0.084896  1
  O  O15  1  0.342327  0.171163  0.584896  1
  O  O16  1  0.828837  0.657673  0.915104  1
  O  O17  1  0.828837  0.171163  0.584896  1
  O  O18  1  0.828837  0.657673  0.584896  1
  O  O19  1  0.171163  0.828837  0.415104  1
  O  O20  1  0.657673  0.828837  0.415104  1
  O  O21  1  0.342327  0.171163  0.915104  1
  O  O22  1  0.828837  0.171163  0.915104  1
  O  O23  1  0.171163  0.342327  0.415104  1
  O  O24  1  0.484358  0.968717  0.250000  1
  O  O25  1  0.515642  0.484358  0.750000  1
  O  O26  1  0.968717  0.484358  0.750000  1
  O  O27  1  0.031283  0.515642  0.250000  1
  O  O28  1  0.484358  0.515642  0.250000  1
  O  O29  1  0.515642  0.031283  0.750000  1
