# generated using pymatgen
data_AcSm(WF7)2
_symmetry_space_group_name_H-M   'P 1'
_cell_length_a   6.00200127
_cell_length_b   6.35713309
_cell_length_c   8.81109100
_cell_angle_alpha   101.74969884
_cell_angle_beta   90.10598100
_cell_angle_gamma   89.96514252
_symmetry_Int_Tables_number   1
_chemical_formula_structural   AcSm(WF7)2
_chemical_formula_sum   'Ac1 Sm1 W2 F14'
_cell_volume   329.14681443
_cell_formula_units_Z   1
loop_
 _symmetry_equiv_pos_site_id
 _symmetry_equiv_pos_as_xyz
  1  'x, y, z'
loop_
 _atom_site_type_symbol
 _atom_site_label
 _atom_site_symmetry_multiplicity
 _atom_site_fract_x
 _atom_site_fract_y
 _atom_site_fract_z
 _atom_site_occupancy
  Ac  Ac0  1  0.703545  0.652276  0.683573  1
  Sm  Sm1  1  0.198487  0.341332  0.302680  1
  W  W2  1  0.706677  0.816310  0.224328  1
  W  W3  1  0.207961  0.188814  0.779807  1
  F  F4  1  0.923883  0.447011  0.474758  1
  F  F5  1  0.403336  0.518911  0.498484  1
  F  F6  1  0.399025  0.927831  0.768654  1
  F  F7  1  0.940522  0.047546  0.238135  1
  F  F8  1  0.936666  0.984528  0.763185  1
  F  F9  1  0.461871  0.057197  0.247027  1
  F  F10  1  0.016791  0.450236  0.792936  1
  F  F11  1  0.474665  0.585633  0.212819  1
  F  F12  1  0.702691  0.773853  0.994040  1
  F  F13  1  0.205076  0.237201  0.013916  1
  F  F14  1  0.709963  0.856995  0.455231  1
  F  F15  1  0.210289  0.142669  0.549913  1
  F  F16  1  0.488027  0.381090  0.789923  1
  F  F17  1  0.963243  0.590568  0.210590  1
