# generated using pymatgen
data_Nd9Tm(SnSb)4
_symmetry_space_group_name_H-M   'P 1'
_cell_length_a   8.31527400
_cell_length_b   8.39052700
_cell_length_c   15.86304700
_cell_angle_alpha   90.00000000
_cell_angle_beta   90.00000000
_cell_angle_gamma   90.00000000
_symmetry_Int_Tables_number   1
_chemical_formula_structural   Nd9Tm(SnSb)4
_chemical_formula_sum   'Nd18 Tm2 Sn8 Sb8'
_cell_volume   1106.75734957
_cell_formula_units_Z   2
loop_
 _symmetry_equiv_pos_site_id
 _symmetry_equiv_pos_as_xyz
  1  'x, y, z'
loop_
 _atom_site_type_symbol
 _atom_site_label
 _atom_site_symmetry_multiplicity
 _atom_site_fract_x
 _atom_site_fract_y
 _atom_site_fract_z
 _atom_site_occupancy
  Nd  Nd0  1  0.043042  0.174242  0.394385  1
  Nd  Nd1  1  0.381130  0.838615  0.120123  1
  Nd  Nd2  1  0.117768  0.338217  0.618513  1
  Nd  Nd3  1  0.458576  0.676371  0.895693  1
  Nd  Nd4  1  0.881130  0.661385  0.120123  1
  Nd  Nd5  1  0.117768  0.338217  0.881487  1
  Nd  Nd6  1  0.458576  0.676371  0.604307  1
  Nd  Nd7  1  0.289881  0.996353  0.750000  1
  Nd  Nd8  1  0.617768  0.161783  0.618513  1
  Nd  Nd9  1  0.789881  0.503647  0.750000  1
  Nd  Nd10  1  0.881130  0.661385  0.379877  1
  Nd  Nd11  1  0.043042  0.174242  0.105615  1
  Nd  Nd12  1  0.958576  0.823629  0.895693  1
  Nd  Nd13  1  0.617768  0.161783  0.881487  1
  Nd  Nd14  1  0.543042  0.325758  0.105615  1
  Nd  Nd15  1  0.381130  0.838615  0.379877  1
  Nd  Nd16  1  0.958576  0.823629  0.604307  1
  Nd  Nd17  1  0.543042  0.325758  0.394385  1
  Tm  Tm18  1  0.211940  0.497184  0.250000  1
  Tm  Tm19  1  0.711940  0.002816  0.250000  1
  Sn  Sn20  1  0.656431  0.859719  0.750000  1
  Sn  Sn21  1  0.847663  0.355398  0.250000  1
  Sn  Sn22  1  0.576524  0.624437  0.250000  1
  Sn  Sn23  1  0.418761  0.377125  0.750000  1
  Sn  Sn24  1  0.156431  0.640281  0.750000  1
  Sn  Sn25  1  0.918761  0.122875  0.750000  1
  Sn  Sn26  1  0.347663  0.144602  0.250000  1
  Sn  Sn27  1  0.076524  0.875563  0.250000  1
  Sb  Sb28  1  0.773483  0.476359  0.545581  1
  Sb  Sb29  1  0.725401  0.977359  0.450238  1
  Sb  Sb30  1  0.225401  0.522641  0.450238  1
  Sb  Sb31  1  0.273483  0.023641  0.954419  1
  Sb  Sb32  1  0.773483  0.476359  0.954419  1
  Sb  Sb33  1  0.225401  0.522641  0.049762  1
  Sb  Sb34  1  0.273483  0.023641  0.545581  1
  Sb  Sb35  1  0.725401  0.977359  0.049762  1
