# generated using pymatgen
data_Sr3Ca(Si3Pd5)4
_symmetry_space_group_name_H-M   'P 1'
_cell_length_a   4.06372200
_cell_length_b   19.95871861
_cell_length_c   7.37095904
_cell_angle_alpha   90.04046669
_cell_angle_beta   90.00000000
_cell_angle_gamma   90.00000000
_symmetry_Int_Tables_number   1
_chemical_formula_structural   Sr3Ca(Si3Pd5)4
_chemical_formula_sum   'Sr3 Ca1 Si12 Pd20'
_cell_volume   597.83389591
_cell_formula_units_Z   1
loop_
 _symmetry_equiv_pos_site_id
 _symmetry_equiv_pos_as_xyz
  1  'x, y, z'
loop_
 _atom_site_type_symbol
 _atom_site_label
 _atom_site_symmetry_multiplicity
 _atom_site_fract_x
 _atom_site_fract_y
 _atom_site_fract_z
 _atom_site_occupancy
  Sr  Sr0  1  0.750000  0.642620  0.122429  1
  Sr  Sr1  1  0.250000  0.356900  0.877372  1
  Sr  Sr2  1  0.250000  0.857822  0.622865  1
  Ca  Ca3  1  0.750000  0.143182  0.378448  1
  Si  Si4  1  0.750000  0.737121  0.628794  1
  Si  Si5  1  0.250000  0.260672  0.371043  1
  Si  Si6  1  0.250000  0.763224  0.128453  1
  Si  Si7  1  0.750000  0.236630  0.871066  1
  Si  Si8  1  0.750000  0.925209  0.344594  1
  Si  Si9  1  0.250000  0.076049  0.651117  1
  Si  Si10  1  0.250000  0.574878  0.844930  1
  Si  Si11  1  0.750000  0.424321  0.155489  1
  Si  Si12  1  0.750000  0.917881  0.914446  1
  Si  Si13  1  0.250000  0.084164  0.093094  1
  Si  Si14  1  0.250000  0.583416  0.414449  1
  Si  Si15  1  0.750000  0.415841  0.584954  1
  Pd  Pd16  1  0.750000  0.799619  0.324206  1
  Pd  Pd17  1  0.250000  0.199010  0.671093  1
  Pd  Pd18  1  0.250000  0.700627  0.824487  1
  Pd  Pd19  1  0.750000  0.298205  0.176082  1
  Pd  Pd20  1  0.750000  0.994889  0.625862  1
  Pd  Pd21  1  0.250000  0.007588  0.373092  1
  Pd  Pd22  1  0.250000  0.505619  0.127432  1
  Pd  Pd23  1  0.750000  0.493940  0.873035  1
  Pd  Pd24  1  0.750000  0.512437  0.378764  1
  Pd  Pd25  1  0.250000  0.487094  0.620726  1
  Pd  Pd26  1  0.250000  0.989230  0.879339  1
  Pd  Pd27  1  0.750000  0.014194  0.123846  1
  Pd  Pd28  1  0.750000  0.796933  0.933422  1
  Pd  Pd29  1  0.250000  0.202555  0.068021  1
  Pd  Pd30  1  0.250000  0.703793  0.433426  1
  Pd  Pd31  1  0.750000  0.294991  0.565344  1
  Pd  Pd32  1  0.750000  0.615963  0.641675  1
  Pd  Pd33  1  0.250000  0.382766  0.358731  1
  Pd  Pd34  1  0.250000  0.884712  0.141405  1
  Pd  Pd35  1  0.750000  0.115900  0.856471  1
