# generated using pymatgen
data_Tb6Lu4Si5Sn
_symmetry_space_group_name_H-M   'P 1'
_cell_length_a   8.48838300
_cell_length_b   8.50816719
_cell_length_c   6.30651900
_cell_angle_alpha   90.00000000
_cell_angle_beta   90.00000000
_cell_angle_gamma   119.92311275
_symmetry_Int_Tables_number   1
_chemical_formula_structural   Tb6Lu4Si5Sn
_chemical_formula_sum   'Tb6 Lu4 Si5 Sn1'
_cell_volume   394.74558249
_cell_formula_units_Z   1
loop_
 _symmetry_equiv_pos_site_id
 _symmetry_equiv_pos_as_xyz
  1  'x, y, z'
loop_
 _atom_site_type_symbol
 _atom_site_label
 _atom_site_symmetry_multiplicity
 _atom_site_fract_x
 _atom_site_fract_y
 _atom_site_fract_z
 _atom_site_occupancy
  Tb  Tb0  1  0.989372  0.747295  0.750000  1
  Tb  Tb1  1  0.998988  0.244431  0.250000  1
  Tb  Tb2  1  0.754557  0.755569  0.250000  1
  Tb  Tb3  1  0.764020  0.000000  0.750000  1
  Tb  Tb4  1  0.242077  0.252705  0.750000  1
  Tb  Tb5  1  0.242507  0.000000  0.250000  1
  Lu  Lu6  1  0.331590  0.658147  0.497116  1
  Lu  Lu7  1  0.673444  0.341853  0.002884  1
  Lu  Lu8  1  0.673444  0.341853  0.497116  1
  Lu  Lu9  1  0.331590  0.658147  0.002884  1
  Si  Si10  1  0.395180  0.393947  0.250000  1
  Si  Si11  1  0.001232  0.606053  0.250000  1
  Si  Si12  1  0.998587  0.395731  0.750000  1
  Si  Si13  1  0.602856  0.604269  0.750000  1
  Si  Si14  1  0.604452  0.000000  0.250000  1
  Sn  Sn15  1  0.396103  0.000000  0.750000  1
