# generated using pymatgen
data_YLu(Ga2Ag)2
_symmetry_space_group_name_H-M   'P 1'
_cell_length_a   4.36606100
_cell_length_b   6.91858194
_cell_length_c   10.24770521
_cell_angle_alpha   90.37094427
_cell_angle_beta   90.00000000
_cell_angle_gamma   90.00000000
_symmetry_Int_Tables_number   1
_chemical_formula_structural   YLu(Ga2Ag)2
_chemical_formula_sum   'Y2 Lu2 Ga8 Ag4'
_cell_volume   309.54543951
_cell_formula_units_Z   2
loop_
 _symmetry_equiv_pos_site_id
 _symmetry_equiv_pos_as_xyz
  1  'x, y, z'
loop_
 _atom_site_type_symbol
 _atom_site_label
 _atom_site_symmetry_multiplicity
 _atom_site_fract_x
 _atom_site_fract_y
 _atom_site_fract_z
 _atom_site_occupancy
  Y  Y0  1  0.750000  0.721368  0.323221  1
  Y  Y1  1  0.250000  0.278632  0.676779  1
  Lu  Lu2  1  0.250000  0.778058  0.824997  1
  Lu  Lu3  1  0.750000  0.221942  0.175003  1
  Ga  Ga4  1  0.250000  0.703650  0.537606  1
  Ga  Ga5  1  0.750000  0.296350  0.462394  1
  Ga  Ga6  1  0.750000  0.801323  0.034556  1
  Ga  Ga7  1  0.250000  0.198677  0.965444  1
  Ga  Ga8  1  0.250000  0.932320  0.154306  1
  Ga  Ga9  1  0.750000  0.067680  0.845694  1
  Ga  Ga10  1  0.750000  0.572026  0.654901  1
  Ga  Ga11  1  0.250000  0.427974  0.345099  1
  Ag  Ag12  1  0.250000  0.544760  0.095072  1
  Ag  Ag13  1  0.750000  0.455240  0.904928  1
  Ag  Ag14  1  0.750000  0.954645  0.596681  1
  Ag  Ag15  1  0.250000  0.045355  0.403319  1
