# generated using pymatgen
data_YbPdBr6
_symmetry_space_group_name_H-M   'P 1'
_cell_length_a   6.95586642
_cell_length_b   6.96259675
_cell_length_c   7.76760792
_cell_angle_alpha   89.76715801
_cell_angle_beta   115.81909977
_cell_angle_gamma   119.94865724
_symmetry_Int_Tables_number   1
_chemical_formula_structural   YbPdBr6
_chemical_formula_sum   'Yb1 Pd1 Br6'
_cell_volume   282.22911888
_cell_formula_units_Z   1
loop_
 _symmetry_equiv_pos_site_id
 _symmetry_equiv_pos_as_xyz
  1  'x, y, z'
loop_
 _atom_site_type_symbol
 _atom_site_label
 _atom_site_symmetry_multiplicity
 _atom_site_fract_x
 _atom_site_fract_y
 _atom_site_fract_z
 _atom_site_occupancy
  Yb  Yb0  1  0.238891  0.620591  0.859126  1
  Pd  Pd1  1  0.579691  0.289729  0.869626  1
  Br  Br2  1  0.439909  0.065286  0.093734  1
  Br  Br3  1  0.140152  0.210138  0.649733  1
  Br  Br4  1  0.721197  0.511853  0.644898  1
  Br  Br5  1  0.445597  0.932120  0.648049  1
  Br  Br6  1  0.713119  0.647337  0.090340  1
  Br  Br7  1  0.020446  0.372446  0.092995  1
