# generated using pymatgen
data_Lu16Tl3InNi4
_symmetry_space_group_name_H-M   'P 1'
_cell_length_a   9.34453265
_cell_length_b   9.34453365
_cell_length_c   9.34453300
_cell_angle_alpha   60.13207370
_cell_angle_beta   60.13207016
_cell_angle_gamma   60.13207489
_symmetry_Int_Tables_number   1
_chemical_formula_structural   Lu16Tl3InNi4
_chemical_formula_sum   'Lu16 Tl3 In1 Ni4'
_cell_volume   578.70236457
_cell_formula_units_Z   1
loop_
 _symmetry_equiv_pos_site_id
 _symmetry_equiv_pos_as_xyz
  1  'x, y, z'
loop_
 _atom_site_type_symbol
 _atom_site_label
 _atom_site_symmetry_multiplicity
 _atom_site_fract_x
 _atom_site_fract_y
 _atom_site_fract_z
 _atom_site_occupancy
  Lu  Lu0  1  0.347444  0.347444  0.347444  1
  Lu  Lu1  1  0.347852  0.347852  0.957391  1
  Lu  Lu2  1  0.347852  0.957391  0.347852  1
  Lu  Lu3  1  0.957391  0.347852  0.347852  1
  Lu  Lu4  1  0.813713  0.186420  0.186420  1
  Lu  Lu5  1  0.187745  0.812936  0.812936  1
  Lu  Lu6  1  0.186420  0.813713  0.186420  1
  Lu  Lu7  1  0.812936  0.187745  0.812936  1
  Lu  Lu8  1  0.186420  0.186420  0.813713  1
  Lu  Lu9  1  0.812936  0.812936  0.187745  1
  Lu  Lu10  1  0.937114  0.562455  0.562455  1
  Lu  Lu11  1  0.562020  0.938224  0.938224  1
  Lu  Lu12  1  0.562455  0.937114  0.562455  1
  Lu  Lu13  1  0.938224  0.562020  0.938224  1
  Lu  Lu14  1  0.562455  0.562455  0.937114  1
  Lu  Lu15  1  0.938224  0.938224  0.562020  1
  Tl  Tl16  1  0.585726  0.585726  0.243361  1
  Tl  Tl17  1  0.585726  0.243361  0.585726  1
  Tl  Tl18  1  0.243361  0.585726  0.585726  1
  In  In19  1  0.583840  0.583840  0.583840  1
  Ni  Ni20  1  0.142507  0.142507  0.142507  1
  Ni  Ni21  1  0.142192  0.142192  0.573247  1
  Ni  Ni22  1  0.142192  0.573247  0.142192  1
  Ni  Ni23  1  0.573247  0.142192  0.142192  1
