# generated using pymatgen
data_HoTlBi2(Ir2O7)2
_symmetry_space_group_name_H-M   'P 1'
_cell_length_a   7.38145740
_cell_length_b   7.37039968
_cell_length_c   7.29698559
_cell_angle_alpha   59.55741278
_cell_angle_beta   59.61630665
_cell_angle_gamma   59.95034687
_symmetry_Int_Tables_number   1
_chemical_formula_structural   HoTlBi2(Ir2O7)2
_chemical_formula_sum   'Ho1 Tl1 Bi2 Ir4 O14'
_cell_volume   278.84305583
_cell_formula_units_Z   1
loop_
 _symmetry_equiv_pos_site_id
 _symmetry_equiv_pos_as_xyz
  1  'x, y, z'
loop_
 _atom_site_type_symbol
 _atom_site_label
 _atom_site_symmetry_multiplicity
 _atom_site_fract_x
 _atom_site_fract_y
 _atom_site_fract_z
 _atom_site_occupancy
  Ho  Ho0  1  0.125000  0.625000  0.125000  1
  Tl  Tl1  1  0.125000  0.125000  0.625000  1
  Bi  Bi2  1  0.625000  0.125000  0.125000  1
  Bi  Bi3  1  0.125000  0.125000  0.125000  1
  Ir  Ir4  1  0.125000  0.625000  0.625000  1
  Ir  Ir5  1  0.625000  0.125000  0.625000  1
  Ir  Ir6  1  0.625000  0.625000  0.125000  1
  Ir  Ir7  1  0.625000  0.625000  0.625000  1
  O  O8  1  0.715036  0.703851  0.289638  1
  O  O9  1  0.295083  0.294836  0.704350  1
  O  O10  1  0.705731  0.294836  0.704350  1
  O  O11  1  0.291475  0.703851  0.289638  1
  O  O12  1  0.295559  0.701010  0.707871  1
  O  O13  1  0.705430  0.295919  0.293221  1
  O  O14  1  0.534964  0.546149  0.960362  1
  O  O15  1  0.954917  0.955164  0.545650  1
  O  O16  1  0.544269  0.955164  0.545650  1
  O  O17  1  0.958525  0.546149  0.960362  1
  O  O18  1  0.954441  0.548990  0.542129  1
  O  O19  1  0.544570  0.954081  0.956779  1
  O  O20  1  0.249713  0.262590  0.237984  1
  O  O21  1  0.000287  0.987410  0.012016  1
