# generated using pymatgen
data_Y8SnPd23Pt
_symmetry_space_group_name_H-M   'P 1'
_cell_length_a   8.41574800
_cell_length_b   8.40874100
_cell_length_c   8.40874100
_cell_angle_alpha   90.00000000
_cell_angle_beta   90.00000000
_cell_angle_gamma   90.00000000
_symmetry_Int_Tables_number   1
_chemical_formula_structural   Y8SnPd23Pt
_chemical_formula_sum   'Y8 Sn1 Pd23 Pt1'
_cell_volume   595.05166438
_cell_formula_units_Z   1
loop_
 _symmetry_equiv_pos_site_id
 _symmetry_equiv_pos_as_xyz
  1  'x, y, z'
loop_
 _atom_site_type_symbol
 _atom_site_label
 _atom_site_symmetry_multiplicity
 _atom_site_fract_x
 _atom_site_fract_y
 _atom_site_fract_z
 _atom_site_occupancy
  Y  Y0  1  0.252511  0.252943  0.252943  1
  Y  Y1  1  0.747511  0.747479  0.747479  1
  Y  Y2  1  0.747511  0.747479  0.252521  1
  Y  Y3  1  0.747511  0.252521  0.747479  1
  Y  Y4  1  0.252511  0.252943  0.747057  1
  Y  Y5  1  0.252511  0.747057  0.252943  1
  Y  Y6  1  0.252511  0.747057  0.747057  1
  Y  Y7  1  0.747511  0.252521  0.252521  1
  Sn  Sn8  1  0.000058  0.000000  0.000000  1
  Pd  Pd9  1  0.265195  0.500000  0.000000  1
  Pd  Pd10  1  0.734719  0.500000  0.000000  1
  Pd  Pd11  1  0.000015  0.265209  0.500000  1
  Pd  Pd12  1  0.500069  0.265150  0.000000  1
  Pd  Pd13  1  0.000015  0.734791  0.500000  1
  Pd  Pd14  1  0.500069  0.734850  0.000000  1
  Pd  Pd15  1  0.500069  0.000000  0.265150  1
  Pd  Pd16  1  0.265195  0.000000  0.500000  1
  Pd  Pd17  1  0.500069  0.000000  0.734850  1
  Pd  Pd18  1  0.734719  0.000000  0.500000  1
  Pd  Pd19  1  0.000015  0.500000  0.265209  1
  Pd  Pd20  1  0.000015  0.500000  0.734791  1
  Pd  Pd21  1  0.745241  0.500000  0.500000  1
  Pd  Pd22  1  0.499972  0.254859  0.500000  1
  Pd  Pd23  1  0.499972  0.745141  0.500000  1
  Pd  Pd24  1  0.499972  0.500000  0.254859  1
  Pd  Pd25  1  0.499972  0.500000  0.745141  1
  Pd  Pd26  1  0.308311  0.000000  0.000000  1
  Pd  Pd27  1  0.691835  0.000000  0.000000  1
  Pd  Pd28  1  0.999940  0.308203  0.000000  1
  Pd  Pd29  1  0.999940  0.691797  0.000000  1
  Pd  Pd30  1  0.999940  0.000000  0.308203  1
  Pd  Pd31  1  0.999940  0.000000  0.691797  1
  Pt  Pt32  1  0.254658  0.500000  0.500000  1
