# generated using pymatgen
data_La2PaTc2
_symmetry_space_group_name_H-M   'P 1'
_cell_length_a   6.19788910
_cell_length_b   6.19788866
_cell_length_c   6.19788702
_cell_angle_alpha   139.21940607
_cell_angle_beta   124.06200344
_cell_angle_gamma   71.49990996
_symmetry_Int_Tables_number   1
_chemical_formula_structural   La2PaTc2
_chemical_formula_sum   'La2 Pa1 Tc2'
_cell_volume   126.29360914
_cell_formula_units_Z   1
loop_
 _symmetry_equiv_pos_site_id
 _symmetry_equiv_pos_as_xyz
  1  'x, y, z'
loop_
 _atom_site_type_symbol
 _atom_site_label
 _atom_site_symmetry_multiplicity
 _atom_site_fract_x
 _atom_site_fract_y
 _atom_site_fract_z
 _atom_site_occupancy
  La  La0  1  0.695298  0.195299  0.500000  1
  La  La1  1  0.304701  0.804701  0.500000  1
  Pa  Pa2  1  0.000000  0.000000  0.000000  1
  Tc  Tc3  1  0.752113  0.500000  0.252113  1
  Tc  Tc4  1  0.247886  0.500000  0.747886  1
