# generated using pymatgen
data_TbThSc2(Ga3Rh)6
_symmetry_space_group_name_H-M   'P 1'
_cell_length_a   7.56538113
_cell_length_b   7.56929197
_cell_length_c   9.46504200
_cell_angle_alpha   90.00000000
_cell_angle_beta   90.00000000
_cell_angle_gamma   119.70581450
_symmetry_Int_Tables_number   1
_chemical_formula_structural   TbThSc2(Ga3Rh)6
_chemical_formula_sum   'Tb1 Th1 Sc2 Ga18 Rh6'
_cell_volume   470.78113827
_cell_formula_units_Z   1
loop_
 _symmetry_equiv_pos_site_id
 _symmetry_equiv_pos_as_xyz
  1  'x, y, z'
loop_
 _atom_site_type_symbol
 _atom_site_label
 _atom_site_symmetry_multiplicity
 _atom_site_fract_x
 _atom_site_fract_y
 _atom_site_fract_z
 _atom_site_occupancy
  Tb  Tb0  1  0.670128  0.996816  0.250000  1
  Th  Th1  1  0.996728  0.669049  0.250000  1
  Sc  Sc2  1  0.001540  0.330658  0.750000  1
  Sc  Sc3  1  0.329265  0.001418  0.750000  1
  Ga  Ga4  1  0.129589  0.131850  0.250000  1
  Ga  Ga5  1  0.879807  0.882368  0.750000  1
  Ga  Ga6  1  0.001337  0.329606  0.072728  1
  Ga  Ga7  1  0.003452  0.664618  0.908284  1
  Ga  Ga8  1  0.003452  0.664618  0.591716  1
  Ga  Ga9  1  0.340692  0.005963  0.427104  1
  Ga  Ga10  1  0.001337  0.329606  0.427272  1
  Ga  Ga11  1  0.664847  0.004664  0.586549  1
  Ga  Ga12  1  0.664847  0.004664  0.913451  1
  Ga  Ga13  1  0.340692  0.005963  0.072896  1
  Ga  Ga14  1  0.327698  0.327717  0.573130  1
  Ga  Ga15  1  0.662216  0.667124  0.442925  1
  Ga  Ga16  1  0.662216  0.667124  0.057075  1
  Ga  Ga17  1  0.327698  0.327717  0.926870  1
  Ga  Ga18  1  0.342630  0.546954  0.250000  1
  Ga  Ga19  1  0.658043  0.444680  0.750000  1
  Ga  Ga20  1  0.542684  0.335693  0.250000  1
  Ga  Ga21  1  0.445577  0.660656  0.750000  1
  Rh  Rh22  1  0.674647  0.331649  0.999548  1
  Rh  Rh23  1  0.326218  0.671292  0.999350  1
  Rh  Rh24  1  0.326218  0.671292  0.500650  1
  Rh  Rh25  1  0.674647  0.331649  0.500452  1
  Rh  Rh26  1  0.000897  0.997295  0.999660  1
  Rh  Rh27  1  0.000897  0.997295  0.500340  1
