# generated using pymatgen
data_Sm(GdS2)3
_symmetry_space_group_name_H-M   'P 1'
_cell_length_a   4.01661400
_cell_length_b   11.12318381
_cell_length_c   11.43110078
_cell_angle_alpha   71.56486739
_cell_angle_beta   90.00000000
_cell_angle_gamma   90.00000000
_symmetry_Int_Tables_number   1
_chemical_formula_structural   Sm(GdS2)3
_chemical_formula_sum   'Sm2 Gd6 S12'
_cell_volume   484.50476873
_cell_formula_units_Z   2
loop_
 _symmetry_equiv_pos_site_id
 _symmetry_equiv_pos_as_xyz
  1  'x, y, z'
loop_
 _atom_site_type_symbol
 _atom_site_label
 _atom_site_symmetry_multiplicity
 _atom_site_fract_x
 _atom_site_fract_y
 _atom_site_fract_z
 _atom_site_occupancy
  Sm  Sm0  1  0.250000  0.453901  0.191063  1
  Sm  Sm1  1  0.750000  0.546099  0.808937  1
  Gd  Gd2  1  0.250000  0.339161  0.584626  1
  Gd  Gd3  1  0.750000  0.660839  0.415374  1
  Gd  Gd4  1  0.250000  0.817993  0.003296  1
  Gd  Gd5  1  0.750000  0.182007  0.996704  1
  Gd  Gd6  1  0.250000  0.064540  0.331427  1
  Gd  Gd7  1  0.750000  0.935460  0.668573  1
  S  S8  1  0.250000  0.690849  0.251304  1
  S  S9  1  0.750000  0.309151  0.748696  1
  S  S10  1  0.250000  0.582497  0.597847  1
  S  S11  1  0.750000  0.417503  0.402153  1
  S  S12  1  0.250000  0.387477  0.962144  1
  S  S13  1  0.750000  0.612523  0.037856  1
  S  S14  1  0.250000  0.021983  0.111904  1
  S  S15  1  0.750000  0.978017  0.888096  1
  S  S16  1  0.750000  0.898148  0.438215  1
  S  S17  1  0.250000  0.101852  0.561785  1
  S  S18  1  0.750000  0.242623  0.224347  1
  S  S19  1  0.250000  0.757377  0.775653  1
