# generated using pymatgen
data_DyTm7Sc12Si15Pt
_symmetry_space_group_name_H-M   'P 1'
_cell_length_a   7.07504957
_cell_length_b   7.34141108
_cell_length_c   13.97135687
_cell_angle_alpha   89.96106349
_cell_angle_beta   89.74648436
_cell_angle_gamma   90.20615374
_symmetry_Int_Tables_number   1
_chemical_formula_structural   DyTm7Sc12Si15Pt
_chemical_formula_sum   'Dy1 Tm7 Sc12 Si15 Pt1'
_cell_volume   725.67213694
_cell_formula_units_Z   1
loop_
 _symmetry_equiv_pos_site_id
 _symmetry_equiv_pos_as_xyz
  1  'x, y, z'
loop_
 _atom_site_type_symbol
 _atom_site_label
 _atom_site_symmetry_multiplicity
 _atom_site_fract_x
 _atom_site_fract_y
 _atom_site_fract_z
 _atom_site_occupancy
  Dy  Dy0  1  0.012331  0.175689  0.096423  1
  Tm  Tm1  1  0.987695  0.823592  0.903181  1
  Tm  Tm2  1  0.487231  0.677502  0.902923  1
  Tm  Tm3  1  0.988858  0.822080  0.596919  1
  Tm  Tm4  1  0.512482  0.323509  0.096069  1
  Tm  Tm5  1  0.012296  0.179239  0.402027  1
  Tm  Tm6  1  0.507062  0.325083  0.403570  1
  Tm  Tm7  1  0.486096  0.672031  0.597752  1
  Sc  Sc8  1  0.163338  0.503199  0.747011  1
  Sc  Sc9  1  0.837334  0.497641  0.251580  1
  Sc  Sc10  1  0.338095  0.000924  0.250329  1
  Sc  Sc11  1  0.663458  0.995491  0.749972  1
  Sc  Sc12  1  0.333798  0.183325  0.622910  1
  Sc  Sc13  1  0.667723  0.823233  0.374136  1
  Sc  Sc14  1  0.170398  0.668344  0.376304  1
  Sc  Sc15  1  0.670659  0.823894  0.126190  1
  Sc  Sc16  1  0.832412  0.326475  0.624345  1
  Sc  Sc17  1  0.328570  0.176210  0.875526  1
  Sc  Sc18  1  0.831063  0.322827  0.875662  1
  Sc  Sc19  1  0.169495  0.676444  0.125030  1
  Si  Si20  1  0.034044  0.114078  0.750230  1
  Si  Si21  1  0.968692  0.885177  0.250620  1
  Si  Si22  1  0.467251  0.612819  0.248555  1
  Si  Si23  1  0.536349  0.386419  0.752790  1
  Si  Si24  1  0.285477  0.874004  0.750563  1
  Si  Si25  1  0.712742  0.130444  0.250043  1
  Si  Si26  1  0.216022  0.369680  0.247886  1
  Si  Si27  1  0.784977  0.628629  0.752916  1
  Si  Si28  1  0.835307  0.535643  0.460096  1
  Si  Si29  1  0.341258  0.964451  0.460572  1
  Si  Si30  1  0.841745  0.536542  0.038654  1
  Si  Si31  1  0.658038  0.034107  0.538437  1
  Si  Si32  1  0.157133  0.466302  0.960675  1
  Si  Si33  1  0.658105  0.033926  0.961462  1
  Si  Si34  1  0.343954  0.963870  0.038614  1
  Pt  Pt35  1  0.158510  0.467172  0.540027  1
