# generated using pymatgen
data_Y2Fe3Ni7P6
_symmetry_space_group_name_H-M   'P 1'
_cell_length_a   3.69952600
_cell_length_b   10.30311500
_cell_length_c   11.88724100
_cell_angle_alpha   90.00000000
_cell_angle_beta   90.00000000
_cell_angle_gamma   90.00000000
_symmetry_Int_Tables_number   1
_chemical_formula_structural   Y2Fe3Ni7P6
_chemical_formula_sum   'Y4 Fe6 Ni14 P12'
_cell_volume   453.10170747
_cell_formula_units_Z   2
loop_
 _symmetry_equiv_pos_site_id
 _symmetry_equiv_pos_as_xyz
  1  'x, y, z'
loop_
 _atom_site_type_symbol
 _atom_site_label
 _atom_site_symmetry_multiplicity
 _atom_site_fract_x
 _atom_site_fract_y
 _atom_site_fract_z
 _atom_site_occupancy
  Y  Y0  1  0.250000  0.576138  0.704503  1
  Y  Y1  1  0.250000  0.923862  0.204503  1
  Y  Y2  1  0.750000  0.419220  0.295287  1
  Y  Y3  1  0.750000  0.080780  0.795287  1
  Fe  Fe4  1  0.750000  0.125455  0.298905  1
  Fe  Fe5  1  0.750000  0.374545  0.798905  1
  Fe  Fe6  1  0.250000  0.465166  0.932461  1
  Fe  Fe7  1  0.250000  0.034834  0.432461  1
  Fe  Fe8  1  0.750000  0.539349  0.068813  1
  Fe  Fe9  1  0.750000  0.960651  0.568813  1
  Ni  Ni10  1  0.250000  0.716816  0.998081  1
  Ni  Ni11  1  0.250000  0.783184  0.498081  1
  Ni  Ni12  1  0.750000  0.288914  0.007992  1
  Ni  Ni13  1  0.750000  0.211086  0.507992  1
  Ni  Ni14  1  0.250000  0.406253  0.485312  1
  Ni  Ni15  1  0.250000  0.093747  0.985312  1
  Ni  Ni16  1  0.750000  0.590095  0.511691  1
  Ni  Ni17  1  0.750000  0.909905  0.011691  1
  Ni  Ni18  1  0.250000  0.226646  0.171876  1
  Ni  Ni19  1  0.250000  0.273354  0.671876  1
  Ni  Ni20  1  0.750000  0.773174  0.824417  1
  Ni  Ni21  1  0.750000  0.726826  0.324417  1
  Ni  Ni22  1  0.250000  0.874798  0.702968  1
  Ni  Ni23  1  0.250000  0.625202  0.202968  1
  P  P24  1  0.250000  0.429656  0.111209  1
  P  P25  1  0.250000  0.070344  0.611209  1
  P  P26  1  0.750000  0.568856  0.887080  1
  P  P27  1  0.750000  0.931144  0.387080  1
  P  P28  1  0.250000  0.272861  0.864030  1
  P  P29  1  0.250000  0.227139  0.364030  1
  P  P30  1  0.750000  0.733844  0.131677  1
  P  P31  1  0.750000  0.766156  0.631677  1
  P  P32  1  0.250000  0.604135  0.393325  1
  P  P33  1  0.250000  0.895865  0.893325  1
  P  P34  1  0.750000  0.392914  0.610374  1
  P  P35  1  0.750000  0.107086  0.110374  1
