# generated using pymatgen
data_Gd6YTh(Si3Pd)4
_symmetry_space_group_name_H-M   'P 1'
_cell_length_a   8.19753500
_cell_length_b   8.19753427
_cell_length_c   8.26508000
_cell_angle_alpha   90.00000000
_cell_angle_beta   90.00000000
_cell_angle_gamma   119.99999892
_symmetry_Int_Tables_number   1
_chemical_formula_structural   Gd6YTh(Si3Pd)4
_chemical_formula_sum   'Gd6 Y1 Th1 Si12 Pd4'
_cell_volume   480.99904967
_cell_formula_units_Z   1
loop_
 _symmetry_equiv_pos_site_id
 _symmetry_equiv_pos_as_xyz
  1  'x, y, z'
loop_
 _atom_site_type_symbol
 _atom_site_label
 _atom_site_symmetry_multiplicity
 _atom_site_fract_x
 _atom_site_fract_y
 _atom_site_fract_z
 _atom_site_occupancy
  Gd  Gd0  1  0.500590  0.001178  0.250000  1
  Gd  Gd1  1  0.499404  0.998808  0.750000  1
  Gd  Gd2  1  0.998822  0.499410  0.250000  1
  Gd  Gd3  1  0.001192  0.500596  0.750000  1
  Gd  Gd4  1  0.500590  0.499410  0.250000  1
  Gd  Gd5  1  0.499404  0.500596  0.750000  1
  Y  Y6  1  0.000000  0.000000  0.750000  1
  Th  Th7  1  0.000000  0.000000  0.250000  1
  Si  Si8  1  0.165753  0.331506  0.998135  1
  Si  Si9  1  0.834255  0.668511  0.997254  1
  Si  Si10  1  0.668494  0.834247  0.998135  1
  Si  Si11  1  0.834255  0.668511  0.502746  1
  Si  Si12  1  0.331489  0.165745  0.997254  1
  Si  Si13  1  0.165753  0.331506  0.501865  1
  Si  Si14  1  0.165753  0.834247  0.998135  1
  Si  Si15  1  0.331489  0.165745  0.502746  1
  Si  Si16  1  0.834255  0.165745  0.997254  1
  Si  Si17  1  0.668494  0.834247  0.501865  1
  Si  Si18  1  0.834255  0.165745  0.502746  1
  Si  Si19  1  0.165753  0.834247  0.501865  1
  Pd  Pd20  1  0.333333  0.666667  0.000583  1
  Pd  Pd21  1  0.666667  0.333333  0.997487  1
  Pd  Pd22  1  0.666667  0.333333  0.502513  1
  Pd  Pd23  1  0.333333  0.666667  0.499417  1
