# generated using pymatgen
data_Tm4Fe3Tc3Ru2
_symmetry_space_group_name_H-M   'P 1'
_cell_length_a   5.20341200
_cell_length_b   5.20341053
_cell_length_c   8.83399100
_cell_angle_alpha   90.00000000
_cell_angle_beta   90.00000000
_cell_angle_gamma   119.99524751
_symmetry_Int_Tables_number   1
_chemical_formula_structural   Tm4Fe3Tc3Ru2
_chemical_formula_sum   'Tm4 Fe3 Tc3 Ru2'
_cell_volume   207.14987997
_cell_formula_units_Z   1
loop_
 _symmetry_equiv_pos_site_id
 _symmetry_equiv_pos_as_xyz
  1  'x, y, z'
loop_
 _atom_site_type_symbol
 _atom_site_label
 _atom_site_symmetry_multiplicity
 _atom_site_fract_x
 _atom_site_fract_y
 _atom_site_fract_z
 _atom_site_occupancy
  Tm  Tm0  1  0.666687  0.333313  0.558783  1
  Tm  Tm1  1  0.333328  0.666672  0.433327  1
  Tm  Tm2  1  0.333328  0.666672  0.066673  1
  Tm  Tm3  1  0.666687  0.333313  0.941217  1
  Fe  Fe4  1  0.828247  0.656470  0.250000  1
  Fe  Fe5  1  0.828241  0.171759  0.250000  1
  Fe  Fe6  1  0.343530  0.171753  0.250000  1
  Tc  Tc7  1  0.169007  0.338061  0.750000  1
  Tc  Tc8  1  0.168982  0.831018  0.750000  1
  Tc  Tc9  1  0.661939  0.830993  0.750000  1
  Ru  Ru10  1  0.000012  0.999988  0.485858  1
  Ru  Ru11  1  0.000012  0.999988  0.014142  1
