# generated using pymatgen
data_Pr8Er12Si15P
_symmetry_space_group_name_H-M   'P 1'
_cell_length_a   7.48864675
_cell_length_b   7.77237466
_cell_length_c   14.72129900
_cell_angle_alpha   90.00000000
_cell_angle_beta   90.00000000
_cell_angle_gamma   90.41654675
_symmetry_Int_Tables_number   1
_chemical_formula_structural   Pr8Er12Si15P
_chemical_formula_sum   'Pr8 Er12 Si15 P1'
_cell_volume   856.82420877
_cell_formula_units_Z   1
loop_
 _symmetry_equiv_pos_site_id
 _symmetry_equiv_pos_as_xyz
  1  'x, y, z'
loop_
 _atom_site_type_symbol
 _atom_site_label
 _atom_site_symmetry_multiplicity
 _atom_site_fract_x
 _atom_site_fract_y
 _atom_site_fract_z
 _atom_site_occupancy
  Pr  Pr0  1  0.020508  0.178053  0.402980  1
  Pr  Pr1  1  0.519685  0.323118  0.403287  1
  Pr  Pr2  1  0.481682  0.675975  0.901648  1
  Pr  Pr3  1  0.481682  0.675975  0.598352  1
  Pr  Pr4  1  0.983481  0.824220  0.601283  1
  Pr  Pr5  1  0.983481  0.824220  0.898717  1
  Pr  Pr6  1  0.519685  0.323118  0.096713  1
  Pr  Pr7  1  0.020508  0.178053  0.097020  1
  Er  Er8  1  0.317202  0.170755  0.626161  1
  Er  Er9  1  0.678168  0.822835  0.376934  1
  Er  Er10  1  0.652634  0.990437  0.750000  1
  Er  Er11  1  0.176862  0.678952  0.376892  1
  Er  Er12  1  0.818421  0.325693  0.877208  1
  Er  Er13  1  0.818421  0.325693  0.622792  1
  Er  Er14  1  0.845221  0.489423  0.250000  1
  Er  Er15  1  0.346997  0.011322  0.250000  1
  Er  Er16  1  0.317202  0.170755  0.873839  1
  Er  Er17  1  0.176862  0.678952  0.123108  1
  Er  Er18  1  0.678168  0.822835  0.123066  1
  Er  Er19  1  0.154461  0.508016  0.750000  1
  Si  Si20  1  0.470972  0.614679  0.250000  1
  Si  Si21  1  0.013821  0.130344  0.750000  1
  Si  Si22  1  0.524244  0.380622  0.750000  1
  Si  Si23  1  0.148107  0.467487  0.540512  1
  Si  Si24  1  0.972055  0.887053  0.250000  1
  Si  Si25  1  0.727048  0.120412  0.250000  1
  Si  Si26  1  0.854755  0.534097  0.039775  1
  Si  Si27  1  0.354434  0.967979  0.039134  1
  Si  Si28  1  0.148107  0.467487  0.959488  1
  Si  Si29  1  0.645163  0.030780  0.540902  1
  Si  Si30  1  0.354434  0.967979  0.460866  1
  Si  Si31  1  0.854755  0.534097  0.460225  1
  Si  Si32  1  0.777144  0.624511  0.750000  1
  Si  Si33  1  0.227035  0.380527  0.250000  1
  Si  Si34  1  0.645163  0.030780  0.959098  1
  P  P35  1  0.291436  0.862768  0.750000  1
