# generated using pymatgen
data_Tm4Mn15Fe5P12
_symmetry_space_group_name_H-M   'P 1'
_cell_length_a   3.58508500
_cell_length_b   10.51134939
_cell_length_c   12.13751597
_cell_angle_alpha   89.79185343
_cell_angle_beta   90.00000000
_cell_angle_gamma   90.00000000
_symmetry_Int_Tables_number   1
_chemical_formula_structural   Tm4Mn15Fe5P12
_chemical_formula_sum   'Tm4 Mn15 Fe5 P12'
_cell_volume   457.38811693
_cell_formula_units_Z   1
loop_
 _symmetry_equiv_pos_site_id
 _symmetry_equiv_pos_as_xyz
  1  'x, y, z'
loop_
 _atom_site_type_symbol
 _atom_site_label
 _atom_site_symmetry_multiplicity
 _atom_site_fract_x
 _atom_site_fract_y
 _atom_site_fract_z
 _atom_site_occupancy
  Tm  Tm0  1  0.250000  0.580051  0.710949  1
  Tm  Tm1  1  0.250000  0.917867  0.207770  1
  Tm  Tm2  1  0.750000  0.417178  0.292531  1
  Tm  Tm3  1  0.750000  0.084853  0.791166  1
  Mn  Mn4  1  0.250000  0.710205  0.985446  1
  Mn  Mn5  1  0.250000  0.788818  0.486815  1
  Mn  Mn6  1  0.750000  0.292166  0.010963  1
  Mn  Mn7  1  0.750000  0.211109  0.513839  1
  Mn  Mn8  1  0.250000  0.408789  0.493946  1
  Mn  Mn9  1  0.250000  0.093688  0.991086  1
  Mn  Mn10  1  0.750000  0.589843  0.508054  1
  Mn  Mn11  1  0.750000  0.910110  0.006708  1
  Mn  Mn12  1  0.250000  0.218604  0.175981  1
  Mn  Mn13  1  0.250000  0.281626  0.674058  1
  Mn  Mn14  1  0.750000  0.779348  0.825350  1
  Mn  Mn15  1  0.750000  0.718451  0.324641  1
  Mn  Mn16  1  0.250000  0.876227  0.697508  1
  Mn  Mn17  1  0.250000  0.623735  0.198228  1
  Mn  Mn18  1  0.750000  0.123675  0.302009  1
  Fe  Fe19  1  0.750000  0.374141  0.800901  1
  Fe  Fe20  1  0.250000  0.463079  0.934177  1
  Fe  Fe21  1  0.250000  0.036593  0.431750  1
  Fe  Fe22  1  0.750000  0.538079  0.069358  1
  Fe  Fe23  1  0.750000  0.961694  0.568269  1
  P  P24  1  0.250000  0.422287  0.111965  1
  P  P25  1  0.250000  0.077567  0.610447  1
  P  P26  1  0.750000  0.572447  0.888180  1
  P  P27  1  0.750000  0.921799  0.388609  1
  P  P28  1  0.250000  0.268530  0.868606  1
  P  P29  1  0.250000  0.236780  0.372283  1
  P  P30  1  0.750000  0.737980  0.128130  1
  P  P31  1  0.750000  0.761227  0.629215  1
  P  P32  1  0.250000  0.592728  0.386486  1
  P  P33  1  0.250000  0.907720  0.885070  1
  P  P34  1  0.750000  0.406431  0.616121  1
  P  P35  1  0.750000  0.094573  0.113385  1
