# generated using pymatgen
data_Tb4Y2GaTcNi
_symmetry_space_group_name_H-M   'P 1'
_cell_length_a   8.39121513
_cell_length_b   8.39121616
_cell_length_c   8.39121566
_cell_angle_alpha   104.32947672
_cell_angle_beta   110.75229150
_cell_angle_gamma   113.46407885
_symmetry_Int_Tables_number   1
_chemical_formula_structural   Tb4Y2GaTcNi
_chemical_formula_sum   'Tb8 Y4 Ga2 Tc2 Ni2'
_cell_volume   451.84023654
_cell_formula_units_Z   2
loop_
 _symmetry_equiv_pos_site_id
 _symmetry_equiv_pos_as_xyz
  1  'x, y, z'
loop_
 _atom_site_type_symbol
 _atom_site_label
 _atom_site_symmetry_multiplicity
 _atom_site_fract_x
 _atom_site_fract_y
 _atom_site_fract_z
 _atom_site_occupancy
  Tb  Tb0  1  0.814578  0.146976  0.332398  1
  Tb  Tb1  1  0.814578  0.482180  0.667602  1
  Tb  Tb2  1  0.185422  0.853024  0.667602  1
  Tb  Tb3  1  0.185422  0.517820  0.332398  1
  Tb  Tb4  1  0.600809  0.780553  0.820254  1
  Tb  Tb5  1  0.960298  0.780553  0.179746  1
  Tb  Tb6  1  0.039702  0.219447  0.820254  1
  Tb  Tb7  1  0.399191  0.219447  0.179746  1
  Y  Y8  1  0.690105  0.256889  0.946993  1
  Y  Y9  1  0.309895  0.743111  0.053007  1
  Y  Y10  1  0.690105  0.743111  0.433217  1
  Y  Y11  1  0.309895  0.256889  0.566783  1
  Ga  Ga12  1  0.500000  0.500000  0.000000  1
  Ga  Ga13  1  0.500000  0.000000  0.500000  1
  Tc  Tc14  1  0.821477  0.500000  0.321477  1
  Tc  Tc15  1  0.178523  0.500000  0.678523  1
  Ni  Ni16  1  0.000000  0.117152  0.117152  1
  Ni  Ni17  1  0.000000  0.882848  0.882848  1
