# generated using pymatgen
data_Ce4Re5Os3
_symmetry_space_group_name_H-M   'P 1'
_cell_length_a   5.39064383
_cell_length_b   5.13544043
_cell_length_c   9.35077300
_cell_angle_alpha   90.00000000
_cell_angle_beta   90.00000000
_cell_angle_gamma   118.44591600
_symmetry_Int_Tables_number   1
_chemical_formula_structural   Ce4Re5Os3
_chemical_formula_sum   'Ce4 Re5 Os3'
_cell_volume   227.60756247
_cell_formula_units_Z   1
loop_
 _symmetry_equiv_pos_site_id
 _symmetry_equiv_pos_as_xyz
  1  'x, y, z'
loop_
 _atom_site_type_symbol
 _atom_site_label
 _atom_site_symmetry_multiplicity
 _atom_site_fract_x
 _atom_site_fract_y
 _atom_site_fract_z
 _atom_site_occupancy
  Ce  Ce0  1  0.333764  0.666882  0.439232  1
  Ce  Ce1  1  0.666794  0.333396  0.563224  1
  Ce  Ce2  1  0.666794  0.333396  0.936776  1
  Ce  Ce3  1  0.333764  0.666882  0.060768  1
  Re  Re4  1  0.835889  0.171021  0.250000  1
  Re  Re5  1  0.835889  0.664868  0.250000  1
  Re  Re6  1  0.347461  0.173731  0.250000  1
  Re  Re7  1  0.162536  0.828314  0.750000  1
  Re  Re8  1  0.162536  0.334222  0.750000  1
  Os  Os9  1  0.002003  0.001001  0.501208  1
  Os  Os10  1  0.002003  0.001001  0.998792  1
  Os  Os11  1  0.650569  0.825285  0.750000  1
