# generated using pymatgen
data_Sm8C8Cl5
_symmetry_space_group_name_H-M   'P 1'
_cell_length_a   16.68945900
_cell_length_b   6.66514197
_cell_length_c   7.52302100
_cell_angle_alpha   76.01102786
_cell_angle_beta   90.00000000
_cell_angle_gamma   90.00000000
_symmetry_Int_Tables_number   1
_chemical_formula_structural   Sm8C8Cl5
_chemical_formula_sum   'Sm16 C16 Cl10'
_cell_volume   812.02404388
_cell_formula_units_Z   2
loop_
 _symmetry_equiv_pos_site_id
 _symmetry_equiv_pos_as_xyz
  1  'x, y, z'
loop_
 _atom_site_type_symbol
 _atom_site_label
 _atom_site_symmetry_multiplicity
 _atom_site_fract_x
 _atom_site_fract_y
 _atom_site_fract_z
 _atom_site_occupancy
  Sm  Sm0  1  0.071132  0.875755  0.146341  1
  Sm  Sm1  1  0.571132  0.624245  0.853659  1
  Sm  Sm2  1  0.928868  0.124245  0.853659  1
  Sm  Sm3  1  0.428868  0.375755  0.146341  1
  Sm  Sm4  1  0.950866  0.385313  0.224041  1
  Sm  Sm5  1  0.450866  0.114687  0.775959  1
  Sm  Sm6  1  0.049134  0.614687  0.775959  1
  Sm  Sm7  1  0.549134  0.885313  0.224041  1
  Sm  Sm8  1  0.197152  0.373665  0.066265  1
  Sm  Sm9  1  0.697152  0.126335  0.933735  1
  Sm  Sm10  1  0.802848  0.626335  0.933735  1
  Sm  Sm11  1  0.302848  0.873665  0.066265  1
  Sm  Sm12  1  0.172821  0.097045  0.697675  1
  Sm  Sm13  1  0.672821  0.402955  0.302325  1
  Sm  Sm14  1  0.827179  0.902955  0.302325  1
  Sm  Sm15  1  0.327179  0.597045  0.697675  1
  C  C16  1  0.038052  0.277714  0.021523  1
  C  C17  1  0.538052  0.222286  0.978477  1
  C  C18  1  0.961948  0.722286  0.978477  1
  C  C19  1  0.461948  0.777714  0.021523  1
  C  C20  1  0.159829  0.761567  0.950166  1
  C  C21  1  0.659829  0.738433  0.049834  1
  C  C22  1  0.840171  0.238433  0.049834  1
  C  C23  1  0.340171  0.261567  0.950166  1
  C  C24  1  0.086040  0.218556  0.898934  1
  C  C25  1  0.586040  0.281444  0.101066  1
  C  C26  1  0.913960  0.781444  0.101066  1
  C  C27  1  0.413960  0.718556  0.898934  1
  C  C28  1  0.284770  0.212585  0.834164  1
  C  C29  1  0.784770  0.287415  0.165836  1
  C  C30  1  0.715230  0.787415  0.165836  1
  C  C31  1  0.215230  0.712585  0.834164  1
  Cl  Cl32  1  0.202530  0.987316  0.343205  1
  Cl  Cl33  1  0.702530  0.512684  0.656795  1
  Cl  Cl34  1  0.797470  0.012684  0.656795  1
  Cl  Cl35  1  0.297470  0.487316  0.343205  1
  Cl  Cl36  1  0.095948  0.483763  0.413698  1
  Cl  Cl37  1  0.595948  0.016237  0.586302  1
  Cl  Cl38  1  0.904052  0.516237  0.586302  1
  Cl  Cl39  1  0.404052  0.983763  0.413698  1
  Cl  Cl40  1  0.000000  0.000000  0.500000  1
  Cl  Cl41  1  0.500000  0.500000  0.500000  1
