# generated using pymatgen
data_PrAl10FeRh
_symmetry_space_group_name_H-M   'P 1'
_cell_length_a   6.84180365
_cell_length_b   6.84180412
_cell_length_c   9.14485985
_cell_angle_alpha   90.19078010
_cell_angle_beta   90.19078036
_cell_angle_gamma   97.25677287
_symmetry_Int_Tables_number   1
_chemical_formula_structural   PrAl10FeRh
_chemical_formula_sum   'Pr2 Al20 Fe2 Rh2'
_cell_volume   424.63920674
_cell_formula_units_Z   2
loop_
 _symmetry_equiv_pos_site_id
 _symmetry_equiv_pos_as_xyz
  1  'x, y, z'
loop_
 _atom_site_type_symbol
 _atom_site_label
 _atom_site_symmetry_multiplicity
 _atom_site_fract_x
 _atom_site_fract_y
 _atom_site_fract_z
 _atom_site_occupancy
  Pr  Pr0  1  0.875238  0.124762  0.750000  1
  Pr  Pr1  1  0.124762  0.875238  0.250000  1
  Al  Al2  1  0.619667  0.372929  0.549422  1
  Al  Al3  1  0.380333  0.627071  0.450578  1
  Al  Al4  1  0.372929  0.619667  0.049422  1
  Al  Al5  1  0.627071  0.380333  0.950578  1
  Al  Al6  1  0.231325  0.223819  0.497117  1
  Al  Al7  1  0.768675  0.776181  0.502883  1
  Al  Al8  1  0.776181  0.768675  0.002883  1
  Al  Al9  1  0.223819  0.231325  0.997117  1
  Al  Al10  1  0.845221  0.164176  0.101362  1
  Al  Al11  1  0.154779  0.835824  0.898638  1
  Al  Al12  1  0.164176  0.845221  0.601362  1
  Al  Al13  1  0.835824  0.154779  0.398638  1
  Al  Al14  1  0.861685  0.588683  0.753220  1
  Al  Al15  1  0.138315  0.411317  0.246780  1
  Al  Al16  1  0.411317  0.138315  0.746780  1
  Al  Al17  1  0.588683  0.861685  0.253220  1
  Al  Al18  1  0.224581  0.481585  0.755045  1
  Al  Al19  1  0.775419  0.518415  0.244955  1
  Al  Al20  1  0.518415  0.775419  0.744955  1
  Al  Al21  1  0.481585  0.224581  0.255045  1
  Fe  Fe22  1  0.000000  0.500000  0.000000  1
  Fe  Fe23  1  0.500000  0.000000  0.500000  1
  Rh  Rh24  1  0.000000  0.500000  0.500000  1
  Rh  Rh25  1  0.500000  0.000000  0.000000  1
