# generated using pymatgen
data_Y8Lu8MgAg3Rh4
_symmetry_space_group_name_H-M   'P 1'
_cell_length_a   9.48826771
_cell_length_b   9.49704836
_cell_length_c   9.52052900
_cell_angle_alpha   59.91674538
_cell_angle_beta   59.88704102
_cell_angle_gamma   60.21008122
_symmetry_Int_Tables_number   1
_chemical_formula_structural   Y8Lu8MgAg3Rh4
_chemical_formula_sum   'Y8 Lu8 Mg1 Ag3 Rh4'
_cell_volume   606.67866580
_cell_formula_units_Z   1
loop_
 _symmetry_equiv_pos_site_id
 _symmetry_equiv_pos_as_xyz
  1  'x, y, z'
loop_
 _atom_site_type_symbol
 _atom_site_label
 _atom_site_symmetry_multiplicity
 _atom_site_fract_x
 _atom_site_fract_y
 _atom_site_fract_z
 _atom_site_occupancy
  Y  Y0  1  0.434647  0.435366  0.064992  1
  Y  Y1  1  0.060989  0.062559  0.438220  1
  Y  Y2  1  0.186216  0.812695  0.812761  1
  Y  Y3  1  0.813392  0.186995  0.186300  1
  Y  Y4  1  0.813359  0.186993  0.813324  1
  Y  Y5  1  0.186211  0.812696  0.188294  1
  Y  Y6  1  0.812012  0.812816  0.187584  1
  Y  Y7  1  0.187334  0.188891  0.811877  1
  Lu  Lu8  1  0.600227  0.598175  0.598139  1
  Lu  Lu9  1  0.600216  0.598205  0.203420  1
  Lu  Lu10  1  0.600003  0.205007  0.597490  1
  Lu  Lu11  1  0.187759  0.604053  0.604092  1
  Lu  Lu12  1  0.060469  0.438096  0.439083  1
  Lu  Lu13  1  0.435326  0.063553  0.064164  1
  Lu  Lu14  1  0.435354  0.063561  0.436937  1
  Lu  Lu15  1  0.060460  0.438110  0.062330  1
  Mg  Mg16  1  0.538517  0.820766  0.820326  1
  Ag  Ag17  1  0.832352  0.833297  0.833242  1
  Ag  Ag18  1  0.832303  0.833340  0.501159  1
  Ag  Ag19  1  0.832997  0.500856  0.833129  1
  Rh  Rh20  1  0.387738  0.394000  0.399506  1
  Rh  Rh21  1  0.387743  0.393948  0.818837  1
  Rh  Rh22  1  0.394455  0.818167  0.393735  1
  Rh  Rh23  1  0.819920  0.397857  0.391059  1
