# generated using pymatgen
data_Hf6Ti3Nb(Ga2Ge)2
_symmetry_space_group_name_H-M   'P 1'
_cell_length_a   7.90301803
_cell_length_b   7.88387503
_cell_length_c   5.43081602
_cell_angle_alpha   89.99516338
_cell_angle_beta   90.00965706
_cell_angle_gamma   120.08035412
_symmetry_Int_Tables_number   1
_chemical_formula_structural   Hf6Ti3Nb(Ga2Ge)2
_chemical_formula_sum   'Hf6 Ti3 Nb1 Ga4 Ge2'
_cell_volume   292.80345813
_cell_formula_units_Z   1
loop_
 _symmetry_equiv_pos_site_id
 _symmetry_equiv_pos_as_xyz
  1  'x, y, z'
loop_
 _atom_site_type_symbol
 _atom_site_label
 _atom_site_symmetry_multiplicity
 _atom_site_fract_x
 _atom_site_fract_y
 _atom_site_fract_z
 _atom_site_occupancy
  Hf  Hf0  1  0.247529  0.998824  0.248605  1
  Hf  Hf1  1  0.751295  0.998824  0.751395  1
  Hf  Hf2  1  0.003155  0.245091  0.248298  1
  Hf  Hf3  1  0.999258  0.756190  0.751185  1
  Hf  Hf4  1  0.756932  0.756190  0.248815  1
  Hf  Hf5  1  0.241936  0.245091  0.751702  1
  Ti  Ti6  1  0.666008  0.332015  0.000000  1
  Ti  Ti7  1  0.665905  0.331810  0.500000  1
  Ti  Ti8  1  0.334037  0.668075  0.500000  1
  Nb  Nb9  1  0.334077  0.668154  0.000000  1
  Ga  Ga10  1  0.997862  0.599774  0.251960  1
  Ga  Ga11  1  0.997793  0.398062  0.747921  1
  Ga  Ga12  1  0.400269  0.398062  0.252079  1
  Ga  Ga13  1  0.601912  0.599774  0.748040  1
  Ge  Ge14  1  0.607028  0.002031  0.251671  1
  Ge  Ge15  1  0.395003  0.002031  0.748329  1
