# generated using pymatgen
data_YHo4In2(HgPd)2
_symmetry_space_group_name_H-M   'P 1'
_cell_length_a   3.62363500
_cell_length_b   8.02547200
_cell_length_c   18.31402100
_cell_angle_alpha   90.00000000
_cell_angle_beta   90.00000000
_cell_angle_gamma   90.00000000
_symmetry_Int_Tables_number   1
_chemical_formula_structural   YHo4In2(HgPd)2
_chemical_formula_sum   'Y2 Ho8 In4 Hg4 Pd4'
_cell_volume   532.59702657
_cell_formula_units_Z   2
loop_
 _symmetry_equiv_pos_site_id
 _symmetry_equiv_pos_as_xyz
  1  'x, y, z'
loop_
 _atom_site_type_symbol
 _atom_site_label
 _atom_site_symmetry_multiplicity
 _atom_site_fract_x
 _atom_site_fract_y
 _atom_site_fract_z
 _atom_site_occupancy
  Y  Y0  1  0.000000  0.500000  0.500000  1
  Y  Y1  1  0.000000  0.000000  0.000000  1
  Ho  Ho2  1  0.000000  0.744864  0.284732  1
  Ho  Ho3  1  0.000000  0.255136  0.715268  1
  Ho  Ho4  1  0.000000  0.755136  0.784732  1
  Ho  Ho5  1  0.000000  0.244864  0.215268  1
  Ho  Ho6  1  0.000000  0.608513  0.084146  1
  Ho  Ho7  1  0.000000  0.391487  0.915854  1
  Ho  Ho8  1  0.000000  0.891487  0.584146  1
  Ho  Ho9  1  0.000000  0.108513  0.415854  1
  In  In10  1  0.500000  0.580680  0.649079  1
  In  In11  1  0.500000  0.419320  0.350921  1
  In  In12  1  0.500000  0.919320  0.149079  1
  In  In13  1  0.500000  0.080680  0.850921  1
  Hg  Hg14  1  0.500000  0.710551  0.933197  1
  Hg  Hg15  1  0.500000  0.289449  0.066803  1
  Hg  Hg16  1  0.500000  0.789449  0.433197  1
  Hg  Hg17  1  0.500000  0.210551  0.566803  1
  Pd  Pd18  1  0.500000  0.532793  0.198456  1
  Pd  Pd19  1  0.500000  0.467207  0.801544  1
  Pd  Pd20  1  0.500000  0.967207  0.698456  1
  Pd  Pd21  1  0.500000  0.032793  0.301544  1
