# generated using pymatgen
data_Tb7Dy5Rh4
_symmetry_space_group_name_H-M   'P 1'
_cell_length_a   6.30398875
_cell_length_b   7.17794858
_cell_length_c   9.53358491
_cell_angle_alpha   90.00033538
_cell_angle_beta   90.07229195
_cell_angle_gamma   90.04585140
_symmetry_Int_Tables_number   1
_chemical_formula_structural   Tb7Dy5Rh4
_chemical_formula_sum   'Tb7 Dy5 Rh4'
_cell_volume   431.39144295
_cell_formula_units_Z   1
loop_
 _symmetry_equiv_pos_site_id
 _symmetry_equiv_pos_as_xyz
  1  'x, y, z'
loop_
 _atom_site_type_symbol
 _atom_site_label
 _atom_site_symmetry_multiplicity
 _atom_site_fract_x
 _atom_site_fract_y
 _atom_site_fract_z
 _atom_site_occupancy
  Tb  Tb0  1  0.329794  0.675706  0.062638  1
  Tb  Tb1  1  0.169929  0.175515  0.436992  1
  Tb  Tb2  1  0.670072  0.324436  0.562969  1
  Tb  Tb3  1  0.866263  0.532572  0.249852  1
  Tb  Tb4  1  0.633701  0.032565  0.249614  1
  Tb  Tb5  1  0.133306  0.467689  0.750439  1
  Tb  Tb6  1  0.366559  0.966934  0.750057  1
  Dy  Dy7  1  0.829963  0.824574  0.936682  1
  Dy  Dy8  1  0.670042  0.324243  0.937199  1
  Dy  Dy9  1  0.830163  0.824261  0.563374  1
  Dy  Dy10  1  0.330065  0.675953  0.436902  1
  Dy  Dy11  1  0.169610  0.175643  0.062715  1
  Rh  Rh12  1  0.061231  0.882722  0.249968  1
  Rh  Rh13  1  0.438441  0.382689  0.249573  1
  Rh  Rh14  1  0.938487  0.116929  0.751199  1
  Rh  Rh15  1  0.562375  0.617569  0.749830  1
