# generated using pymatgen
data_PmNd(ZnAu)2
_symmetry_space_group_name_H-M   'P 1'
_cell_length_a   5.85072323
_cell_length_b   5.85072443
_cell_length_c   5.85072400
_cell_angle_alpha   134.24601231
_cell_angle_beta   96.39147732
_cell_angle_gamma   101.00754319
_symmetry_Int_Tables_number   1
_chemical_formula_structural   PmNd(ZnAu)2
_chemical_formula_sum   'Pm1 Nd1 Zn2 Au2'
_cell_volume   132.03740614
_cell_formula_units_Z   1
loop_
 _symmetry_equiv_pos_site_id
 _symmetry_equiv_pos_as_xyz
  1  'x, y, z'
loop_
 _atom_site_type_symbol
 _atom_site_label
 _atom_site_symmetry_multiplicity
 _atom_site_fract_x
 _atom_site_fract_y
 _atom_site_fract_z
 _atom_site_occupancy
  Pm  Pm0  1  0.500060  0.500000  0.000060  1
  Nd  Nd1  1  0.999252  0.000000  0.999252  1
  Zn  Zn2  1  0.915198  0.247993  0.667205  1
  Zn  Zn3  1  0.419212  0.752008  0.667204  1
  Au  Au4  1  0.581028  0.247889  0.333140  1
  Au  Au5  1  0.085252  0.752112  0.333141  1
