# generated using pymatgen
data_NaCaNb6(Co4P3)4
_symmetry_space_group_name_H-M   'P 1'
_cell_length_a   12.01099200
_cell_length_b   12.01099270
_cell_length_c   3.61526900
_cell_angle_alpha   90.00000000
_cell_angle_beta   90.00000000
_cell_angle_gamma   119.99999808
_symmetry_Int_Tables_number   1
_chemical_formula_structural   NaCaNb6(Co4P3)4
_chemical_formula_sum   'Na1 Ca1 Nb6 Co16 P12'
_cell_volume   451.67810410
_cell_formula_units_Z   1
loop_
 _symmetry_equiv_pos_site_id
 _symmetry_equiv_pos_as_xyz
  1  'x, y, z'
loop_
 _atom_site_type_symbol
 _atom_site_label
 _atom_site_symmetry_multiplicity
 _atom_site_fract_x
 _atom_site_fract_y
 _atom_site_fract_z
 _atom_site_occupancy
  Na  Na0  1  0.333333  0.666667  0.000000  1
  Ca  Ca1  1  0.666667  0.333333  0.000000  1
  Nb  Nb2  1  0.820236  0.999835  0.500000  1
  Nb  Nb3  1  0.000165  0.820401  0.500000  1
  Nb  Nb4  1  0.179599  0.179764  0.500000  1
  Nb  Nb5  1  0.443661  0.998717  0.000000  1
  Nb  Nb6  1  0.001283  0.444945  0.000000  1
  Nb  Nb7  1  0.555055  0.556339  0.000000  1
  Co  Co8  1  0.273092  0.999226  0.500000  1
  Co  Co9  1  0.000774  0.273867  0.500000  1
  Co  Co10  1  0.726133  0.726908  0.500000  1
  Co  Co11  1  0.636431  0.809732  0.000000  1
  Co  Co12  1  0.190268  0.826700  0.000000  1
  Co  Co13  1  0.173300  0.363569  0.000000  1
  Co  Co14  1  0.362959  0.173400  0.000000  1
  Co  Co15  1  0.810442  0.637041  0.000000  1
  Co  Co16  1  0.826600  0.189558  0.000000  1
  Co  Co17  1  0.525771  0.876268  0.500000  1
  Co  Co18  1  0.123732  0.649503  0.500000  1
  Co  Co19  1  0.350497  0.474229  0.500000  1
  Co  Co20  1  0.475188  0.350579  0.500000  1
  Co  Co21  1  0.875392  0.524812  0.500000  1
  Co  Co22  1  0.649421  0.124608  0.500000  1
  Co  Co23  1  0.000000  0.000000  0.000000  1
  P  P24  1  0.171730  0.999657  0.000000  1
  P  P25  1  0.000343  0.172074  0.000000  1
  P  P26  1  0.827926  0.828270  0.000000  1
  P  P27  1  0.517895  0.688671  0.500000  1
  P  P28  1  0.311329  0.829223  0.500000  1
  P  P29  1  0.170777  0.482105  0.500000  1
  P  P30  1  0.478255  0.167190  0.500000  1
  P  P31  1  0.688934  0.521745  0.500000  1
  P  P32  1  0.832810  0.311066  0.500000  1
  P  P33  1  0.647919  0.999579  0.000000  1
  P  P34  1  0.000421  0.648341  0.000000  1
  P  P35  1  0.351659  0.352081  0.000000  1
