# generated using pymatgen
data_Ca8V3GeO16
_symmetry_space_group_name_H-M   'P 1'
_cell_length_a   5.38154864
_cell_length_b   6.82002300
_cell_length_c   11.48253417
_cell_angle_alpha   90.00000000
_cell_angle_beta   89.77344785
_cell_angle_gamma   90.00000000
_symmetry_Int_Tables_number   1
_chemical_formula_structural   Ca8V3GeO16
_chemical_formula_sum   'Ca8 V3 Ge1 O16'
_cell_volume   421.43195326
_cell_formula_units_Z   1
loop_
 _symmetry_equiv_pos_site_id
 _symmetry_equiv_pos_as_xyz
  1  'x, y, z'
loop_
 _atom_site_type_symbol
 _atom_site_label
 _atom_site_symmetry_multiplicity
 _atom_site_fract_x
 _atom_site_fract_y
 _atom_site_fract_z
 _atom_site_occupancy
  Ca  Ca0  1  0.005871  0.750000  0.719054  1
  Ca  Ca1  1  0.995918  0.250000  0.279173  1
  Ca  Ca2  1  0.506843  0.250000  0.779046  1
  Ca  Ca3  1  0.493844  0.750000  0.219501  1
  Ca  Ca4  1  0.504885  0.500079  0.500894  1
  Ca  Ca5  1  0.994720  0.999243  0.001335  1
  Ca  Ca6  1  0.994720  0.500757  0.001335  1
  Ca  Ca7  1  0.504885  0.999921  0.500894  1
  V  V8  1  0.432828  0.250000  0.094752  1
  V  V9  1  0.937014  0.750000  0.401325  1
  V  V10  1  0.561842  0.750000  0.901322  1
  Ge  Ge11  1  0.072238  0.250000  0.596256  1
  O  O12  1  0.783810  0.750000  0.547413  1
  O  O13  1  0.774597  0.542585  0.335349  1
  O  O14  1  0.723869  0.542015  0.835182  1
  O  O15  1  0.742854  0.250000  0.593322  1
  O  O16  1  0.713200  0.750000  0.047179  1
  O  O17  1  0.277951  0.461945  0.161437  1
  O  O18  1  0.220121  0.456909  0.663964  1
  O  O19  1  0.272127  0.750000  0.411465  1
  O  O20  1  0.774597  0.957415  0.335349  1
  O  O21  1  0.226990  0.750000  0.909739  1
  O  O22  1  0.214978  0.250000  0.453238  1
  O  O23  1  0.723869  0.957985  0.835182  1
  O  O24  1  0.220121  0.043091  0.663964  1
  O  O25  1  0.276334  0.250000  0.952883  1
  O  O26  1  0.277951  0.038055  0.161437  1
  O  O27  1  0.771023  0.250000  0.098007  1
