# generated using pymatgen
data_La5Te9
_symmetry_space_group_name_H-M   'P 1'
_cell_length_a   13.69876718
_cell_length_b   13.69876758
_cell_length_c   11.27189158
_cell_angle_alpha   80.40625726
_cell_angle_beta   80.40626149
_cell_angle_gamma   26.83403489
_symmetry_Int_Tables_number   1
_chemical_formula_structural   La5Te9
_chemical_formula_sum   'La10 Te18'
_cell_volume   940.71615691
_cell_formula_units_Z   2
loop_
 _symmetry_equiv_pos_site_id
 _symmetry_equiv_pos_as_xyz
  1  'x, y, z'
loop_
 _atom_site_type_symbol
 _atom_site_label
 _atom_site_symmetry_multiplicity
 _atom_site_fract_x
 _atom_site_fract_y
 _atom_site_fract_z
 _atom_site_occupancy
  La  La0  1  0.946227  0.044637  0.240237  1
  La  La1  1  0.146562  0.246799  0.841025  1
  La  La2  1  0.344829  0.449248  0.436337  1
  La  La3  1  0.539885  0.651646  0.035547  1
  La  La4  1  0.752230  0.836482  0.635988  1
  La  La5  1  0.348354  0.460115  0.964453  1
  La  La6  1  0.550752  0.655171  0.563663  1
  La  La7  1  0.753201  0.853438  0.158975  1
  La  La8  1  0.955363  0.053773  0.759763  1
  La  La9  1  0.163518  0.247770  0.364012  1
  Te  Te10  1  0.473100  0.571403  0.819972  1
  Te  Te11  1  0.071389  0.176763  0.619773  1
  Te  Te12  1  0.868728  0.979587  0.018426  1
  Te  Te13  1  0.680712  0.762925  0.420838  1
  Te  Te14  1  0.273326  0.374529  0.219841  1
  Te  Te15  1  0.020413  0.131272  0.981574  1
  Te  Te16  1  0.625471  0.726674  0.780159  1
  Te  Te17  1  0.428597  0.526900  0.180028  1
  Te  Te18  1  0.237075  0.319288  0.579162  1
  Te  Te19  1  0.823237  0.928611  0.380227  1
  Te  Te20  1  0.699444  0.300556  0.500000  1
  Te  Te21  1  0.299308  0.901148  0.300207  1
  Te  Te22  1  0.098852  0.700692  0.699793  1
  Te  Te23  1  0.894679  0.494214  0.111713  1
  Te  Te24  1  0.505786  0.105321  0.888287  1
  Te  Te25  1  0.002933  0.603165  0.893409  1
  Te  Te26  1  0.199191  0.800809  0.500000  1
  Te  Te27  1  0.396835  0.997067  0.106591  1
