# generated using pymatgen
data_PrCu4AgO8
_symmetry_space_group_name_H-M   'P 1'
_cell_length_a   6.32232761
_cell_length_b   6.32232744
_cell_length_c   6.32232701
_cell_angle_alpha   124.56671686
_cell_angle_beta   124.56671558
_cell_angle_gamma   82.25693744
_symmetry_Int_Tables_number   1
_chemical_formula_structural   PrCu4AgO8
_chemical_formula_sum   'Pr1 Cu4 Ag1 O8'
_cell_volume   164.70756762
_cell_formula_units_Z   1
loop_
 _symmetry_equiv_pos_site_id
 _symmetry_equiv_pos_as_xyz
  1  'x, y, z'
loop_
 _atom_site_type_symbol
 _atom_site_label
 _atom_site_symmetry_multiplicity
 _atom_site_fract_x
 _atom_site_fract_y
 _atom_site_fract_z
 _atom_site_occupancy
  Pr  Pr0  1  0.750000  0.250000  0.500000  1
  Cu  Cu1  1  0.876018  0.629073  0.255863  1
  Cu  Cu2  1  0.379846  0.123982  0.753055  1
  Cu  Cu3  1  0.370927  0.626791  0.246945  1
  Cu  Cu4  1  0.373209  0.620154  0.744137  1
  Ag  Ag5  1  0.000000  0.000000  0.000000  1
  O  O6  1  0.339206  0.968454  0.910525  1
  O  O7  1  0.687212  0.823667  0.409206  1
  O  O8  1  0.721994  0.312788  0.136455  1
  O  O9  1  0.571319  0.660794  0.629247  1
  O  O10  1  0.176333  0.585539  0.863545  1
  O  O11  1  0.031546  0.942071  0.370753  1
  O  O12  1  0.057929  0.428681  0.089475  1
  O  O13  1  0.414461  0.278006  0.590794  1
