# generated using pymatgen
data_Er(Ta3N4)3
_symmetry_space_group_name_H-M   'P 1'
_cell_length_a   5.27419000
_cell_length_b   5.27418955
_cell_length_c   10.51082200
_cell_angle_alpha   90.00000000
_cell_angle_beta   90.00000000
_cell_angle_gamma   120.00000285
_symmetry_Int_Tables_number   1
_chemical_formula_structural   Er(Ta3N4)3
_chemical_formula_sum   'Er1 Ta9 N12'
_cell_volume   253.20880592
_cell_formula_units_Z   1
loop_
 _symmetry_equiv_pos_site_id
 _symmetry_equiv_pos_as_xyz
  1  'x, y, z'
loop_
 _atom_site_type_symbol
 _atom_site_label
 _atom_site_symmetry_multiplicity
 _atom_site_fract_x
 _atom_site_fract_y
 _atom_site_fract_z
 _atom_site_occupancy
  Er  Er0  1  0.666667  0.333333  0.000000  1
  Ta  Ta1  1  0.677412  0.675445  0.745121  1
  Ta  Ta2  1  0.324555  0.001967  0.745121  1
  Ta  Ta3  1  0.998033  0.322588  0.745121  1
  Ta  Ta4  1  0.324555  0.322588  0.254879  1
  Ta  Ta5  1  0.677412  0.001967  0.254879  1
  Ta  Ta6  1  0.998033  0.675445  0.254879  1
  Ta  Ta7  1  0.333333  0.666667  0.000000  1
  Ta  Ta8  1  0.333333  0.666667  0.500000  1
  Ta  Ta9  1  0.666667  0.333333  0.500000  1
  N  N10  1  0.659292  0.659559  0.382110  1
  N  N11  1  0.340441  0.999733  0.382110  1
  N  N12  1  0.000267  0.340708  0.382110  1
  N  N13  1  0.340441  0.340708  0.617890  1
  N  N14  1  0.659292  0.999733  0.617890  1
  N  N15  1  0.000267  0.659559  0.617890  1
  N  N16  1  0.334842  0.351515  0.869675  1
  N  N17  1  0.648485  0.983327  0.869675  1
  N  N18  1  0.016673  0.665158  0.869675  1
  N  N19  1  0.648485  0.665158  0.130325  1
  N  N20  1  0.334842  0.983327  0.130325  1
  N  N21  1  0.016673  0.351515  0.130325  1
