# generated using pymatgen
data_Ho12Ni2SnRu3
_symmetry_space_group_name_H-M   'P 1'
_cell_length_a   8.31817178
_cell_length_b   8.31794368
_cell_length_c   8.31817300
_cell_angle_alpha   112.71826655
_cell_angle_beta   109.91365836
_cell_angle_gamma   105.85562721
_symmetry_Int_Tables_number   1
_chemical_formula_structural   Ho12Ni2SnRu3
_chemical_formula_sum   'Ho12 Ni2 Sn1 Ru3'
_cell_volume   441.44503677
_cell_formula_units_Z   1
loop_
 _symmetry_equiv_pos_site_id
 _symmetry_equiv_pos_as_xyz
  1  'x, y, z'
loop_
 _atom_site_type_symbol
 _atom_site_label
 _atom_site_symmetry_multiplicity
 _atom_site_fract_x
 _atom_site_fract_y
 _atom_site_fract_z
 _atom_site_occupancy
  Ho  Ho0  1  0.821210  0.725167  0.546369  1
  Ho  Ho1  1  0.178790  0.274833  0.453631  1
  Ho  Ho2  1  0.178799  0.725167  0.903956  1
  Ho  Ho3  1  0.821201  0.274833  0.096044  1
  Ho  Ho4  1  0.674031  0.361039  0.687009  1
  Ho  Ho5  1  0.325969  0.638961  0.312991  1
  Ho  Ho6  1  0.674050  0.987071  0.313020  1
  Ho  Ho7  1  0.325950  0.012929  0.686980  1
  Ho  Ho8  1  0.584831  0.771799  0.813041  1
  Ho  Ho9  1  0.415169  0.228201  0.186959  1
  Ho  Ho10  1  0.958758  0.771799  0.186967  1
  Ho  Ho11  1  0.041242  0.228201  0.813033  1
  Ni  Ni12  1  0.115320  0.615305  0.499987  1
  Ni  Ni13  1  0.884680  0.384695  0.500013  1
  Sn  Sn14  1  0.500000  0.500000  0.000000  1
  Ru  Ru15  1  0.662424  0.000000  0.662424  1
  Ru  Ru16  1  0.337576  0.000000  0.337576  1
  Ru  Ru17  1  0.000000  0.000000  0.000000  1
