# generated using pymatgen
data_TbLu3(WO6)2
_symmetry_space_group_name_H-M   'P 1'
_cell_length_a   5.33344000
_cell_length_b   7.61679907
_cell_length_c   11.34864027
_cell_angle_alpha   75.25193413
_cell_angle_beta   90.00000000
_cell_angle_gamma   90.00000000
_symmetry_Int_Tables_number   1
_chemical_formula_structural   TbLu3(WO6)2
_chemical_formula_sum   'Tb2 Lu6 W4 O24'
_cell_volume   445.83556292
_cell_formula_units_Z   2
loop_
 _symmetry_equiv_pos_site_id
 _symmetry_equiv_pos_as_xyz
  1  'x, y, z'
loop_
 _atom_site_type_symbol
 _atom_site_label
 _atom_site_symmetry_multiplicity
 _atom_site_fract_x
 _atom_site_fract_y
 _atom_site_fract_z
 _atom_site_occupancy
  Tb  Tb0  1  0.315092  0.500000  0.750000  1
  Tb  Tb1  1  0.684908  0.500000  0.250000  1
  Lu  Lu2  1  0.185089  0.796470  0.078335  1
  Lu  Lu3  1  0.259039  0.000000  0.750000  1
  Lu  Lu4  1  0.740961  0.000000  0.250000  1
  Lu  Lu5  1  0.185089  0.203530  0.421665  1
  Lu  Lu6  1  0.814911  0.203530  0.921665  1
  Lu  Lu7  1  0.814911  0.796470  0.578335  1
  W  W8  1  0.744965  0.725690  0.885302  1
  W  W9  1  0.255035  0.725690  0.385302  1
  W  W10  1  0.744965  0.274310  0.614698  1
  W  W11  1  0.255035  0.274310  0.114698  1
  O  O12  1  0.855197  0.362478  0.450738  1
  O  O13  1  0.460896  0.848114  0.930835  1
  O  O14  1  0.855197  0.637522  0.049262  1
  O  O15  1  0.018900  0.284742  0.730712  1
  O  O16  1  0.981100  0.284742  0.230712  1
  O  O17  1  0.144803  0.362478  0.950738  1
  O  O18  1  0.643721  0.487886  0.887070  1
  O  O19  1  0.539104  0.151886  0.069165  1
  O  O20  1  0.144803  0.637522  0.549262  1
  O  O21  1  0.018900  0.715258  0.769288  1
  O  O22  1  0.459130  0.204683  0.274961  1
  O  O23  1  0.040155  0.943547  0.395228  1
  O  O24  1  0.460896  0.151886  0.569165  1
  O  O25  1  0.981100  0.715258  0.269288  1
  O  O26  1  0.959845  0.056453  0.604772  1
  O  O27  1  0.540870  0.204683  0.774961  1
  O  O28  1  0.540870  0.795317  0.725039  1
  O  O29  1  0.040155  0.056453  0.104772  1
  O  O30  1  0.643721  0.512114  0.612930  1
  O  O31  1  0.356279  0.512114  0.112930  1
  O  O32  1  0.459130  0.795317  0.225039  1
  O  O33  1  0.356279  0.487886  0.387070  1
  O  O34  1  0.539104  0.848114  0.430835  1
  O  O35  1  0.959845  0.943547  0.895228  1
