# generated using pymatgen
data_Lu4Zr(In2Rh)2
_symmetry_space_group_name_H-M   'P 1'
_cell_length_a   3.48659700
_cell_length_b   7.88076900
_cell_length_c   17.97620900
_cell_angle_alpha   90.00000000
_cell_angle_beta   90.00000000
_cell_angle_gamma   90.00000000
_symmetry_Int_Tables_number   1
_chemical_formula_structural   Lu4Zr(In2Rh)2
_chemical_formula_sum   'Lu8 Zr2 In8 Rh4'
_cell_volume   493.93347309
_cell_formula_units_Z   2
loop_
 _symmetry_equiv_pos_site_id
 _symmetry_equiv_pos_as_xyz
  1  'x, y, z'
loop_
 _atom_site_type_symbol
 _atom_site_label
 _atom_site_symmetry_multiplicity
 _atom_site_fract_x
 _atom_site_fract_y
 _atom_site_fract_z
 _atom_site_occupancy
  Lu  Lu0  1  0.000000  0.125170  0.915145  1
  Lu  Lu1  1  0.000000  0.755245  0.778434  1
  Lu  Lu2  1  0.000000  0.625170  0.584855  1
  Lu  Lu3  1  0.000000  0.255245  0.721566  1
  Lu  Lu4  1  0.000000  0.374830  0.415145  1
  Lu  Lu5  1  0.000000  0.244755  0.221566  1
  Lu  Lu6  1  0.000000  0.744755  0.278434  1
  Lu  Lu7  1  0.000000  0.874830  0.084855  1
  Zr  Zr8  1  0.000000  0.000000  0.500000  1
  Zr  Zr9  1  0.000000  0.500000  0.000000  1
  In  In10  1  0.500000  0.793289  0.933639  1
  In  In11  1  0.500000  0.562691  0.146881  1
  In  In12  1  0.500000  0.437309  0.853119  1
  In  In13  1  0.500000  0.062691  0.353119  1
  In  In14  1  0.500000  0.293289  0.566361  1
  In  In15  1  0.500000  0.937309  0.646881  1
  In  In16  1  0.500000  0.706711  0.433639  1
  In  In17  1  0.500000  0.206711  0.066361  1
  Rh  Rh18  1  0.500000  0.534355  0.695162  1
  Rh  Rh19  1  0.500000  0.465645  0.304838  1
  Rh  Rh20  1  0.500000  0.034355  0.804838  1
  Rh  Rh21  1  0.500000  0.965645  0.195162  1
