# generated using pymatgen
data_Nb3SBr6Cl
_symmetry_space_group_name_H-M   'P 1'
_cell_length_a   7.17189870
_cell_length_b   7.15373058
_cell_length_c   6.90059800
_cell_angle_alpha   90.00000076
_cell_angle_beta   89.99341191
_cell_angle_gamma   119.91624246
_symmetry_Int_Tables_number   1
_chemical_formula_structural   Nb3SBr6Cl
_chemical_formula_sum   'Nb3 S1 Br6 Cl1'
_cell_volume   306.86687254
_cell_formula_units_Z   1
loop_
 _symmetry_equiv_pos_site_id
 _symmetry_equiv_pos_as_xyz
  1  'x, y, z'
loop_
 _atom_site_type_symbol
 _atom_site_label
 _atom_site_symmetry_multiplicity
 _atom_site_fract_x
 _atom_site_fract_y
 _atom_site_fract_z
 _atom_site_occupancy
  Nb  Nb0  1  0.603042  0.801521  0.221203  1
  Nb  Nb1  1  0.197266  0.397064  0.221535  1
  Nb  Nb2  1  0.197266  0.800201  0.221535  1
  S  S3  1  0.334129  0.667065  0.473426  1
  Br  Br4  1  0.499350  0.001470  0.971709  1
  Br  Br5  1  0.998040  0.999020  0.015821  1
  Br  Br6  1  0.335047  0.167524  0.429647  1
  Br  Br7  1  0.831630  0.168018  0.431771  1
  Br  Br8  1  0.831630  0.663613  0.431771  1
  Br  Br9  1  0.499350  0.497880  0.971709  1
  Cl  Cl10  1  0.006584  0.503291  0.994774  1
