# generated using pymatgen
data_Sc2(Ga3Ir)3
_symmetry_space_group_name_H-M   'P 1'
_cell_length_a   7.50649011
_cell_length_b   7.50648952
_cell_length_c   9.42060200
_cell_angle_alpha   90.00000000
_cell_angle_beta   90.00000000
_cell_angle_gamma   119.97914833
_symmetry_Int_Tables_number   1
_chemical_formula_structural   Sc2(Ga3Ir)3
_chemical_formula_sum   'Sc4 Ga18 Ir6'
_cell_volume   459.80564712
_cell_formula_units_Z   2
loop_
 _symmetry_equiv_pos_site_id
 _symmetry_equiv_pos_as_xyz
  1  'x, y, z'
loop_
 _atom_site_type_symbol
 _atom_site_label
 _atom_site_symmetry_multiplicity
 _atom_site_fract_x
 _atom_site_fract_y
 _atom_site_fract_z
 _atom_site_occupancy
  Sc  Sc0  1  0.997899  0.668438  0.250000  1
  Sc  Sc1  1  0.002101  0.331562  0.750000  1
  Sc  Sc2  1  0.668438  0.997899  0.250000  1
  Sc  Sc3  1  0.331562  0.002101  0.750000  1
  Ga  Ga4  1  0.124428  0.124427  0.250000  1
  Ga  Ga5  1  0.875573  0.875572  0.750000  1
  Ga  Ga6  1  0.996582  0.334222  0.082341  1
  Ga  Ga7  1  0.003418  0.665778  0.917659  1
  Ga  Ga8  1  0.003418  0.665778  0.582341  1
  Ga  Ga9  1  0.334222  0.996582  0.417659  1
  Ga  Ga10  1  0.996582  0.334222  0.417659  1
  Ga  Ga11  1  0.665778  0.003418  0.582341  1
  Ga  Ga12  1  0.665778  0.003418  0.917659  1
  Ga  Ga13  1  0.334222  0.996582  0.082341  1
  Ga  Ga14  1  0.329728  0.329728  0.567868  1
  Ga  Ga15  1  0.670272  0.670272  0.432132  1
  Ga  Ga16  1  0.670272  0.670272  0.067868  1
  Ga  Ga17  1  0.329728  0.329728  0.932132  1
  Ga  Ga18  1  0.339674  0.550060  0.250000  1
  Ga  Ga19  1  0.660326  0.449940  0.750000  1
  Ga  Ga20  1  0.550060  0.339674  0.250000  1
  Ga  Ga21  1  0.449940  0.660326  0.750000  1
  Ir  Ir22  1  0.671791  0.328209  0.000000  1
  Ir  Ir23  1  0.328209  0.671791  0.000000  1
  Ir  Ir24  1  0.328209  0.671791  0.500000  1
  Ir  Ir25  1  0.671791  0.328209  0.500000  1
  Ir  Ir26  1  0.000000  0.000000  0.000000  1
  Ir  Ir27  1  0.000000  0.000000  0.500000  1
