# generated using pymatgen
data_Tb3Dy3Al24(Ru3Pt)2
_symmetry_space_group_name_H-M   'P 1'
_cell_length_a   8.84228283
_cell_length_b   8.80111849
_cell_length_c   9.56111700
_cell_angle_alpha   90.00000323
_cell_angle_beta   90.08046064
_cell_angle_gamma   119.84612380
_symmetry_Int_Tables_number   1
_chemical_formula_structural   Tb3Dy3Al24(Ru3Pt)2
_chemical_formula_sum   'Tb3 Dy3 Al24 Ru6 Pt2'
_cell_volume   645.37520826
_cell_formula_units_Z   1
loop_
 _symmetry_equiv_pos_site_id
 _symmetry_equiv_pos_as_xyz
  1  'x, y, z'
loop_
 _atom_site_type_symbol
 _atom_site_label
 _atom_site_symmetry_multiplicity
 _atom_site_fract_x
 _atom_site_fract_y
 _atom_site_fract_z
 _atom_site_occupancy
  Tb  Tb0  1  0.616056  0.808029  0.750957  1
  Tb  Tb1  1  0.191023  0.805732  0.751646  1
  Tb  Tb2  1  0.191023  0.385292  0.751646  1
  Dy  Dy3  1  0.384502  0.192250  0.248908  1
  Dy  Dy4  1  0.808705  0.194630  0.248283  1
  Dy  Dy5  1  0.808705  0.614074  0.248283  1
  Al  Al6  1  0.437861  0.875115  0.247299  1
  Al  Al7  1  0.122107  0.561054  0.250881  1
  Al  Al8  1  0.437861  0.562746  0.247299  1
  Al  Al9  1  0.562315  0.125230  0.752765  1
  Al  Al10  1  0.877497  0.438748  0.749100  1
  Al  Al11  1  0.562315  0.437084  0.752765  1
  Al  Al12  1  0.157813  0.833175  0.421026  1
  Al  Al13  1  0.157813  0.324639  0.421026  1
  Al  Al14  1  0.677437  0.838719  0.420764  1
  Al  Al15  1  0.842087  0.166865  0.578534  1
  Al  Al16  1  0.842087  0.675221  0.578534  1
  Al  Al17  1  0.322705  0.161352  0.578791  1
  Al  Al18  1  0.836391  0.163243  0.923501  1
  Al  Al19  1  0.836391  0.673148  0.923501  1
  Al  Al20  1  0.326364  0.163181  0.924619  1
  Al  Al21  1  0.163550  0.836870  0.076969  1
  Al  Al22  1  0.163550  0.326682  0.076969  1
  Al  Al23  1  0.673795  0.836898  0.075836  1
  Al  Al24  1  0.327175  0.663589  0.523057  1
  Al  Al25  1  0.672793  0.336395  0.476432  1
  Al  Al26  1  0.666943  0.333471  0.022523  1
  Al  Al27  1  0.333110  0.666556  0.977969  1
  Al  Al28  1  0.002168  0.001084  0.249603  1
  Al  Al29  1  0.997822  0.998912  0.750392  1
  Ru  Ru30  1  0.000017  0.000008  0.499962  1
  Ru  Ru31  1  0.000004  0.000002  0.000033  1
  Ru  Ru32  1  0.999765  0.499883  0.499733  1
  Ru  Ru33  1  0.500132  0.000294  0.000285  1
  Ru  Ru34  1  0.999772  0.499886  0.000257  1
  Ru  Ru35  1  0.500132  0.499837  0.000285  1
  Pt  Pt36  1  0.500106  0.000215  0.499784  1
  Pt  Pt37  1  0.500106  0.499891  0.499784  1
