# generated using pymatgen
data_LuTaSnB2Ru5
_symmetry_space_group_name_H-M   'P 1'
_cell_length_a   9.59358878
_cell_length_b   9.59311301
_cell_length_c   3.08409200
_cell_angle_alpha   90.00000000
_cell_angle_beta   90.00000000
_cell_angle_gamma   91.41054037
_symmetry_Int_Tables_number   1
_chemical_formula_structural   LuTaSnB2Ru5
_chemical_formula_sum   'Lu2 Ta2 Sn2 B4 Ru10'
_cell_volume   283.75032218
_cell_formula_units_Z   2
loop_
 _symmetry_equiv_pos_site_id
 _symmetry_equiv_pos_as_xyz
  1  'x, y, z'
loop_
 _atom_site_type_symbol
 _atom_site_label
 _atom_site_symmetry_multiplicity
 _atom_site_fract_x
 _atom_site_fract_y
 _atom_site_fract_z
 _atom_site_occupancy
  Lu  Lu0  1  0.824162  0.675826  0.000000  1
  Lu  Lu1  1  0.175838  0.324174  0.000000  1
  Ta  Ta2  1  0.325136  0.825129  0.000000  1
  Ta  Ta3  1  0.674864  0.174871  0.000000  1
  Sn  Sn4  1  0.500000  0.500000  0.000000  1
  Sn  Sn5  1  0.000000  0.000000  0.000000  1
  B  B6  1  0.620559  0.879434  0.000000  1
  B  B7  1  0.379441  0.120566  0.000000  1
  B  B8  1  0.121241  0.621234  0.000000  1
  B  B9  1  0.878759  0.378766  0.000000  1
  Ru  Ru10  1  0.556824  0.727029  0.500000  1
  Ru  Ru11  1  0.443176  0.272971  0.500000  1
  Ru  Ru12  1  0.084803  0.783309  0.500000  1
  Ru  Ru13  1  0.915197  0.216691  0.500000  1
  Ru  Ru14  1  0.283298  0.584797  0.500000  1
  Ru  Ru15  1  0.716702  0.415203  0.500000  1
  Ru  Ru16  1  0.227022  0.056814  0.500000  1
  Ru  Ru17  1  0.772978  0.943186  0.500000  1
  Ru  Ru18  1  0.500000  0.000000  0.500000  1
  Ru  Ru19  1  0.000000  0.500000  0.500000  1
