# generated using pymatgen
data_Er8Co3Si12Ir
_symmetry_space_group_name_H-M   'P 1'
_cell_length_a   8.01718900
_cell_length_b   8.01718982
_cell_length_c   7.84999400
_cell_angle_alpha   90.00000000
_cell_angle_beta   90.00000000
_cell_angle_gamma   120.00000074
_symmetry_Int_Tables_number   1
_chemical_formula_structural   Er8Co3Si12Ir
_chemical_formula_sum   'Er8 Co3 Si12 Ir1'
_cell_volume   436.96257449
_cell_formula_units_Z   1
loop_
 _symmetry_equiv_pos_site_id
 _symmetry_equiv_pos_as_xyz
  1  'x, y, z'
loop_
 _atom_site_type_symbol
 _atom_site_label
 _atom_site_symmetry_multiplicity
 _atom_site_fract_x
 _atom_site_fract_y
 _atom_site_fract_z
 _atom_site_occupancy
  Er  Er0  1  0.984394  0.492198  0.248626  1
  Er  Er1  1  0.507802  0.492198  0.248626  1
  Er  Er2  1  0.494378  0.988755  0.749750  1
  Er  Er3  1  0.011245  0.505622  0.749750  1
  Er  Er4  1  0.494378  0.505622  0.749750  1
  Er  Er5  1  0.507802  0.015606  0.248626  1
  Er  Er6  1  0.000000  0.000000  0.752001  1
  Er  Er7  1  0.000000  0.000000  0.247681  1
  Co  Co8  1  0.333333  0.666667  0.036471  1
  Co  Co9  1  0.666667  0.333333  0.966628  1
  Co  Co10  1  0.666667  0.333333  0.532733  1
  Si  Si11  1  0.165511  0.834489  0.500157  1
  Si  Si12  1  0.165511  0.331021  0.500157  1
  Si  Si13  1  0.668979  0.834489  0.500157  1
  Si  Si14  1  0.342474  0.171237  0.998462  1
  Si  Si15  1  0.827654  0.655309  0.501095  1
  Si  Si16  1  0.828763  0.171237  0.998462  1
  Si  Si17  1  0.828763  0.657526  0.998462  1
  Si  Si18  1  0.171867  0.343734  0.000439  1
  Si  Si19  1  0.656266  0.828133  0.000439  1
  Si  Si20  1  0.344691  0.172346  0.501095  1
  Si  Si21  1  0.827654  0.172346  0.501095  1
  Si  Si22  1  0.171867  0.828133  0.000439  1
  Ir  Ir23  1  0.333333  0.666667  0.468895  1
