# generated using pymatgen
data_Ho2SiGeRu2C
_symmetry_space_group_name_H-M   'P 1'
_cell_length_a   5.87275766
_cell_length_b   5.87275742
_cell_length_c   6.87051717
_cell_angle_alpha   126.09696076
_cell_angle_beta   126.09695854
_cell_angle_gamma   40.51447063
_symmetry_Int_Tables_number   1
_chemical_formula_structural   Ho2SiGeRu2C
_chemical_formula_sum   'Ho2 Si1 Ge1 Ru2 C1'
_cell_volume   119.79718082
_cell_formula_units_Z   1
loop_
 _symmetry_equiv_pos_site_id
 _symmetry_equiv_pos_as_xyz
  1  'x, y, z'
loop_
 _atom_site_type_symbol
 _atom_site_label
 _atom_site_symmetry_multiplicity
 _atom_site_fract_x
 _atom_site_fract_y
 _atom_site_fract_z
 _atom_site_occupancy
  Ho  Ho0  1  0.437046  0.437046  0.167152  1
  Ho  Ho1  1  0.563190  0.563190  0.830933  1
  Si  Si2  1  0.156713  0.156713  0.612716  1
  Ge  Ge3  1  0.852319  0.852319  0.391635  1
  Ru  Ru4  1  0.200130  0.200130  0.307251  1
  Ru  Ru5  1  0.792557  0.792557  0.692197  1
  C  C6  1  0.998046  0.998046  0.998119  1
