# generated using pymatgen
data_CaPrB4(RuRh)2
_symmetry_space_group_name_H-M   'P 1'
_cell_length_a   6.88823354
_cell_length_b   6.01363747
_cell_length_c   5.57163318
_cell_angle_alpha   72.85074012
_cell_angle_beta   56.53423016
_cell_angle_gamma   50.62894206
_symmetry_Int_Tables_number   1
_chemical_formula_structural   CaPrB4(RuRh)2
_chemical_formula_sum   'Ca1 Pr1 B4 Ru2 Rh2'
_cell_volume   148.29759526
_cell_formula_units_Z   1
loop_
 _symmetry_equiv_pos_site_id
 _symmetry_equiv_pos_as_xyz
  1  'x, y, z'
loop_
 _atom_site_type_symbol
 _atom_site_label
 _atom_site_symmetry_multiplicity
 _atom_site_fract_x
 _atom_site_fract_y
 _atom_site_fract_z
 _atom_site_occupancy
  Ca  Ca0  1  0.750514  0.750514  0.749486  1
  Pr  Pr1  1  0.500327  0.500327  0.499673  1
  B  B2  1  0.819665  0.182236  0.826690  1
  B  B3  1  0.074916  0.427363  0.062527  1
  B  B4  1  0.182236  0.819665  0.171410  1
  B  B5  1  0.427363  0.074916  0.435193  1
  Ru  Ru6  1  0.133708  0.133708  0.866292  1
  Ru  Ru7  1  0.381846  0.381846  0.118154  1
  Rh  Rh8  1  0.115826  0.115826  0.384174  1
  Rh  Rh9  1  0.863602  0.863602  0.136398  1
