# generated using pymatgen
data_DyHo5(Ni7B2)2
_symmetry_space_group_name_H-M   'P 1'
_cell_length_a   5.06312900
_cell_length_b   5.06312846
_cell_length_c   14.27848400
_cell_angle_alpha   90.00000000
_cell_angle_beta   90.00000000
_cell_angle_gamma   119.99999700
_symmetry_Int_Tables_number   1
_chemical_formula_structural   DyHo5(Ni7B2)2
_chemical_formula_sum   'Dy1 Ho5 Ni14 B4'
_cell_volume   316.99373779
_cell_formula_units_Z   1
loop_
 _symmetry_equiv_pos_site_id
 _symmetry_equiv_pos_as_xyz
  1  'x, y, z'
loop_
 _atom_site_type_symbol
 _atom_site_label
 _atom_site_symmetry_multiplicity
 _atom_site_fract_x
 _atom_site_fract_y
 _atom_site_fract_z
 _atom_site_occupancy
  Dy  Dy0  1  0.333333  0.666667  0.250000  1
  Ho  Ho1  1  0.333333  0.666667  0.468079  1
  Ho  Ho2  1  0.666667  0.333333  0.967947  1
  Ho  Ho3  1  0.666667  0.333333  0.532053  1
  Ho  Ho4  1  0.333333  0.666667  0.031921  1
  Ho  Ho5  1  0.666667  0.333333  0.750000  1
  Ni  Ni6  1  0.834485  0.668970  0.350986  1
  Ni  Ni7  1  0.331030  0.165515  0.350986  1
  Ni  Ni8  1  0.000000  0.000000  0.999874  1
  Ni  Ni9  1  0.000000  0.000000  0.500126  1
  Ni  Ni10  1  0.834485  0.165515  0.149014  1
  Ni  Ni11  1  0.668961  0.834481  0.649133  1
  Ni  Ni12  1  0.165519  0.331039  0.649133  1
  Ni  Ni13  1  0.834485  0.668970  0.149014  1
  Ni  Ni14  1  0.331030  0.165515  0.149014  1
  Ni  Ni15  1  0.668961  0.834481  0.850867  1
  Ni  Ni16  1  0.165519  0.331039  0.850867  1
  Ni  Ni17  1  0.165519  0.834481  0.649133  1
  Ni  Ni18  1  0.165519  0.834481  0.850867  1
  Ni  Ni19  1  0.834485  0.165515  0.350986  1
  B  B20  1  0.666667  0.333333  0.250000  1
  B  B21  1  0.333333  0.666667  0.750000  1
  B  B22  1  0.000000  0.000000  0.750000  1
  B  B23  1  0.000000  0.000000  0.250000  1
