# generated using pymatgen
data_Gd6DyScO12
_symmetry_space_group_name_H-M   'P 1'
_cell_length_a   6.75280643
_cell_length_b   6.75280626
_cell_length_c   6.75280604
_cell_angle_alpha   92.54382100
_cell_angle_beta   92.54381682
_cell_angle_gamma   92.54382506
_symmetry_Int_Tables_number   1
_chemical_formula_structural   Gd6DyScO12
_chemical_formula_sum   'Gd6 Dy1 Sc1 O12'
_cell_volume   306.99237591
_cell_formula_units_Z   1
loop_
 _symmetry_equiv_pos_site_id
 _symmetry_equiv_pos_as_xyz
  1  'x, y, z'
loop_
 _atom_site_type_symbol
 _atom_site_label
 _atom_site_symmetry_multiplicity
 _atom_site_fract_x
 _atom_site_fract_y
 _atom_site_fract_z
 _atom_site_occupancy
  Gd  Gd0  1  0.742719  0.930450  0.440186  1
  Gd  Gd1  1  0.440186  0.742719  0.930450  1
  Gd  Gd2  1  0.069550  0.559814  0.257281  1
  Gd  Gd3  1  0.930450  0.440186  0.742719  1
  Gd  Gd4  1  0.559814  0.257281  0.069550  1
  Gd  Gd5  1  0.257281  0.069550  0.559814  1
  Dy  Dy6  1  0.000000  0.000000  0.000000  1
  Sc  Sc7  1  0.500000  0.500000  0.500000  1
  O  O8  1  0.067692  0.906561  0.315537  1
  O  O9  1  0.684463  0.932308  0.093439  1
  O  O10  1  0.464718  0.802971  0.591903  1
  O  O11  1  0.093439  0.684463  0.932308  1
  O  O12  1  0.802971  0.591903  0.464718  1
  O  O13  1  0.408097  0.535282  0.197029  1
  O  O14  1  0.591903  0.464718  0.802971  1
  O  O15  1  0.197029  0.408097  0.535282  1
  O  O16  1  0.906561  0.315537  0.067692  1
  O  O17  1  0.535282  0.197029  0.408097  1
  O  O18  1  0.315537  0.067692  0.906561  1
  O  O19  1  0.932308  0.093439  0.684463  1
