# generated using pymatgen
data_Ho7Th(Si3Pt)4
_symmetry_space_group_name_H-M   'P 1'
_cell_length_a   8.13736900
_cell_length_b   8.12834187
_cell_length_c   8.18737800
_cell_angle_alpha   90.00008459
_cell_angle_beta   90.00000000
_cell_angle_gamma   120.03674025
_symmetry_Int_Tables_number   1
_chemical_formula_structural   Ho7Th(Si3Pt)4
_chemical_formula_sum   'Ho7 Th1 Si12 Pt4'
_cell_volume   468.81396669
_cell_formula_units_Z   1
loop_
 _symmetry_equiv_pos_site_id
 _symmetry_equiv_pos_as_xyz
  1  'x, y, z'
loop_
 _atom_site_type_symbol
 _atom_site_label
 _atom_site_symmetry_multiplicity
 _atom_site_fract_x
 _atom_site_fract_y
 _atom_site_fract_z
 _atom_site_occupancy
  Ho  Ho0  1  0.498723  0.997447  0.750001  1
  Ho  Ho1  1  0.998106  0.499102  0.249999  1
  Ho  Ho2  1  0.002724  0.501278  0.750001  1
  Ho  Ho3  1  0.500996  0.499102  0.249999  1
  Ho  Ho4  1  0.498553  0.501278  0.750001  1
  Ho  Ho5  1  0.999967  0.999936  0.250001  1
  Ho  Ho6  1  0.999964  0.999926  0.749998  1
  Th  Th7  1  0.501074  0.002147  0.250000  1
  Si  Si8  1  0.165671  0.331340  0.001929  1
  Si  Si9  1  0.834247  0.668493  0.000322  1
  Si  Si10  1  0.670109  0.834080  0.998293  1
  Si  Si11  1  0.834247  0.668494  0.499679  1
  Si  Si12  1  0.329958  0.165974  0.996704  1
  Si  Si13  1  0.165671  0.331341  0.498073  1
  Si  Si14  1  0.163972  0.834080  0.998293  1
  Si  Si15  1  0.329958  0.165974  0.503296  1
  Si  Si16  1  0.836016  0.165974  0.996704  1
  Si  Si17  1  0.670109  0.834080  0.501707  1
  Si  Si18  1  0.836016  0.165974  0.503296  1
  Si  Si19  1  0.163972  0.834080  0.501707  1
  Pt  Pt20  1  0.333121  0.666243  0.998035  1
  Pt  Pt21  1  0.666852  0.333704  0.992379  1
  Pt  Pt22  1  0.666853  0.333707  0.507619  1
  Pt  Pt23  1  0.333122  0.666245  0.501963  1
