# generated using pymatgen
data_TbHo5Al24(PdRu3)2
_symmetry_space_group_name_H-M   'P 1'
_cell_length_a   8.81407198
_cell_length_b   8.79337603
_cell_length_c   9.55369840
_cell_angle_alpha   90.05744326
_cell_angle_beta   90.06877894
_cell_angle_gamma   119.60746400
_symmetry_Int_Tables_number   1
_chemical_formula_structural   TbHo5Al24(PdRu3)2
_chemical_formula_sum   'Tb1 Ho5 Al24 Pd2 Ru6'
_cell_volume   643.78022213
_cell_formula_units_Z   1
loop_
 _symmetry_equiv_pos_site_id
 _symmetry_equiv_pos_as_xyz
  1  'x, y, z'
loop_
 _atom_site_type_symbol
 _atom_site_label
 _atom_site_symmetry_multiplicity
 _atom_site_fract_x
 _atom_site_fract_y
 _atom_site_fract_z
 _atom_site_occupancy
  Tb  Tb0  1  0.190315  0.385360  0.252638  1
  Ho  Ho1  1  0.809204  0.613620  0.747089  1
  Ho  Ho2  1  0.615376  0.808339  0.251533  1
  Ho  Ho3  1  0.384560  0.191646  0.748526  1
  Ho  Ho4  1  0.191547  0.805005  0.252491  1
  Ho  Ho5  1  0.808597  0.195216  0.747526  1
  Al  Al6  1  0.327491  0.664664  0.024656  1
  Al  Al7  1  0.672579  0.335722  0.974777  1
  Al  Al8  1  0.666676  0.333028  0.521790  1
  Al  Al9  1  0.333530  0.667313  0.478667  1
  Al  Al10  1  0.163883  0.326875  0.577134  1
  Al  Al11  1  0.836238  0.673234  0.423447  1
  Al  Al12  1  0.674191  0.837219  0.575859  1
  Al  Al13  1  0.842769  0.675791  0.078936  1
  Al  Al14  1  0.326084  0.162671  0.424513  1
  Al  Al15  1  0.157207  0.324238  0.920510  1
  Al  Al16  1  0.163572  0.837494  0.577322  1
  Al  Al17  1  0.322439  0.160943  0.080215  1
  Al  Al18  1  0.836045  0.162353  0.423024  1
  Al  Al19  1  0.677773  0.838857  0.919422  1
  Al  Al20  1  0.841911  0.167309  0.078705  1
  Al  Al21  1  0.157653  0.832554  0.920900  1
  Al  Al22  1  0.561826  0.124155  0.252255  1
  Al  Al23  1  0.438212  0.875801  0.747821  1
  Al  Al24  1  0.877200  0.439321  0.248942  1
  Al  Al25  1  0.122429  0.560883  0.751007  1
  Al  Al26  1  0.562842  0.437786  0.252640  1
  Al  Al27  1  0.437818  0.562389  0.747470  1
  Al  Al28  1  0.997535  0.998513  0.250494  1
  Al  Al29  1  0.002023  0.000609  0.749517  1
  Pd  Pd30  1  0.500104  0.000172  0.999952  1
  Pd  Pd31  1  0.500219  0.500138  0.999869  1
  Ru  Ru32  1  0.999813  0.500164  0.999717  1
  Ru  Ru33  1  0.500091  0.000174  0.500153  1
  Ru  Ru34  1  0.999856  0.500182  0.500250  1
  Ru  Ru35  1  0.500368  0.500192  0.500245  1
  Ru  Ru36  1  0.000003  0.000035  0.999981  1
  Ru  Ru37  1  0.000017  0.000036  0.500009  1
