# generated using pymatgen
data_Ca2CdGa2Ag
_symmetry_space_group_name_H-M   'P 1'
_cell_length_a   5.90769502
_cell_length_b   5.90769558
_cell_length_c   7.38422897
_cell_angle_alpha   52.36743769
_cell_angle_beta   52.36744894
_cell_angle_gamma   46.73204785
_symmetry_Int_Tables_number   1
_chemical_formula_structural   Ca2CdGa2Ag
_chemical_formula_sum   'Ca2 Cd1 Ga2 Ag1'
_cell_volume   140.12673381
_cell_formula_units_Z   1
loop_
 _symmetry_equiv_pos_site_id
 _symmetry_equiv_pos_as_xyz
  1  'x, y, z'
loop_
 _atom_site_type_symbol
 _atom_site_label
 _atom_site_symmetry_multiplicity
 _atom_site_fract_x
 _atom_site_fract_y
 _atom_site_fract_z
 _atom_site_occupancy
  Ca  Ca0  1  0.543332  0.543332  0.703721  1
  Ca  Ca1  1  0.457533  0.457533  0.292930  1
  Cd  Cd2  1  0.163803  0.163803  0.881996  1
  Ga  Ga3  1  0.842968  0.842968  0.717375  1
  Ga  Ga4  1  0.829075  0.829075  0.106847  1
  Ag  Ag5  1  0.163290  0.163290  0.297134  1
