# generated using pymatgen
data_Dy20Cd5InNi2
_symmetry_space_group_name_H-M   'P 1'
_cell_length_a   9.61933926
_cell_length_b   9.61934654
_cell_length_c   9.76085700
_cell_angle_alpha   90.00000000
_cell_angle_beta   90.00000000
_cell_angle_gamma   120.15974677
_symmetry_Int_Tables_number   1
_chemical_formula_structural   Dy20Cd5InNi2
_chemical_formula_sum   'Dy20 Cd5 In1 Ni2'
_cell_volume   780.92270702
_cell_formula_units_Z   1
loop_
 _symmetry_equiv_pos_site_id
 _symmetry_equiv_pos_as_xyz
  1  'x, y, z'
loop_
 _atom_site_type_symbol
 _atom_site_label
 _atom_site_symmetry_multiplicity
 _atom_site_fract_x
 _atom_site_fract_y
 _atom_site_fract_z
 _atom_site_occupancy
  Dy  Dy0  1  0.001791  0.998208  0.501573  1
  Dy  Dy1  1  0.001791  0.998208  0.998427  1
  Dy  Dy2  1  0.542968  0.457032  0.250000  1
  Dy  Dy3  1  0.540129  0.087410  0.250000  1
  Dy  Dy4  1  0.912590  0.459871  0.250000  1
  Dy  Dy5  1  0.456049  0.543952  0.750000  1
  Dy  Dy6  1  0.456518  0.912580  0.750000  1
  Dy  Dy7  1  0.087420  0.543482  0.750000  1
  Dy  Dy8  1  0.210412  0.789588  0.437092  1
  Dy  Dy9  1  0.209947  0.420173  0.436411  1
  Dy  Dy10  1  0.579827  0.790053  0.436411  1
  Dy  Dy11  1  0.789785  0.210216  0.562643  1
  Dy  Dy12  1  0.789262  0.579008  0.564103  1
  Dy  Dy13  1  0.420992  0.210738  0.564103  1
  Dy  Dy14  1  0.789785  0.210216  0.937357  1
  Dy  Dy15  1  0.789262  0.579008  0.935897  1
  Dy  Dy16  1  0.420992  0.210738  0.935897  1
  Dy  Dy17  1  0.210412  0.789588  0.062908  1
  Dy  Dy18  1  0.209947  0.420173  0.063589  1
  Dy  Dy19  1  0.579827  0.790053  0.063589  1
  Cd  Cd20  1  0.884940  0.768900  0.250000  1
  Cd  Cd21  1  0.231100  0.115059  0.250000  1
  Cd  Cd22  1  0.116442  0.883557  0.750000  1
  Cd  Cd23  1  0.115155  0.231118  0.750000  1
  Cd  Cd24  1  0.768882  0.884844  0.750000  1
  In  In25  1  0.884130  0.115869  0.250000  1
  Ni  Ni26  1  0.332801  0.667200  0.250000  1
  Ni  Ni27  1  0.666844  0.333157  0.750000  1
