# generated using pymatgen
data_Lu3Co8TcP6
_symmetry_space_group_name_H-M   'P 1'
_cell_length_a   3.67796000
_cell_length_b   10.46421000
_cell_length_c   12.11914400
_cell_angle_alpha   90.00000000
_cell_angle_beta   90.00000000
_cell_angle_gamma   90.00000000
_symmetry_Int_Tables_number   1
_chemical_formula_structural   Lu3Co8TcP6
_chemical_formula_sum   'Lu6 Co16 Tc2 P12'
_cell_volume   466.42883841
_cell_formula_units_Z   2
loop_
 _symmetry_equiv_pos_site_id
 _symmetry_equiv_pos_as_xyz
  1  'x, y, z'
loop_
 _atom_site_type_symbol
 _atom_site_label
 _atom_site_symmetry_multiplicity
 _atom_site_fract_x
 _atom_site_fract_y
 _atom_site_fract_z
 _atom_site_occupancy
  Lu  Lu0  1  0.000000  0.500000  0.525725  1
  Lu  Lu1  1  0.500000  0.000000  0.474275  1
  Lu  Lu2  1  0.500000  0.819289  0.206115  1
  Lu  Lu3  1  0.500000  0.180711  0.206115  1
  Lu  Lu4  1  0.000000  0.680711  0.793885  1
  Lu  Lu5  1  0.000000  0.319289  0.793885  1
  Co  Co6  1  0.500000  0.500000  0.702416  1
  Co  Co7  1  0.000000  0.000000  0.297584  1
  Co  Co8  1  0.000000  0.500000  0.987717  1
  Co  Co9  1  0.500000  0.000000  0.012283  1
  Co  Co10  1  0.500000  0.332232  0.989616  1
  Co  Co11  1  0.500000  0.667768  0.989616  1
  Co  Co12  1  0.000000  0.167768  0.010384  1
  Co  Co13  1  0.000000  0.832232  0.010384  1
  Co  Co14  1  0.500000  0.296919  0.431644  1
  Co  Co15  1  0.500000  0.703081  0.431644  1
  Co  Co16  1  0.000000  0.203081  0.568356  1
  Co  Co17  1  0.000000  0.796919  0.568356  1
  Co  Co18  1  0.500000  0.877495  0.706937  1
  Co  Co19  1  0.500000  0.122505  0.706937  1
  Co  Co20  1  0.000000  0.622505  0.293063  1
  Co  Co21  1  0.000000  0.377495  0.293063  1
  Tc  Tc22  1  0.500000  0.500000  0.157956  1
  Tc  Tc23  1  0.000000  0.000000  0.842044  1
  P  P24  1  0.500000  0.500000  0.879990  1
  P  P25  1  0.000000  0.000000  0.120010  1
  P  P26  1  0.500000  0.500000  0.351046  1
  P  P27  1  0.000000  0.000000  0.648954  1
  P  P28  1  0.500000  0.313618  0.616971  1
  P  P29  1  0.500000  0.686382  0.616971  1
  P  P30  1  0.000000  0.186382  0.383029  1
  P  P31  1  0.000000  0.813618  0.383029  1
  P  P32  1  0.500000  0.844981  0.891227  1
  P  P33  1  0.500000  0.155019  0.891227  1
  P  P34  1  0.000000  0.655019  0.108773  1
  P  P35  1  0.000000  0.344981  0.108773  1
