# generated using pymatgen
data_Lu4AgRh
_symmetry_space_group_name_H-M   'P 1'
_cell_length_a   9.33048608
_cell_length_b   9.33048545
_cell_length_c   9.33048500
_cell_angle_alpha   59.99999806
_cell_angle_beta   60.00000029
_cell_angle_gamma   59.99999387
_symmetry_Int_Tables_number   1
_chemical_formula_structural   Lu4AgRh
_chemical_formula_sum   'Lu16 Ag4 Rh4'
_cell_volume   574.37787837
_cell_formula_units_Z   4
loop_
 _symmetry_equiv_pos_site_id
 _symmetry_equiv_pos_as_xyz
  1  'x, y, z'
loop_
 _atom_site_type_symbol
 _atom_site_label
 _atom_site_symmetry_multiplicity
 _atom_site_fract_x
 _atom_site_fract_y
 _atom_site_fract_z
 _atom_site_occupancy
  Lu  Lu0  1  0.354101  0.354101  0.354101  1
  Lu  Lu1  1  0.354101  0.354101  0.937697  1
  Lu  Lu2  1  0.354101  0.937697  0.354101  1
  Lu  Lu3  1  0.937697  0.354101  0.354101  1
  Lu  Lu4  1  0.812253  0.187747  0.187747  1
  Lu  Lu5  1  0.187747  0.812253  0.812253  1
  Lu  Lu6  1  0.187747  0.812253  0.187747  1
  Lu  Lu7  1  0.812253  0.187747  0.812253  1
  Lu  Lu8  1  0.187747  0.187747  0.812253  1
  Lu  Lu9  1  0.812253  0.812253  0.187747  1
  Lu  Lu10  1  0.935118  0.564882  0.564882  1
  Lu  Lu11  1  0.564882  0.935118  0.935118  1
  Lu  Lu12  1  0.564882  0.935118  0.564882  1
  Lu  Lu13  1  0.935118  0.564882  0.935118  1
  Lu  Lu14  1  0.564882  0.564882  0.935118  1
  Lu  Lu15  1  0.935118  0.935118  0.564882  1
  Ag  Ag16  1  0.582980  0.582980  0.582980  1
  Ag  Ag17  1  0.582980  0.582980  0.251060  1
  Ag  Ag18  1  0.582980  0.251060  0.582980  1
  Ag  Ag19  1  0.251060  0.582980  0.582980  1
  Rh  Rh20  1  0.144158  0.144158  0.144158  1
  Rh  Rh21  1  0.144158  0.144158  0.567525  1
  Rh  Rh22  1  0.144158  0.567525  0.144158  1
  Rh  Rh23  1  0.567525  0.144158  0.144158  1
