# generated using pymatgen
data_Ac12Ga(IrI4)3
_symmetry_space_group_name_H-M   'P 1'
_cell_length_a   11.55933677
_cell_length_b   11.55853446
_cell_length_c   11.21533800
_cell_angle_alpha   108.86807785
_cell_angle_beta   108.87094417
_cell_angle_gamma   110.06491798
_symmetry_Int_Tables_number   1
_chemical_formula_structural   Ac12Ga(IrI4)3
_chemical_formula_sum   'Ac12 Ga1 Ir3 I12'
_cell_volume   1161.99450890
_cell_formula_units_Z   1
loop_
 _symmetry_equiv_pos_site_id
 _symmetry_equiv_pos_as_xyz
  1  'x, y, z'
loop_
 _atom_site_type_symbol
 _atom_site_label
 _atom_site_symmetry_multiplicity
 _atom_site_fract_x
 _atom_site_fract_y
 _atom_site_fract_z
 _atom_site_occupancy
  Ac  Ac0  1  0.260948  0.731538  0.224617  1
  Ac  Ac1  1  0.470581  0.731536  0.006926  1
  Ac  Ac2  1  0.227908  0.455841  0.477924  1
  Ac  Ac3  1  0.020750  0.041505  0.270755  1
  Ac  Ac4  1  0.227908  0.272067  0.749984  1
  Ac  Ac5  1  0.020749  0.479243  0.749994  1
  Ac  Ac6  1  0.470581  0.239045  0.463655  1
  Ac  Ac7  1  0.260947  0.029409  0.036331  1
  Ac  Ac8  1  0.768463  0.239051  0.275395  1
  Ac  Ac9  1  0.768462  0.029411  0.493066  1
  Ac  Ac10  1  0.458489  0.479244  0.229244  1
  Ac  Ac11  1  0.044171  0.272085  0.022086  1
  Ga  Ga12  1  0.499986  0.999993  0.249993  1
  Ir  Ir13  1  0.248751  0.497511  0.998758  1
  Ir  Ir14  1  0.002485  0.251242  0.501242  1
  Ir  Ir15  1  0.248751  0.251240  0.249993  1
  I  I16  1  0.251120  0.987474  0.506005  1
  I  I17  1  0.530676  0.515338  0.765338  1
  I  I18  1  0.251120  0.763646  0.745115  1
  I  I19  1  0.987867  0.743934  0.993934  1
  I  I20  1  0.984665  0.515340  0.249990  1
  I  I21  1  0.736358  0.987471  0.981490  1
  I  I22  1  0.756085  0.743912  0.250013  1
  I  I23  1  0.512537  0.763642  0.518516  1
  I  I24  1  0.512537  0.248895  0.994021  1
  I  I25  1  0.756085  0.512173  0.506071  1
  I  I26  1  0.736358  0.248886  0.754867  1
  I  I27  1  0.984665  0.969325  0.734674  1
