# generated using pymatgen
data_Tb3Er5(InPd)2
_symmetry_space_group_name_H-M   'P 1'
_cell_length_a   9.69676180
_cell_length_b   9.69676225
_cell_length_c   9.69676300
_cell_angle_alpha   60.00000086
_cell_angle_beta   59.99999933
_cell_angle_gamma   59.99999517
_symmetry_Int_Tables_number   1
_chemical_formula_structural   Tb3Er5(InPd)2
_chemical_formula_sum   'Tb6 Er10 In4 Pd4'
_cell_volume   644.71124186
_cell_formula_units_Z   2
loop_
 _symmetry_equiv_pos_site_id
 _symmetry_equiv_pos_as_xyz
  1  'x, y, z'
loop_
 _atom_site_type_symbol
 _atom_site_label
 _atom_site_symmetry_multiplicity
 _atom_site_fract_x
 _atom_site_fract_y
 _atom_site_fract_z
 _atom_site_occupancy
  Tb  Tb0  1  0.937368  0.562632  0.562632  1
  Tb  Tb1  1  0.562632  0.937368  0.937368  1
  Tb  Tb2  1  0.562632  0.937368  0.562632  1
  Tb  Tb3  1  0.937368  0.562632  0.937368  1
  Tb  Tb4  1  0.562632  0.562632  0.937368  1
  Tb  Tb5  1  0.937368  0.937368  0.562632  1
  Er  Er6  1  0.351834  0.351834  0.351834  1
  Er  Er7  1  0.351834  0.351834  0.944500  1
  Er  Er8  1  0.351834  0.944500  0.351834  1
  Er  Er9  1  0.944500  0.351834  0.351834  1
  Er  Er10  1  0.811757  0.188243  0.188243  1
  Er  Er11  1  0.188243  0.811757  0.811757  1
  Er  Er12  1  0.188243  0.811757  0.188243  1
  Er  Er13  1  0.811757  0.188243  0.811757  1
  Er  Er14  1  0.188243  0.188243  0.811757  1
  Er  Er15  1  0.811757  0.811757  0.188243  1
  In  In16  1  0.582480  0.582480  0.582480  1
  In  In17  1  0.582480  0.582480  0.252558  1
  In  In18  1  0.582480  0.252558  0.582480  1
  In  In19  1  0.252558  0.582480  0.582480  1
  Pd  Pd20  1  0.144030  0.144030  0.144030  1
  Pd  Pd21  1  0.144030  0.144030  0.567911  1
  Pd  Pd22  1  0.144030  0.567911  0.144030  1
  Pd  Pd23  1  0.567911  0.144030  0.144030  1
