# generated using pymatgen
data_Dy7Er(Si3Pt)4
_symmetry_space_group_name_H-M   'P 1'
_cell_length_a   8.13602200
_cell_length_b   8.12901795
_cell_length_c   8.16515700
_cell_angle_alpha   90.00000000
_cell_angle_beta   90.00000000
_cell_angle_gamma   120.02850594
_symmetry_Int_Tables_number   1
_chemical_formula_structural   Dy7Er(Si3Pt)4
_chemical_formula_sum   'Dy7 Er1 Si12 Pt4'
_cell_volume   467.54191141
_cell_formula_units_Z   1
loop_
 _symmetry_equiv_pos_site_id
 _symmetry_equiv_pos_as_xyz
  1  'x, y, z'
loop_
 _atom_site_type_symbol
 _atom_site_label
 _atom_site_symmetry_multiplicity
 _atom_site_fract_x
 _atom_site_fract_y
 _atom_site_fract_z
 _atom_site_occupancy
  Dy  Dy0  1  0.999994  0.999988  0.250000  1
  Dy  Dy1  1  0.000006  0.000012  0.750000  1
  Dy  Dy2  1  0.497985  0.502022  0.250000  1
  Dy  Dy3  1  0.497974  0.995947  0.250000  1
  Dy  Dy4  1  0.004037  0.502022  0.250000  1
  Dy  Dy5  1  0.502043  0.497900  0.750000  1
  Dy  Dy6  1  0.995857  0.497900  0.750000  1
  Er  Er7  1  0.502032  0.004063  0.750000  1
  Si  Si8  1  0.834361  0.165388  0.498938  1
  Si  Si9  1  0.834513  0.669027  0.498615  1
  Si  Si10  1  0.331025  0.165388  0.498938  1
  Si  Si11  1  0.834361  0.165388  0.001062  1
  Si  Si12  1  0.834513  0.669027  0.001385  1
  Si  Si13  1  0.331025  0.165388  0.001062  1
  Si  Si14  1  0.165603  0.834611  0.998361  1
  Si  Si15  1  0.669011  0.834611  0.998361  1
  Si  Si16  1  0.165493  0.330984  0.998620  1
  Si  Si17  1  0.165603  0.834611  0.501639  1
  Si  Si18  1  0.669011  0.834611  0.501639  1
  Si  Si19  1  0.165493  0.330984  0.501380  1
  Pt  Pt20  1  0.666372  0.332743  0.496543  1
  Pt  Pt21  1  0.666372  0.332743  0.003457  1
  Pt  Pt22  1  0.333660  0.667320  0.994836  1
  Pt  Pt23  1  0.333660  0.667320  0.505164  1
