# generated using pymatgen
data_K7Cr2O8
_symmetry_space_group_name_H-M   'P 1'
_cell_length_a   10.38710700
_cell_length_b   6.36499709
_cell_length_c   20.50006200
_cell_angle_alpha   87.04644129
_cell_angle_beta   90.00000000
_cell_angle_gamma   90.00000000
_symmetry_Int_Tables_number   1
_chemical_formula_structural   K7Cr2O8
_chemical_formula_sum   'K28 Cr8 O32'
_cell_volume   1353.53877265
_cell_formula_units_Z   4
loop_
 _symmetry_equiv_pos_site_id
 _symmetry_equiv_pos_as_xyz
  1  'x, y, z'
loop_
 _atom_site_type_symbol
 _atom_site_label
 _atom_site_symmetry_multiplicity
 _atom_site_fract_x
 _atom_site_fract_y
 _atom_site_fract_z
 _atom_site_occupancy
  K  K0  1  0.536008  0.573010  0.857457  1
  K  K1  1  0.036008  0.426990  0.642543  1
  K  K2  1  0.463992  0.426990  0.142543  1
  K  K3  1  0.963992  0.573010  0.357457  1
  K  K4  1  0.890277  0.782712  0.533668  1
  K  K5  1  0.390277  0.217288  0.966332  1
  K  K6  1  0.109723  0.217288  0.466332  1
  K  K7  1  0.609723  0.782712  0.033668  1
  K  K8  1  0.831338  0.910821  0.883418  1
  K  K9  1  0.331338  0.089179  0.616582  1
  K  K10  1  0.168662  0.089179  0.116582  1
  K  K11  1  0.668662  0.910821  0.383418  1
  K  K12  1  0.839787  0.414076  0.806702  1
  K  K13  1  0.339787  0.585924  0.693298  1
  K  K14  1  0.160213  0.585924  0.193298  1
  K  K15  1  0.660213  0.414076  0.306702  1
  K  K16  1  0.564120  0.738049  0.547794  1
  K  K17  1  0.064120  0.261951  0.952206  1
  K  K18  1  0.435880  0.261951  0.452206  1
  K  K19  1  0.935880  0.738049  0.047794  1
  K  K20  1  0.997320  0.886464  0.720095  1
  K  K21  1  0.497320  0.113536  0.779905  1
  K  K22  1  0.002680  0.113536  0.279905  1
  K  K23  1  0.502680  0.886464  0.220095  1
  K  K24  1  0.697038  0.226252  0.636069  1
  K  K25  1  0.197038  0.773748  0.863931  1
  K  K26  1  0.302962  0.773748  0.363931  1
  K  K27  1  0.802962  0.226252  0.136069  1
  Cr  Cr28  1  0.218611  0.707784  0.524149  1
  Cr  Cr29  1  0.718611  0.292216  0.975851  1
  Cr  Cr30  1  0.781389  0.292216  0.475851  1
  Cr  Cr31  1  0.281389  0.707784  0.024149  1
  Cr  Cr32  1  0.339446  0.288026  0.295221  1
  Cr  Cr33  1  0.160554  0.288026  0.795221  1
  Cr  Cr34  1  0.839446  0.711974  0.204779  1
  Cr  Cr35  1  0.660554  0.711974  0.704779  1
  O  O36  1  0.720327  0.824135  0.777869  1
  O  O37  1  0.220327  0.175865  0.722131  1
  O  O38  1  0.279673  0.175865  0.222131  1
  O  O39  1  0.779673  0.824135  0.277869  1
  O  O40  1  0.789811  0.664999  0.648347  1
  O  O41  1  0.289811  0.335001  0.851653  1
  O  O42  1  0.210189  0.335001  0.351653  1
  O  O43  1  0.710189  0.664999  0.148347  1
  O  O44  1  0.586664  0.460820  0.729886  1
  O  O45  1  0.086664  0.539180  0.770114  1
  O  O46  1  0.413336  0.539180  0.270114  1
  O  O47  1  0.913336  0.460820  0.229886  1
  O  O48  1  0.534287  0.879788  0.668242  1
  O  O49  1  0.034287  0.120212  0.831758  1
  O  O50  1  0.465713  0.120212  0.331758  1
  O  O51  1  0.965713  0.879788  0.168242  1
  O  O52  1  0.788274  0.534337  0.953303  1
  O  O53  1  0.211726  0.465663  0.046697  1
  O  O54  1  0.711726  0.534337  0.453303  1
  O  O55  1  0.338429  0.882920  0.497469  1
  O  O56  1  0.892129  0.297014  0.538655  1
  O  O57  1  0.392129  0.702986  0.961345  1
  O  O58  1  0.107871  0.702986  0.461345  1
  O  O59  1  0.607871  0.297014  0.038655  1
  O  O60  1  0.141174  0.793614  0.593041  1
  O  O61  1  0.641174  0.206386  0.906959  1
  O  O62  1  0.858826  0.206386  0.406959  1
  O  O63  1  0.358826  0.793614  0.093041  1
  O  O64  1  0.161571  0.882920  0.997469  1
  O  O65  1  0.661571  0.117080  0.502531  1
  O  O66  1  0.838429  0.117080  0.002531  1
  O  O67  1  0.288274  0.465663  0.546697  1
