# generated using pymatgen
data_MgNi3(WO3)8
_symmetry_space_group_name_H-M   'P 1'
_cell_length_a   4.67974065
_cell_length_b   10.66864955
_cell_length_c   9.35993540
_cell_angle_alpha   63.98643285
_cell_angle_beta   89.93852757
_cell_angle_gamma   89.97350349
_symmetry_Int_Tables_number   1
_chemical_formula_structural   MgNi3(WO3)8
_chemical_formula_sum   'Mg1 Ni3 W8 O24'
_cell_volume   419.96572794
_cell_formula_units_Z   1
loop_
 _symmetry_equiv_pos_site_id
 _symmetry_equiv_pos_as_xyz
  1  'x, y, z'
loop_
 _atom_site_type_symbol
 _atom_site_label
 _atom_site_symmetry_multiplicity
 _atom_site_fract_x
 _atom_site_fract_y
 _atom_site_fract_z
 _atom_site_occupancy
  Mg  Mg0  1  0.499980  0.499911  0.000042  1
  Ni  Ni1  1  0.000063  0.000003  0.499977  1
  Ni  Ni2  1  0.499882  0.500025  0.500058  1
  Ni  Ni3  1  0.999929  0.000081  0.000002  1
  W  W4  1  0.500025  0.163977  0.168004  1
  W  W5  1  0.500055  0.164388  0.667791  1
  W  W6  1  0.000528  0.664127  0.168161  1
  W  W7  1  0.999443  0.664132  0.667746  1
  W  W8  1  0.499987  0.835996  0.832018  1
  W  W9  1  0.500014  0.835657  0.332175  1
  W  W10  1  0.000548  0.335856  0.332298  1
  W  W11  1  0.999516  0.335855  0.831876  1
  O  O12  1  0.190514  0.499998  0.845438  1
  O  O13  1  0.192698  0.500008  0.346188  1
  O  O14  1  0.809585  0.499966  0.154583  1
  O  O15  1  0.807322  0.499980  0.653860  1
  O  O16  1  0.308247  0.000001  0.345876  1
  O  O17  1  0.308261  0.000052  0.845798  1
  O  O18  1  0.691743  0.999966  0.154101  1
  O  O19  1  0.691721  0.000023  0.654125  1
  O  O20  1  0.205918  0.172752  0.016353  1
  O  O21  1  0.205656  0.172749  0.516548  1
  O  O22  1  0.794143  0.172747  0.310858  1
  O  O23  1  0.794416  0.172727  0.810699  1
  O  O24  1  0.294172  0.672819  0.016390  1
  O  O25  1  0.294535  0.672487  0.516447  1
  O  O26  1  0.705751  0.672791  0.810789  1
  O  O27  1  0.705364  0.672456  0.311070  1
  O  O28  1  0.794128  0.827229  0.983607  1
  O  O29  1  0.794330  0.827272  0.483451  1
  O  O30  1  0.205839  0.827260  0.689122  1
  O  O31  1  0.205643  0.827294  0.189262  1
  O  O32  1  0.705843  0.327126  0.983618  1
  O  O33  1  0.705393  0.327578  0.483522  1
  O  O34  1  0.294193  0.327136  0.189242  1
  O  O35  1  0.294617  0.327579  0.688904  1
