# generated using pymatgen
data_Ca9Yb3(HoSn2)8
_symmetry_space_group_name_H-M   'P 1'
_cell_length_a   7.87132002
_cell_length_b   8.45273304
_cell_length_c   16.08078107
_cell_angle_alpha   90.00925170
_cell_angle_beta   90.00559238
_cell_angle_gamma   89.99322533
_symmetry_Int_Tables_number   1
_chemical_formula_structural   Ca9Yb3(HoSn2)8
_chemical_formula_sum   'Ca9 Yb3 Ho8 Sn16'
_cell_volume   1069.92134431
_cell_formula_units_Z   1
loop_
 _symmetry_equiv_pos_site_id
 _symmetry_equiv_pos_as_xyz
  1  'x, y, z'
loop_
 _atom_site_type_symbol
 _atom_site_label
 _atom_site_symmetry_multiplicity
 _atom_site_fract_x
 _atom_site_fract_y
 _atom_site_fract_z
 _atom_site_occupancy
  Ca  Ca0  1  0.500051  0.686496  0.592852  1
  Ca  Ca1  1  0.000002  0.813465  0.907171  1
  Ca  Ca2  1  0.499989  0.313487  0.092785  1
  Ca  Ca3  1  0.999981  0.186376  0.407178  1
  Ca  Ca4  1  0.499950  0.313581  0.407199  1
  Ca  Ca5  1  0.829506  0.510306  0.750042  1
  Ca  Ca6  1  0.329506  0.989726  0.750062  1
  Ca  Ca7  1  0.170530  0.489780  0.249909  1
  Ca  Ca8  1  0.670529  0.010221  0.249910  1
  Yb  Yb9  1  0.999889  0.186764  0.093054  1
  Yb  Yb10  1  0.500114  0.686797  0.906933  1
  Yb  Yb11  1  0.000052  0.813302  0.593129  1
  Ho  Ho12  1  0.668508  0.167183  0.622040  1
  Ho  Ho13  1  0.168404  0.332733  0.878060  1
  Ho  Ho14  1  0.331590  0.832675  0.121903  1
  Ho  Ho15  1  0.831777  0.667445  0.377918  1
  Ho  Ho16  1  0.331587  0.832758  0.377851  1
  Ho  Ho17  1  0.831623  0.667250  0.122116  1
  Ho  Ho18  1  0.668440  0.167174  0.877863  1
  Ho  Ho19  1  0.168447  0.332813  0.622182  1
  Sn  Sn20  1  0.672433  0.962922  0.460405  1
  Sn  Sn21  1  0.172192  0.536310  0.039833  1
  Sn  Sn22  1  0.327830  0.036377  0.960178  1
  Sn  Sn23  1  0.828010  0.463747  0.540043  1
  Sn  Sn24  1  0.326922  0.036123  0.539931  1
  Sn  Sn25  1  0.827020  0.463324  0.960326  1
  Sn  Sn26  1  0.672937  0.963287  0.039670  1
  Sn  Sn27  1  0.172028  0.537379  0.460464  1
  Sn  Sn28  1  0.464773  0.374158  0.750327  1
  Sn  Sn29  1  0.964811  0.125832  0.749755  1
  Sn  Sn30  1  0.535357  0.626208  0.250019  1
  Sn  Sn31  1  0.035143  0.874087  0.249764  1
  Sn  Sn32  1  0.710550  0.873992  0.750145  1
  Sn  Sn33  1  0.210562  0.625973  0.749872  1
  Sn  Sn34  1  0.289118  0.125721  0.249631  1
  Sn  Sn35  1  0.789840  0.374229  0.249480  1
