# generated using pymatgen
data_Li8La8Si5Sb3
_symmetry_space_group_name_H-M   'P 1'
_cell_length_a   9.26359200
_cell_length_b   9.26359200
_cell_length_c   7.72745600
_cell_angle_alpha   90.00000000
_cell_angle_beta   90.00000000
_cell_angle_gamma   120.00000001
_symmetry_Int_Tables_number   1
_chemical_formula_structural   Li8La8Si5Sb3
_chemical_formula_sum   'Li8 La8 Si5 Sb3'
_cell_volume   574.28306615
_cell_formula_units_Z   1
loop_
 _symmetry_equiv_pos_site_id
 _symmetry_equiv_pos_as_xyz
  1  'x, y, z'
loop_
 _atom_site_type_symbol
 _atom_site_label
 _atom_site_symmetry_multiplicity
 _atom_site_fract_x
 _atom_site_fract_y
 _atom_site_fract_z
 _atom_site_occupancy
  Li  Li0  1  0.167642  0.335285  0.278464  1
  Li  Li1  1  0.167642  0.832358  0.278464  1
  Li  Li2  1  0.664715  0.832358  0.278464  1
  Li  Li3  1  0.829700  0.659402  0.784885  1
  Li  Li4  1  0.829700  0.170300  0.784885  1
  Li  Li5  1  0.340598  0.170300  0.784885  1
  Li  Li6  1  0.333333  0.666667  0.668652  1
  Li  Li7  1  0.666667  0.333333  0.176727  1
  La  La8  1  0.515989  0.031978  0.487325  1
  La  La9  1  0.515989  0.484011  0.487325  1
  La  La10  1  0.968022  0.484011  0.487325  1
  La  La11  1  0.492835  0.985668  0.006903  1
  La  La12  1  0.492835  0.507165  0.006903  1
  La  La13  1  0.014332  0.507165  0.006903  1
  La  La14  1  0.000000  0.000000  0.485583  1
  La  La15  1  0.000000  0.000000  0.012891  1
  Si  Si16  1  0.833485  0.666967  0.232584  1
  Si  Si17  1  0.833485  0.166515  0.232584  1
  Si  Si18  1  0.333033  0.166515  0.232584  1
  Si  Si19  1  0.333333  0.666667  0.262979  1
  Si  Si20  1  0.666667  0.333333  0.762337  1
  Sb  Sb21  1  0.166773  0.333546  0.734108  1
  Sb  Sb22  1  0.166773  0.833227  0.734108  1
  Sb  Sb23  1  0.666454  0.833227  0.734108  1
