# generated using pymatgen
data_TaTi2Nb7Si6
_symmetry_space_group_name_H-M   'P 1'
_cell_length_a   7.56814809
_cell_length_b   7.57520077
_cell_length_c   7.56938595
_cell_angle_alpha   128.77941926
_cell_angle_beta   128.75381793
_cell_angle_gamma   75.40879317
_symmetry_Int_Tables_number   1
_chemical_formula_structural   TaTi2Nb7Si6
_chemical_formula_sum   'Ta1 Ti2 Nb7 Si6'
_cell_volume   256.71161841
_cell_formula_units_Z   1
loop_
 _symmetry_equiv_pos_site_id
 _symmetry_equiv_pos_as_xyz
  1  'x, y, z'
loop_
 _atom_site_type_symbol
 _atom_site_label
 _atom_site_symmetry_multiplicity
 _atom_site_fract_x
 _atom_site_fract_y
 _atom_site_fract_z
 _atom_site_occupancy
  Ta  Ta0  1  0.016274  0.184279  0.500000  1
  Ti  Ti1  1  0.500470  0.500012  0.000290  1
  Ti  Ti2  1  0.000181  0.999723  0.999710  1
  Nb  Nb3  1  0.517693  0.017793  0.832371  1
  Nb  Nb4  1  0.185322  0.685422  0.167629  1
  Nb  Nb5  1  0.482233  0.982768  0.167461  1
  Nb  Nb6  1  0.685024  0.518688  0.500000  1
  Nb  Nb7  1  0.981902  0.814550  0.500000  1
  Nb  Nb8  1  0.315695  0.481278  0.500000  1
  Nb  Nb9  1  0.814770  0.315306  0.832539  1
  Si  Si10  1  0.130742  0.629352  0.760576  1
  Si  Si11  1  0.630744  0.870034  0.500000  1
  Si  Si12  1  0.368325  0.130807  0.500000  1
  Si  Si13  1  0.870166  0.368776  0.239424  1
  Si  Si14  1  0.750605  0.750980  0.000751  1
  Si  Si15  1  0.249855  0.250230  0.999249  1
