# generated using pymatgen
data_NaAu(Se2O7)2
_symmetry_space_group_name_H-M   'P 1'
_cell_length_a   6.05420045
_cell_length_b   7.37787276
_cell_length_c   9.37143155
_cell_angle_alpha   106.77592667
_cell_angle_beta   94.40635248
_cell_angle_gamma   101.94759957
_symmetry_Int_Tables_number   1
_chemical_formula_structural   NaAu(Se2O7)2
_chemical_formula_sum   'Na1 Au1 Se4 O14'
_cell_volume   387.90732902
_cell_formula_units_Z   1
loop_
 _symmetry_equiv_pos_site_id
 _symmetry_equiv_pos_as_xyz
  1  'x, y, z'
loop_
 _atom_site_type_symbol
 _atom_site_label
 _atom_site_symmetry_multiplicity
 _atom_site_fract_x
 _atom_site_fract_y
 _atom_site_fract_z
 _atom_site_occupancy
  Na  Na0  1  0.500000  0.000000  0.000000  1
  Au  Au1  1  0.500000  0.500000  0.500000  1
  Se  Se2  1  0.931373  0.735712  0.765100  1
  Se  Se3  1  0.068627  0.264288  0.234900  1
  Se  Se4  1  0.663630  0.310183  0.750878  1
  Se  Se5  1  0.336370  0.689817  0.249122  1
  O  O6  1  0.831191  0.644487  0.573257  1
  O  O7  1  0.168809  0.355513  0.426743  1
  O  O8  1  0.463601  0.420353  0.688175  1
  O  O9  1  0.536399  0.579647  0.311825  1
  O  O10  1  0.203367  0.827794  0.780173  1
  O  O11  1  0.796633  0.172206  0.219827  1
  O  O12  1  0.772538  0.861486  0.862323  1
  O  O13  1  0.227462  0.138514  0.137677  1
  O  O14  1  0.584506  0.269785  0.902912  1
  O  O15  1  0.415494  0.730215  0.097088  1
  O  O16  1  0.918081  0.517205  0.820533  1
  O  O17  1  0.081919  0.482795  0.179467  1
  O  O18  1  0.738229  0.147537  0.619419  1
  O  O19  1  0.261771  0.852463  0.380581  1
