# generated using pymatgen
data_NdNiRu2C
_symmetry_space_group_name_H-M   'P 1'
_cell_length_a   5.61615880
_cell_length_b   5.61615981
_cell_length_c   7.52304800
_cell_angle_alpha   90.00000000
_cell_angle_beta   90.00000000
_cell_angle_gamma   139.05561657
_symmetry_Int_Tables_number   1
_chemical_formula_structural   NdNiRu2C
_chemical_formula_sum   'Nd2 Ni2 Ru4 C2'
_cell_volume   155.49991427
_cell_formula_units_Z   2
loop_
 _symmetry_equiv_pos_site_id
 _symmetry_equiv_pos_as_xyz
  1  'x, y, z'
loop_
 _atom_site_type_symbol
 _atom_site_label
 _atom_site_symmetry_multiplicity
 _atom_site_fract_x
 _atom_site_fract_y
 _atom_site_fract_z
 _atom_site_occupancy
  Nd  Nd0  1  0.536368  0.463632  0.250000  1
  Nd  Nd1  1  0.463632  0.536368  0.750000  1
  Ni  Ni2  1  0.261998  0.738002  0.250000  1
  Ni  Ni3  1  0.738002  0.261998  0.750000  1
  Ru  Ru4  1  0.826852  0.173148  0.060430  1
  Ru  Ru5  1  0.173148  0.826852  0.939570  1
  Ru  Ru6  1  0.173148  0.826852  0.560430  1
  Ru  Ru7  1  0.826852  0.173148  0.439570  1
  C  C8  1  0.000000  0.000000  0.000000  1
  C  C9  1  0.000000  0.000000  0.500000  1
