# generated using pymatgen
data_Hf7ScCo11Si16Ir
_symmetry_space_group_name_H-M   'P 1'
_cell_length_a   5.21264899
_cell_length_b   6.75740288
_cell_length_c   13.67540564
_cell_angle_alpha   90.24346440
_cell_angle_beta   90.03454760
_cell_angle_gamma   89.78153071
_symmetry_Int_Tables_number   1
_chemical_formula_structural   Hf7ScCo11Si16Ir
_chemical_formula_sum   'Hf7 Sc1 Co11 Si16 Ir1'
_cell_volume   481.69413463
_cell_formula_units_Z   1
loop_
 _symmetry_equiv_pos_site_id
 _symmetry_equiv_pos_as_xyz
  1  'x, y, z'
loop_
 _atom_site_type_symbol
 _atom_site_label
 _atom_site_symmetry_multiplicity
 _atom_site_fract_x
 _atom_site_fract_y
 _atom_site_fract_z
 _atom_site_occupancy
  Hf  Hf0  1  0.730321  0.098585  0.147420  1
  Hf  Hf1  1  0.269204  0.099812  0.644514  1
  Hf  Hf2  1  0.765586  0.401972  0.644382  1
  Hf  Hf3  1  0.231992  0.600310  0.355010  1
  Hf  Hf4  1  0.732780  0.900059  0.355132  1
  Hf  Hf5  1  0.263957  0.903341  0.853199  1
  Hf  Hf6  1  0.771521  0.601214  0.851368  1
  Sc  Sc7  1  0.233117  0.398606  0.148116  1
  Co  Co8  1  0.506558  0.225052  0.481742  1
  Co  Co9  1  0.772816  0.000675  0.748517  1
  Co  Co10  1  0.495279  0.219836  0.981607  1
  Co  Co11  1  0.724504  0.499829  0.251837  1
  Co  Co12  1  0.495007  0.773895  0.518563  1
  Co  Co13  1  0.005808  0.274000  0.481909  1
  Co  Co14  1  0.005527  0.724910  0.019705  1
  Co  Co15  1  0.224619  0.997693  0.252252  1
  Co  Co16  1  0.276444  0.502425  0.748639  1
  Co  Co17  1  0.506799  0.775449  0.019209  1
  Co  Co18  1  0.994373  0.725937  0.517850  1
  Si  Si19  1  0.222171  0.012547  0.072174  1
  Si  Si20  1  0.717967  0.518634  0.432350  1
  Si  Si21  1  0.781692  0.019533  0.568163  1
  Si  Si22  1  0.482524  0.753476  0.188868  1
  Si  Si23  1  0.019443  0.255238  0.804041  1
  Si  Si24  1  0.517816  0.247345  0.811013  1
  Si  Si25  1  0.219106  0.980526  0.432219  1
  Si  Si26  1  0.293866  0.526661  0.931030  1
  Si  Si27  1  0.978522  0.746002  0.188552  1
  Si  Si28  1  0.709161  0.486516  0.071206  1
  Si  Si29  1  0.280839  0.481255  0.567874  1
  Si  Si30  1  0.480160  0.245618  0.313635  1
  Si  Si31  1  0.019495  0.747543  0.686613  1
  Si  Si32  1  0.775805  0.972343  0.930048  1
  Si  Si33  1  0.518085  0.754827  0.687466  1
  Si  Si34  1  0.980986  0.253091  0.313323  1
  Ir  Ir35  1  0.996147  0.275246  0.980455  1
