# generated using pymatgen
data_Nd3ThCdTc
_symmetry_space_group_name_H-M   'P 1'
_cell_length_a   9.96420245
_cell_length_b   9.96420332
_cell_length_c   9.96420200
_cell_angle_alpha   59.99999776
_cell_angle_beta   59.99999485
_cell_angle_gamma   60.00000139
_symmetry_Int_Tables_number   1
_chemical_formula_structural   Nd3ThCdTc
_chemical_formula_sum   'Nd12 Th4 Cd4 Tc4'
_cell_volume   699.54012355
_cell_formula_units_Z   4
loop_
 _symmetry_equiv_pos_site_id
 _symmetry_equiv_pos_as_xyz
  1  'x, y, z'
loop_
 _atom_site_type_symbol
 _atom_site_label
 _atom_site_symmetry_multiplicity
 _atom_site_fract_x
 _atom_site_fract_y
 _atom_site_fract_z
 _atom_site_occupancy
  Nd  Nd0  1  0.808574  0.191426  0.191426  1
  Nd  Nd1  1  0.191426  0.808574  0.808574  1
  Nd  Nd2  1  0.191426  0.808574  0.191426  1
  Nd  Nd3  1  0.808574  0.191426  0.808574  1
  Nd  Nd4  1  0.191426  0.191426  0.808574  1
  Nd  Nd5  1  0.808574  0.808574  0.191426  1
  Nd  Nd6  1  0.940348  0.559652  0.559652  1
  Nd  Nd7  1  0.559652  0.940348  0.940348  1
  Nd  Nd8  1  0.559652  0.940348  0.559652  1
  Nd  Nd9  1  0.940348  0.559652  0.940348  1
  Nd  Nd10  1  0.559652  0.559652  0.940348  1
  Nd  Nd11  1  0.940348  0.940348  0.559652  1
  Th  Th12  1  0.343441  0.343441  0.343441  1
  Th  Th13  1  0.343441  0.343441  0.969678  1
  Th  Th14  1  0.343441  0.969678  0.343441  1
  Th  Th15  1  0.969678  0.343441  0.343441  1
  Cd  Cd16  1  0.579556  0.579556  0.579556  1
  Cd  Cd17  1  0.579556  0.579556  0.261331  1
  Cd  Cd18  1  0.579556  0.261331  0.579556  1
  Cd  Cd19  1  0.261331  0.579556  0.579556  1
  Tc  Tc20  1  0.141735  0.141735  0.141735  1
  Tc  Tc21  1  0.141735  0.141735  0.574792  1
  Tc  Tc22  1  0.141735  0.574792  0.141735  1
  Tc  Tc23  1  0.574792  0.141735  0.141735  1
