# generated using pymatgen
data_La2HfVF14
_symmetry_space_group_name_H-M   'P 1'
_cell_length_a   5.83726300
_cell_length_b   9.31483470
_cell_length_c   12.44777072
_cell_angle_alpha   62.11383157
_cell_angle_beta   90.00000000
_cell_angle_gamma   90.00000000
_symmetry_Int_Tables_number   1
_chemical_formula_structural   La2HfVF14
_chemical_formula_sum   'La4 Hf2 V2 F28'
_cell_volume   598.23056177
_cell_formula_units_Z   2
loop_
 _symmetry_equiv_pos_site_id
 _symmetry_equiv_pos_as_xyz
  1  'x, y, z'
loop_
 _atom_site_type_symbol
 _atom_site_label
 _atom_site_symmetry_multiplicity
 _atom_site_fract_x
 _atom_site_fract_y
 _atom_site_fract_z
 _atom_site_occupancy
  La  La0  1  0.762118  0.806493  0.262630  1
  La  La1  1  0.262118  0.193507  0.237370  1
  La  La2  1  0.238685  0.187830  0.732241  1
  La  La3  1  0.738685  0.812170  0.767759  1
  Hf  Hf4  1  0.245628  0.726385  0.542622  1
  Hf  Hf5  1  0.745628  0.273615  0.957378  1
  V  V6  1  0.756247  0.274868  0.456029  1
  V  V7  1  0.256247  0.725132  0.043971  1
  F  F8  1  0.962133  0.714614  0.455241  1
  F  F9  1  0.462133  0.285386  0.044759  1
  F  F10  1  0.024407  0.284440  0.540862  1
  F  F11  1  0.524407  0.715560  0.959138  1
  F  F12  1  0.066562  0.709597  0.931632  1
  F  F13  1  0.566562  0.290403  0.568368  1
  F  F14  1  0.949526  0.290594  0.079929  1
  F  F15  1  0.449526  0.709406  0.420071  1
  F  F16  1  0.735565  0.516425  0.860753  1
  F  F17  1  0.235565  0.483575  0.639247  1
  F  F18  1  0.263245  0.494542  0.136939  1
  F  F19  1  0.763245  0.505458  0.363061  1
  F  F20  1  0.738242  0.031697  0.052803  1
  F  F21  1  0.238242  0.968303  0.447197  1
  F  F22  1  0.257761  0.954247  0.951242  1
  F  F23  1  0.757761  0.045753  0.548758  1
  F  F24  1  0.046331  0.744576  0.668585  1
  F  F25  1  0.546331  0.255424  0.831415  1
  F  F26  1  0.941849  0.258537  0.341262  1
  F  F27  1  0.441849  0.741463  0.158738  1
  F  F28  1  0.019593  0.267420  0.862239  1
  F  F29  1  0.519593  0.732580  0.637761  1
  F  F30  1  0.994894  0.731019  0.133728  1
  F  F31  1  0.494894  0.268981  0.366272  1
  F  F32  1  0.085975  0.971280  0.232344  1
  F  F33  1  0.585975  0.028720  0.267656  1
  F  F34  1  0.911238  0.030549  0.771702  1
  F  F35  1  0.411238  0.969451  0.728298  1
