# generated using pymatgen
data_Nd2CoH6
_symmetry_space_group_name_H-M   'P 1'
_cell_length_a   7.18246058
_cell_length_b   7.18246016
_cell_length_c   5.11632300
_cell_angle_alpha   90.00000000
_cell_angle_beta   90.00000000
_cell_angle_gamma   138.25611683
_symmetry_Int_Tables_number   1
_chemical_formula_structural   Nd2CoH6
_chemical_formula_sum   'Nd4 Co2 H12'
_cell_volume   175.73146728
_cell_formula_units_Z   2
loop_
 _symmetry_equiv_pos_site_id
 _symmetry_equiv_pos_as_xyz
  1  'x, y, z'
loop_
 _atom_site_type_symbol
 _atom_site_label
 _atom_site_symmetry_multiplicity
 _atom_site_fract_x
 _atom_site_fract_y
 _atom_site_fract_z
 _atom_site_occupancy
  Nd  Nd0  1  0.137269  0.862731  0.500000  1
  Nd  Nd1  1  0.637269  0.362731  0.000000  1
  Nd  Nd2  1  0.862731  0.137269  0.500000  1
  Nd  Nd3  1  0.362731  0.637269  0.000000  1
  Co  Co4  1  0.500000  0.500000  0.500000  1
  Co  Co5  1  0.000000  0.000000  0.000000  1
  H  H6  1  0.000040  0.500040  0.750000  1
  H  H7  1  0.499960  0.999960  0.250000  1
  H  H8  1  0.999960  0.499960  0.250000  1
  H  H9  1  0.500040  0.000040  0.750000  1
  H  H10  1  0.380028  0.619972  0.500000  1
  H  H11  1  0.880028  0.119972  0.000000  1
  H  H12  1  0.619972  0.380028  0.500000  1
  H  H13  1  0.119972  0.880028  0.000000  1
  H  H14  1  0.252927  0.252927  0.747275  1
  H  H15  1  0.747073  0.747073  0.252725  1
  H  H16  1  0.247073  0.247073  0.247275  1
  H  H17  1  0.752927  0.752927  0.752725  1
