# generated using pymatgen
data_Dy4Mn9Fe11P12
_symmetry_space_group_name_H-M   'P 1'
_cell_length_a   3.64673600
_cell_length_b   10.30486410
_cell_length_c   12.14173167
_cell_angle_alpha   89.64962774
_cell_angle_beta   90.00000000
_cell_angle_gamma   90.00000000
_symmetry_Int_Tables_number   1
_chemical_formula_structural   Dy4Mn9Fe11P12
_chemical_formula_sum   'Dy4 Mn9 Fe11 P12'
_cell_volume   456.26704668
_cell_formula_units_Z   1
loop_
 _symmetry_equiv_pos_site_id
 _symmetry_equiv_pos_as_xyz
  1  'x, y, z'
loop_
 _atom_site_type_symbol
 _atom_site_label
 _atom_site_symmetry_multiplicity
 _atom_site_fract_x
 _atom_site_fract_y
 _atom_site_fract_z
 _atom_site_occupancy
  Dy  Dy0  1  0.250000  0.580989  0.710402  1
  Dy  Dy1  1  0.250000  0.916051  0.210932  1
  Dy  Dy2  1  0.750000  0.423208  0.291545  1
  Dy  Dy3  1  0.750000  0.080665  0.788880  1
  Mn  Mn4  1  0.250000  0.705303  0.991431  1
  Mn  Mn5  1  0.250000  0.795225  0.491811  1
  Mn  Mn6  1  0.750000  0.292949  0.011420  1
  Mn  Mn7  1  0.750000  0.206039  0.507635  1
  Mn  Mn8  1  0.250000  0.410249  0.492126  1
  Mn  Mn9  1  0.250000  0.090122  0.989821  1
  Mn  Mn10  1  0.750000  0.592005  0.510144  1
  Mn  Mn11  1  0.750000  0.904679  0.008029  1
  Mn  Mn12  1  0.250000  0.218126  0.174158  1
  Fe  Fe13  1  0.250000  0.278931  0.671776  1
  Fe  Fe14  1  0.750000  0.778573  0.827583  1
  Fe  Fe15  1  0.750000  0.721193  0.328746  1
  Fe  Fe16  1  0.250000  0.878069  0.694939  1
  Fe  Fe17  1  0.250000  0.623208  0.195822  1
  Fe  Fe18  1  0.750000  0.126636  0.300491  1
  Fe  Fe19  1  0.750000  0.376908  0.805300  1
  Fe  Fe20  1  0.250000  0.462713  0.935812  1
  Fe  Fe21  1  0.250000  0.038126  0.434431  1
  Fe  Fe22  1  0.750000  0.537495  0.063576  1
  Fe  Fe23  1  0.750000  0.963304  0.563315  1
  P  P24  1  0.250000  0.426028  0.112879  1
  P  P25  1  0.250000  0.076801  0.611966  1
  P  P26  1  0.750000  0.575993  0.886547  1
  P  P27  1  0.750000  0.923830  0.386775  1
  P  P28  1  0.250000  0.269304  0.861284  1
  P  P29  1  0.250000  0.235118  0.367732  1
  P  P30  1  0.750000  0.730052  0.138827  1
  P  P31  1  0.750000  0.769819  0.638930  1
  P  P32  1  0.250000  0.604719  0.381738  1
  P  P33  1  0.250000  0.896352  0.880272  1
  P  P34  1  0.750000  0.396449  0.619606  1
  P  P35  1  0.750000  0.094771  0.113316  1
