# generated using pymatgen
data_Tb3Tm9Tc3Ru
_symmetry_space_group_name_H-M   'P 1'
_cell_length_a   6.22785727
_cell_length_b   7.36528039
_cell_length_c   9.00818200
_cell_angle_alpha   90.00000000
_cell_angle_beta   90.00000000
_cell_angle_gamma   90.05533094
_symmetry_Int_Tables_number   1
_chemical_formula_structural   Tb3Tm9Tc3Ru
_chemical_formula_sum   'Tb3 Tm9 Tc3 Ru1'
_cell_volume   413.20435043
_cell_formula_units_Z   1
loop_
 _symmetry_equiv_pos_site_id
 _symmetry_equiv_pos_as_xyz
  1  'x, y, z'
loop_
 _atom_site_type_symbol
 _atom_site_label
 _atom_site_symmetry_multiplicity
 _atom_site_fract_x
 _atom_site_fract_y
 _atom_site_fract_z
 _atom_site_occupancy
  Tb  Tb0  1  0.627294  0.041828  0.250000  1
  Tb  Tb1  1  0.376857  0.960595  0.750000  1
  Tb  Tb2  1  0.124826  0.460210  0.750000  1
  Tm  Tm3  1  0.876193  0.541788  0.250000  1
  Tm  Tm4  1  0.158352  0.175160  0.063784  1
  Tm  Tm5  1  0.838523  0.822838  0.937601  1
  Tm  Tm6  1  0.658390  0.325137  0.938628  1
  Tm  Tm7  1  0.838523  0.822838  0.562399  1
  Tm  Tm8  1  0.339972  0.675759  0.063607  1
  Tm  Tm9  1  0.158352  0.175160  0.436216  1
  Tm  Tm10  1  0.339972  0.675759  0.436393  1
  Tm  Tm11  1  0.658390  0.325137  0.561372  1
  Tc  Tc12  1  0.460366  0.384953  0.250000  1
  Tc  Tc13  1  0.543419  0.616248  0.750000  1
  Tc  Tc14  1  0.958159  0.114563  0.750000  1
  Ru  Ru15  1  0.042411  0.882029  0.250000  1
