# generated using pymatgen
data_Lu2Pa(GaPt)3
_symmetry_space_group_name_H-M   'P 1'
_cell_length_a   7.27874965
_cell_length_b   7.23381134
_cell_length_c   3.83392000
_cell_angle_alpha   90.00000000
_cell_angle_beta   90.00000000
_cell_angle_gamma   119.79596831
_symmetry_Int_Tables_number   1
_chemical_formula_structural   Lu2Pa(GaPt)3
_chemical_formula_sum   'Lu2 Pa1 Ga3 Pt3'
_cell_volume   175.18094449
_cell_formula_units_Z   1
loop_
 _symmetry_equiv_pos_site_id
 _symmetry_equiv_pos_as_xyz
  1  'x, y, z'
loop_
 _atom_site_type_symbol
 _atom_site_label
 _atom_site_symmetry_multiplicity
 _atom_site_fract_x
 _atom_site_fract_y
 _atom_site_fract_z
 _atom_site_occupancy
  Lu  Lu0  1  0.596849  0.001153  0.500000  1
  Lu  Lu1  1  0.403151  0.404304  0.500000  1
  Pa  Pa2  1  0.000000  0.589283  0.500000  1
  Ga  Ga3  1  0.000000  0.245062  0.000000  1
  Ga  Ga4  1  0.266444  0.011463  0.000000  1
  Ga  Ga5  1  0.733556  0.745017  0.000000  1
  Pt  Pt6  1  0.000000  0.993465  0.500000  1
  Pt  Pt7  1  0.675298  0.342775  0.000000  1
  Pt  Pt8  1  0.324702  0.667478  0.000000  1
