# generated using pymatgen
data_Fe2PbBr8
_symmetry_space_group_name_H-M   'P 1'
_cell_length_a   7.53446000
_cell_length_b   8.14800149
_cell_length_c   13.74478805
_cell_angle_alpha   85.77324540
_cell_angle_beta   90.00000000
_cell_angle_gamma   90.00000000
_symmetry_Int_Tables_number   1
_chemical_formula_structural   Fe2PbBr8
_chemical_formula_sum   'Fe4 Pb2 Br16'
_cell_volume   841.50841200
_cell_formula_units_Z   2
loop_
 _symmetry_equiv_pos_site_id
 _symmetry_equiv_pos_as_xyz
  1  'x, y, z'
loop_
 _atom_site_type_symbol
 _atom_site_label
 _atom_site_symmetry_multiplicity
 _atom_site_fract_x
 _atom_site_fract_y
 _atom_site_fract_z
 _atom_site_occupancy
  Fe  Fe0  1  0.260165  0.675275  0.579433  1
  Fe  Fe1  1  0.739835  0.675275  0.079433  1
  Fe  Fe2  1  0.739835  0.324725  0.420567  1
  Fe  Fe3  1  0.260165  0.324725  0.920567  1
  Pb  Pb4  1  0.862991  0.500000  0.750000  1
  Pb  Pb5  1  0.137009  0.500000  0.250000  1
  Br  Br6  1  0.822812  0.398375  0.117866  1
  Br  Br7  1  0.822812  0.601625  0.382134  1
  Br  Br8  1  0.300663  0.734455  0.410294  1
  Br  Br9  1  0.300663  0.265545  0.089706  1
  Br  Br10  1  0.699337  0.265545  0.589706  1
  Br  Br11  1  0.699337  0.734455  0.910294  1
  Br  Br12  1  0.017967  0.824309  0.640451  1
  Br  Br13  1  0.017967  0.175691  0.859549  1
  Br  Br14  1  0.982033  0.175691  0.359549  1
  Br  Br15  1  0.982033  0.824309  0.140451  1
  Br  Br16  1  0.527393  0.737745  0.656024  1
  Br  Br17  1  0.527393  0.262255  0.843976  1
  Br  Br18  1  0.472607  0.262255  0.343976  1
  Br  Br19  1  0.472607  0.737745  0.156024  1
  Br  Br20  1  0.177188  0.398375  0.617866  1
  Br  Br21  1  0.177188  0.601625  0.882134  1
