# generated using pymatgen
data_Ho2As4O9
_symmetry_space_group_name_H-M   'P 1'
_cell_length_a   6.73171062
_cell_length_b   7.52685248
_cell_length_c   9.79864680
_cell_angle_alpha   94.94814997
_cell_angle_beta   104.16185184
_cell_angle_gamma   104.69524524
_symmetry_Int_Tables_number   1
_chemical_formula_structural   Ho2As4O9
_chemical_formula_sum   'Ho4 As8 O18'
_cell_volume   459.78825932
_cell_formula_units_Z   2
loop_
 _symmetry_equiv_pos_site_id
 _symmetry_equiv_pos_as_xyz
  1  'x, y, z'
loop_
 _atom_site_type_symbol
 _atom_site_label
 _atom_site_symmetry_multiplicity
 _atom_site_fract_x
 _atom_site_fract_y
 _atom_site_fract_z
 _atom_site_occupancy
  Ho  Ho0  1  0.243677  0.939035  0.615342  1
  Ho  Ho1  1  0.756323  0.060965  0.384658  1
  Ho  Ho2  1  0.721535  0.530217  0.409889  1
  Ho  Ho3  1  0.278465  0.469783  0.590111  1
  As  As4  1  0.682111  0.773980  0.077843  1
  As  As5  1  0.317889  0.226020  0.922157  1
  As  As6  1  0.170925  0.752645  0.912887  1
  As  As7  1  0.829075  0.247355  0.087113  1
  As  As8  1  0.743720  0.914958  0.709437  1
  As  As9  1  0.256280  0.085042  0.290563  1
  As  As10  1  0.809647  0.351040  0.701678  1
  As  As11  1  0.190353  0.648960  0.298322  1
  O  O12  1  0.723381  0.749340  0.258980  1
  O  O13  1  0.276619  0.250660  0.741020  1
  O  O14  1  0.316224  0.978725  0.869822  1
  O  O15  1  0.683776  0.021275  0.130178  1
  O  O16  1  0.608386  0.325574  0.985351  1
  O  O17  1  0.391614  0.674426  0.014649  1
  O  O18  1  0.127295  0.646186  0.737437  1
  O  O19  1  0.872705  0.353814  0.262563  1
  O  O20  1  0.847119  0.874746  0.558748  1
  O  O21  1  0.152881  0.125254  0.441252  1
  O  O22  1  0.482334  0.768106  0.666331  1
  O  O23  1  0.517666  0.231894  0.333669  1
  O  O24  1  0.372971  0.533428  0.379593  1
  O  O25  1  0.627029  0.466572  0.620407  1
  O  O26  1  0.089446  0.669865  0.454031  1
  O  O27  1  0.910554  0.330135  0.545969  1
  O  O28  1  0.377256  0.899485  0.359193  1
  O  O29  1  0.622744  0.100515  0.640807  1
