# generated using pymatgen
data_Sc8Ti8Re3Si16Ru
_symmetry_space_group_name_H-M   'P 1'
_cell_length_a   6.76482223
_cell_length_b   6.76482223
_cell_length_c   12.42390884
_cell_angle_alpha   89.89818697
_cell_angle_beta   90.10181303
_cell_angle_gamma   89.82878861
_symmetry_Int_Tables_number   1
_chemical_formula_structural   Sc8Ti8Re3Si16Ru
_chemical_formula_sum   'Sc8 Ti8 Re3 Si16 Ru1'
_cell_volume   568.54876142
_cell_formula_units_Z   1
loop_
 _symmetry_equiv_pos_site_id
 _symmetry_equiv_pos_as_xyz
  1  'x, y, z'
loop_
 _atom_site_type_symbol
 _atom_site_label
 _atom_site_symmetry_multiplicity
 _atom_site_fract_x
 _atom_site_fract_y
 _atom_site_fract_z
 _atom_site_occupancy
  Sc  Sc0  1  0.000009  0.660897  0.029772  1
  Sc  Sc1  1  0.001132  0.337537  0.529098  1
  Sc  Sc2  1  0.337537  0.001132  0.470902  1
  Sc  Sc3  1  0.160513  0.501089  0.779775  1
  Sc  Sc4  1  0.839848  0.498218  0.279582  1
  Sc  Sc5  1  0.501089  0.160513  0.220225  1
  Sc  Sc6  1  0.498218  0.839848  0.720418  1
  Sc  Sc7  1  0.660897  0.000009  0.970228  1
  Ti  Ti8  1  0.999241  0.852194  0.626289  1
  Ti  Ti9  1  0.004094  0.149853  0.125869  1
  Ti  Ti10  1  0.852194  0.999241  0.373711  1
  Ti  Ti11  1  0.346289  0.503676  0.374761  1
  Ti  Ti12  1  0.650018  0.496813  0.874748  1
  Ti  Ti13  1  0.503676  0.346289  0.625239  1
  Ti  Ti14  1  0.496813  0.650018  0.125252  1
  Ti  Ti15  1  0.149853  0.004094  0.874131  1
  Re  Re16  1  0.172428  0.827192  0.250728  1
  Re  Re17  1  0.328977  0.328977  0.000000  1
  Re  Re18  1  0.827192  0.172428  0.749272  1
  Si  Si19  1  0.042869  0.703187  0.434685  1
  Si  Si20  1  0.633503  0.296006  0.428866  1
  Si  Si21  1  0.364389  0.704257  0.929411  1
  Si  Si22  1  0.203945  0.136859  0.679097  1
  Si  Si23  1  0.296006  0.633503  0.571134  1
  Si  Si24  1  0.704257  0.364389  0.070589  1
  Si  Si25  1  0.796836  0.863249  0.179329  1
  Si  Si26  1  0.136859  0.203945  0.320903  1
  Si  Si27  1  0.955458  0.297817  0.933297  1
  Si  Si28  1  0.703187  0.042869  0.565315  1
  Si  Si29  1  0.202001  0.455140  0.182940  1
  Si  Si30  1  0.797051  0.547302  0.681631  1
  Si  Si31  1  0.455140  0.202001  0.817060  1
  Si  Si32  1  0.547302  0.797051  0.318369  1
  Si  Si33  1  0.297817  0.955458  0.066703  1
  Si  Si34  1  0.863249  0.796836  0.820671  1
  Ru  Ru35  1  0.670115  0.670115  0.500000  1
