# generated using pymatgen
data_NaYNi9P7Ir3
_symmetry_space_group_name_H-M   'P 1'
_cell_length_a   9.22992400
_cell_length_b   9.22992293
_cell_length_c   3.75051600
_cell_angle_alpha   90.00000000
_cell_angle_beta   90.00000000
_cell_angle_gamma   119.99999667
_symmetry_Int_Tables_number   1
_chemical_formula_structural   NaYNi9P7Ir3
_chemical_formula_sum   'Na1 Y1 Ni9 P7 Ir3'
_cell_volume   276.70554899
_cell_formula_units_Z   1
loop_
 _symmetry_equiv_pos_site_id
 _symmetry_equiv_pos_as_xyz
  1  'x, y, z'
loop_
 _atom_site_type_symbol
 _atom_site_label
 _atom_site_symmetry_multiplicity
 _atom_site_fract_x
 _atom_site_fract_y
 _atom_site_fract_z
 _atom_site_occupancy
  Na  Na0  1  0.666667  0.333333  0.000000  1
  Y  Y1  1  0.333333  0.666667  0.500000  1
  Ni  Ni2  1  0.063812  0.634202  0.000000  1
  Ni  Ni3  1  0.570390  0.936188  0.000000  1
  Ni  Ni4  1  0.365798  0.429610  0.000000  1
  Ni  Ni5  1  0.272879  0.119699  0.000000  1
  Ni  Ni6  1  0.846822  0.727121  0.000000  1
  Ni  Ni7  1  0.880301  0.153178  0.000000  1
  Ni  Ni8  1  0.072952  0.877620  0.500000  1
  Ni  Ni9  1  0.804668  0.927048  0.500000  1
  Ni  Ni10  1  0.122380  0.195332  0.500000  1
  P  P11  1  0.292937  0.881841  0.000000  1
  P  P12  1  0.588903  0.707063  0.000000  1
  P  P13  1  0.118159  0.411097  0.000000  1
  P  P14  1  0.402269  0.291930  0.500000  1
  P  P15  1  0.889661  0.597731  0.500000  1
  P  P16  1  0.708070  0.110339  0.500000  1
  P  P17  1  0.000000  0.000000  0.000000  1
  Ir  Ir18  1  0.426551  0.041394  0.500000  1
  Ir  Ir19  1  0.614842  0.573449  0.500000  1
  Ir  Ir20  1  0.958606  0.385158  0.500000  1
