# generated using pymatgen
data_Na3AuO4
_symmetry_space_group_name_H-M   'P 1'
_cell_length_a   5.59767166
_cell_length_b   11.03169514
_cell_length_c   6.65030502
_cell_angle_alpha   89.99098845
_cell_angle_beta   89.99718202
_cell_angle_gamma   80.74662362
_symmetry_Int_Tables_number   1
_chemical_formula_structural   Na3AuO4
_chemical_formula_sum   'Na12 Au4 O16'
_cell_volume   405.32427712
_cell_formula_units_Z   4
loop_
 _symmetry_equiv_pos_site_id
 _symmetry_equiv_pos_as_xyz
  1  'x, y, z'
loop_
 _atom_site_type_symbol
 _atom_site_label
 _atom_site_symmetry_multiplicity
 _atom_site_fract_x
 _atom_site_fract_y
 _atom_site_fract_z
 _atom_site_occupancy
  Na  Na0  1  0.750011  0.999993  0.387651  1
  Na  Na1  1  0.250014  0.499999  0.387660  1
  Na  Na2  1  0.250004  0.999994  0.612346  1
  Na  Na3  1  0.750009  0.500004  0.612303  1
  Na  Na4  1  0.499981  0.249980  0.122995  1
  Na  Na5  1  0.999991  0.750012  0.123005  1
  Na  Na6  1  0.000051  0.249989  0.877029  1
  Na  Na7  1  0.499972  0.750009  0.877046  1
  Na  Na8  1  0.499986  0.249992  0.621030  1
  Na  Na9  1  0.000039  0.750021  0.621043  1
  Na  Na10  1  0.999987  0.249990  0.378958  1
  Na  Na11  1  0.499983  0.750006  0.378930  1
  Au  Au12  1  0.250010  0.499955  0.881817  1
  Au  Au13  1  0.250016  0.000040  0.118195  1
  Au  Au14  1  0.750046  0.000022  0.881863  1
  Au  Au15  1  0.749993  0.499956  0.118158  1
  O  O16  1  0.854028  0.112667  0.667732  1
  O  O17  1  0.354060  0.612674  0.667708  1
  O  O18  1  0.354012  0.112655  0.332265  1
  O  O19  1  0.854024  0.612663  0.332268  1
  O  O20  1  0.145977  0.387365  0.667747  1
  O  O21  1  0.645968  0.887326  0.667760  1
  O  O22  1  0.645967  0.387328  0.332287  1
  O  O23  1  0.145907  0.887276  0.332343  1
  O  O24  1  0.403814  0.101637  0.893084  1
  O  O25  1  0.903823  0.601613  0.893069  1
  O  O26  1  0.903728  0.101609  0.106859  1
  O  O27  1  0.403720  0.601611  0.106863  1
  O  O28  1  0.096250  0.398411  0.106854  1
  O  O29  1  0.596229  0.898394  0.106880  1
  O  O30  1  0.596179  0.398419  0.893097  1
  O  O31  1  0.096222  0.898391  0.893158  1
