# generated using pymatgen
data_BeSn5BIr6
_symmetry_space_group_name_H-M   'P 1'
_cell_length_a   6.70638900
_cell_length_b   6.70638817
_cell_length_c   5.69078200
_cell_angle_alpha   90.00000000
_cell_angle_beta   90.00000000
_cell_angle_gamma   120.00000900
_symmetry_Int_Tables_number   1
_chemical_formula_structural   BeSn5BIr6
_chemical_formula_sum   'Be1 Sn5 B1 Ir6'
_cell_volume   221.65624393
_cell_formula_units_Z   1
loop_
 _symmetry_equiv_pos_site_id
 _symmetry_equiv_pos_as_xyz
  1  'x, y, z'
loop_
 _atom_site_type_symbol
 _atom_site_label
 _atom_site_symmetry_multiplicity
 _atom_site_fract_x
 _atom_site_fract_y
 _atom_site_fract_z
 _atom_site_occupancy
  Be  Be0  1  0.000000  0.000000  0.000000  1
  Sn  Sn1  1  0.395503  0.395503  0.000000  1
  Sn  Sn2  1  0.604497  0.000000  0.000000  1
  Sn  Sn3  1  0.000000  0.604497  0.000000  1
  Sn  Sn4  1  0.666667  0.333333  0.500000  1
  Sn  Sn5  1  0.333333  0.666667  0.500000  1
  B  B6  1  0.000000  0.000000  0.500000  1
  Ir  Ir7  1  0.261894  0.000000  0.739185  1
  Ir  Ir8  1  0.738106  0.738106  0.260815  1
  Ir  Ir9  1  0.000000  0.261894  0.260815  1
  Ir  Ir10  1  0.261894  0.000000  0.260815  1
  Ir  Ir11  1  0.738106  0.738106  0.739185  1
  Ir  Ir12  1  0.000000  0.261894  0.739185  1
