# generated using pymatgen
data_Er3ZnFeRu4
_symmetry_space_group_name_H-M   'P 1'
_cell_length_a   5.23574071
_cell_length_b   5.19355719
_cell_length_c   13.12437035
_cell_angle_alpha   91.45766327
_cell_angle_beta   89.25315689
_cell_angle_gamma   118.11391591
_symmetry_Int_Tables_number   1
_chemical_formula_structural   Er3ZnFeRu4
_chemical_formula_sum   'Er6 Zn2 Fe2 Ru8'
_cell_volume   314.67002044
_cell_formula_units_Z   2
loop_
 _symmetry_equiv_pos_site_id
 _symmetry_equiv_pos_as_xyz
  1  'x, y, z'
loop_
 _atom_site_type_symbol
 _atom_site_label
 _atom_site_symmetry_multiplicity
 _atom_site_fract_x
 _atom_site_fract_y
 _atom_site_fract_z
 _atom_site_occupancy
  Er  Er0  1  0.334531  0.665595  0.910908  1
  Er  Er1  1  0.988921  0.994527  0.256632  1
  Er  Er2  1  0.668252  0.333862  0.584821  1
  Er  Er3  1  0.331748  0.666138  0.665179  1
  Er  Er4  1  0.011079  0.005473  0.993368  1
  Er  Er5  1  0.665469  0.334405  0.339092  1
  Zn  Zn6  1  0.500000  0.500000  0.125000  1
  Zn  Zn7  1  0.500000  0.000000  0.125000  1
  Fe  Fe8  1  0.169519  0.838689  0.459181  1
  Fe  Fe9  1  0.830481  0.161311  0.790819  1
  Ru  Ru10  1  0.173389  0.341652  0.456826  1
  Ru  Ru11  1  0.826611  0.658348  0.793174  1
  Ru  Ru12  1  0.320168  0.669335  0.291220  1
  Ru  Ru13  1  0.000000  0.000000  0.625000  1
  Ru  Ru14  1  0.679832  0.330665  0.958780  1
  Ru  Ru15  1  0.000000  0.500000  0.125000  1
  Ru  Ru16  1  0.669037  0.835848  0.460482  1
  Ru  Ru17  1  0.330963  0.164152  0.789518  1
