# generated using pymatgen
data_Nd4DyY11(CdNi)4
_symmetry_space_group_name_H-M   'P 1'
_cell_length_a   9.64394803
_cell_length_b   9.65092701
_cell_length_c   9.65092691
_cell_angle_alpha   60.00279450
_cell_angle_beta   60.02391979
_cell_angle_gamma   60.02392089
_symmetry_Int_Tables_number   1
_chemical_formula_structural   Nd4DyY11(CdNi)4
_chemical_formula_sum   'Nd4 Dy1 Y11 Cd4 Ni4'
_cell_volume   635.39534147
_cell_formula_units_Z   1
loop_
 _symmetry_equiv_pos_site_id
 _symmetry_equiv_pos_as_xyz
  1  'x, y, z'
loop_
 _atom_site_type_symbol
 _atom_site_label
 _atom_site_symmetry_multiplicity
 _atom_site_fract_x
 _atom_site_fract_y
 _atom_site_fract_z
 _atom_site_occupancy
  Nd  Nd0  1  0.599867  0.600184  0.600184  1
  Nd  Nd1  1  0.600432  0.600976  0.198160  1
  Nd  Nd2  1  0.600432  0.198160  0.600976  1
  Nd  Nd3  1  0.199765  0.600184  0.600184  1
  Dy  Dy4  1  0.062315  0.437685  0.437685  1
  Y  Y5  1  0.436742  0.063258  0.063258  1
  Y  Y6  1  0.437287  0.063074  0.437159  1
  Y  Y7  1  0.062480  0.437159  0.063074  1
  Y  Y8  1  0.437287  0.437159  0.063074  1
  Y  Y9  1  0.062480  0.063074  0.437159  1
  Y  Y10  1  0.185200  0.814800  0.814800  1
  Y  Y11  1  0.814335  0.185665  0.185665  1
  Y  Y12  1  0.814971  0.186098  0.814125  1
  Y  Y13  1  0.184806  0.814125  0.186098  1
  Y  Y14  1  0.814971  0.814125  0.186098  1
  Y  Y15  1  0.184806  0.186098  0.814125  1
  Cd  Cd16  1  0.832395  0.831602  0.831602  1
  Cd  Cd17  1  0.832320  0.831665  0.503693  1
  Cd  Cd18  1  0.832320  0.503693  0.831665  1
  Cd  Cd19  1  0.504401  0.831602  0.831602  1
  Ni  Ni20  1  0.391241  0.391844  0.391844  1
  Ni  Ni21  1  0.392037  0.391084  0.824845  1
  Ni  Ni22  1  0.392037  0.824845  0.391084  1
  Ni  Ni23  1  0.825072  0.391844  0.391844  1
