# generated using pymatgen
data_Zr3Nb3Al16Ir7
_symmetry_space_group_name_H-M   'P 1'
_cell_length_a   8.67120541
_cell_length_b   8.67120527
_cell_length_c   8.67257305
_cell_angle_alpha   60.00521885
_cell_angle_beta   60.00521700
_cell_angle_gamma   59.99999355
_symmetry_Int_Tables_number   1
_chemical_formula_structural   Zr3Nb3Al16Ir7
_chemical_formula_sum   'Zr3 Nb3 Al16 Ir7'
_cell_volume   461.13293053
_cell_formula_units_Z   1
loop_
 _symmetry_equiv_pos_site_id
 _symmetry_equiv_pos_as_xyz
  1  'x, y, z'
loop_
 _atom_site_type_symbol
 _atom_site_label
 _atom_site_symmetry_multiplicity
 _atom_site_fract_x
 _atom_site_fract_y
 _atom_site_fract_z
 _atom_site_occupancy
  Zr  Zr0  1  0.311856  0.311856  0.687590  1
  Zr  Zr1  1  0.688698  0.311856  0.687590  1
  Zr  Zr2  1  0.311856  0.688698  0.687590  1
  Nb  Nb3  1  0.677682  0.677682  0.320476  1
  Nb  Nb4  1  0.324161  0.677682  0.320476  1
  Nb  Nb5  1  0.677682  0.324161  0.320476  1
  Al  Al6  1  0.881524  0.881524  0.355428  1
  Al  Al7  1  0.878274  0.360663  0.882790  1
  Al  Al8  1  0.360663  0.878274  0.882790  1
  Al  Al9  1  0.878274  0.878274  0.882790  1
  Al  Al10  1  0.121157  0.121157  0.636527  1
  Al  Al11  1  0.117688  0.642027  0.122595  1
  Al  Al12  1  0.642027  0.117688  0.122595  1
  Al  Al13  1  0.117688  0.117688  0.122595  1
  Al  Al14  1  0.661722  0.661722  0.014834  1
  Al  Al15  1  0.663741  0.014606  0.657911  1
  Al  Al16  1  0.014606  0.663741  0.657911  1
  Al  Al17  1  0.663741  0.663741  0.657911  1
  Al  Al18  1  0.337559  0.337559  0.987325  1
  Al  Al19  1  0.340182  0.984764  0.334873  1
  Al  Al20  1  0.984764  0.340182  0.334873  1
  Al  Al21  1  0.340182  0.340182  0.334873  1
  Ir  Ir22  1  0.001348  0.001348  0.995957  1
  Ir  Ir23  1  0.001450  0.001450  0.496329  1
  Ir  Ir24  1  0.500771  0.001450  0.496329  1
  Ir  Ir25  1  0.001450  0.500771  0.496329  1
  Ir  Ir26  1  0.501469  0.501469  0.000746  1
  Ir  Ir27  1  0.996316  0.501469  0.000746  1
  Ir  Ir28  1  0.501469  0.996316  0.000746  1
