# generated using pymatgen
data_Lu2HfZr(Al3Ir)6
_symmetry_space_group_name_H-M   'P 1'
_cell_length_a   7.50198000
_cell_length_b   7.49270416
_cell_length_c   9.31157300
_cell_angle_alpha   90.00000000
_cell_angle_beta   90.00000000
_cell_angle_gamma   119.74099221
_symmetry_Int_Tables_number   1
_chemical_formula_structural   Lu2HfZr(Al3Ir)6
_chemical_formula_sum   'Lu2 Hf1 Zr1 Al18 Ir6'
_cell_volume   454.46008480
_cell_formula_units_Z   1
loop_
 _symmetry_equiv_pos_site_id
 _symmetry_equiv_pos_as_xyz
  1  'x, y, z'
loop_
 _atom_site_type_symbol
 _atom_site_label
 _atom_site_symmetry_multiplicity
 _atom_site_fract_x
 _atom_site_fract_y
 _atom_site_fract_z
 _atom_site_occupancy
  Lu  Lu0  1  0.670894  0.994401  0.250000  1
  Lu  Lu1  1  0.328996  0.005555  0.750000  1
  Hf  Hf2  1  0.004314  0.328121  0.750000  1
  Zr  Zr3  1  0.995326  0.671278  0.250000  1
  Al  Al4  1  0.125893  0.124334  0.250000  1
  Al  Al5  1  0.873924  0.875644  0.750000  1
  Al  Al6  1  0.999581  0.336506  0.076164  1
  Al  Al7  1  0.000512  0.663400  0.923853  1
  Al  Al8  1  0.000512  0.663400  0.576147  1
  Al  Al9  1  0.333125  0.998610  0.421796  1
  Al  Al10  1  0.999581  0.336506  0.423836  1
  Al  Al11  1  0.667001  0.001512  0.578361  1
  Al  Al12  1  0.667001  0.001512  0.921639  1
  Al  Al13  1  0.333125  0.998610  0.078204  1
  Al  Al14  1  0.331313  0.333193  0.558149  1
  Al  Al15  1  0.668584  0.666840  0.442020  1
  Al  Al16  1  0.668584  0.666840  0.057980  1
  Al  Al17  1  0.331313  0.333193  0.941851  1
  Al  Al18  1  0.335442  0.548771  0.250000  1
  Al  Al19  1  0.664615  0.451376  0.750000  1
  Al  Al20  1  0.553667  0.342674  0.250000  1
  Al  Al21  1  0.446199  0.657124  0.750000  1
  Ir  Ir22  1  0.672519  0.327024  0.999147  1
  Ir  Ir23  1  0.327631  0.672688  0.000138  1
  Ir  Ir24  1  0.327631  0.672688  0.499862  1
  Ir  Ir25  1  0.672519  0.327024  0.500853  1
  Ir  Ir26  1  0.000099  0.000587  0.999539  1
  Ir  Ir27  1  0.000099  0.000587  0.500461  1
