# generated using pymatgen
data_Er4InPt10Au
_symmetry_space_group_name_H-M   'P 1'
_cell_length_a   4.20926500
_cell_length_b   5.82749574
_cell_length_c   11.65411796
_cell_angle_alpha   86.97463290
_cell_angle_beta   90.00000000
_cell_angle_gamma   90.00000000
_symmetry_Int_Tables_number   1
_chemical_formula_structural   Er4InPt10Au
_chemical_formula_sum   'Er4 In1 Pt10 Au1'
_cell_volume   285.47095596
_cell_formula_units_Z   1
loop_
 _symmetry_equiv_pos_site_id
 _symmetry_equiv_pos_as_xyz
  1  'x, y, z'
loop_
 _atom_site_type_symbol
 _atom_site_label
 _atom_site_symmetry_multiplicity
 _atom_site_fract_x
 _atom_site_fract_y
 _atom_site_fract_z
 _atom_site_occupancy
  Er  Er0  1  0.500000  0.748272  0.371900  1
  Er  Er1  1  0.500000  0.720009  0.862711  1
  Er  Er2  1  0.500000  0.279991  0.137289  1
  Er  Er3  1  0.500000  0.251728  0.628100  1
  In  In4  1  0.000000  0.000000  0.000000  1
  Pt  Pt5  1  0.000000  0.011765  0.248857  1
  Pt  Pt6  1  0.000000  0.988235  0.751143  1
  Pt  Pt7  1  0.000000  0.500000  0.000000  1
  Pt  Pt8  1  0.000000  0.500000  0.500000  1
  Pt  Pt9  1  0.000000  0.513398  0.250664  1
  Pt  Pt10  1  0.000000  0.486602  0.749336  1
  Pt  Pt11  1  0.500000  0.253870  0.377658  1
  Pt  Pt12  1  0.500000  0.230104  0.880586  1
  Pt  Pt13  1  0.500000  0.769896  0.119414  1
  Pt  Pt14  1  0.500000  0.746130  0.622342  1
  Au  Au15  1  0.000000  0.000000  0.500000  1
