# generated using pymatgen
data_Cu2H7S
_symmetry_space_group_name_H-M   'P 1'
_cell_length_a   3.54045918
_cell_length_b   6.89186561
_cell_length_c   5.82002700
_cell_angle_alpha   83.02258370
_cell_angle_beta   72.40023382
_cell_angle_gamma   87.09669701
_symmetry_Int_Tables_number   1
_chemical_formula_structural   Cu2H7S
_chemical_formula_sum   'Cu2 H7 S1'
_cell_volume   134.34652070
_cell_formula_units_Z   1
loop_
 _symmetry_equiv_pos_site_id
 _symmetry_equiv_pos_as_xyz
  1  'x, y, z'
loop_
 _atom_site_type_symbol
 _atom_site_label
 _atom_site_symmetry_multiplicity
 _atom_site_fract_x
 _atom_site_fract_y
 _atom_site_fract_z
 _atom_site_occupancy
  Cu  Cu0  1  0.565744  0.262156  0.595469  1
  Cu  Cu1  1  0.219461  0.271568  0.281294  1
  H  H2  1  0.433187  0.961563  0.872250  1
  H  H3  1  0.708813  0.230819  0.308069  1
  H  H4  1  0.728737  0.501668  0.907536  1
  H  H5  1  0.775961  0.775590  0.233601  1
  H  H6  1  0.391524  0.896920  0.787171  1
  H  H7  1  0.075269  0.233354  0.576163  1
  H  H8  1  0.569398  0.752899  0.313268  1
  S  S9  1  0.373185  0.431127  0.913733  1
