# generated using pymatgen
data_Tm4GaTc6Ru
_symmetry_space_group_name_H-M   'P 1'
_cell_length_a   5.26142624
_cell_length_b   5.26142632
_cell_length_c   9.03822600
_cell_angle_alpha   89.99974782
_cell_angle_beta   90.00025294
_cell_angle_gamma   119.97871758
_symmetry_Int_Tables_number   1
_chemical_formula_structural   Tm4GaTc6Ru
_chemical_formula_sum   'Tm4 Ga1 Tc6 Ru1'
_cell_volume   216.72744182
_cell_formula_units_Z   1
loop_
 _symmetry_equiv_pos_site_id
 _symmetry_equiv_pos_as_xyz
  1  'x, y, z'
loop_
 _atom_site_type_symbol
 _atom_site_label
 _atom_site_symmetry_multiplicity
 _atom_site_fract_x
 _atom_site_fract_y
 _atom_site_fract_z
 _atom_site_occupancy
  Tm  Tm0  1  0.666667  0.333333  0.568534  1
  Tm  Tm1  1  0.333333  0.666667  0.431466  1
  Tm  Tm2  1  0.333294  0.666706  0.064391  1
  Tm  Tm3  1  0.666706  0.333294  0.935609  1
  Ga  Ga4  1  0.000000  0.000000  0.500000  1
  Tc  Tc5  1  0.170294  0.340556  0.748339  1
  Tc  Tc6  1  0.170299  0.829701  0.748338  1
  Tc  Tc7  1  0.659444  0.829706  0.748339  1
  Tc  Tc8  1  0.829706  0.659444  0.251661  1
  Tc  Tc9  1  0.829701  0.170299  0.251662  1
  Tc  Tc10  1  0.340556  0.170294  0.251661  1
  Ru  Ru11  1  0.000000  0.000000  0.000000  1
