# generated using pymatgen
data_La4Nd6Dy6Cd3AgPt4
_symmetry_space_group_name_H-M   'P 1'
_cell_length_a   9.95426751
_cell_length_b   9.95436207
_cell_length_c   9.95062200
_cell_angle_alpha   60.01216883
_cell_angle_beta   60.01235979
_cell_angle_gamma   60.02540772
_symmetry_Int_Tables_number   1
_chemical_formula_structural   La4Nd6Dy6Cd3AgPt4
_chemical_formula_sum   'La4 Nd6 Dy6 Cd3 Ag1 Pt4'
_cell_volume   697.46402011
_cell_formula_units_Z   1
loop_
 _symmetry_equiv_pos_site_id
 _symmetry_equiv_pos_as_xyz
  1  'x, y, z'
loop_
 _atom_site_type_symbol
 _atom_site_label
 _atom_site_symmetry_multiplicity
 _atom_site_fract_x
 _atom_site_fract_y
 _atom_site_fract_z
 _atom_site_occupancy
  La  La0  1  0.352490  0.352578  0.351684  1
  La  La1  1  0.353107  0.353067  0.942182  1
  La  La2  1  0.353807  0.940088  0.353436  1
  La  La3  1  0.940073  0.353799  0.353510  1
  Nd  Nd4  1  0.935290  0.563445  0.564544  1
  Nd  Nd5  1  0.563554  0.936777  0.934774  1
  Nd  Nd6  1  0.563507  0.935285  0.564544  1
  Nd  Nd7  1  0.936799  0.563501  0.934867  1
  Nd  Nd8  1  0.564345  0.564227  0.934103  1
  Nd  Nd9  1  0.936301  0.936367  0.563630  1
  Dy  Dy10  1  0.815050  0.184926  0.185743  1
  Dy  Dy11  1  0.184925  0.815107  0.814319  1
  Dy  Dy12  1  0.184990  0.814962  0.185752  1
  Dy  Dy13  1  0.815101  0.184912  0.814332  1
  Dy  Dy14  1  0.185393  0.185413  0.814659  1
  Dy  Dy15  1  0.814661  0.814680  0.185383  1
  Cd  Cd16  1  0.581165  0.581180  0.257260  1
  Cd  Cd17  1  0.581106  0.256843  0.581597  1
  Cd  Cd18  1  0.256730  0.581141  0.581595  1
  Ag  Ag19  1  0.581840  0.581864  0.581828  1
  Pt  Pt20  1  0.140457  0.140510  0.140915  1
  Pt  Pt21  1  0.140417  0.140433  0.578274  1
  Pt  Pt22  1  0.140232  0.578637  0.140534  1
  Pt  Pt23  1  0.578665  0.140258  0.140541  1
