# generated using pymatgen
data_Rb4Al3FeBr16
_symmetry_space_group_name_H-M   'P 1'
_cell_length_a   7.61212976
_cell_length_b   8.01343564
_cell_length_c   15.36630100
_cell_angle_alpha   85.36658647
_cell_angle_beta   90.20507097
_cell_angle_gamma   89.92969411
_symmetry_Int_Tables_number   1
_chemical_formula_structural   Rb4Al3FeBr16
_chemical_formula_sum   'Rb4 Al3 Fe1 Br16'
_cell_volume   934.26345794
_cell_formula_units_Z   1
loop_
 _symmetry_equiv_pos_site_id
 _symmetry_equiv_pos_as_xyz
  1  'x, y, z'
loop_
 _atom_site_type_symbol
 _atom_site_label
 _atom_site_symmetry_multiplicity
 _atom_site_fract_x
 _atom_site_fract_y
 _atom_site_fract_z
 _atom_site_occupancy
  Rb  Rb0  1  0.502277  0.257031  0.640772  1
  Rb  Rb1  1  0.002880  0.742716  0.859535  1
  Rb  Rb2  1  0.497395  0.742999  0.359022  1
  Rb  Rb3  1  0.996640  0.257201  0.140879  1
  Al  Al4  1  0.356413  0.247892  0.360814  1
  Al  Al5  1  0.856182  0.752876  0.139123  1
  Al  Al6  1  0.644063  0.752319  0.638941  1
  Fe  Fe7  1  0.143404  0.246193  0.861120  1
  Br  Br8  1  0.865659  0.147777  0.908520  1
  Br  Br9  1  0.369476  0.851589  0.591549  1
  Br  Br10  1  0.129430  0.852100  0.091854  1
  Br  Br11  1  0.630906  0.148648  0.408407  1
  Br  Br12  1  0.393612  0.406439  0.228161  1
  Br  Br13  1  0.894562  0.593776  0.271803  1
  Br  Br14  1  0.606943  0.592589  0.771150  1
  Br  Br15  1  0.106157  0.408660  0.726998  1
  Br  Br16  1  0.658340  0.968404  0.158390  1
  Br  Br17  1  0.159006  0.032351  0.341406  1
  Br  Br18  1  0.344389  0.028815  0.841296  1
  Br  Br19  1  0.841126  0.967673  0.658853  1
  Br  Br20  1  0.240511  0.415757  0.463265  1
  Br  Br21  1  0.740993  0.585174  0.036275  1
  Br  Br22  1  0.759713  0.584468  0.536456  1
  Br  Br23  1  0.259924  0.416554  0.965413  1
