# generated using pymatgen
data_YTm9In3Ni
_symmetry_space_group_name_H-M   'P 1'
_cell_length_a   9.60012400
_cell_length_b   9.60012304
_cell_length_c   9.64436400
_cell_angle_alpha   90.00007162
_cell_angle_beta   89.99992838
_cell_angle_gamma   119.97242038
_symmetry_Int_Tables_number   1
_chemical_formula_structural   YTm9In3Ni
_chemical_formula_sum   'Y2 Tm18 In6 Ni2'
_cell_volume   769.97831559
_cell_formula_units_Z   2
loop_
 _symmetry_equiv_pos_site_id
 _symmetry_equiv_pos_as_xyz
  1  'x, y, z'
loop_
 _atom_site_type_symbol
 _atom_site_label
 _atom_site_symmetry_multiplicity
 _atom_site_fract_x
 _atom_site_fract_y
 _atom_site_fract_z
 _atom_site_occupancy
  Y  Y0  1  0.457748  0.914401  0.750000  1
  Y  Y1  1  0.085600  0.542258  0.750001  1
  Tm  Tm2  1  0.999816  0.000188  0.499615  1
  Tm  Tm3  1  0.999816  0.000189  0.000385  1
  Tm  Tm4  1  0.211063  0.788938  0.436746  1
  Tm  Tm5  1  0.211963  0.422572  0.437712  1
  Tm  Tm6  1  0.577426  0.788037  0.437709  1
  Tm  Tm7  1  0.788335  0.211667  0.560905  1
  Tm  Tm8  1  0.787600  0.576757  0.560752  1
  Tm  Tm9  1  0.423243  0.212400  0.560753  1
  Tm  Tm10  1  0.788334  0.211668  0.939093  1
  Tm  Tm11  1  0.787599  0.576759  0.939250  1
  Tm  Tm12  1  0.423242  0.212401  0.939248  1
  Tm  Tm13  1  0.211063  0.788937  0.063254  1
  Tm  Tm14  1  0.211964  0.422571  0.062288  1
  Tm  Tm15  1  0.577427  0.788035  0.062290  1
  Tm  Tm16  1  0.543149  0.456874  0.249999  1
  Tm  Tm17  1  0.542993  0.086174  0.250000  1
  Tm  Tm18  1  0.913825  0.457017  0.250000  1
  Tm  Tm19  1  0.458468  0.541536  0.750000  1
  In  In20  1  0.883724  0.116290  0.250000  1
  In  In21  1  0.883544  0.767501  0.250001  1
  In  In22  1  0.232519  0.116467  0.250001  1
  In  In23  1  0.115429  0.884586  0.749997  1
  In  In24  1  0.116982  0.231703  0.750000  1
  In  In25  1  0.768301  0.883025  0.750000  1
  Ni  Ni26  1  0.333588  0.666317  0.250002  1
  Ni  Ni27  1  0.665238  0.334733  0.749999  1
