# generated using pymatgen
data_YScCo6(SiB)2
_symmetry_space_group_name_H-M   'P 1'
_cell_length_a   5.08691800
_cell_length_b   5.08691868
_cell_length_c   6.42023900
_cell_angle_alpha   90.00000000
_cell_angle_beta   90.00000000
_cell_angle_gamma   119.99999558
_symmetry_Int_Tables_number   1
_chemical_formula_structural   YScCo6(SiB)2
_chemical_formula_sum   'Y1 Sc1 Co6 Si2 B2'
_cell_volume   143.87700156
_cell_formula_units_Z   1
loop_
 _symmetry_equiv_pos_site_id
 _symmetry_equiv_pos_as_xyz
  1  'x, y, z'
loop_
 _atom_site_type_symbol
 _atom_site_label
 _atom_site_symmetry_multiplicity
 _atom_site_fract_x
 _atom_site_fract_y
 _atom_site_fract_z
 _atom_site_occupancy
  Y  Y0  1  0.000000  0.000000  0.000000  1
  Sc  Sc1  1  0.000000  0.000000  0.500000  1
  Co  Co2  1  0.500000  0.000000  0.285495  1
  Co  Co3  1  0.500000  0.500000  0.285495  1
  Co  Co4  1  0.000000  0.500000  0.285495  1
  Co  Co5  1  0.500000  0.000000  0.714505  1
  Co  Co6  1  0.500000  0.500000  0.714505  1
  Co  Co7  1  0.000000  0.500000  0.714505  1
  Si  Si8  1  0.333333  0.666667  0.000000  1
  Si  Si9  1  0.666667  0.333333  0.000000  1
  B  B10  1  0.666667  0.333333  0.500000  1
  B  B11  1  0.333333  0.666667  0.500000  1
