# generated using pymatgen
data_Nd20Ir9Pd2Au
_symmetry_space_group_name_H-M   'P 1'
_cell_length_a   11.41781200
_cell_length_b   11.41781163
_cell_length_c   6.53649275
_cell_angle_alpha   90.02586491
_cell_angle_beta   90.02586199
_cell_angle_gamma   89.53150847
_symmetry_Int_Tables_number   1
_chemical_formula_structural   Nd20Ir9Pd2Au
_chemical_formula_sum   'Nd20 Ir9 Pd2 Au1'
_cell_volume   852.11054332
_cell_formula_units_Z   1
loop_
 _symmetry_equiv_pos_site_id
 _symmetry_equiv_pos_as_xyz
  1  'x, y, z'
loop_
 _atom_site_type_symbol
 _atom_site_label
 _atom_site_symmetry_multiplicity
 _atom_site_fract_x
 _atom_site_fract_y
 _atom_site_fract_z
 _atom_site_occupancy
  Nd  Nd0  1  0.093374  0.290837  0.116423  1
  Nd  Nd1  1  0.791070  0.413697  0.118258  1
  Nd  Nd2  1  0.206495  0.578140  0.126763  1
  Nd  Nd3  1  0.902324  0.704997  0.116815  1
  Nd  Nd4  1  0.421860  0.793505  0.373237  1
  Nd  Nd5  1  0.586303  0.208930  0.381742  1
  Nd  Nd6  1  0.295003  0.097676  0.383185  1
  Nd  Nd7  1  0.709163  0.906626  0.383577  1
  Nd  Nd8  1  0.409257  0.210267  0.883961  1
  Nd  Nd9  1  0.702538  0.090026  0.872372  1
  Nd  Nd10  1  0.297292  0.919663  0.865911  1
  Nd  Nd11  1  0.597008  0.794359  0.884963  1
  Nd  Nd12  1  0.080337  0.702708  0.634089  1
  Nd  Nd13  1  0.909974  0.297462  0.627628  1
  Nd  Nd14  1  0.205641  0.402992  0.615037  1
  Nd  Nd15  1  0.789733  0.590743  0.616039  1
  Nd  Nd16  1  0.997169  0.001197  0.998764  1
  Nd  Nd17  1  0.503071  0.498755  0.998229  1
  Nd  Nd18  1  0.501245  0.496929  0.501771  1
  Nd  Nd19  1  0.998803  0.002831  0.501236  1
  Ir  Ir20  1  0.346872  0.349370  0.249810  1
  Ir  Ir21  1  0.650630  0.653128  0.250190  1
  Ir  Ir22  1  0.151351  0.149630  0.749497  1
  Ir  Ir23  1  0.850370  0.848649  0.750503  1
  Ir  Ir24  1  0.656068  0.343932  0.750000  1
  Ir  Ir25  1  0.999868  0.500614  0.377615  1
  Ir  Ir26  1  0.499386  0.000132  0.122385  1
  Ir  Ir27  1  0.500759  0.998469  0.617600  1
  Ir  Ir28  1  0.001531  0.499241  0.882400  1
  Pd  Pd29  1  0.843174  0.156826  0.250000  1
  Pd  Pd30  1  0.344038  0.655962  0.750000  1
  Au  Au31  1  0.158298  0.841702  0.250000  1
