# generated using pymatgen
data_Y6Ga7Co16
_symmetry_space_group_name_H-M   'P 1'
_cell_length_a   8.51127367
_cell_length_b   8.51502449
_cell_length_c   8.51482528
_cell_angle_alpha   60.01821223
_cell_angle_beta   60.00364481
_cell_angle_gamma   60.00518052
_symmetry_Int_Tables_number   1
_chemical_formula_structural   Y6Ga7Co16
_chemical_formula_sum   'Y6 Ga7 Co16'
_cell_volume   436.44538991
_cell_formula_units_Z   1
loop_
 _symmetry_equiv_pos_site_id
 _symmetry_equiv_pos_as_xyz
  1  'x, y, z'
loop_
 _atom_site_type_symbol
 _atom_site_label
 _atom_site_symmetry_multiplicity
 _atom_site_fract_x
 _atom_site_fract_y
 _atom_site_fract_z
 _atom_site_occupancy
  Y  Y0  1  0.719452  0.719630  0.280393  1
  Y  Y1  1  0.280574  0.719583  0.280365  1
  Y  Y2  1  0.719493  0.280485  0.280455  1
  Y  Y3  1  0.280548  0.280370  0.719607  1
  Y  Y4  1  0.719426  0.280417  0.719635  1
  Y  Y5  1  0.280507  0.719515  0.719545  1
  Ga  Ga6  1  0.000000  0.000000  0.000000  1
  Ga  Ga7  1  0.000000  0.000000  0.500000  1
  Ga  Ga8  1  0.500000  0.000000  0.500000  1
  Ga  Ga9  1  0.000000  0.500000  0.500000  1
  Ga  Ga10  1  0.500000  0.500000  0.000000  1
  Ga  Ga11  1  0.000000  0.500000  0.000000  1
  Ga  Ga12  1  0.500000  0.000000  0.000000  1
  Co  Co13  1  0.873162  0.873174  0.380516  1
  Co  Co14  1  0.873111  0.380603  0.873141  1
  Co  Co15  1  0.380511  0.873147  0.873169  1
  Co  Co16  1  0.873165  0.873172  0.873144  1
  Co  Co17  1  0.126838  0.126826  0.619484  1
  Co  Co18  1  0.126889  0.619397  0.126859  1
  Co  Co19  1  0.619489  0.126853  0.126831  1
  Co  Co20  1  0.126835  0.126828  0.126856  1
  Co  Co21  1  0.679086  0.679148  0.962644  1
  Co  Co22  1  0.679083  0.962680  0.679105  1
  Co  Co23  1  0.962599  0.679151  0.679112  1
  Co  Co24  1  0.679085  0.679148  0.679095  1
  Co  Co25  1  0.320914  0.320852  0.037356  1
  Co  Co26  1  0.320917  0.037320  0.320895  1
  Co  Co27  1  0.037401  0.320849  0.320888  1
  Co  Co28  1  0.320915  0.320852  0.320905  1
