# generated using pymatgen
data_Tm2Th3In3P
_symmetry_space_group_name_H-M   'P 1'
_cell_length_a   9.35777400
_cell_length_b   9.35777349
_cell_length_c   6.58162100
_cell_angle_alpha   90.00000000
_cell_angle_beta   90.00000000
_cell_angle_gamma   119.99999472
_symmetry_Int_Tables_number   1
_chemical_formula_structural   Tm2Th3In3P
_chemical_formula_sum   'Tm4 Th6 In6 P2'
_cell_volume   499.12417570
_cell_formula_units_Z   2
loop_
 _symmetry_equiv_pos_site_id
 _symmetry_equiv_pos_as_xyz
  1  'x, y, z'
loop_
 _atom_site_type_symbol
 _atom_site_label
 _atom_site_symmetry_multiplicity
 _atom_site_fract_x
 _atom_site_fract_y
 _atom_site_fract_z
 _atom_site_occupancy
  Tm  Tm0  1  0.666667  0.333333  0.000000  1
  Tm  Tm1  1  0.333333  0.666667  0.000000  1
  Tm  Tm2  1  0.333333  0.666667  0.500000  1
  Tm  Tm3  1  0.666667  0.333333  0.500000  1
  Th  Th4  1  0.750558  0.750558  0.750000  1
  Th  Th5  1  0.249442  0.000000  0.750000  1
  Th  Th6  1  0.000000  0.249442  0.750000  1
  Th  Th7  1  0.249442  0.249442  0.250000  1
  Th  Th8  1  0.750558  0.000000  0.250000  1
  Th  Th9  1  0.000000  0.750558  0.250000  1
  In  In10  1  0.399973  0.399973  0.750000  1
  In  In11  1  0.600027  0.000000  0.750000  1
  In  In12  1  0.000000  0.600027  0.750000  1
  In  In13  1  0.600027  0.600027  0.250000  1
  In  In14  1  0.399973  0.000000  0.250000  1
  In  In15  1  0.000000  0.399973  0.250000  1
  P  P16  1  0.000000  0.000000  0.000000  1
  P  P17  1  0.000000  0.000000  0.500000  1
