# generated using pymatgen
data_Ho3ZnCo2Sn3
_symmetry_space_group_name_H-M   'P 1'
_cell_length_a   7.46121800
_cell_length_b   7.46121671
_cell_length_c   3.80627500
_cell_angle_alpha   90.00000000
_cell_angle_beta   90.00000000
_cell_angle_gamma   119.99999565
_symmetry_Int_Tables_number   1
_chemical_formula_structural   Ho3ZnCo2Sn3
_chemical_formula_sum   'Ho3 Zn1 Co2 Sn3'
_cell_volume   183.50596964
_cell_formula_units_Z   1
loop_
 _symmetry_equiv_pos_site_id
 _symmetry_equiv_pos_as_xyz
  1  'x, y, z'
loop_
 _atom_site_type_symbol
 _atom_site_label
 _atom_site_symmetry_multiplicity
 _atom_site_fract_x
 _atom_site_fract_y
 _atom_site_fract_z
 _atom_site_occupancy
  Ho  Ho0  1  0.392215  0.411547  0.500000  1
  Ho  Ho1  1  0.588453  0.980668  0.500000  1
  Ho  Ho2  1  0.019332  0.607785  0.500000  1
  Zn  Zn3  1  0.666667  0.333333  0.000000  1
  Co  Co4  1  0.333333  0.666667  0.000000  1
  Co  Co5  1  0.000000  0.000000  0.500000  1
  Sn  Sn6  1  0.744783  0.746461  0.000000  1
  Sn  Sn7  1  0.253539  0.998322  0.000000  1
  Sn  Sn8  1  0.001678  0.255217  0.000000  1
