# generated using pymatgen
data_Ti12Re6Ir5Os
_symmetry_space_group_name_H-M   'P 1'
_cell_length_a   4.39370600
_cell_length_b   6.22445200
_cell_length_c   13.21699000
_cell_angle_alpha   89.99998646
_cell_angle_beta   90.00028650
_cell_angle_gamma   90.00031297
_symmetry_Int_Tables_number   1
_chemical_formula_structural   Ti12Re6Ir5Os
_chemical_formula_sum   'Ti12 Re6 Ir5 Os1'
_cell_volume   361.46368922
_cell_formula_units_Z   1
loop_
 _symmetry_equiv_pos_site_id
 _symmetry_equiv_pos_as_xyz
  1  'x, y, z'
loop_
 _atom_site_type_symbol
 _atom_site_label
 _atom_site_symmetry_multiplicity
 _atom_site_fract_x
 _atom_site_fract_y
 _atom_site_fract_z
 _atom_site_occupancy
  Ti  Ti0  1  0.500052  0.249311  0.997923  1
  Ti  Ti1  1  0.500056  0.750629  0.998122  1
  Ti  Ti2  1  0.999970  0.250166  0.166149  1
  Ti  Ti3  1  0.000084  0.749804  0.166160  1
  Ti  Ti4  1  0.500252  0.250359  0.333568  1
  Ti  Ti5  1  0.500261  0.749618  0.333531  1
  Ti  Ti6  1  0.000006  0.250010  0.500512  1
  Ti  Ti7  1  0.000004  0.749953  0.500532  1
  Ti  Ti8  1  0.500131  0.249446  0.668600  1
  Ti  Ti9  1  0.500175  0.750625  0.668493  1
  Ti  Ti10  1  0.000037  0.246927  0.833117  1
  Ti  Ti11  1  0.999956  0.753156  0.833079  1
  Re  Re12  1  0.000015  0.999957  0.000619  1
  Re  Re13  1  0.499473  0.500322  0.166745  1
  Re  Re14  1  0.999811  0.999939  0.333668  1
  Re  Re15  1  0.499801  0.500067  0.500123  1
  Re  Re16  1  0.999673  0.999778  0.665959  1
  Re  Re17  1  0.500427  0.499966  0.833186  1
  Ir  Ir18  1  0.000138  0.500025  0.000274  1
  Ir  Ir19  1  0.499956  0.999906  0.166959  1
  Ir  Ir20  1  0.999883  0.500036  0.333351  1
  Ir  Ir21  1  0.500048  0.999957  0.499717  1
  Ir  Ir22  1  0.000026  0.500050  0.666462  1
  Os  Os23  1  0.499768  0.999998  0.833155  1
