# generated using pymatgen
data_YIn3B4SbIr9
_symmetry_space_group_name_H-M   'P 1'
_cell_length_a   5.61995200
_cell_length_b   5.61995269
_cell_length_c   10.49463500
_cell_angle_alpha   90.00000000
_cell_angle_beta   90.00000000
_cell_angle_gamma   119.99999592
_symmetry_Int_Tables_number   1
_chemical_formula_structural   YIn3B4SbIr9
_chemical_formula_sum   'Y1 In3 B4 Sb1 Ir9'
_cell_volume   287.05376945
_cell_formula_units_Z   1
loop_
 _symmetry_equiv_pos_site_id
 _symmetry_equiv_pos_as_xyz
  1  'x, y, z'
loop_
 _atom_site_type_symbol
 _atom_site_label
 _atom_site_symmetry_multiplicity
 _atom_site_fract_x
 _atom_site_fract_y
 _atom_site_fract_z
 _atom_site_occupancy
  Y  Y0  1  0.000000  0.000000  0.918933  1
  In  In1  1  0.666667  0.333333  0.505672  1
  In  In2  1  0.000000  0.000000  0.328583  1
  In  In3  1  0.333333  0.666667  0.505672  1
  B  B4  1  0.666667  0.333333  0.154682  1
  B  B5  1  0.333333  0.666667  0.864603  1
  B  B6  1  0.666667  0.333333  0.864603  1
  B  B7  1  0.333333  0.666667  0.154682  1
  Sb  Sb8  1  0.000000  0.000000  0.629296  1
  Ir  Ir9  1  0.000000  0.500086  0.281950  1
  Ir  Ir10  1  0.450024  0.000000  0.731758  1
  Ir  Ir11  1  0.500086  0.000000  0.281950  1
  Ir  Ir12  1  0.000000  0.493462  0.010716  1
  Ir  Ir13  1  0.549976  0.549976  0.731758  1
  Ir  Ir14  1  0.000000  0.450024  0.731758  1
  Ir  Ir15  1  0.506538  0.506538  0.010716  1
  Ir  Ir16  1  0.493462  0.000000  0.010716  1
  Ir  Ir17  1  0.499914  0.499914  0.281950  1
