# generated using pymatgen
data_Dy19YCd6FeNi
_symmetry_space_group_name_H-M   'P 1'
_cell_length_a   9.57463213
_cell_length_b   9.57194739
_cell_length_c   9.81306100
_cell_angle_alpha   90.00000000
_cell_angle_beta   90.00000000
_cell_angle_gamma   119.99071383
_symmetry_Int_Tables_number   1
_chemical_formula_structural   Dy19YCd6FeNi
_chemical_formula_sum   'Dy19 Y1 Cd6 Fe1 Ni1'
_cell_volume   778.92951521
_cell_formula_units_Z   1
loop_
 _symmetry_equiv_pos_site_id
 _symmetry_equiv_pos_as_xyz
  1  'x, y, z'
loop_
 _atom_site_type_symbol
 _atom_site_label
 _atom_site_symmetry_multiplicity
 _atom_site_fract_x
 _atom_site_fract_y
 _atom_site_fract_z
 _atom_site_occupancy
  Dy  Dy0  1  0.000029  0.000015  0.499959  1
  Dy  Dy1  1  0.000029  0.000015  0.000041  1
  Dy  Dy2  1  0.541668  0.458230  0.250000  1
  Dy  Dy3  1  0.541668  0.083438  0.250000  1
  Dy  Dy4  1  0.456422  0.543490  0.750000  1
  Dy  Dy5  1  0.456422  0.912932  0.750000  1
  Dy  Dy6  1  0.087108  0.543554  0.750000  1
  Dy  Dy7  1  0.212204  0.788149  0.436042  1
  Dy  Dy8  1  0.212204  0.424057  0.436042  1
  Dy  Dy9  1  0.575989  0.787995  0.435969  1
  Dy  Dy10  1  0.788919  0.210817  0.562564  1
  Dy  Dy11  1  0.788919  0.578101  0.562564  1
  Dy  Dy12  1  0.422007  0.211003  0.562439  1
  Dy  Dy13  1  0.788919  0.210817  0.937436  1
  Dy  Dy14  1  0.788919  0.578101  0.937436  1
  Dy  Dy15  1  0.422007  0.211003  0.937561  1
  Dy  Dy16  1  0.212204  0.788149  0.063958  1
  Dy  Dy17  1  0.212204  0.424057  0.063958  1
  Dy  Dy18  1  0.575989  0.787995  0.064031  1
  Y  Y19  1  0.916138  0.458069  0.250000  1
  Cd  Cd20  1  0.885046  0.114687  0.250000  1
  Cd  Cd21  1  0.885046  0.770359  0.250000  1
  Cd  Cd22  1  0.229862  0.114931  0.250000  1
  Cd  Cd23  1  0.114874  0.885079  0.750000  1
  Cd  Cd24  1  0.114874  0.229795  0.750000  1
  Cd  Cd25  1  0.770222  0.885111  0.750000  1
  Fe  Fe26  1  0.333488  0.666744  0.250000  1
  Ni  Ni27  1  0.666617  0.333308  0.750000  1
