# generated using pymatgen
data_La2YNiBr3
_symmetry_space_group_name_H-M   'P 1'
_cell_length_a   10.38285608
_cell_length_b   10.38285677
_cell_length_c   10.38285681
_cell_angle_alpha   107.92295930
_cell_angle_beta   107.92295975
_cell_angle_gamma   112.61420310
_symmetry_Int_Tables_number   1
_chemical_formula_structural   La2YNiBr3
_chemical_formula_sum   'La8 Y4 Ni4 Br12'
_cell_volume   859.68947209
_cell_formula_units_Z   4
loop_
 _symmetry_equiv_pos_site_id
 _symmetry_equiv_pos_as_xyz
  1  'x, y, z'
loop_
 _atom_site_type_symbol
 _atom_site_label
 _atom_site_symmetry_multiplicity
 _atom_site_fract_x
 _atom_site_fract_y
 _atom_site_fract_z
 _atom_site_occupancy
  La  La0  1  0.409120  0.404677  0.257464  1
  La  La1  1  0.147213  0.151657  0.742536  1
  La  La2  1  0.102787  0.345323  0.504443  1
  La  La3  1  0.840880  0.598343  0.495557  1
  La  La4  1  0.595323  0.590880  0.742536  1
  La  La5  1  0.848343  0.852787  0.257464  1
  La  La6  1  0.654677  0.897213  0.495557  1
  La  La7  1  0.401657  0.159120  0.504443  1
  Y  Y8  1  0.391781  0.608219  0.000000  1
  Y  Y9  1  0.608219  0.391781  0.000000  1
  Y  Y10  1  0.641781  0.141781  0.283562  1
  Y  Y11  1  0.858219  0.358219  0.716438  1
  Ni  Ni12  1  0.624947  0.624947  0.249894  1
  Ni  Ni13  1  0.375053  0.375053  0.750106  1
  Ni  Ni14  1  0.874947  0.125053  0.500000  1
  Ni  Ni15  1  0.625053  0.374947  0.500000  1
  Br  Br16  1  0.366182  0.633818  0.500000  1
  Br  Br17  1  0.133818  0.866182  0.500000  1
  Br  Br18  1  0.116182  0.116182  0.232364  1
  Br  Br19  1  0.883818  0.883818  0.767636  1
  Br  Br20  1  0.881992  0.612242  0.994069  1
  Br  Br21  1  0.618174  0.887922  0.005931  1
  Br  Br22  1  0.631826  0.137758  0.769749  1
  Br  Br23  1  0.368008  0.862078  0.230251  1
  Br  Br24  1  0.387758  0.118008  0.005931  1
  Br  Br25  1  0.112078  0.381826  0.994069  1
  Br  Br26  1  0.862242  0.368174  0.230251  1
  Br  Br27  1  0.137922  0.631992  0.769749  1
