# generated using pymatgen
data_La3ErAl18(OsPd2)2
_symmetry_space_group_name_H-M   'P 1'
_cell_length_a   7.68751490
_cell_length_b   7.70811385
_cell_length_c   9.62803400
_cell_angle_alpha   90.00000000
_cell_angle_beta   90.00000000
_cell_angle_gamma   119.37400412
_symmetry_Int_Tables_number   1
_chemical_formula_structural   La3ErAl18(OsPd2)2
_chemical_formula_sum   'La3 Er1 Al18 Os2 Pd4'
_cell_volume   497.17287782
_cell_formula_units_Z   1
loop_
 _symmetry_equiv_pos_site_id
 _symmetry_equiv_pos_as_xyz
  1  'x, y, z'
loop_
 _atom_site_type_symbol
 _atom_site_label
 _atom_site_symmetry_multiplicity
 _atom_site_fract_x
 _atom_site_fract_y
 _atom_site_fract_z
 _atom_site_occupancy
  La  La0  1  0.995328  0.671278  0.250000  1
  La  La1  1  0.003749  0.328717  0.750000  1
  La  La2  1  0.671811  0.993880  0.250000  1
  Er  Er3  1  0.326655  0.005205  0.750000  1
  Al  Al4  1  0.132554  0.129928  0.250000  1
  Al  Al5  1  0.873434  0.872252  0.750000  1
  Al  Al6  1  0.004667  0.330231  0.074889  1
  Al  Al7  1  0.001060  0.673670  0.920451  1
  Al  Al8  1  0.001060  0.673670  0.579549  1
  Al  Al9  1  0.330447  0.003093  0.429919  1
  Al  Al10  1  0.004667  0.330231  0.425111  1
  Al  Al11  1  0.665474  0.996998  0.578869  1
  Al  Al12  1  0.665474  0.996998  0.921131  1
  Al  Al13  1  0.330447  0.003093  0.070081  1
  Al  Al14  1  0.330561  0.327857  0.553548  1
  Al  Al15  1  0.669130  0.668943  0.457526  1
  Al  Al16  1  0.669130  0.668943  0.042474  1
  Al  Al17  1  0.330561  0.327857  0.946452  1
  Al  Al18  1  0.344644  0.544191  0.250000  1
  Al  Al19  1  0.651896  0.451061  0.750000  1
  Al  Al20  1  0.543806  0.341255  0.250000  1
  Al  Al21  1  0.453806  0.660862  0.750000  1
  Os  Os22  1  0.000727  0.000306  0.998084  1
  Os  Os23  1  0.000727  0.000306  0.501916  1
  Pd  Pd24  1  0.670657  0.328213  0.998382  1
  Pd  Pd25  1  0.328437  0.671374  0.998609  1
  Pd  Pd26  1  0.328437  0.671374  0.501391  1
  Pd  Pd27  1  0.670657  0.328213  0.501618  1
