# generated using pymatgen
data_CeNd7Ho8(CdRu)4
_symmetry_space_group_name_H-M   'P 1'
_cell_length_a   9.78676897
_cell_length_b   9.78676911
_cell_length_c   9.82203963
_cell_angle_alpha   59.14147971
_cell_angle_beta   59.14148721
_cell_angle_gamma   59.03859289
_symmetry_Int_Tables_number   1
_chemical_formula_structural   CeNd7Ho8(CdRu)4
_chemical_formula_sum   'Ce1 Nd7 Ho8 Cd4 Ru4'
_cell_volume   651.67963702
_cell_formula_units_Z   1
loop_
 _symmetry_equiv_pos_site_id
 _symmetry_equiv_pos_as_xyz
  1  'x, y, z'
loop_
 _atom_site_type_symbol
 _atom_site_label
 _atom_site_symmetry_multiplicity
 _atom_site_fract_x
 _atom_site_fract_y
 _atom_site_fract_z
 _atom_site_occupancy
  Ce  Ce0  1  0.340925  0.340925  0.337540  1
  Nd  Nd1  1  0.560039  0.560039  0.939854  1
  Nd  Nd2  1  0.940717  0.559083  0.942805  1
  Nd  Nd3  1  0.559083  0.940717  0.942805  1
  Nd  Nd4  1  0.941809  0.941809  0.557359  1
  Nd  Nd5  1  0.561206  0.939493  0.558074  1
  Nd  Nd6  1  0.939493  0.561206  0.558074  1
  Nd  Nd7  1  0.187297  0.187297  0.814411  1
  Ho  Ho8  1  0.811557  0.186848  0.812879  1
  Ho  Ho9  1  0.186847  0.811558  0.812879  1
  Ho  Ho10  1  0.813836  0.813837  0.187050  1
  Ho  Ho11  1  0.186734  0.812582  0.189999  1
  Ho  Ho12  1  0.812582  0.186735  0.190000  1
  Ho  Ho13  1  0.345712  0.345712  0.961988  1
  Ho  Ho14  1  0.345070  0.960573  0.345701  1
  Ho  Ho15  1  0.960573  0.345070  0.345701  1
  Cd  Cd16  1  0.578751  0.578751  0.261565  1
  Cd  Cd17  1  0.580146  0.262098  0.578009  1
  Cd  Cd18  1  0.262098  0.580146  0.578009  1
  Cd  Cd19  1  0.578647  0.578647  0.579038  1
  Ru  Ru20  1  0.144793  0.144793  0.574852  1
  Ru  Ru21  1  0.146336  0.576150  0.145207  1
  Ru  Ru22  1  0.576150  0.146336  0.145207  1
  Ru  Ru23  1  0.139598  0.139598  0.140990  1
