# generated using pymatgen
data_Sc3Al3GeAu2
_symmetry_space_group_name_H-M   'P 1'
_cell_length_a   6.79873800
_cell_length_b   6.79873815
_cell_length_c   8.33341200
_cell_angle_alpha   90.00000000
_cell_angle_beta   90.00000000
_cell_angle_gamma   119.99999925
_symmetry_Int_Tables_number   1
_chemical_formula_structural   Sc3Al3GeAu2
_chemical_formula_sum   'Sc6 Al6 Ge2 Au4'
_cell_volume   333.58776150
_cell_formula_units_Z   2
loop_
 _symmetry_equiv_pos_site_id
 _symmetry_equiv_pos_as_xyz
  1  'x, y, z'
loop_
 _atom_site_type_symbol
 _atom_site_label
 _atom_site_symmetry_multiplicity
 _atom_site_fract_x
 _atom_site_fract_y
 _atom_site_fract_z
 _atom_site_occupancy
  Sc  Sc0  1  0.575402  0.999802  0.750000  1
  Sc  Sc1  1  0.000198  0.575600  0.750000  1
  Sc  Sc2  1  0.424400  0.424598  0.750000  1
  Sc  Sc3  1  0.998894  0.576015  0.250000  1
  Sc  Sc4  1  0.577122  0.001106  0.250000  1
  Sc  Sc5  1  0.423985  0.422878  0.250000  1
  Al  Al6  1  0.747467  0.759452  0.000085  1
  Al  Al7  1  0.240548  0.988014  0.000085  1
  Al  Al8  1  0.011986  0.252533  0.000085  1
  Al  Al9  1  0.747467  0.759452  0.499915  1
  Al  Al10  1  0.240548  0.988014  0.499915  1
  Al  Al11  1  0.011986  0.252533  0.499915  1
  Ge  Ge12  1  0.666667  0.333333  0.999743  1
  Ge  Ge13  1  0.666667  0.333333  0.500257  1
  Au  Au14  1  0.000000  0.000000  0.750000  1
  Au  Au15  1  0.000000  0.000000  0.250000  1
  Au  Au16  1  0.333333  0.666667  0.498873  1
  Au  Au17  1  0.333333  0.666667  0.001127  1
