# generated using pymatgen
data_Ca5Cd3(B2O5)4
_symmetry_space_group_name_H-M   'P 1'
_cell_length_a   6.40829506
_cell_length_b   3.56655726
_cell_length_c   19.42697443
_cell_angle_alpha   87.10574734
_cell_angle_beta   90.33615002
_cell_angle_gamma   89.85127567
_symmetry_Int_Tables_number   1
_chemical_formula_structural   Ca5Cd3(B2O5)4
_chemical_formula_sum   'Ca5 Cd3 B8 O20'
_cell_volume   443.43834662
_cell_formula_units_Z   1
loop_
 _symmetry_equiv_pos_site_id
 _symmetry_equiv_pos_as_xyz
  1  'x, y, z'
loop_
 _atom_site_type_symbol
 _atom_site_label
 _atom_site_symmetry_multiplicity
 _atom_site_fract_x
 _atom_site_fract_y
 _atom_site_fract_z
 _atom_site_occupancy
  Ca  Ca0  1  0.048661  0.711493  0.210465  1
  Ca  Ca1  1  0.693193  0.246034  0.562334  1
  Ca  Ca2  1  0.194508  0.753569  0.937753  1
  Ca  Ca3  1  0.306620  0.753298  0.438070  1
  Ca  Ca4  1  0.806571  0.246815  0.061530  1
  Cd  Cd5  1  0.451808  0.712878  0.710391  1
  Cd  Cd6  1  0.951573  0.287617  0.789562  1
  Cd  Cd7  1  0.550443  0.287308  0.289786  1
  B  B8  1  0.964065  0.831657  0.657353  1
  B  B9  1  0.463290  0.168814  0.842433  1
  B  B10  1  0.031841  0.164920  0.343217  1
  B  B11  1  0.538506  0.832933  0.156968  1
  B  B12  1  0.753032  0.826927  0.916429  1
  B  B13  1  0.252398  0.172533  0.583510  1
  B  B14  1  0.247693  0.176984  0.082871  1
  B  B15  1  0.746990  0.826615  0.417312  1
  O  O16  1  0.305331  0.241559  0.516147  1
  O  O17  1  0.806508  0.757657  0.983916  1
  O  O18  1  0.692451  0.757281  0.484445  1
  O  O19  1  0.193393  0.240194  0.015269  1
  O  O20  1  0.395974  0.221401  0.635029  1
  O  O21  1  0.895746  0.778775  0.865137  1
  O  O22  1  0.604053  0.777270  0.365494  1
  O  O23  1  0.108374  0.232314  0.134496  1
  O  O24  1  0.765239  0.713174  0.645881  1
  O  O25  1  0.264666  0.288089  0.853630  1
  O  O26  1  0.231483  0.289064  0.353060  1
  O  O27  1  0.737424  0.713412  0.146437  1
  O  O28  1  0.049942  0.032845  0.598601  1
  O  O29  1  0.549882  0.966225  0.901214  1
  O  O30  1  0.949629  0.968261  0.403067  1
  O  O31  1  0.451403  0.034761  0.098019  1
  O  O32  1  0.072471  0.778899  0.718745  1
  O  O33  1  0.571580  0.221955  0.781431  1
  O  O34  1  0.923698  0.205302  0.282185  1
  O  O35  1  0.429560  0.781166  0.217815  1
