# generated using pymatgen
data_MnNb2Os3
_symmetry_space_group_name_H-M   'P 1'
_cell_length_a   5.09451556
_cell_length_b   5.01901842
_cell_length_c   8.34422900
_cell_angle_alpha   90.00000000
_cell_angle_beta   90.00000000
_cell_angle_gamma   119.51099275
_symmetry_Int_Tables_number   1
_chemical_formula_structural   MnNb2Os3
_chemical_formula_sum   'Mn2 Nb4 Os6'
_cell_volume   185.67674746
_cell_formula_units_Z   2
loop_
 _symmetry_equiv_pos_site_id
 _symmetry_equiv_pos_as_xyz
  1  'x, y, z'
loop_
 _atom_site_type_symbol
 _atom_site_label
 _atom_site_symmetry_multiplicity
 _atom_site_fract_x
 _atom_site_fract_y
 _atom_site_fract_z
 _atom_site_occupancy
  Mn  Mn0  1  0.829875  0.656856  0.250000  1
  Mn  Mn1  1  0.170125  0.826981  0.750000  1
  Nb  Nb2  1  0.332430  0.668082  0.432462  1
  Nb  Nb3  1  0.667570  0.335651  0.932462  1
  Nb  Nb4  1  0.667570  0.335651  0.567538  1
  Nb  Nb5  1  0.332430  0.668082  0.067538  1
  Os  Os6  1  0.169066  0.346735  0.750000  1
  Os  Os7  1  0.830934  0.177668  0.250000  1
  Os  Os8  1  0.351527  0.183213  0.250000  1
  Os  Os9  1  0.648473  0.831686  0.750000  1
  Os  Os10  1  0.000000  0.984697  0.000000  1
  Os  Os11  1  0.000000  0.984697  0.500000  1
