# generated using pymatgen
data_Tb8Cu(Si4Ni)3
_symmetry_space_group_name_H-M   'P 1'
_cell_length_a   7.96113800
_cell_length_b   7.96113772
_cell_length_c   8.13942000
_cell_angle_alpha   90.00000000
_cell_angle_beta   90.00000000
_cell_angle_gamma   119.99997848
_symmetry_Int_Tables_number   1
_chemical_formula_structural   Tb8Cu(Si4Ni)3
_chemical_formula_sum   'Tb8 Cu1 Si12 Ni3'
_cell_volume   446.76019683
_cell_formula_units_Z   1
loop_
 _symmetry_equiv_pos_site_id
 _symmetry_equiv_pos_as_xyz
  1  'x, y, z'
loop_
 _atom_site_type_symbol
 _atom_site_label
 _atom_site_symmetry_multiplicity
 _atom_site_fract_x
 _atom_site_fract_y
 _atom_site_fract_z
 _atom_site_occupancy
  Tb  Tb0  1  0.501365  0.002730  0.248293  1
  Tb  Tb1  1  0.501049  0.002098  0.751714  1
  Tb  Tb2  1  0.997270  0.498635  0.248294  1
  Tb  Tb3  1  0.997902  0.498951  0.751714  1
  Tb  Tb4  1  0.501365  0.498635  0.248294  1
  Tb  Tb5  1  0.501049  0.498951  0.751714  1
  Tb  Tb6  1  0.000000  0.000000  0.248924  1
  Tb  Tb7  1  0.000000  0.000000  0.751066  1
  Cu  Cu8  1  0.333334  0.666667  0.499657  1
  Si  Si9  1  0.171100  0.342200  0.000239  1
  Si  Si10  1  0.828993  0.657986  0.999817  1
  Si  Si11  1  0.657800  0.828900  0.000239  1
  Si  Si12  1  0.827950  0.655900  0.500126  1
  Si  Si13  1  0.342014  0.171007  0.999817  1
  Si  Si14  1  0.167915  0.335830  0.499838  1
  Si  Si15  1  0.171100  0.828900  0.000239  1
  Si  Si16  1  0.344100  0.172050  0.500126  1
  Si  Si17  1  0.828993  0.171007  0.999817  1
  Si  Si18  1  0.664170  0.832085  0.499838  1
  Si  Si19  1  0.827950  0.172050  0.500126  1
  Si  Si20  1  0.167915  0.832085  0.499838  1
  Ni  Ni21  1  0.333333  0.666667  0.000277  1
  Ni  Ni22  1  0.666666  0.333334  0.999293  1
  Ni  Ni23  1  0.666666  0.333334  0.500697  1
