# generated using pymatgen
data_Ti4Os3Ru
_symmetry_space_group_name_H-M   'P 1'
_cell_length_a   4.37854700
_cell_length_b   12.36747900
_cell_length_c   4.37490000
_cell_angle_alpha   90.00000000
_cell_angle_beta   90.00000000
_cell_angle_gamma   90.00143779
_symmetry_Int_Tables_number   1
_chemical_formula_structural   Ti4Os3Ru
_chemical_formula_sum   'Ti8 Os6 Ru2'
_cell_volume   236.90778262
_cell_formula_units_Z   2
loop_
 _symmetry_equiv_pos_site_id
 _symmetry_equiv_pos_as_xyz
  1  'x, y, z'
loop_
 _atom_site_type_symbol
 _atom_site_label
 _atom_site_symmetry_multiplicity
 _atom_site_fract_x
 _atom_site_fract_y
 _atom_site_fract_z
 _atom_site_occupancy
  Ti  Ti0  1  0.917484  0.000006  0.000000  1
  Ti  Ti1  1  0.915905  0.250012  0.000000  1
  Ti  Ti2  1  0.915917  0.499977  0.000000  1
  Ti  Ti3  1  0.917472  0.749981  0.000000  1
  Ti  Ti4  1  0.417409  0.000009  0.500000  1
  Ti  Ti5  1  0.415844  0.249988  0.500000  1
  Ti  Ti6  1  0.415850  0.500009  0.500000  1
  Ti  Ti7  1  0.417408  0.750020  0.500000  1
  Os  Os8  1  0.416687  0.624868  0.000000  1
  Os  Os9  1  0.417575  0.875132  0.000000  1
  Os  Os10  1  0.916641  0.125072  0.500000  1
  Os  Os11  1  0.915758  0.374930  0.500000  1
  Os  Os12  1  0.916642  0.624935  0.500000  1
  Os  Os13  1  0.917526  0.875063  0.500000  1
  Ru  Ru14  1  0.416677  0.125117  0.000000  1
  Ru  Ru15  1  0.415794  0.374883  0.000000  1
