# generated using pymatgen
data_Tb3Y2(GaTe)2
_symmetry_space_group_name_H-M   'P 1'
_cell_length_a   8.68121468
_cell_length_b   8.67378580
_cell_length_c   7.95855200
_cell_angle_alpha   90.00064735
_cell_angle_beta   90.04504482
_cell_angle_gamma   125.37825691
_symmetry_Int_Tables_number   1
_chemical_formula_structural   Tb3Y2(GaTe)2
_chemical_formula_sum   'Tb6 Y4 Ga4 Te4'
_cell_volume   488.61390542
_cell_formula_units_Z   2
loop_
 _symmetry_equiv_pos_site_id
 _symmetry_equiv_pos_as_xyz
  1  'x, y, z'
loop_
 _atom_site_type_symbol
 _atom_site_label
 _atom_site_symmetry_multiplicity
 _atom_site_fract_x
 _atom_site_fract_y
 _atom_site_fract_z
 _atom_site_occupancy
  Tb  Tb0  1  0.040748  0.296782  0.331792  1
  Tb  Tb1  1  0.959252  0.703218  0.668208  1
  Tb  Tb2  1  0.459072  0.202961  0.831751  1
  Tb  Tb3  1  0.796643  0.540567  0.168053  1
  Tb  Tb4  1  0.540928  0.797039  0.168249  1
  Tb  Tb5  1  0.203357  0.459433  0.831947  1
  Y  Y6  1  0.704139  0.959281  0.667968  1
  Y  Y7  1  0.295861  0.040719  0.332032  1
  Y  Y8  1  0.000000  0.000000  0.000000  1
  Y  Y9  1  0.500000  0.500000  0.500000  1
  Ga  Ga10  1  0.374629  0.374719  0.124331  1
  Ga  Ga11  1  0.625371  0.625281  0.875669  1
  Ga  Ga12  1  0.125637  0.125727  0.624409  1
  Ga  Ga13  1  0.874363  0.874273  0.375591  1
  Te  Te14  1  0.795487  0.204427  0.999373  1
  Te  Te15  1  0.204513  0.795573  0.000627  1
  Te  Te16  1  0.703919  0.294638  0.499690  1
  Te  Te17  1  0.296081  0.705362  0.500310  1
