# generated using pymatgen
data_Mg3Fe3(B2Rh5)2
_symmetry_space_group_name_H-M   'P 1'
_cell_length_a   9.37343166
_cell_length_b   9.37343166
_cell_length_c   2.93017500
_cell_angle_alpha   90.00000000
_cell_angle_beta   90.00000000
_cell_angle_gamma   90.42234303
_symmetry_Int_Tables_number   1
_chemical_formula_structural   Mg3Fe3(B2Rh5)2
_chemical_formula_sum   'Mg3 Fe3 B4 Rh10'
_cell_volume   257.44175941
_cell_formula_units_Z   1
loop_
 _symmetry_equiv_pos_site_id
 _symmetry_equiv_pos_as_xyz
  1  'x, y, z'
loop_
 _atom_site_type_symbol
 _atom_site_label
 _atom_site_symmetry_multiplicity
 _atom_site_fract_x
 _atom_site_fract_y
 _atom_site_fract_z
 _atom_site_occupancy
  Mg  Mg0  1  0.324304  0.824304  0.000000  1
  Mg  Mg1  1  0.177262  0.323093  0.000000  1
  Mg  Mg2  1  0.823093  0.677262  0.000000  1
  Fe  Fe3  1  0.678074  0.178074  0.000000  1
  Fe  Fe4  1  0.002170  0.998987  0.000000  1
  Fe  Fe5  1  0.498987  0.502170  0.000000  1
  B  B6  1  0.125104  0.625104  0.000000  1
  B  B7  1  0.872500  0.372500  0.000000  1
  B  B8  1  0.626017  0.874531  0.000000  1
  B  B9  1  0.374531  0.126017  0.000000  1
  Rh  Rh10  1  0.505441  0.005441  0.500000  1
  Rh  Rh11  1  0.997687  0.497687  0.500000  1
  Rh  Rh12  1  0.216625  0.070964  0.500000  1
  Rh  Rh13  1  0.783735  0.936962  0.500000  1
  Rh  Rh14  1  0.070021  0.784274  0.500000  1
  Rh  Rh15  1  0.710990  0.421257  0.500000  1
  Rh  Rh16  1  0.921257  0.210990  0.500000  1
  Rh  Rh17  1  0.284274  0.570021  0.500000  1
  Rh  Rh18  1  0.570964  0.716625  0.500000  1
  Rh  Rh19  1  0.436962  0.283735  0.500000  1
