# generated using pymatgen
data_LuTi(NbS2)8
_symmetry_space_group_name_H-M   'P 1'
_cell_length_a   6.71598800
_cell_length_b   6.71598694
_cell_length_c   12.91125300
_cell_angle_alpha   90.00000000
_cell_angle_beta   90.00000000
_cell_angle_gamma   120.00000520
_symmetry_Int_Tables_number   1
_chemical_formula_structural   LuTi(NbS2)8
_chemical_formula_sum   'Lu1 Ti1 Nb8 S16'
_cell_volume   504.33458940
_cell_formula_units_Z   1
loop_
 _symmetry_equiv_pos_site_id
 _symmetry_equiv_pos_as_xyz
  1  'x, y, z'
loop_
 _atom_site_type_symbol
 _atom_site_label
 _atom_site_symmetry_multiplicity
 _atom_site_fract_x
 _atom_site_fract_y
 _atom_site_fract_z
 _atom_site_occupancy
  Lu  Lu0  1  0.000000  0.000000  0.500000  1
  Ti  Ti1  1  0.000000  0.000000  0.000000  1
  Nb  Nb2  1  0.000000  0.000000  0.237576  1
  Nb  Nb3  1  0.000000  0.000000  0.762424  1
  Nb  Nb4  1  0.504939  0.495061  0.236733  1
  Nb  Nb5  1  0.504939  0.009878  0.236733  1
  Nb  Nb6  1  0.990122  0.495061  0.236733  1
  Nb  Nb7  1  0.495061  0.504939  0.763267  1
  Nb  Nb8  1  0.495061  0.990122  0.763267  1
  Nb  Nb9  1  0.009878  0.504939  0.763267  1
  S  S10  1  0.333333  0.666667  0.886471  1
  S  S11  1  0.666667  0.333333  0.113529  1
  S  S12  1  0.666667  0.333333  0.361019  1
  S  S13  1  0.333333  0.666667  0.638981  1
  S  S14  1  0.168415  0.831585  0.359750  1
  S  S15  1  0.168415  0.336831  0.359750  1
  S  S16  1  0.663169  0.831585  0.359750  1
  S  S17  1  0.831585  0.168415  0.640250  1
  S  S18  1  0.831585  0.663169  0.640250  1
  S  S19  1  0.336831  0.168415  0.640250  1
  S  S20  1  0.832976  0.167024  0.885092  1
  S  S21  1  0.832976  0.665953  0.885092  1
  S  S22  1  0.334047  0.167024  0.885092  1
  S  S23  1  0.167024  0.832976  0.114908  1
  S  S24  1  0.167024  0.334047  0.114908  1
  S  S25  1  0.665953  0.832976  0.114908  1
