# generated using pymatgen
data_Ho4MnOs7
_symmetry_space_group_name_H-M   'P 1'
_cell_length_a   5.32679500
_cell_length_b   5.32679457
_cell_length_c   8.75939900
_cell_angle_alpha   90.00000000
_cell_angle_beta   90.00000000
_cell_angle_gamma   120.00000891
_symmetry_Int_Tables_number   1
_chemical_formula_structural   Ho4MnOs7
_chemical_formula_sum   'Ho4 Mn1 Os7'
_cell_volume   215.24686433
_cell_formula_units_Z   1
loop_
 _symmetry_equiv_pos_site_id
 _symmetry_equiv_pos_as_xyz
  1  'x, y, z'
loop_
 _atom_site_type_symbol
 _atom_site_label
 _atom_site_symmetry_multiplicity
 _atom_site_fract_x
 _atom_site_fract_y
 _atom_site_fract_z
 _atom_site_occupancy
  Ho  Ho0  1  0.333333  0.666667  0.431190  1
  Ho  Ho1  1  0.666667  0.333333  0.568810  1
  Ho  Ho2  1  0.666667  0.333333  0.934930  1
  Ho  Ho3  1  0.333333  0.666667  0.065070  1
  Mn  Mn4  1  0.000000  0.000000  0.500000  1
  Os  Os5  1  0.000000  0.000000  0.000000  1
  Os  Os6  1  0.829343  0.170657  0.252900  1
  Os  Os7  1  0.829343  0.658687  0.252900  1
  Os  Os8  1  0.341313  0.170657  0.252900  1
  Os  Os9  1  0.170657  0.829343  0.747100  1
  Os  Os10  1  0.170657  0.341313  0.747100  1
  Os  Os11  1  0.658687  0.829343  0.747100  1
