# generated using pymatgen
data_Tm3Pa3Fe2(Co4P3)4
_symmetry_space_group_name_H-M   'P 1'
_cell_length_a   3.70399200
_cell_length_b   10.44225539
_cell_length_c   12.11506027
_cell_angle_alpha   90.07627133
_cell_angle_beta   90.00000000
_cell_angle_gamma   90.00000000
_symmetry_Int_Tables_number   1
_chemical_formula_structural   Tm3Pa3Fe2(Co4P3)4
_chemical_formula_sum   'Tm3 Pa3 Fe2 Co16 P12'
_cell_volume   468.58625462
_cell_formula_units_Z   1
loop_
 _symmetry_equiv_pos_site_id
 _symmetry_equiv_pos_as_xyz
  1  'x, y, z'
loop_
 _atom_site_type_symbol
 _atom_site_label
 _atom_site_symmetry_multiplicity
 _atom_site_fract_x
 _atom_site_fract_y
 _atom_site_fract_z
 _atom_site_occupancy
  Tm  Tm0  1  0.500000  0.185336  0.204770  1
  Tm  Tm1  1  0.000000  0.684373  0.795671  1
  Tm  Tm2  1  0.000000  0.315747  0.793649  1
  Pa  Pa3  1  0.000000  0.499518  0.528143  1
  Pa  Pa4  1  0.500000  0.001461  0.474652  1
  Pa  Pa5  1  0.500000  0.819482  0.207676  1
  Fe  Fe6  1  0.500000  0.499362  0.156006  1
  Fe  Fe7  1  0.000000  0.999963  0.845142  1
  Co  Co8  1  0.500000  0.499322  0.695990  1
  Co  Co9  1  0.000000  0.994614  0.300012  1
  Co  Co10  1  0.000000  0.499248  0.982634  1
  Co  Co11  1  0.500000  0.000767  0.014344  1
  Co  Co12  1  0.500000  0.334279  0.992180  1
  Co  Co13  1  0.500000  0.666283  0.993654  1
  Co  Co14  1  0.000000  0.168464  0.005758  1
  Co  Co15  1  0.000000  0.834162  0.007893  1
  Co  Co16  1  0.500000  0.300185  0.431441  1
  Co  Co17  1  0.500000  0.696965  0.431797  1
  Co  Co18  1  0.000000  0.197091  0.567194  1
  Co  Co19  1  0.000000  0.802547  0.571657  1
  Co  Co20  1  0.500000  0.879397  0.712414  1
  Co  Co21  1  0.500000  0.120964  0.710697  1
  Co  Co22  1  0.000000  0.623062  0.288009  1
  Co  Co23  1  0.000000  0.378975  0.289061  1
  P  P24  1  0.500000  0.499819  0.876484  1
  P  P25  1  0.000000  0.004509  0.118873  1
  P  P26  1  0.500000  0.498595  0.342166  1
  P  P27  1  0.000000  0.999719  0.659806  1
  P  P28  1  0.500000  0.306821  0.617260  1
  P  P29  1  0.500000  0.692472  0.619346  1
  P  P30  1  0.000000  0.190122  0.380591  1
  P  P31  1  0.000000  0.806808  0.389022  1
  P  P32  1  0.500000  0.846805  0.893597  1
  P  P33  1  0.500000  0.154594  0.892525  1
  P  P34  1  0.000000  0.650320  0.103831  1
  P  P35  1  0.000000  0.347846  0.106056  1
