# generated using pymatgen
data_CeY2Sn3IrRh2
_symmetry_space_group_name_H-M   'P 1'
_cell_length_a   7.60967028
_cell_length_b   7.53404871
_cell_length_c   3.91791900
_cell_angle_alpha   90.00000000
_cell_angle_beta   90.00000000
_cell_angle_gamma   120.07509583
_symmetry_Int_Tables_number   1
_chemical_formula_structural   CeY2Sn3IrRh2
_chemical_formula_sum   'Ce1 Y2 Sn3 Ir1 Rh2'
_cell_volume   194.37983673
_cell_formula_units_Z   1
loop_
 _symmetry_equiv_pos_site_id
 _symmetry_equiv_pos_as_xyz
  1  'x, y, z'
loop_
 _atom_site_type_symbol
 _atom_site_label
 _atom_site_symmetry_multiplicity
 _atom_site_fract_x
 _atom_site_fract_y
 _atom_site_fract_z
 _atom_site_occupancy
  Ce  Ce0  1  0.414679  0.001034  0.000000  1
  Y  Y1  1  0.996561  0.405534  0.000000  1
  Y  Y2  1  0.594512  0.591588  0.000000  1
  Sn  Sn3  1  0.257674  0.267387  0.500000  1
  Sn  Sn4  1  0.992408  0.733961  0.500000  1
  Sn  Sn5  1  0.749884  0.998738  0.500000  1
  Ir  Ir6  1  0.652941  0.317560  0.500000  1
  Rh  Rh7  1  0.335346  0.683448  0.500000  1
  Rh  Rh8  1  0.005996  0.000751  0.000000  1
