# generated using pymatgen
data_NaLu(B2Rh3)2
_symmetry_space_group_name_H-M   'P 1'
_cell_length_a   2.91953600
_cell_length_b   5.59951300
_cell_length_c   9.66154300
_cell_angle_alpha   90.00000000
_cell_angle_beta   90.00000000
_cell_angle_gamma   90.00000000
_symmetry_Int_Tables_number   1
_chemical_formula_structural   NaLu(B2Rh3)2
_chemical_formula_sum   'Na1 Lu1 B4 Rh6'
_cell_volume   157.94670967
_cell_formula_units_Z   1
loop_
 _symmetry_equiv_pos_site_id
 _symmetry_equiv_pos_as_xyz
  1  'x, y, z'
loop_
 _atom_site_type_symbol
 _atom_site_label
 _atom_site_symmetry_multiplicity
 _atom_site_fract_x
 _atom_site_fract_y
 _atom_site_fract_z
 _atom_site_occupancy
  Na  Na0  1  0.000000  0.500235  0.500000  1
  Lu  Lu1  1  0.000000  0.999730  0.000000  1
  B  B2  1  0.000000  0.999999  0.336170  1
  B  B3  1  0.000000  0.499961  0.831065  1
  B  B4  1  0.000000  0.499961  0.168935  1
  B  B5  1  0.000000  0.999999  0.663830  1
  Rh  Rh6  1  0.500000  0.000137  0.500000  1
  Rh  Rh7  1  0.500000  0.500188  0.000000  1
  Rh  Rh8  1  0.500000  0.243298  0.240810  1
  Rh  Rh9  1  0.500000  0.756497  0.759039  1
  Rh  Rh10  1  0.500000  0.756497  0.240961  1
  Rh  Rh11  1  0.500000  0.243298  0.759191  1
