# generated using pymatgen
data_Ta2Ti2Mn7Be
_symmetry_space_group_name_H-M   'P 1'
_cell_length_a   4.72501900
_cell_length_b   4.72501969
_cell_length_c   7.84034800
_cell_angle_alpha   90.00000000
_cell_angle_beta   90.00000000
_cell_angle_gamma   120.00000214
_symmetry_Int_Tables_number   1
_chemical_formula_structural   Ta2Ti2Mn7Be
_chemical_formula_sum   'Ta2 Ti2 Mn7 Be1'
_cell_volume   151.59090445
_cell_formula_units_Z   1
loop_
 _symmetry_equiv_pos_site_id
 _symmetry_equiv_pos_as_xyz
  1  'x, y, z'
loop_
 _atom_site_type_symbol
 _atom_site_label
 _atom_site_symmetry_multiplicity
 _atom_site_fract_x
 _atom_site_fract_y
 _atom_site_fract_z
 _atom_site_occupancy
  Ta  Ta0  1  0.666667  0.333333  0.932487  1
  Ta  Ta1  1  0.333333  0.666667  0.437228  1
  Ti  Ti2  1  0.333333  0.666667  0.065093  1
  Ti  Ti3  1  0.666667  0.333333  0.561407  1
  Mn  Mn4  1  0.000000  0.000000  0.501811  1
  Mn  Mn5  1  0.830222  0.660443  0.247516  1
  Mn  Mn6  1  0.169957  0.830043  0.753020  1
  Mn  Mn7  1  0.660085  0.830043  0.753020  1
  Mn  Mn8  1  0.339557  0.169778  0.247516  1
  Mn  Mn9  1  0.830222  0.169778  0.247516  1
  Mn  Mn10  1  0.169957  0.339915  0.753020  1
  Be  Be11  1  0.000000  0.000000  0.000365  1
