# generated using pymatgen
data_Pu2BiN2
_symmetry_space_group_name_H-M   'P 1'
_cell_length_a   7.13236670
_cell_length_b   7.13236658
_cell_length_c   7.13236666
_cell_angle_alpha   148.42863349
_cell_angle_beta   148.42863461
_cell_angle_gamma   45.25301339
_symmetry_Int_Tables_number   1
_chemical_formula_structural   Pu2BiN2
_chemical_formula_sum   'Pu2 Bi1 N2'
_cell_volume   99.13859996
_cell_formula_units_Z   1
loop_
 _symmetry_equiv_pos_site_id
 _symmetry_equiv_pos_as_xyz
  1  'x, y, z'
loop_
 _atom_site_type_symbol
 _atom_site_label
 _atom_site_symmetry_multiplicity
 _atom_site_fract_x
 _atom_site_fract_y
 _atom_site_fract_z
 _atom_site_occupancy
  Pu  Pu0  1  0.333222  0.333222  0.000000  1
  Pu  Pu1  1  0.666778  0.666778  0.000000  1
  Bi  Bi2  1  0.000000  0.000000  0.000000  1
  N  N3  1  0.250000  0.750000  0.500000  1
  N  N4  1  0.750000  0.250000  0.500000  1
