# generated using pymatgen
data_Y8Hf12Si15Hg
_symmetry_space_group_name_H-M   'P 1'
_cell_length_a   7.34325798
_cell_length_b   7.30342137
_cell_length_c   13.43590887
_cell_angle_alpha   89.97780117
_cell_angle_beta   89.85609731
_cell_angle_gamma   90.06602756
_symmetry_Int_Tables_number   1
_chemical_formula_structural   Y8Hf12Si15Hg
_chemical_formula_sum   'Y8 Hf12 Si15 Hg1'
_cell_volume   720.57717632
_cell_formula_units_Z   1
loop_
 _symmetry_equiv_pos_site_id
 _symmetry_equiv_pos_as_xyz
  1  'x, y, z'
loop_
 _atom_site_type_symbol
 _atom_site_label
 _atom_site_symmetry_multiplicity
 _atom_site_fract_x
 _atom_site_fract_y
 _atom_site_fract_z
 _atom_site_occupancy
  Y  Y0  1  0.496502  0.155504  0.535043  1
  Y  Y1  1  0.495753  0.837702  0.033599  1
  Y  Y2  1  0.652052  0.001969  0.289152  1
  Y  Y3  1  0.343846  0.994756  0.782934  1
  Y  Y4  1  0.847192  0.512377  0.962742  1
  Y  Y5  1  0.154514  0.495960  0.465574  1
  Y  Y6  1  0.003656  0.654568  0.714449  1
  Y  Y7  1  0.002323  0.349778  0.219170  1
  Hf  Hf8  1  0.677238  0.324158  0.748774  1
  Hf  Hf9  1  0.325212  0.675377  0.250860  1
  Hf  Hf10  1  0.823544  0.823485  0.500189  1
  Hf  Hf11  1  0.184410  0.174906  0.998315  1
  Hf  Hf12  1  0.490387  0.358695  0.124740  1
  Hf  Hf13  1  0.503414  0.647336  0.624437  1
  Hf  Hf14  1  0.853047  0.003822  0.869254  1
  Hf  Hf15  1  0.148620  0.995104  0.374731  1
  Hf  Hf16  1  0.647052  0.505052  0.376684  1
  Hf  Hf17  1  0.350986  0.498116  0.873169  1
  Hf  Hf18  1  0.013724  0.843638  0.130215  1
  Hf  Hf19  1  0.994774  0.147516  0.625316  1
  Si  Si20  1  0.205165  0.860826  0.567392  1
  Si  Si21  1  0.638845  0.704413  0.815589  1
  Si  Si22  1  0.362048  0.295490  0.318469  1
  Si  Si23  1  0.861620  0.203500  0.433284  1
  Si  Si24  1  0.139406  0.796342  0.931969  1
  Si  Si25  1  0.701997  0.640485  0.184190  1
  Si  Si26  1  0.295967  0.360665  0.682215  1
  Si  Si27  1  0.545894  0.207258  0.931548  1
  Si  Si28  1  0.448725  0.794079  0.436388  1
  Si  Si29  1  0.704936  0.949424  0.684216  1
  Si  Si30  1  0.294310  0.052108  0.185593  1
  Si  Si31  1  0.794502  0.450431  0.564709  1
  Si  Si32  1  0.203175  0.548773  0.062548  1
  Si  Si33  1  0.948426  0.706412  0.316494  1
  Si  Si34  1  0.050864  0.294797  0.814329  1
  Hg  Hg35  1  0.795874  0.135179  0.071719  1
