# generated using pymatgen
data_K2YbCd(H6Ir)2
_symmetry_space_group_name_H-M   'P 1'
_cell_length_a   7.47457800
_cell_length_b   7.47457800
_cell_length_c   7.58127300
_cell_angle_alpha   90.00000000
_cell_angle_beta   90.00000000
_cell_angle_gamma   90.00000000
_symmetry_Int_Tables_number   1
_chemical_formula_structural   K2YbCd(H6Ir)2
_chemical_formula_sum   'K4 Yb2 Cd2 H24 Ir4'
_cell_volume   423.56053903
_cell_formula_units_Z   2
loop_
 _symmetry_equiv_pos_site_id
 _symmetry_equiv_pos_as_xyz
  1  'x, y, z'
loop_
 _atom_site_type_symbol
 _atom_site_label
 _atom_site_symmetry_multiplicity
 _atom_site_fract_x
 _atom_site_fract_y
 _atom_site_fract_z
 _atom_site_occupancy
  K  K0  1  0.000000  0.000000  0.500000  1
  K  K1  1  0.000000  0.500000  0.000000  1
  K  K2  1  0.500000  0.000000  0.000000  1
  K  K3  1  0.000000  0.000000  0.000000  1
  Yb  Yb4  1  0.000000  0.500000  0.500000  1
  Yb  Yb5  1  0.500000  0.000000  0.500000  1
  Cd  Cd6  1  0.500000  0.500000  0.500000  1
  Cd  Cd7  1  0.500000  0.500000  0.000000  1
  H  H8  1  0.739303  0.739303  0.491335  1
  H  H9  1  0.260697  0.260697  0.491335  1
  H  H10  1  0.052166  0.723692  0.734880  1
  H  H11  1  0.276308  0.947834  0.734880  1
  H  H12  1  0.723692  0.052166  0.734880  1
  H  H13  1  0.947834  0.276308  0.734880  1
  H  H14  1  0.741805  0.500520  0.727338  1
  H  H15  1  0.500520  0.741805  0.727338  1
  H  H16  1  0.499480  0.258195  0.727338  1
  H  H17  1  0.258195  0.499480  0.727338  1
  H  H18  1  0.278100  0.721900  0.950261  1
  H  H19  1  0.721900  0.278100  0.950261  1
  H  H20  1  0.721900  0.721900  0.049739  1
  H  H21  1  0.278100  0.278100  0.049739  1
  H  H22  1  0.258195  0.500520  0.272662  1
  H  H23  1  0.499480  0.741805  0.272662  1
  H  H24  1  0.500520  0.258195  0.272662  1
  H  H25  1  0.741805  0.499480  0.272662  1
  H  H26  1  0.947834  0.723692  0.265120  1
  H  H27  1  0.723692  0.947834  0.265120  1
  H  H28  1  0.276308  0.052166  0.265120  1
  H  H29  1  0.052166  0.276308  0.265120  1
  H  H30  1  0.260697  0.739303  0.508665  1
  H  H31  1  0.739303  0.260697  0.508665  1
  Ir  Ir32  1  0.278256  0.721744  0.727885  1
  Ir  Ir33  1  0.721744  0.278256  0.727885  1
  Ir  Ir34  1  0.721744  0.721744  0.272115  1
  Ir  Ir35  1  0.278256  0.278256  0.272115  1
