# generated using pymatgen
data_Li2SmTmPb2
_symmetry_space_group_name_H-M   'P 1'
_cell_length_a   4.77977400
_cell_length_b   4.77977389
_cell_length_c   7.39554700
_cell_angle_alpha   90.00000000
_cell_angle_beta   90.00000000
_cell_angle_gamma   120.00001463
_symmetry_Int_Tables_number   1
_chemical_formula_structural   Li2SmTmPb2
_chemical_formula_sum   'Li2 Sm1 Tm1 Pb2'
_cell_volume   146.32400644
_cell_formula_units_Z   1
loop_
 _symmetry_equiv_pos_site_id
 _symmetry_equiv_pos_as_xyz
  1  'x, y, z'
loop_
 _atom_site_type_symbol
 _atom_site_label
 _atom_site_symmetry_multiplicity
 _atom_site_fract_x
 _atom_site_fract_y
 _atom_site_fract_z
 _atom_site_occupancy
  Li  Li0  1  0.666667  0.333333  0.265573  1
  Li  Li1  1  0.333333  0.666667  0.789684  1
  Sm  Sm2  1  0.000000  0.000000  0.499057  1
  Tm  Tm3  1  0.000000  0.000000  0.998202  1
  Pb  Pb4  1  0.333333  0.666667  0.223679  1
  Pb  Pb5  1  0.666667  0.333333  0.738205  1
