# generated using pymatgen
data_YHo9Cd3In5Pd4
_symmetry_space_group_name_H-M   'P 1'
_cell_length_a   3.60129300
_cell_length_b   8.11048009
_cell_length_c   18.33088307
_cell_angle_alpha   89.98642829
_cell_angle_beta   90.00000000
_cell_angle_gamma   90.00000000
_symmetry_Int_Tables_number   1
_chemical_formula_structural   YHo9Cd3In5Pd4
_chemical_formula_sum   'Y1 Ho9 Cd3 In5 Pd4'
_cell_volume   535.41236198
_cell_formula_units_Z   1
loop_
 _symmetry_equiv_pos_site_id
 _symmetry_equiv_pos_as_xyz
  1  'x, y, z'
loop_
 _atom_site_type_symbol
 _atom_site_label
 _atom_site_symmetry_multiplicity
 _atom_site_fract_x
 _atom_site_fract_y
 _atom_site_fract_z
 _atom_site_occupancy
  Y  Y0  1  0.000000  0.500348  0.499318  1
  Ho  Ho1  1  0.000000  0.999646  0.000003  1
  Ho  Ho2  1  0.000000  0.742356  0.281084  1
  Ho  Ho3  1  0.000000  0.260066  0.720119  1
  Ho  Ho4  1  0.000000  0.757067  0.781112  1
  Ho  Ho5  1  0.000000  0.241912  0.219109  1
  Ho  Ho6  1  0.000000  0.612238  0.083879  1
  Ho  Ho7  1  0.000000  0.387777  0.916949  1
  Ho  Ho8  1  0.000000  0.884812  0.583740  1
  Ho  Ho9  1  0.000000  0.112812  0.415747  1
  Cd  Cd10  1  0.500000  0.711784  0.931542  1
  Cd  Cd11  1  0.500000  0.288185  0.068451  1
  Cd  Cd12  1  0.500000  0.788267  0.431398  1
  In  In13  1  0.500000  0.209395  0.568131  1
  In  In14  1  0.500000  0.579515  0.648637  1
  In  In15  1  0.500000  0.423465  0.351243  1
  In  In16  1  0.500000  0.923420  0.147513  1
  In  In17  1  0.500000  0.077017  0.852152  1
  Pd  Pd18  1  0.500000  0.523966  0.196810  1
  Pd  Pd19  1  0.500000  0.475421  0.803285  1
  Pd  Pd20  1  0.500000  0.976056  0.696745  1
  Pd  Pd21  1  0.500000  0.024477  0.303032  1
