# generated using pymatgen
data_Tb2YAl2Co9B4
_symmetry_space_group_name_H-M   'P 1'
_cell_length_a   5.14080614
_cell_length_b   5.14656954
_cell_length_c   9.53676200
_cell_angle_alpha   89.99978153
_cell_angle_beta   89.99998119
_cell_angle_gamma   119.94714653
_symmetry_Int_Tables_number   1
_chemical_formula_structural   Tb2YAl2Co9B4
_chemical_formula_sum   'Tb2 Y1 Al2 Co9 B4'
_cell_volume   218.63097992
_cell_formula_units_Z   1
loop_
 _symmetry_equiv_pos_site_id
 _symmetry_equiv_pos_as_xyz
  1  'x, y, z'
loop_
 _atom_site_type_symbol
 _atom_site_label
 _atom_site_symmetry_multiplicity
 _atom_site_fract_x
 _atom_site_fract_y
 _atom_site_fract_z
 _atom_site_occupancy
  Tb  Tb0  1  0.000003  0.000009  0.340194  1
  Tb  Tb1  1  0.999993  0.999994  0.659930  1
  Y  Y2  1  0.999986  0.999994  0.000117  1
  Al  Al3  1  0.333366  0.666404  0.999954  1
  Al  Al4  1  0.666611  0.333588  0.999954  1
  Co  Co5  1  0.499997  0.000001  0.500046  1
  Co  Co6  1  0.499997  0.500002  0.500027  1
  Co  Co7  1  0.999996  0.500001  0.500011  1
  Co  Co8  1  0.500000  0.000005  0.206907  1
  Co  Co9  1  0.500001  0.500009  0.206912  1
  Co  Co10  1  0.999997  0.500008  0.206890  1
  Co  Co11  1  0.499991  0.999994  0.792992  1
  Co  Co12  1  0.499990  0.499994  0.793019  1
  Co  Co13  1  0.999991  0.499992  0.793089  1
  B  B14  1  0.333349  0.666633  0.349009  1
  B  B15  1  0.666645  0.333375  0.349009  1
  B  B16  1  0.666884  0.333507  0.650971  1
  B  B17  1  0.333102  0.666488  0.650971  1
