# generated using pymatgen
data_Ba4SnSb3Au4
_symmetry_space_group_name_H-M   'P 1'
_cell_length_a   4.80014000
_cell_length_b   9.72535700
_cell_length_c   8.33251427
_cell_angle_alpha   90.14313253
_cell_angle_beta   90.00000000
_cell_angle_gamma   90.00000000
_symmetry_Int_Tables_number   1
_chemical_formula_structural   Ba4SnSb3Au4
_chemical_formula_sum   'Ba4 Sn1 Sb3 Au4'
_cell_volume   388.98617604
_cell_formula_units_Z   1
loop_
 _symmetry_equiv_pos_site_id
 _symmetry_equiv_pos_as_xyz
  1  'x, y, z'
loop_
 _atom_site_type_symbol
 _atom_site_label
 _atom_site_symmetry_multiplicity
 _atom_site_fract_x
 _atom_site_fract_y
 _atom_site_fract_z
 _atom_site_occupancy
  Ba  Ba0  1  0.250000  0.997524  0.753353  1
  Ba  Ba1  1  0.250000  0.505125  0.746236  1
  Ba  Ba2  1  0.750000  0.501381  0.252409  1
  Ba  Ba3  1  0.750000  0.997980  0.246338  1
  Sn  Sn4  1  0.750000  0.259894  0.914838  1
  Sb  Sb5  1  0.250000  0.748169  0.085589  1
  Sb  Sb6  1  0.250000  0.247490  0.415274  1
  Sb  Sb7  1  0.750000  0.754175  0.584036  1
  Au  Au8  1  0.750000  0.745951  0.919155  1
  Au  Au9  1  0.250000  0.245845  0.078206  1
  Au  Au10  1  0.250000  0.752061  0.418968  1
  Au  Au11  1  0.750000  0.244406  0.585599  1
