# generated using pymatgen
data_Ir4N(OF2)3
_symmetry_space_group_name_H-M   'P 1'
_cell_length_a   4.76114978
_cell_length_b   5.55258875
_cell_length_c   6.77592939
_cell_angle_alpha   99.10502327
_cell_angle_beta   110.75317694
_cell_angle_gamma   89.55022543
_symmetry_Int_Tables_number   1
_chemical_formula_structural   Ir4N(OF2)3
_chemical_formula_sum   'Ir4 N1 O3 F6'
_cell_volume   165.17392652
_cell_formula_units_Z   1
loop_
 _symmetry_equiv_pos_site_id
 _symmetry_equiv_pos_as_xyz
  1  'x, y, z'
loop_
 _atom_site_type_symbol
 _atom_site_label
 _atom_site_symmetry_multiplicity
 _atom_site_fract_x
 _atom_site_fract_y
 _atom_site_fract_z
 _atom_site_occupancy
  Ir  Ir0  1  0.402379  0.792937  0.312856  1
  Ir  Ir1  1  0.069833  0.713036  0.692977  1
  Ir  Ir2  1  0.612129  0.197823  0.696378  1
  Ir  Ir3  1  0.915279  0.292313  0.304547  1
  N  N4  1  0.714703  0.878847  0.587802  1
  O  O5  1  0.102575  0.633166  0.401261  1
  O  O6  1  0.290713  0.126677  0.409003  1
  O  O7  1  0.892741  0.368722  0.597273  1
  F  F8  1  0.519028  0.455821  0.198662  1
  F  F9  1  0.321872  0.041713  0.807756  1
  F  F10  1  0.477301  0.542853  0.801333  1
  F  F11  1  0.675599  0.958560  0.191559  1
  F  F12  1  0.066179  0.749446  0.997451  1
  F  F13  1  0.939669  0.248087  0.001143  1
