# generated using pymatgen
data_Rb4SmUSe6
_symmetry_space_group_name_H-M   'P 1'
_cell_length_a   7.73199365
_cell_length_b   7.73199301
_cell_length_c   8.38516663
_cell_angle_alpha   81.00709251
_cell_angle_beta   81.00709896
_cell_angle_gamma   119.97682237
_symmetry_Int_Tables_number   1
_chemical_formula_structural   Rb4SmUSe6
_chemical_formula_sum   'Rb4 Sm1 U1 Se6'
_cell_volume   412.48715898
_cell_formula_units_Z   1
loop_
 _symmetry_equiv_pos_site_id
 _symmetry_equiv_pos_as_xyz
  1  'x, y, z'
loop_
 _atom_site_type_symbol
 _atom_site_label
 _atom_site_symmetry_multiplicity
 _atom_site_fract_x
 _atom_site_fract_y
 _atom_site_fract_z
 _atom_site_occupancy
  Rb  Rb0  1  0.500032  0.499968  0.000000  1
  Rb  Rb1  1  0.655167  0.344833  0.500000  1
  Rb  Rb2  1  0.345308  0.654692  0.500000  1
  Rb  Rb3  1  0.999560  0.000440  0.500000  1
  Sm  Sm4  1  0.832344  0.167656  0.000000  1
  U  U5  1  0.167579  0.832421  0.000000  1
  Se  Se6  1  0.820704  0.803714  0.197726  1
  Se  Se7  1  0.196286  0.179296  0.802274  1
  Se  Se8  1  0.414177  0.042366  0.200479  1
  Se  Se9  1  0.550611  0.939403  0.798896  1
  Se  Se10  1  0.957634  0.585823  0.799521  1
  Se  Se11  1  0.060597  0.449389  0.201104  1
