# generated using pymatgen
data_Y2Lu5Pa(ReB6)4
_symmetry_space_group_name_H-M   'P 1'
_cell_length_a   3.65473200
_cell_length_b   9.10061456
_cell_length_c   11.47419103
_cell_angle_alpha   90.12648893
_cell_angle_beta   90.00000000
_cell_angle_gamma   90.00000000
_symmetry_Int_Tables_number   1
_chemical_formula_structural   Y2Lu5Pa(ReB6)4
_chemical_formula_sum   'Y2 Lu5 Pa1 Re4 B24'
_cell_volume   381.63418902
_cell_formula_units_Z   1
loop_
 _symmetry_equiv_pos_site_id
 _symmetry_equiv_pos_as_xyz
  1  'x, y, z'
loop_
 _atom_site_type_symbol
 _atom_site_label
 _atom_site_symmetry_multiplicity
 _atom_site_fract_x
 _atom_site_fract_y
 _atom_site_fract_z
 _atom_site_occupancy
  Y  Y0  1  0.000000  0.680086  0.586946  1
  Y  Y1  1  0.000000  0.822658  0.085370  1
  Lu  Lu2  1  0.000000  0.176025  0.913426  1
  Lu  Lu3  1  0.000000  0.943041  0.371522  1
  Lu  Lu4  1  0.000000  0.055432  0.629460  1
  Lu  Lu5  1  0.000000  0.443311  0.127089  1
  Lu  Lu6  1  0.000000  0.556794  0.870580  1
  Pa  Pa7  1  0.000000  0.322739  0.414013  1
  Re  Re8  1  0.000000  0.636116  0.320899  1
  Re  Re9  1  0.000000  0.360752  0.677976  1
  Re  Re10  1  0.000000  0.141806  0.181672  1
  Re  Re11  1  0.000000  0.861936  0.820743  1
  B  B12  1  0.500000  0.552880  0.431745  1
  B  B13  1  0.500000  0.445089  0.567517  1
  B  B14  1  0.500000  0.054675  0.066756  1
  B  B15  1  0.500000  0.947739  0.933412  1
  B  B16  1  0.500000  0.750504  0.418128  1
  B  B17  1  0.500000  0.249113  0.581695  1
  B  B18  1  0.500000  0.250136  0.079565  1
  B  B19  1  0.500000  0.749665  0.918680  1
  B  B20  1  0.500000  0.792501  0.265761  1
  B  B21  1  0.500000  0.206877  0.735799  1
  B  B22  1  0.500000  0.292480  0.234027  1
  B  B23  1  0.500000  0.707551  0.765967  1
  B  B24  1  0.500000  0.630123  0.184171  1
  B  B25  1  0.500000  0.369526  0.815575  1
  B  B26  1  0.500000  0.131115  0.315277  1
  B  B27  1  0.500000  0.870190  0.685765  1
  B  B28  1  0.500000  0.982556  0.212635  1
  B  B29  1  0.500000  0.019248  0.788187  1
  B  B30  1  0.500000  0.482046  0.286542  1
  B  B31  1  0.500000  0.517842  0.713878  1
  B  B32  1  0.500000  0.599271  0.027024  1
  B  B33  1  0.500000  0.399256  0.971355  1
  B  B34  1  0.500000  0.101327  0.472187  1
  B  B35  1  0.500000  0.897594  0.528655  1
