# generated using pymatgen
data_Nd4Lu6Ga3Si5
_symmetry_space_group_name_H-M   'P 1'
_cell_length_a   7.51893636
_cell_length_b   14.89391400
_cell_length_c   7.85472100
_cell_angle_alpha   90.00000000
_cell_angle_beta   89.79238727
_cell_angle_gamma   90.00000000
_symmetry_Int_Tables_number   1
_chemical_formula_structural   Nd4Lu6Ga3Si5
_chemical_formula_sum   'Nd8 Lu12 Ga6 Si10'
_cell_volume   879.61608666
_cell_formula_units_Z   2
loop_
 _symmetry_equiv_pos_site_id
 _symmetry_equiv_pos_as_xyz
  1  'x, y, z'
loop_
 _atom_site_type_symbol
 _atom_site_label
 _atom_site_symmetry_multiplicity
 _atom_site_fract_x
 _atom_site_fract_y
 _atom_site_fract_z
 _atom_site_occupancy
  Nd  Nd0  1  0.021575  0.097762  0.176491  1
  Nd  Nd1  1  0.021575  0.402238  0.176491  1
  Nd  Nd2  1  0.519753  0.098332  0.324292  1
  Nd  Nd3  1  0.519753  0.401668  0.324292  1
  Nd  Nd4  1  0.479564  0.597959  0.679360  1
  Nd  Nd5  1  0.479564  0.902041  0.679360  1
  Nd  Nd6  1  0.979702  0.597124  0.818787  1
  Nd  Nd7  1  0.979702  0.902876  0.818787  1
  Lu  Lu8  1  0.342638  0.250000  0.008495  1
  Lu  Lu9  1  0.322464  0.622819  0.175420  1
  Lu  Lu10  1  0.322464  0.877180  0.175420  1
  Lu  Lu11  1  0.819049  0.622894  0.326261  1
  Lu  Lu12  1  0.819049  0.877105  0.326261  1
  Lu  Lu13  1  0.847053  0.250000  0.493622  1
  Lu  Lu14  1  0.155464  0.750000  0.512120  1
  Lu  Lu15  1  0.177758  0.125091  0.677902  1
  Lu  Lu16  1  0.177758  0.374908  0.677902  1
  Lu  Lu17  1  0.676098  0.124590  0.820664  1
  Lu  Lu18  1  0.676098  0.375409  0.820664  1
  Lu  Lu19  1  0.655034  0.750000  0.989071  1
  Ga  Ga20  1  0.652847  0.539133  0.033992  1
  Ga  Ga21  1  0.652847  0.960867  0.033992  1
  Ga  Ga22  1  0.025090  0.750000  0.113536  1
  Ga  Ga23  1  0.724733  0.250000  0.122031  1
  Ga  Ga24  1  0.152782  0.539143  0.466975  1
  Ga  Ga25  1  0.152782  0.960857  0.466975  1
  Si  Si26  1  0.225573  0.250000  0.379434  1
  Si  Si27  1  0.525808  0.750000  0.386534  1
  Si  Si28  1  0.850840  0.041601  0.532770  1
  Si  Si29  1  0.850840  0.458398  0.532770  1
  Si  Si30  1  0.472853  0.250000  0.613958  1
  Si  Si31  1  0.773395  0.750000  0.619746  1
  Si  Si32  1  0.275047  0.750000  0.880937  1
  Si  Si33  1  0.973138  0.250000  0.883186  1
  Si  Si34  1  0.349654  0.041606  0.965753  1
  Si  Si35  1  0.349654  0.458393  0.965753  1
