# generated using pymatgen
data_La3Nd6(BiO)5
_symmetry_space_group_name_H-M   'P 1'
_cell_length_a   10.43741453
_cell_length_b   10.42585580
_cell_length_c   9.37498570
_cell_angle_alpha   89.99224002
_cell_angle_beta   89.95639556
_cell_angle_gamma   89.95582233
_symmetry_Int_Tables_number   1
_chemical_formula_structural   La3Nd6(BiO)5
_chemical_formula_sum   'La6 Nd12 Bi10 O10'
_cell_volume   1020.17576231
_cell_formula_units_Z   2
loop_
 _symmetry_equiv_pos_site_id
 _symmetry_equiv_pos_as_xyz
  1  'x, y, z'
loop_
 _atom_site_type_symbol
 _atom_site_label
 _atom_site_symmetry_multiplicity
 _atom_site_fract_x
 _atom_site_fract_y
 _atom_site_fract_z
 _atom_site_occupancy
  La  La0  1  0.499919  0.999874  0.671231  1
  La  La1  1  0.919157  0.274222  0.997553  1
  La  La2  1  0.418207  0.770146  0.002933  1
  La  La3  1  0.271019  0.081017  0.002844  1
  La  La4  1  0.729000  0.918090  0.002754  1
  La  La5  1  0.580500  0.229847  0.002770  1
  Nd  Nd6  1  0.000632  0.501198  0.329596  1
  Nd  Nd7  1  0.796156  0.105045  0.342523  1
  Nd  Nd8  1  0.606376  0.702792  0.341281  1
  Nd  Nd9  1  0.393757  0.297205  0.341747  1
  Nd  Nd10  1  0.202755  0.893613  0.341233  1
  Nd  Nd11  1  0.705812  0.397373  0.658442  1
  Nd  Nd12  1  0.897045  0.793082  0.658851  1
  Nd  Nd13  1  0.104814  0.206347  0.656757  1
  Nd  Nd14  1  0.293000  0.603254  0.658576  1
  Nd  Nd15  1  0.081342  0.724142  0.998682  1
  Nd  Nd16  1  0.225475  0.419050  0.998826  1
  Nd  Nd17  1  0.775357  0.581978  0.998359  1
  Bi  Bi18  1  0.999921  0.499566  0.686677  1
  Bi  Bi19  1  0.499664  0.999814  0.310436  1
  Bi  Bi20  1  0.696853  0.403938  0.302086  1
  Bi  Bi21  1  0.903945  0.803518  0.302180  1
  Bi  Bi22  1  0.096174  0.196327  0.303114  1
  Bi  Bi23  1  0.303740  0.595892  0.302245  1
  Bi  Bi24  1  0.806163  0.097174  0.697018  1
  Bi  Bi25  1  0.597382  0.693858  0.698005  1
  Bi  Bi26  1  0.402557  0.306349  0.698096  1
  Bi  Bi27  1  0.193917  0.902423  0.697950  1
  O  O28  1  0.001476  0.503105  0.066419  1
  O  O29  1  0.500036  0.000024  0.926259  1
  O  O30  1  0.879803  0.773090  0.912488  1
  O  O31  1  0.273337  0.620246  0.912440  1
  O  O32  1  0.724522  0.380842  0.911446  1
  O  O33  1  0.121685  0.226613  0.911513  1
  O  O34  1  0.622011  0.721993  0.088774  1
  O  O35  1  0.222375  0.877659  0.088837  1
  O  O36  1  0.776407  0.121327  0.089976  1
  O  O37  1  0.377708  0.277967  0.089085  1
