# generated using pymatgen
data_YbLuVIr3
_symmetry_space_group_name_H-M   'P 1'
_cell_length_a   5.53341119
_cell_length_b   5.08124621
_cell_length_c   5.53341200
_cell_angle_alpha   57.00994918
_cell_angle_beta   60.00000710
_cell_angle_gamma   57.00993876
_symmetry_Int_Tables_number   1
_chemical_formula_structural   YbLuVIr3
_chemical_formula_sum   'Yb1 Lu1 V1 Ir3'
_cell_volume   104.77501162
_cell_formula_units_Z   1
loop_
 _symmetry_equiv_pos_site_id
 _symmetry_equiv_pos_as_xyz
  1  'x, y, z'
loop_
 _atom_site_type_symbol
 _atom_site_label
 _atom_site_symmetry_multiplicity
 _atom_site_fract_x
 _atom_site_fract_y
 _atom_site_fract_z
 _atom_site_occupancy
  Yb  Yb0  1  0.750214  0.749360  0.750214  1
  Lu  Lu1  1  0.498365  0.504903  0.498365  1
  V  V2  1  0.126035  0.621895  0.126035  1
  Ir  Ir3  1  0.626246  0.124614  0.124570  1
  Ir  Ir4  1  0.124570  0.124614  0.124570  1
  Ir  Ir5  1  0.124570  0.124614  0.626246  1
