# generated using pymatgen
data_Ga4SnHgBr16
_symmetry_space_group_name_H-M   'P 1'
_cell_length_a   7.75286999
_cell_length_b   7.86356928
_cell_length_c   14.49988100
_cell_angle_alpha   87.79512334
_cell_angle_beta   89.64122975
_cell_angle_gamma   90.15818548
_symmetry_Int_Tables_number   1
_chemical_formula_structural   Ga4SnHgBr16
_chemical_formula_sum   'Ga4 Sn1 Hg1 Br16'
_cell_volume   883.31281697
_cell_formula_units_Z   1
loop_
 _symmetry_equiv_pos_site_id
 _symmetry_equiv_pos_as_xyz
  1  'x, y, z'
loop_
 _atom_site_type_symbol
 _atom_site_label
 _atom_site_symmetry_multiplicity
 _atom_site_fract_x
 _atom_site_fract_y
 _atom_site_fract_z
 _atom_site_occupancy
  Ga  Ga0  1  0.943337  0.222356  0.573795  1
  Ga  Ga1  1  0.068507  0.216622  0.081399  1
  Ga  Ga2  1  0.565205  0.641030  0.778140  1
  Ga  Ga3  1  0.420021  0.639663  0.277944  1
  Sn  Sn4  1  0.760094  0.077002  0.813093  1
  Hg  Hg5  1  0.244828  0.080060  0.311397  1
  Br  Br6  1  0.428866  0.614088  0.639321  1
  Br  Br7  1  0.573031  0.612589  0.143173  1
  Br  Br8  1  0.863399  0.729462  0.762165  1
  Br  Br9  1  0.129163  0.733837  0.262576  1
  Br  Br10  1  0.938508  0.479923  0.494054  1
  Br  Br11  1  0.056397  0.470886  0.998144  1
  Br  Br12  1  0.929586  0.990747  0.005195  1
  Br  Br13  1  0.084372  0.002293  0.491831  1
  Br  Br14  1  0.656627  0.124120  0.615747  1
  Br  Br15  1  0.356304  0.128526  0.119491  1
  Br  Br16  1  0.554326  0.392566  0.876998  1
  Br  Br17  1  0.426460  0.380694  0.372986  1
  Br  Br18  1  0.443654  0.868781  0.863875  1
  Br  Br19  1  0.533943  0.872535  0.365515  1
  Br  Br20  1  0.944367  0.227556  0.235378  1
  Br  Br21  1  0.079004  0.229466  0.722185  1
