# generated using pymatgen
data_Zr4AlTc24
_symmetry_space_group_name_H-M   'P 1'
_cell_length_a   8.40109214
_cell_length_b   8.40109058
_cell_length_c   8.40109000
_cell_angle_alpha   109.47121682
_cell_angle_beta   109.47121306
_cell_angle_gamma   109.47122514
_symmetry_Int_Tables_number   1
_chemical_formula_structural   Zr4AlTc24
_chemical_formula_sum   'Zr4 Al1 Tc24'
_cell_volume   456.44157878
_cell_formula_units_Z   1
loop_
 _symmetry_equiv_pos_site_id
 _symmetry_equiv_pos_as_xyz
  1  'x, y, z'
loop_
 _atom_site_type_symbol
 _atom_site_label
 _atom_site_symmetry_multiplicity
 _atom_site_fract_x
 _atom_site_fract_y
 _atom_site_fract_z
 _atom_site_occupancy
  Zr  Zr0  1  0.370552  0.370552  0.370552  1
  Zr  Zr1  1  0.000000  0.629448  0.000000  1
  Zr  Zr2  1  0.629448  0.000000  0.000000  1
  Zr  Zr3  1  0.000000  0.000000  0.629448  1
  Al  Al4  1  0.000000  0.000000  0.000000  1
  Tc  Tc5  1  0.000000  0.392414  0.672613  1
  Tc  Tc6  1  0.280200  0.607586  0.607586  1
  Tc  Tc7  1  0.719800  0.327387  0.327387  1
  Tc  Tc8  1  0.327387  0.719800  0.327387  1
  Tc  Tc9  1  0.672613  0.000000  0.392414  1
  Tc  Tc10  1  0.000000  0.672613  0.392414  1
  Tc  Tc11  1  0.607586  0.607586  0.280200  1
  Tc  Tc12  1  0.806741  0.806741  0.179708  1
  Tc  Tc13  1  0.372966  0.193259  0.000000  1
  Tc  Tc14  1  0.193259  0.372966  0.000000  1
  Tc  Tc15  1  0.627034  0.820292  0.627034  1
  Tc  Tc16  1  0.372966  0.000000  0.193259  1
  Tc  Tc17  1  0.000000  0.372966  0.193259  1
  Tc  Tc18  1  0.820292  0.627034  0.627034  1
  Tc  Tc19  1  0.179708  0.806741  0.806741  1
  Tc  Tc20  1  0.806741  0.179708  0.806741  1
  Tc  Tc21  1  0.193259  0.000000  0.372966  1
  Tc  Tc22  1  0.000000  0.193259  0.372966  1
  Tc  Tc23  1  0.627034  0.627034  0.820292  1
  Tc  Tc24  1  0.392414  0.000000  0.672613  1
  Tc  Tc25  1  0.607586  0.280200  0.607586  1
  Tc  Tc26  1  0.672613  0.392414  0.000000  1
  Tc  Tc27  1  0.392414  0.672613  0.000000  1
  Tc  Tc28  1  0.327387  0.327387  0.719800  1
