# generated using pymatgen
data_Nd3Y5(HgPt)2
_symmetry_space_group_name_H-M   'P 1'
_cell_length_a   9.78809532
_cell_length_b   9.78809609
_cell_length_c   9.78809600
_cell_angle_alpha   60.00000029
_cell_angle_beta   59.99999769
_cell_angle_gamma   59.99999912
_symmetry_Int_Tables_number   1
_chemical_formula_structural   Nd3Y5(HgPt)2
_chemical_formula_sum   'Nd6 Y10 Hg4 Pt4'
_cell_volume   663.10091424
_cell_formula_units_Z   2
loop_
 _symmetry_equiv_pos_site_id
 _symmetry_equiv_pos_as_xyz
  1  'x, y, z'
loop_
 _atom_site_type_symbol
 _atom_site_label
 _atom_site_symmetry_multiplicity
 _atom_site_fract_x
 _atom_site_fract_y
 _atom_site_fract_z
 _atom_site_occupancy
  Nd  Nd0  1  0.938362  0.561638  0.561638  1
  Nd  Nd1  1  0.561638  0.938362  0.938362  1
  Nd  Nd2  1  0.561638  0.938362  0.561638  1
  Nd  Nd3  1  0.938362  0.561638  0.938362  1
  Nd  Nd4  1  0.561638  0.561638  0.938362  1
  Nd  Nd5  1  0.938362  0.938362  0.561638  1
  Y  Y6  1  0.352571  0.352571  0.352571  1
  Y  Y7  1  0.352571  0.352571  0.942285  1
  Y  Y8  1  0.352571  0.942285  0.352571  1
  Y  Y9  1  0.942285  0.352571  0.352571  1
  Y  Y10  1  0.811007  0.188993  0.188993  1
  Y  Y11  1  0.188993  0.811007  0.811007  1
  Y  Y12  1  0.188993  0.811007  0.188993  1
  Y  Y13  1  0.811007  0.188993  0.811007  1
  Y  Y14  1  0.188993  0.188993  0.811007  1
  Y  Y15  1  0.811007  0.811007  0.188993  1
  Hg  Hg16  1  0.583509  0.583509  0.583509  1
  Hg  Hg17  1  0.583509  0.583509  0.249473  1
  Hg  Hg18  1  0.583509  0.249473  0.583509  1
  Hg  Hg19  1  0.249473  0.583509  0.583509  1
  Pt  Pt20  1  0.143195  0.143195  0.143195  1
  Pt  Pt21  1  0.143195  0.143195  0.570417  1
  Pt  Pt22  1  0.143195  0.570417  0.143195  1
  Pt  Pt23  1  0.570417  0.143195  0.143195  1
