# generated using pymatgen
data_Ho4Tm(In2Co)2
_symmetry_space_group_name_H-M   'P 1'
_cell_length_a   3.55346100
_cell_length_b   7.92172583
_cell_length_c   17.93406826
_cell_angle_alpha   89.58945344
_cell_angle_beta   90.00000000
_cell_angle_gamma   90.00000000
_symmetry_Int_Tables_number   1
_chemical_formula_structural   Ho4Tm(In2Co)2
_chemical_formula_sum   'Ho8 Tm2 In8 Co4'
_cell_volume   504.82288041
_cell_formula_units_Z   2
loop_
 _symmetry_equiv_pos_site_id
 _symmetry_equiv_pos_as_xyz
  1  'x, y, z'
loop_
 _atom_site_type_symbol
 _atom_site_label
 _atom_site_symmetry_multiplicity
 _atom_site_fract_x
 _atom_site_fract_y
 _atom_site_fract_z
 _atom_site_occupancy
  Ho  Ho0  1  0.000000  0.500000  0.500000  1
  Ho  Ho1  1  0.000000  0.000000  0.000000  1
  Ho  Ho2  1  0.000000  0.748440  0.278928  1
  Ho  Ho3  1  0.000000  0.251560  0.721072  1
  Ho  Ho4  1  0.000000  0.751302  0.777557  1
  Ho  Ho5  1  0.000000  0.248698  0.222443  1
  Ho  Ho6  1  0.000000  0.617009  0.090765  1
  Ho  Ho7  1  0.000000  0.382991  0.909235  1
  Tm  Tm8  1  0.000000  0.882945  0.590367  1
  Tm  Tm9  1  0.000000  0.117055  0.409633  1
  In  In10  1  0.500000  0.706288  0.930824  1
  In  In11  1  0.500000  0.293712  0.069176  1
  In  In12  1  0.500000  0.798708  0.431889  1
  In  In13  1  0.500000  0.201292  0.568111  1
  In  In14  1  0.500000  0.570070  0.651330  1
  In  In15  1  0.500000  0.429930  0.348670  1
  In  In16  1  0.500000  0.933499  0.152900  1
  In  In17  1  0.500000  0.066501  0.847100  1
  Co  Co18  1  0.500000  0.522718  0.196485  1
  Co  Co19  1  0.500000  0.477282  0.803515  1
  Co  Co20  1  0.500000  0.976638  0.695197  1
  Co  Co21  1  0.500000  0.023362  0.304803  1
