# generated using pymatgen
data_Tb5Y3(TmSi3)2
_symmetry_space_group_name_H-M   'P 1'
_cell_length_a   8.45183200
_cell_length_b   8.45183144
_cell_length_c   6.35457700
_cell_angle_alpha   90.00000000
_cell_angle_beta   90.00000000
_cell_angle_gamma   120.00001001
_symmetry_Int_Tables_number   1
_chemical_formula_structural   Tb5Y3(TmSi3)2
_chemical_formula_sum   'Tb5 Y3 Tm2 Si6'
_cell_volume   393.11436825
_cell_formula_units_Z   1
loop_
 _symmetry_equiv_pos_site_id
 _symmetry_equiv_pos_as_xyz
  1  'x, y, z'
loop_
 _atom_site_type_symbol
 _atom_site_label
 _atom_site_symmetry_multiplicity
 _atom_site_fract_x
 _atom_site_fract_y
 _atom_site_fract_z
 _atom_site_occupancy
  Tb  Tb0  1  0.666667  0.333333  0.500032  1
  Tb  Tb1  1  0.333333  0.666667  0.500032  1
  Tb  Tb2  1  0.755894  0.755894  0.248143  1
  Tb  Tb3  1  0.244106  0.000000  0.248143  1
  Tb  Tb4  1  0.000000  0.244106  0.248143  1
  Y  Y5  1  0.244257  0.244257  0.751942  1
  Y  Y6  1  0.755743  0.000000  0.751942  1
  Y  Y7  1  0.000000  0.755743  0.751942  1
  Tm  Tm8  1  0.333333  0.666667  0.999886  1
  Tm  Tm9  1  0.666667  0.333333  0.999886  1
  Si  Si10  1  0.394817  0.394817  0.244502  1
  Si  Si11  1  0.605183  0.000000  0.244502  1
  Si  Si12  1  0.000000  0.605183  0.244502  1
  Si  Si13  1  0.605483  0.605483  0.755468  1
  Si  Si14  1  0.394517  0.000000  0.755468  1
  Si  Si15  1  0.000000  0.394517  0.755468  1
