# generated using pymatgen
data_ErLuI18
_symmetry_space_group_name_H-M   'P 1'
_cell_length_a   10.36220649
_cell_length_b   10.37759747
_cell_length_c   10.34928499
_cell_angle_alpha   89.19057039
_cell_angle_beta   89.48936335
_cell_angle_gamma   89.19717986
_symmetry_Int_Tables_number   1
_chemical_formula_structural   ErLuI18
_chemical_formula_sum   'Er1 Lu1 I18'
_cell_volume   1112.64581651
_cell_formula_units_Z   1
loop_
 _symmetry_equiv_pos_site_id
 _symmetry_equiv_pos_as_xyz
  1  'x, y, z'
loop_
 _atom_site_type_symbol
 _atom_site_label
 _atom_site_symmetry_multiplicity
 _atom_site_fract_x
 _atom_site_fract_y
 _atom_site_fract_z
 _atom_site_occupancy
  Er  Er0  1  0.500000  0.500000  0.500000  1
  Lu  Lu1  1  0.000000  0.000000  0.000000  1
  I  I2  1  0.789652  0.464590  0.504424  1
  I  I3  1  0.502814  0.788625  0.464467  1
  I  I4  1  0.464832  0.503927  0.789325  1
  I  I5  1  0.210348  0.535410  0.495576  1
  I  I6  1  0.497186  0.211375  0.535533  1
  I  I7  1  0.535168  0.496073  0.210675  1
  I  I8  1  0.895583  0.373249  0.751836  1
  I  I9  1  0.750412  0.894561  0.373289  1
  I  I10  1  0.373524  0.750945  0.895791  1
  I  I11  1  0.104417  0.626751  0.248164  1
  I  I12  1  0.249588  0.105439  0.626711  1
  I  I13  1  0.626476  0.249055  0.104209  1
  I  I14  1  0.012053  0.974872  0.712630  1
  I  I15  1  0.712382  0.012158  0.972877  1
  I  I16  1  0.973253  0.712400  0.010592  1
  I  I17  1  0.987947  0.025128  0.287370  1
  I  I18  1  0.287618  0.987842  0.027123  1
  I  I19  1  0.026747  0.287600  0.989408  1
