# generated using pymatgen
data_Dy19Y(Bi3Sb)3
_symmetry_space_group_name_H-M   'P 1'
_cell_length_a   8.21679563
_cell_length_b   9.49033800
_cell_length_c   12.01281109
_cell_angle_alpha   90.00000000
_cell_angle_beta   90.02952341
_cell_angle_gamma   90.00000000
_symmetry_Int_Tables_number   1
_chemical_formula_structural   Dy19Y(Bi3Sb)3
_chemical_formula_sum   'Dy19 Y1 Bi9 Sb3'
_cell_volume   936.76090057
_cell_formula_units_Z   1
loop_
 _symmetry_equiv_pos_site_id
 _symmetry_equiv_pos_as_xyz
  1  'x, y, z'
loop_
 _atom_site_type_symbol
 _atom_site_label
 _atom_site_symmetry_multiplicity
 _atom_site_fract_x
 _atom_site_fract_y
 _atom_site_fract_z
 _atom_site_occupancy
  Dy  Dy0  1  0.352672  0.750000  0.212958  1
  Dy  Dy1  1  0.852926  0.750000  0.286608  1
  Dy  Dy2  1  0.148169  0.250000  0.716412  1
  Dy  Dy3  1  0.689048  0.562682  0.057377  1
  Dy  Dy4  1  0.190284  0.933947  0.442584  1
  Dy  Dy5  1  0.311093  0.062253  0.942782  1
  Dy  Dy6  1  0.808435  0.440152  0.558872  1
  Dy  Dy7  1  0.311093  0.437747  0.942782  1
  Dy  Dy8  1  0.808435  0.059848  0.558872  1
  Dy  Dy9  1  0.689048  0.937318  0.057377  1
  Dy  Dy10  1  0.190284  0.566053  0.442584  1
  Dy  Dy11  1  0.475452  0.250000  0.487911  1
  Dy  Dy12  1  0.972585  0.250000  0.012003  1
  Dy  Dy13  1  0.528731  0.750000  0.512721  1
  Dy  Dy14  1  0.027891  0.750000  0.987840  1
  Dy  Dy15  1  0.318070  0.250000  0.216310  1
  Dy  Dy16  1  0.811545  0.250000  0.278912  1
  Dy  Dy17  1  0.683227  0.750000  0.782063  1
  Dy  Dy18  1  0.183735  0.750000  0.717929  1
  Y  Y19  1  0.647309  0.250000  0.786929  1
  Bi  Bi20  1  0.092152  0.250000  0.456493  1
  Bi  Bi21  1  0.565369  0.995176  0.325558  1
  Bi  Bi22  1  0.065696  0.504067  0.174355  1
  Bi  Bi23  1  0.434052  0.495612  0.674577  1
  Bi  Bi24  1  0.934206  0.003957  0.825841  1
  Bi  Bi25  1  0.434052  0.004388  0.674577  1
  Bi  Bi26  1  0.934206  0.496043  0.825841  1
  Bi  Bi27  1  0.565369  0.504824  0.325558  1
  Bi  Bi28  1  0.065696  0.995933  0.174355  1
  Sb  Sb29  1  0.407768  0.750000  0.957972  1
  Sb  Sb30  1  0.908465  0.750000  0.541727  1
  Sb  Sb31  1  0.592936  0.250000  0.041321  1
