# generated using pymatgen
data_AcSm3(AuCl6)4
_symmetry_space_group_name_H-M   'P 1'
_cell_length_a   7.83242219
_cell_length_b   10.12078059
_cell_length_c   14.49526370
_cell_angle_alpha   103.41995352
_cell_angle_beta   96.34190942
_cell_angle_gamma   112.13761773
_symmetry_Int_Tables_number   1
_chemical_formula_structural   AcSm3(AuCl6)4
_chemical_formula_sum   'Ac1 Sm3 Au4 Cl24'
_cell_volume   1009.98835096
_cell_formula_units_Z   1
loop_
 _symmetry_equiv_pos_site_id
 _symmetry_equiv_pos_as_xyz
  1  'x, y, z'
loop_
 _atom_site_type_symbol
 _atom_site_label
 _atom_site_symmetry_multiplicity
 _atom_site_fract_x
 _atom_site_fract_y
 _atom_site_fract_z
 _atom_site_occupancy
  Ac  Ac0  1  0.580567  0.927797  0.622232  1
  Sm  Sm1  1  0.029649  0.688586  0.128486  1
  Sm  Sm2  1  0.417909  0.072928  0.371193  1
  Sm  Sm3  1  0.976017  0.317821  0.877870  1
  Au  Au4  1  0.290272  0.631547  0.767329  1
  Au  Au5  1  0.495805  0.492494  0.496328  1
  Au  Au6  1  0.709235  0.368799  0.235247  1
  Au  Au7  1  0.001494  0.001578  0.001992  1
  Cl  Cl8  1  0.781613  0.097859  0.971898  1
  Cl  Cl9  1  0.722938  0.154890  0.260798  1
  Cl  Cl10  1  0.270566  0.844779  0.743126  1
  Cl  Cl11  1  0.775587  0.793389  0.027598  1
  Cl  Cl12  1  0.624469  0.205322  0.755582  1
  Cl  Cl13  1  0.304054  0.415706  0.789715  1
  Cl  Cl14  1  0.697401  0.586447  0.214185  1
  Cl  Cl15  1  0.295716  0.613306  0.495409  1
  Cl  Cl16  1  0.228210  0.211355  0.978323  1
  Cl  Cl17  1  0.754414  0.717374  0.519952  1
  Cl  Cl18  1  0.219778  0.903055  0.029932  1
  Cl  Cl19  1  0.723700  0.049733  0.471295  1
  Cl  Cl20  1  0.601567  0.721966  0.750556  1
  Cl  Cl21  1  0.961472  0.069194  0.740434  1
  Cl  Cl22  1  0.241137  0.265422  0.469807  1
  Cl  Cl23  1  0.380770  0.807905  0.252215  1
  Cl  Cl24  1  0.977599  0.537061  0.780696  1
  Cl  Cl25  1  0.770415  0.439752  0.984156  1
  Cl  Cl26  1  0.237513  0.567827  0.022454  1
  Cl  Cl27  1  0.021761  0.461950  0.220892  1
  Cl  Cl28  1  0.398488  0.273821  0.252553  1
  Cl  Cl29  1  0.267386  0.951280  0.507180  1
  Cl  Cl30  1  0.689202  0.366277  0.496527  1
  Cl  Cl31  1  0.053295  0.942779  0.264041  1
