# generated using pymatgen
data_Y10Ga3BiSb2
_symmetry_space_group_name_H-M   'P 1'
_cell_length_a   8.80765600
_cell_length_b   8.81847810
_cell_length_c   6.55070600
_cell_angle_alpha   90.00000000
_cell_angle_beta   90.00000000
_cell_angle_gamma   119.95942010
_symmetry_Int_Tables_number   1
_chemical_formula_structural   Y10Ga3BiSb2
_chemical_formula_sum   'Y10 Ga3 Bi1 Sb2'
_cell_volume   440.80871000
_cell_formula_units_Z   1
loop_
 _symmetry_equiv_pos_site_id
 _symmetry_equiv_pos_as_xyz
  1  'x, y, z'
loop_
 _atom_site_type_symbol
 _atom_site_label
 _atom_site_symmetry_multiplicity
 _atom_site_fract_x
 _atom_site_fract_y
 _atom_site_fract_z
 _atom_site_occupancy
  Y  Y0  1  0.324502  0.663629  0.001641  1
  Y  Y1  1  0.660875  0.336371  0.498359  1
  Y  Y2  1  0.660875  0.336371  0.001641  1
  Y  Y3  1  0.324502  0.663629  0.498359  1
  Y  Y4  1  0.233182  0.000000  0.250000  1
  Y  Y5  1  0.243572  0.232049  0.750000  1
  Y  Y6  1  0.011523  0.767951  0.750000  1
  Y  Y7  1  0.016070  0.251785  0.250000  1
  Y  Y8  1  0.764284  0.748215  0.250000  1
  Y  Y9  1  0.756209  0.000000  0.750000  1
  Ga  Ga10  1  0.998662  0.602513  0.250000  1
  Ga  Ga11  1  0.396149  0.397487  0.250000  1
  Ga  Ga12  1  0.397993  0.000000  0.750000  1
  Bi  Bi13  1  0.609986  0.000000  0.250000  1
  Sb  Sb14  1  0.605451  0.609286  0.750000  1
  Sb  Sb15  1  0.996165  0.390714  0.750000  1
