# generated using pymatgen
data_Gd2Dy3Os2
_symmetry_space_group_name_H-M   'P 1'
_cell_length_a   6.37927563
_cell_length_b   7.38134673
_cell_length_c   8.44928400
_cell_angle_alpha   97.02751438
_cell_angle_beta   112.17915946
_cell_angle_gamma   89.99999155
_symmetry_Int_Tables_number   1
_chemical_formula_structural   Gd2Dy3Os2
_chemical_formula_sum   'Gd4 Dy6 Os4'
_cell_volume   365.18889484
_cell_formula_units_Z   2
loop_
 _symmetry_equiv_pos_site_id
 _symmetry_equiv_pos_as_xyz
  1  'x, y, z'
loop_
 _atom_site_type_symbol
 _atom_site_label
 _atom_site_symmetry_multiplicity
 _atom_site_fract_x
 _atom_site_fract_y
 _atom_site_fract_z
 _atom_site_occupancy
  Gd  Gd0  1  0.793077  0.083652  0.815906  1
  Gd  Gd1  1  0.977172  0.416348  0.184094  1
  Gd  Gd2  1  0.206923  0.916348  0.184094  1
  Gd  Gd3  1  0.022828  0.583652  0.815906  1
  Dy  Dy4  1  0.204314  0.183360  0.564707  1
  Dy  Dy5  1  0.639607  0.316640  0.435293  1
  Dy  Dy6  1  0.795686  0.816640  0.435293  1
  Dy  Dy7  1  0.360393  0.683360  0.564707  1
  Dy  Dy8  1  0.422873  0.250000  0.000000  1
  Dy  Dy9  1  0.577127  0.750000  0.000000  1
  Os  Os10  1  0.601468  0.422437  0.779769  1
  Os  Os11  1  0.821698  0.077563  0.220231  1
  Os  Os12  1  0.398532  0.577563  0.220231  1
  Os  Os13  1  0.178302  0.922437  0.779769  1
