# generated using pymatgen
data_Pr3RhAu3
_symmetry_space_group_name_H-M   'P 1'
_cell_length_a   8.34451913
_cell_length_b   8.34451988
_cell_length_c   8.34452109
_cell_angle_alpha   114.29671803
_cell_angle_beta   114.29672951
_cell_angle_gamma   114.29671364
_symmetry_Int_Tables_number   1
_chemical_formula_structural   Pr3RhAu3
_chemical_formula_sum   'Pr6 Rh2 Au6'
_cell_volume   345.10616800
_cell_formula_units_Z   2
loop_
 _symmetry_equiv_pos_site_id
 _symmetry_equiv_pos_as_xyz
  1  'x, y, z'
loop_
 _atom_site_type_symbol
 _atom_site_label
 _atom_site_symmetry_multiplicity
 _atom_site_fract_x
 _atom_site_fract_y
 _atom_site_fract_z
 _atom_site_occupancy
  Pr  Pr0  1  0.395213  0.041325  0.279380  1
  Pr  Pr1  1  0.041325  0.279380  0.395213  1
  Pr  Pr2  1  0.279380  0.395213  0.041325  1
  Pr  Pr3  1  0.604787  0.958675  0.720620  1
  Pr  Pr4  1  0.958675  0.720620  0.604787  1
  Pr  Pr5  1  0.720620  0.604787  0.958675  1
  Rh  Rh6  1  0.000000  0.000000  0.000000  1
  Rh  Rh7  1  0.500000  0.500000  0.500000  1
  Au  Au8  1  0.223138  0.056101  0.555699  1
  Au  Au9  1  0.056101  0.555699  0.223138  1
  Au  Au10  1  0.555699  0.223138  0.056101  1
  Au  Au11  1  0.776862  0.943899  0.444301  1
  Au  Au12  1  0.943899  0.444301  0.776862  1
  Au  Au13  1  0.444301  0.776862  0.943899  1
