# generated using pymatgen
data_Er12OsRuRh2
_symmetry_space_group_name_H-M   'P 1'
_cell_length_a   6.32368171
_cell_length_b   7.25899526
_cell_length_c   9.06778500
_cell_angle_alpha   90.00000000
_cell_angle_beta   90.00000000
_cell_angle_gamma   90.25690693
_symmetry_Int_Tables_number   1
_chemical_formula_structural   Er12OsRuRh2
_chemical_formula_sum   'Er12 Os1 Ru1 Rh2'
_cell_volume   416.23956961
_cell_formula_units_Z   1
loop_
 _symmetry_equiv_pos_site_id
 _symmetry_equiv_pos_as_xyz
  1  'x, y, z'
loop_
 _atom_site_type_symbol
 _atom_site_label
 _atom_site_symmetry_multiplicity
 _atom_site_fract_x
 _atom_site_fract_y
 _atom_site_fract_z
 _atom_site_occupancy
  Er  Er0  1  0.333607  0.674341  0.060719  1
  Er  Er1  1  0.172608  0.179488  0.435173  1
  Er  Er2  1  0.668518  0.324765  0.562255  1
  Er  Er3  1  0.826380  0.820251  0.934754  1
  Er  Er4  1  0.668518  0.324765  0.937745  1
  Er  Er5  1  0.826380  0.820251  0.565246  1
  Er  Er6  1  0.333607  0.674341  0.439281  1
  Er  Er7  1  0.172608  0.179488  0.064827  1
  Er  Er8  1  0.870466  0.537463  0.250000  1
  Er  Er9  1  0.630481  0.038724  0.250000  1
  Er  Er10  1  0.127571  0.463318  0.750000  1
  Er  Er11  1  0.370323  0.963305  0.750000  1
  Os  Os12  1  0.537472  0.615682  0.750000  1
  Ru  Ru13  1  0.461975  0.383733  0.250000  1
  Rh  Rh14  1  0.041610  0.885249  0.250000  1
  Rh  Rh15  1  0.957873  0.114836  0.750000  1
