# generated using pymatgen
data_Li3Ho5(P3Ir4)4
_symmetry_space_group_name_H-M   'P 1'
_cell_length_a   12.70104400
_cell_length_b   12.70104421
_cell_length_c   3.96972100
_cell_angle_alpha   90.00000000
_cell_angle_beta   90.00000000
_cell_angle_gamma   119.99999946
_symmetry_Int_Tables_number   1
_chemical_formula_structural   Li3Ho5(P3Ir4)4
_chemical_formula_sum   'Li3 Ho5 P12 Ir16'
_cell_volume   554.58672154
_cell_formula_units_Z   1
loop_
 _symmetry_equiv_pos_site_id
 _symmetry_equiv_pos_as_xyz
  1  'x, y, z'
loop_
 _atom_site_type_symbol
 _atom_site_label
 _atom_site_symmetry_multiplicity
 _atom_site_fract_x
 _atom_site_fract_y
 _atom_site_fract_z
 _atom_site_occupancy
  Li  Li0  1  0.441448  0.000000  0.000000  1
  Li  Li1  1  0.000000  0.441448  0.000000  1
  Li  Li2  1  0.558552  0.558552  0.000000  1
  Ho  Ho3  1  0.333333  0.666667  0.000000  1
  Ho  Ho4  1  0.666667  0.333333  0.000000  1
  Ho  Ho5  1  0.808792  0.000000  0.500000  1
  Ho  Ho6  1  0.000000  0.808792  0.500000  1
  Ho  Ho7  1  0.191208  0.191208  0.500000  1
  P  P8  1  0.179152  0.000000  0.000000  1
  P  P9  1  0.000000  0.179152  0.000000  1
  P  P10  1  0.820848  0.820848  0.000000  1
  P  P11  1  0.171381  0.483555  0.500000  1
  P  P12  1  0.516445  0.687825  0.500000  1
  P  P13  1  0.312175  0.828619  0.500000  1
  P  P14  1  0.687825  0.516445  0.500000  1
  P  P15  1  0.828619  0.312175  0.500000  1
  P  P16  1  0.483555  0.171381  0.500000  1
  P  P17  1  0.629733  0.000000  0.000000  1
  P  P18  1  0.000000  0.629733  0.000000  1
  P  P19  1  0.370267  0.370267  0.000000  1
  Ir  Ir20  1  0.359158  0.490890  0.500000  1
  Ir  Ir21  1  0.509110  0.868268  0.500000  1
  Ir  Ir22  1  0.131732  0.640842  0.500000  1
  Ir  Ir23  1  0.868268  0.509110  0.500000  1
  Ir  Ir24  1  0.640842  0.131732  0.500000  1
  Ir  Ir25  1  0.490890  0.359158  0.500000  1
  Ir  Ir26  1  0.180604  0.372736  0.000000  1
  Ir  Ir27  1  0.627264  0.807869  0.000000  1
  Ir  Ir28  1  0.192131  0.819396  0.000000  1
  Ir  Ir29  1  0.807869  0.627264  0.000000  1
  Ir  Ir30  1  0.819396  0.192131  0.000000  1
  Ir  Ir31  1  0.372736  0.180604  0.000000  1
  Ir  Ir32  1  0.279494  0.000000  0.500000  1
  Ir  Ir33  1  0.000000  0.279494  0.500000  1
  Ir  Ir34  1  0.720506  0.720506  0.500000  1
  Ir  Ir35  1  0.000000  0.000000  0.000000  1
