# generated using pymatgen
data_Ba4La(ReO6)2
_symmetry_space_group_name_H-M   'P 1'
_cell_length_a   10.33525199
_cell_length_b   10.33525214
_cell_length_c   10.33525337
_cell_angle_alpha   33.60598730
_cell_angle_beta   33.60598578
_cell_angle_gamma   33.60599027
_symmetry_Int_Tables_number   1
_chemical_formula_structural   Ba4La(ReO6)2
_chemical_formula_sum   'Ba4 La1 Re2 O12'
_cell_volume   301.26081628
_cell_formula_units_Z   1
loop_
 _symmetry_equiv_pos_site_id
 _symmetry_equiv_pos_as_xyz
  1  'x, y, z'
loop_
 _atom_site_type_symbol
 _atom_site_label
 _atom_site_symmetry_multiplicity
 _atom_site_fract_x
 _atom_site_fract_y
 _atom_site_fract_z
 _atom_site_occupancy
  Ba  Ba0  1  0.714528  0.714528  0.714528  1
  Ba  Ba1  1  0.285472  0.285472  0.285472  1
  Ba  Ba2  1  0.865093  0.865093  0.865093  1
  Ba  Ba3  1  0.134907  0.134907  0.134907  1
  La  La4  1  0.000000  0.000000  0.000000  1
  Re  Re5  1  0.576545  0.576545  0.576545  1
  Re  Re6  1  0.423455  0.423455  0.423455  1
  O  O7  1  0.230686  0.681939  0.230686  1
  O  O8  1  0.230686  0.230686  0.681939  1
  O  O9  1  0.681939  0.230686  0.230686  1
  O  O10  1  0.769314  0.318061  0.769314  1
  O  O11  1  0.769314  0.769314  0.318061  1
  O  O12  1  0.318061  0.769314  0.769314  1
  O  O13  1  0.388356  0.856225  0.388356  1
  O  O14  1  0.388356  0.388356  0.856225  1
  O  O15  1  0.856225  0.388356  0.388356  1
  O  O16  1  0.611644  0.143775  0.611644  1
  O  O17  1  0.611644  0.611644  0.143775  1
  O  O18  1  0.143775  0.611644  0.611644  1
