# generated using pymatgen
data_FeNi11(BO5)4
_symmetry_space_group_name_H-M   'P 1'
_cell_length_a   3.01122500
_cell_length_b   9.18381145
_cell_length_c   12.35465331
_cell_angle_alpha   89.87110868
_cell_angle_beta   90.00000000
_cell_angle_gamma   90.00000000
_symmetry_Int_Tables_number   1
_chemical_formula_structural   FeNi11(BO5)4
_chemical_formula_sum   'Fe1 Ni11 B4 O20'
_cell_volume   341.66117519
_cell_formula_units_Z   1
loop_
 _symmetry_equiv_pos_site_id
 _symmetry_equiv_pos_as_xyz
  1  'x, y, z'
loop_
 _atom_site_type_symbol
 _atom_site_label
 _atom_site_symmetry_multiplicity
 _atom_site_fract_x
 _atom_site_fract_y
 _atom_site_fract_z
 _atom_site_occupancy
  Fe  Fe0  1  0.000000  0.238927  0.385362  1
  Ni  Ni1  1  0.500000  0.996917  0.500627  1
  Ni  Ni2  1  0.500000  0.500366  0.999750  1
  Ni  Ni3  1  0.000000  0.759751  0.614464  1
  Ni  Ni4  1  0.000000  0.259693  0.886184  1
  Ni  Ni5  1  0.000000  0.740427  0.113414  1
  Ni  Ni6  1  0.000000  0.999740  0.999726  1
  Ni  Ni7  1  0.000000  0.502815  0.500978  1
  Ni  Ni8  1  0.500000  0.996284  0.218303  1
  Ni  Ni9  1  0.500000  0.000824  0.780528  1
  Ni  Ni10  1  0.500000  0.501884  0.720256  1
  Ni  Ni11  1  0.500000  0.502649  0.280736  1
  B  B12  1  0.000000  0.273925  0.138419  1
  B  B13  1  0.000000  0.725234  0.861077  1
  B  B14  1  0.000000  0.226429  0.639376  1
  B  B15  1  0.000000  0.774929  0.360623  1
  O  O16  1  0.000000  0.351480  0.042877  1
  O  O17  1  0.000000  0.649339  0.957861  1
  O  O18  1  0.000000  0.151467  0.541224  1
  O  O19  1  0.000000  0.850532  0.457620  1
  O  O20  1  0.500000  0.106494  0.355884  1
  O  O21  1  0.500000  0.890682  0.644225  1
  O  O22  1  0.500000  0.391188  0.857032  1
  O  O23  1  0.500000  0.609640  0.142318  1
  O  O24  1  0.000000  0.348429  0.237302  1
  O  O25  1  0.000000  0.649781  0.763979  1
  O  O26  1  0.000000  0.148991  0.735517  1
  O  O27  1  0.000000  0.849191  0.262973  1
  O  O28  1  0.500000  0.385311  0.423447  1
  O  O29  1  0.500000  0.617371  0.579408  1
  O  O30  1  0.500000  0.115666  0.920779  1
  O  O31  1  0.500000  0.882997  0.077580  1
  O  O32  1  0.000000  0.122979  0.140145  1
  O  O33  1  0.000000  0.876779  0.859286  1
  O  O34  1  0.000000  0.377240  0.641217  1
  O  O35  1  0.000000  0.623650  0.359505  1
