# generated using pymatgen
data_LaGd3BeSi5
_symmetry_space_group_name_H-M   'P 1'
_cell_length_a   3.88556400
_cell_length_b   4.26664180
_cell_length_c   12.33328800
_cell_angle_alpha   99.96070943
_cell_angle_beta   90.00000000
_cell_angle_gamma   90.00000000
_symmetry_Int_Tables_number   1
_chemical_formula_structural   LaGd3BeSi5
_chemical_formula_sum   'La1 Gd3 Be1 Si5'
_cell_volume   201.38308521
_cell_formula_units_Z   1
loop_
 _symmetry_equiv_pos_site_id
 _symmetry_equiv_pos_as_xyz
  1  'x, y, z'
loop_
 _atom_site_type_symbol
 _atom_site_label
 _atom_site_symmetry_multiplicity
 _atom_site_fract_x
 _atom_site_fract_y
 _atom_site_fract_z
 _atom_site_occupancy
  La  La0  1  0.750000  0.430294  0.860587  1
  Gd  Gd1  1  0.250000  0.571044  0.142088  1
  Gd  Gd2  1  0.750000  0.702044  0.404091  1
  Gd  Gd3  1  0.250000  0.296249  0.592497  1
  Be  Be4  1  0.750000  0.023773  0.047545  1
  Si  Si5  1  0.250000  0.982474  0.964946  1
  Si  Si6  1  0.750000  0.113446  0.226893  1
  Si  Si7  1  0.250000  0.883098  0.766195  1
  Si  Si8  1  0.750000  0.825735  0.651470  1
  Si  Si9  1  0.250000  0.171843  0.343686  1
