# generated using pymatgen
data_Zr10Ga5Sb
_symmetry_space_group_name_H-M   'P 1'
_cell_length_a   8.21277411
_cell_length_b   8.21277396
_cell_length_c   5.75496000
_cell_angle_alpha   90.00000000
_cell_angle_beta   90.00000000
_cell_angle_gamma   120.29444592
_symmetry_Int_Tables_number   1
_chemical_formula_structural   Zr10Ga5Sb
_chemical_formula_sum   'Zr10 Ga5 Sb1'
_cell_volume   335.16330305
_cell_formula_units_Z   1
loop_
 _symmetry_equiv_pos_site_id
 _symmetry_equiv_pos_as_xyz
  1  'x, y, z'
loop_
 _atom_site_type_symbol
 _atom_site_label
 _atom_site_symmetry_multiplicity
 _atom_site_fract_x
 _atom_site_fract_y
 _atom_site_fract_z
 _atom_site_occupancy
  Zr  Zr0  1  0.672967  0.329142  0.002983  1
  Zr  Zr1  1  0.329142  0.672967  0.002983  1
  Zr  Zr2  1  0.329142  0.672967  0.497017  1
  Zr  Zr3  1  0.672967  0.329142  0.497017  1
  Zr  Zr4  1  0.764060  0.764060  0.750000  1
  Zr  Zr5  1  0.243247  0.991103  0.750000  1
  Zr  Zr6  1  0.991103  0.243247  0.750000  1
  Zr  Zr7  1  0.242081  0.242081  0.250000  1
  Zr  Zr8  1  0.754928  0.000644  0.250000  1
  Zr  Zr9  1  0.000644  0.754928  0.250000  1
  Ga  Ga10  1  0.606747  0.996134  0.750000  1
  Ga  Ga11  1  0.996134  0.606747  0.750000  1
  Ga  Ga12  1  0.609569  0.609569  0.250000  1
  Ga  Ga13  1  0.390985  0.003081  0.250000  1
  Ga  Ga14  1  0.003081  0.390985  0.250000  1
  Sb  Sb15  1  0.393203  0.393203  0.750000  1
