# generated using pymatgen
data_Tb9Er(BiPb)3
_symmetry_space_group_name_H-M   'P 1'
_cell_length_a   9.18080500
_cell_length_b   9.18080631
_cell_length_c   6.50924300
_cell_angle_alpha   90.00000000
_cell_angle_beta   90.00000000
_cell_angle_gamma   120.00000610
_symmetry_Int_Tables_number   1
_chemical_formula_structural   Tb9Er(BiPb)3
_chemical_formula_sum   'Tb9 Er1 Bi3 Pb3'
_cell_volume   475.14118634
_cell_formula_units_Z   1
loop_
 _symmetry_equiv_pos_site_id
 _symmetry_equiv_pos_as_xyz
  1  'x, y, z'
loop_
 _atom_site_type_symbol
 _atom_site_label
 _atom_site_symmetry_multiplicity
 _atom_site_fract_x
 _atom_site_fract_y
 _atom_site_fract_z
 _atom_site_occupancy
  Tb  Tb0  1  0.666667  0.333333  0.002420  1
  Tb  Tb1  1  0.333333  0.666667  0.002386  1
  Tb  Tb2  1  0.333333  0.666667  0.497828  1
  Tb  Tb3  1  0.761270  0.761389  0.749750  1
  Tb  Tb4  1  0.238611  0.999881  0.749750  1
  Tb  Tb5  1  0.000119  0.238730  0.749750  1
  Tb  Tb6  1  0.239175  0.239174  0.250225  1
  Tb  Tb7  1  0.760826  0.000002  0.250225  1
  Tb  Tb8  1  0.999998  0.760825  0.250225  1
  Er  Er9  1  0.666667  0.333333  0.497152  1
  Bi  Bi10  1  0.393448  0.392561  0.749249  1
  Bi  Bi11  1  0.607439  0.000887  0.749249  1
  Bi  Bi12  1  0.999113  0.606552  0.749249  1
  Pb  Pb13  1  0.607603  0.606594  0.250846  1
  Pb  Pb14  1  0.393406  0.001009  0.250846  1
  Pb  Pb15  1  0.998991  0.392397  0.250846  1
