# generated using pymatgen
data_Nd6C2SBr5
_symmetry_space_group_name_H-M   'P 1'
_cell_length_a   3.93693782
_cell_length_b   9.03936695
_cell_length_c   10.77221900
_cell_angle_alpha   87.18558800
_cell_angle_beta   79.49190262
_cell_angle_gamma   77.19973288
_symmetry_Int_Tables_number   1
_chemical_formula_structural   Nd6C2SBr5
_chemical_formula_sum   'Nd6 C2 S1 Br5'
_cell_volume   367.54397324
_cell_formula_units_Z   1
loop_
 _symmetry_equiv_pos_site_id
 _symmetry_equiv_pos_as_xyz
  1  'x, y, z'
loop_
 _atom_site_type_symbol
 _atom_site_label
 _atom_site_symmetry_multiplicity
 _atom_site_fract_x
 _atom_site_fract_y
 _atom_site_fract_z
 _atom_site_occupancy
  Nd  Nd0  1  0.579064  0.069841  0.776942  1
  Nd  Nd1  1  0.964653  0.402846  0.671272  1
  Nd  Nd2  1  0.691989  0.162517  0.455081  1
  Nd  Nd3  1  0.040575  0.594917  0.327396  1
  Nd  Nd4  1  0.313113  0.835324  0.543385  1
  Nd  Nd5  1  0.426194  0.927910  0.221400  1
  C  C6  1  0.127526  0.122641  0.625182  1
  C  C7  1  0.877791  0.875070  0.373110  1
  S  S8  1  0.502634  0.498885  0.499297  1
  Br  Br9  1  0.754541  0.739672  0.755865  1
  Br  Br10  1  0.370978  0.378458  0.883184  1
  Br  Br11  1  0.250708  0.258087  0.242546  1
  Br  Br12  1  0.634583  0.618957  0.115518  1
  Br  Br13  1  0.002873  0.998466  0.999137  1
