# generated using pymatgen
data_Ba8Sb5As3Se20
_symmetry_space_group_name_H-M   'P 1'
_cell_length_a   10.55407137
_cell_length_b   12.74961174
_cell_length_c   9.61474743
_cell_angle_alpha   90.26789598
_cell_angle_beta   117.67963324
_cell_angle_gamma   89.78521691
_symmetry_Int_Tables_number   1
_chemical_formula_structural   Ba8Sb5As3Se20
_chemical_formula_sum   'Ba8 Sb5 As3 Se20'
_cell_volume   1145.68924757
_cell_formula_units_Z   1
loop_
 _symmetry_equiv_pos_site_id
 _symmetry_equiv_pos_as_xyz
  1  'x, y, z'
loop_
 _atom_site_type_symbol
 _atom_site_label
 _atom_site_symmetry_multiplicity
 _atom_site_fract_x
 _atom_site_fract_y
 _atom_site_fract_z
 _atom_site_occupancy
  Ba  Ba0  1  0.844897  0.280850  0.420313  1
  Ba  Ba1  1  0.155690  0.780443  0.580297  1
  Ba  Ba2  1  0.352264  0.432994  0.680412  1
  Ba  Ba3  1  0.650500  0.932056  0.317787  1
  Ba  Ba4  1  0.858389  0.274219  0.935779  1
  Ba  Ba5  1  0.146718  0.774610  0.067762  1
  Ba  Ba6  1  0.352046  0.434766  0.168054  1
  Ba  Ba7  1  0.652224  0.931532  0.829130  1
  Sb  Sb8  1  0.235890  0.111291  0.475685  1
  Sb  Sb9  1  0.752606  0.617818  0.525035  1
  Sb  Sb10  1  0.742656  0.588494  0.114986  1
  Sb  Sb11  1  0.258476  0.087948  0.889712  1
  Sb  Sb12  1  0.509752  0.198522  0.474887  1
  As  As13  1  0.482656  0.701128  0.525125  1
  As  As14  1  0.984309  0.006958  0.206404  1
  As  As15  1  0.013573  0.508179  0.794099  1
  Se  Se16  1  0.629891  0.402827  0.054798  1
  Se  Se17  1  0.371125  0.901919  0.945010  1
  Se  Se18  1  0.762872  0.100989  0.131344  1
  Se  Se19  1  0.234928  0.601515  0.865373  1
  Se  Se20  1  0.610459  0.389471  0.555462  1
  Se  Se21  1  0.394146  0.881949  0.448445  1
  Se  Se22  1  0.937248  0.548913  0.420510  1
  Se  Se23  1  0.056737  0.046620  0.582354  1
  Se  Se24  1  0.430292  0.169406  0.771107  1
  Se  Se25  1  0.565669  0.670378  0.226837  1
  Se  Se26  1  0.100530  0.329952  0.803731  1
  Se  Se27  1  0.899232  0.828331  0.195811  1
  Se  Se28  1  0.864309  0.797570  0.653934  1
  Se  Se29  1  0.132972  0.294148  0.346505  1
  Se  Se30  1  0.486966  0.189427  0.194479  1
  Se  Se31  1  0.512153  0.687920  0.789022  1
  Se  Se32  1  0.994849  0.518651  0.035730  1
  Se  Se33  1  0.011911  0.017880  0.971449  1
  Se  Se34  1  0.263158  0.607420  0.377335  1
  Se  Se35  1  0.747903  0.102306  0.625294  1
