# generated using pymatgen
data_Hf10Zr7Si16Mo3
_symmetry_space_group_name_H-M   'P 1'
_cell_length_a   7.00922345
_cell_length_b   7.00734386
_cell_length_c   12.80904166
_cell_angle_alpha   90.14875317
_cell_angle_beta   89.89930789
_cell_angle_gamma   89.84033224
_symmetry_Int_Tables_number   1
_chemical_formula_structural   Hf10Zr7Si16Mo3
_chemical_formula_sum   'Hf10 Zr7 Si16 Mo3'
_cell_volume   629.12384577
_cell_formula_units_Z   1
loop_
 _symmetry_equiv_pos_site_id
 _symmetry_equiv_pos_as_xyz
  1  'x, y, z'
loop_
 _atom_site_type_symbol
 _atom_site_label
 _atom_site_symmetry_multiplicity
 _atom_site_fract_x
 _atom_site_fract_y
 _atom_site_fract_z
 _atom_site_occupancy
  Hf  Hf0  1  0.174618  0.175055  0.000216  1
  Hf  Hf1  1  0.996735  0.346587  0.218781  1
  Hf  Hf2  1  0.497785  0.355729  0.127372  1
  Hf  Hf3  1  0.502879  0.644781  0.625840  1
  Hf  Hf4  1  0.853490  0.001238  0.873536  1
  Hf  Hf5  1  0.144981  0.994810  0.376934  1
  Hf  Hf6  1  0.645109  0.502466  0.373734  1
  Hf  Hf7  1  0.355742  0.497574  0.872959  1
  Hf  Hf8  1  0.001018  0.854071  0.126831  1
  Hf  Hf9  1  0.994673  0.145252  0.622679  1
  Zr  Zr10  1  0.496269  0.155089  0.529018  1
  Zr  Zr11  1  0.503911  0.847004  0.031917  1
  Zr  Zr12  1  0.653942  0.003105  0.282872  1
  Zr  Zr13  1  0.346567  0.996214  0.781292  1
  Zr  Zr14  1  0.846857  0.503629  0.968636  1
  Zr  Zr15  1  0.154524  0.495979  0.470746  1
  Zr  Zr16  1  0.002693  0.653644  0.717015  1
  Si  Si17  1  0.795187  0.146360  0.071653  1
  Si  Si18  1  0.203293  0.854252  0.571589  1
  Si  Si19  1  0.645789  0.703360  0.821685  1
  Si  Si20  1  0.352616  0.296416  0.322455  1
  Si  Si21  1  0.854423  0.203575  0.427971  1
  Si  Si22  1  0.145154  0.794130  0.929153  1
  Si  Si23  1  0.704214  0.645415  0.178215  1
  Si  Si24  1  0.295727  0.353756  0.677242  1
  Si  Si25  1  0.553028  0.201419  0.933739  1
  Si  Si26  1  0.452962  0.800007  0.434607  1
  Si  Si27  1  0.698427  0.952045  0.683255  1
  Si  Si28  1  0.303036  0.045233  0.186290  1
  Si  Si29  1  0.800014  0.452914  0.565083  1
  Si  Si30  1  0.200430  0.551930  0.067012  1
  Si  Si31  1  0.952715  0.697060  0.316412  1
  Si  Si32  1  0.044757  0.303226  0.813675  1
  Mo  Mo33  1  0.675585  0.326202  0.748065  1
  Mo  Mo34  1  0.325657  0.675312  0.251749  1
  Mo  Mo35  1  0.825193  0.825155  0.499772  1
