# generated using pymatgen
data_K4Ba(SiS3)2
_symmetry_space_group_name_H-M   'P 1'
_cell_length_a   7.30785546
_cell_length_b   7.30785624
_cell_length_c   8.46845754
_cell_angle_alpha   81.50711673
_cell_angle_beta   81.50711925
_cell_angle_gamma   119.57037939
_symmetry_Int_Tables_number   1
_chemical_formula_structural   K4Ba(SiS3)2
_chemical_formula_sum   'K4 Ba1 Si2 S6'
_cell_volume   376.02986794
_cell_formula_units_Z   1
loop_
 _symmetry_equiv_pos_site_id
 _symmetry_equiv_pos_as_xyz
  1  'x, y, z'
loop_
 _atom_site_type_symbol
 _atom_site_label
 _atom_site_symmetry_multiplicity
 _atom_site_fract_x
 _atom_site_fract_y
 _atom_site_fract_z
 _atom_site_occupancy
  K  K0  1  0.503415  0.496585  0.000000  1
  K  K1  1  0.821747  0.178253  0.000000  1
  K  K2  1  0.175124  0.824876  0.000000  1
  K  K3  1  0.666157  0.333843  0.500000  1
  Ba  Ba4  1  0.334916  0.665084  0.500000  1
  Si  Si5  1  0.048064  0.048657  0.353371  1
  Si  Si6  1  0.951343  0.951936  0.646629  1
  S  S7  1  0.795100  0.803775  0.267542  1
  S  S8  1  0.196225  0.204900  0.732458  1
  S  S9  1  0.084626  0.362457  0.268455  1
  S  S10  1  0.353824  0.068083  0.269350  1
  S  S11  1  0.931917  0.646176  0.730650  1
  S  S12  1  0.637543  0.915374  0.731545  1
