# generated using pymatgen
data_Ba2EuLu2F12
_symmetry_space_group_name_H-M   'P 1'
_cell_length_a   9.55030900
_cell_length_b   9.55030900
_cell_length_c   5.74589300
_cell_angle_alpha   90.00000000
_cell_angle_beta   90.00000000
_cell_angle_gamma   90.00000000
_symmetry_Int_Tables_number   1
_chemical_formula_structural   Ba2EuLu2F12
_chemical_formula_sum   'Ba4 Eu2 Lu4 F24'
_cell_volume   524.07371857
_cell_formula_units_Z   2
loop_
 _symmetry_equiv_pos_site_id
 _symmetry_equiv_pos_as_xyz
  1  'x, y, z'
loop_
 _atom_site_type_symbol
 _atom_site_label
 _atom_site_symmetry_multiplicity
 _atom_site_fract_x
 _atom_site_fract_y
 _atom_site_fract_z
 _atom_site_occupancy
  Ba  Ba0  1  0.319548  0.819548  0.500000  1
  Ba  Ba1  1  0.819548  0.680452  0.500000  1
  Ba  Ba2  1  0.180452  0.319548  0.500000  1
  Ba  Ba3  1  0.680452  0.180452  0.500000  1
  Eu  Eu4  1  0.500000  0.500000  0.000000  1
  Eu  Eu5  1  0.000000  0.000000  0.000000  1
  Lu  Lu6  1  0.134370  0.634370  0.000000  1
  Lu  Lu7  1  0.634370  0.865630  0.000000  1
  Lu  Lu8  1  0.365630  0.134370  0.000000  1
  Lu  Lu9  1  0.865630  0.365630  0.000000  1
  F  F10  1  0.295838  0.795838  0.000000  1
  F  F11  1  0.795838  0.704162  0.000000  1
  F  F12  1  0.204162  0.295838  0.000000  1
  F  F13  1  0.704162  0.204162  0.000000  1
  F  F14  1  0.555689  0.717349  0.251289  1
  F  F15  1  0.444311  0.282651  0.251289  1
  F  F16  1  0.282651  0.555689  0.251289  1
  F  F17  1  0.717349  0.444311  0.251289  1
  F  F18  1  0.217349  0.055689  0.748711  1
  F  F19  1  0.055689  0.782651  0.748711  1
  F  F20  1  0.500000  0.000000  0.772831  1
  F  F21  1  0.000000  0.500000  0.772831  1
  F  F22  1  0.000000  0.500000  0.227169  1
  F  F23  1  0.500000  0.000000  0.227169  1
  F  F24  1  0.217349  0.055689  0.251289  1
  F  F25  1  0.055689  0.782651  0.251289  1
  F  F26  1  0.944311  0.217349  0.251289  1
  F  F27  1  0.782651  0.944311  0.251289  1
  F  F28  1  0.282651  0.555689  0.748711  1
  F  F29  1  0.717349  0.444311  0.748711  1
  F  F30  1  0.555689  0.717349  0.748711  1
  F  F31  1  0.444311  0.282651  0.748711  1
  F  F32  1  0.782651  0.944311  0.748711  1
  F  F33  1  0.944311  0.217349  0.748711  1
