# generated using pymatgen
data_Tm5Sc3Hg4
_symmetry_space_group_name_H-M   'P 1'
_cell_length_a   4.92857500
_cell_length_b   6.96586600
_cell_length_c   8.84608570
_cell_angle_alpha   89.73729263
_cell_angle_beta   90.00000000
_cell_angle_gamma   90.00000000
_symmetry_Int_Tables_number   1
_chemical_formula_structural   Tm5Sc3Hg4
_chemical_formula_sum   'Tm5 Sc3 Hg4'
_cell_volume   303.69879104
_cell_formula_units_Z   1
loop_
 _symmetry_equiv_pos_site_id
 _symmetry_equiv_pos_as_xyz
  1  'x, y, z'
loop_
 _atom_site_type_symbol
 _atom_site_label
 _atom_site_symmetry_multiplicity
 _atom_site_fract_x
 _atom_site_fract_y
 _atom_site_fract_z
 _atom_site_occupancy
  Tm  Tm0  1  0.250000  0.987692  0.304955  1
  Tm  Tm1  1  0.750000  0.018867  0.697408  1
  Tm  Tm2  1  0.250000  0.481450  0.188068  1
  Tm  Tm3  1  0.750000  0.515908  0.808250  1
  Tm  Tm4  1  0.750000  0.668450  0.426046  1
  Sc  Sc5  1  0.250000  0.329606  0.572972  1
  Sc  Sc6  1  0.750000  0.167987  0.072834  1
  Sc  Sc7  1  0.250000  0.834100  0.929127  1
  Hg  Hg8  1  0.250000  0.249807  0.896772  1
  Hg  Hg9  1  0.750000  0.751950  0.096358  1
  Hg  Hg10  1  0.250000  0.752584  0.609924  1
  Hg  Hg11  1  0.750000  0.241600  0.397286  1
