# generated using pymatgen
data_Hf6Ti3Al13Pt3Rh4
_symmetry_space_group_name_H-M   'P 1'
_cell_length_a   8.77022182
_cell_length_b   8.77083947
_cell_length_c   8.78161581
_cell_angle_alpha   59.80494482
_cell_angle_beta   59.80214330
_cell_angle_gamma   59.91670330
_symmetry_Int_Tables_number   1
_chemical_formula_structural   Hf6Ti3Al13Pt3Rh4
_chemical_formula_sum   'Hf6 Ti3 Al13 Pt3 Rh4'
_cell_volume   475.92953579
_cell_formula_units_Z   1
loop_
 _symmetry_equiv_pos_site_id
 _symmetry_equiv_pos_as_xyz
  1  'x, y, z'
loop_
 _atom_site_type_symbol
 _atom_site_label
 _atom_site_symmetry_multiplicity
 _atom_site_fract_x
 _atom_site_fract_y
 _atom_site_fract_z
 _atom_site_occupancy
  Hf  Hf0  1  0.684370  0.684352  0.313625  1
  Hf  Hf1  1  0.313400  0.684466  0.314647  1
  Hf  Hf2  1  0.684440  0.313416  0.314709  1
  Hf  Hf3  1  0.314684  0.314622  0.682906  1
  Hf  Hf4  1  0.686534  0.312267  0.685275  1
  Hf  Hf5  1  0.312258  0.686567  0.685331  1
  Ti  Ti6  1  0.879266  0.879279  0.359344  1
  Ti  Ti7  1  0.882752  0.358838  0.874593  1
  Ti  Ti8  1  0.358911  0.882740  0.874543  1
  Al  Al9  1  0.885977  0.885974  0.876650  1
  Al  Al10  1  0.119060  0.118949  0.642451  1
  Al  Al11  1  0.117451  0.643444  0.123530  1
  Al  Al12  1  0.643401  0.117401  0.123580  1
  Al  Al13  1  0.117567  0.117484  0.126488  1
  Al  Al14  1  0.664123  0.664283  0.008313  1
  Al  Al15  1  0.666637  0.007829  0.661915  1
  Al  Al16  1  0.007873  0.666715  0.661852  1
  Al  Al17  1  0.663129  0.663261  0.659705  1
  Al  Al18  1  0.336887  0.336887  0.989676  1
  Al  Al19  1  0.335419  0.990092  0.340230  1
  Al  Al20  1  0.990104  0.335415  0.340228  1
  Al  Al21  1  0.334595  0.334596  0.339187  1
  Pt  Pt22  1  0.500874  0.500838  0.997867  1
  Pt  Pt23  1  0.999619  0.499057  0.998933  1
  Pt  Pt24  1  0.499021  0.999667  0.998949  1
  Rh  Rh25  1  0.003453  0.003303  0.002340  1
  Rh  Rh26  1  0.999021  0.999036  0.499259  1
  Rh  Rh27  1  0.501153  0.998016  0.501966  1
  Rh  Rh28  1  0.998023  0.501208  0.501909  1
