# generated using pymatgen
data_Hf20TlZn2Sb9
_symmetry_space_group_name_H-M   'P 1'
_cell_length_a   5.53044600
_cell_length_b   8.28212812
_cell_length_c   15.57592700
_cell_angle_alpha   90.00000000
_cell_angle_beta   90.00000000
_cell_angle_gamma   109.50434343
_symmetry_Int_Tables_number   1
_chemical_formula_structural   Hf20TlZn2Sb9
_chemical_formula_sum   'Hf20 Tl1 Zn2 Sb9'
_cell_volume   672.49784279
_cell_formula_units_Z   1
loop_
 _symmetry_equiv_pos_site_id
 _symmetry_equiv_pos_as_xyz
  1  'x, y, z'
loop_
 _atom_site_type_symbol
 _atom_site_label
 _atom_site_symmetry_multiplicity
 _atom_site_fract_x
 _atom_site_fract_y
 _atom_site_fract_z
 _atom_site_occupancy
  Hf  Hf0  1  0.419785  0.854443  0.351662  1
  Hf  Hf1  1  0.921209  0.857757  0.852420  1
  Hf  Hf2  1  0.063453  0.142243  0.147580  1
  Hf  Hf3  1  0.565344  0.145557  0.648338  1
  Hf  Hf4  1  0.654454  0.295009  0.071913  1
  Hf  Hf5  1  0.157391  0.296404  0.571406  1
  Hf  Hf6  1  0.860988  0.703596  0.428594  1
  Hf  Hf7  1  0.359445  0.704991  0.928087  1
  Hf  Hf8  1  0.845546  0.704991  0.071913  1
  Hf  Hf9  1  0.342609  0.703596  0.571406  1
  Hf  Hf10  1  0.639012  0.296404  0.428594  1
  Hf  Hf11  1  0.140555  0.295009  0.928087  1
  Hf  Hf12  1  0.080215  0.145557  0.351662  1
  Hf  Hf13  1  0.578791  0.142243  0.852420  1
  Hf  Hf14  1  0.436547  0.857757  0.147580  1
  Hf  Hf15  1  0.934656  0.854443  0.648338  1
  Hf  Hf16  1  0.501125  0.500695  0.250060  1
  Hf  Hf17  1  0.000430  0.499305  0.749940  1
  Hf  Hf18  1  0.998875  0.499305  0.250060  1
  Hf  Hf19  1  0.499570  0.500695  0.749940  1
  Tl  Tl20  1  0.750000  0.000000  0.500000  1
  Zn  Zn21  1  0.750000  0.000000  0.000000  1
  Zn  Zn22  1  0.250000  0.000000  0.500000  1
  Sb  Sb23  1  0.914423  0.828611  0.251282  1
  Sb  Sb24  1  0.414188  0.828611  0.748718  1
  Sb  Sb25  1  0.585577  0.171389  0.251282  1
  Sb  Sb26  1  0.085812  0.171389  0.748718  1
  Sb  Sb27  1  0.250000  0.500000  0.085383  1
  Sb  Sb28  1  0.750000  0.500000  0.585455  1
  Sb  Sb29  1  0.250000  0.500000  0.414545  1
  Sb  Sb30  1  0.750000  0.500000  0.914617  1
  Sb  Sb31  1  0.250000  0.000000  0.000000  1
