# generated using pymatgen
data_Ac8DyPd6
_symmetry_space_group_name_H-M   'P 1'
_cell_length_a   8.10374497
_cell_length_b   8.10374505
_cell_length_c   8.10374441
_cell_angle_alpha   72.30648003
_cell_angle_beta   72.30648896
_cell_angle_gamma   72.30648287
_symmetry_Int_Tables_number   1
_chemical_formula_structural   Ac8DyPd6
_chemical_formula_sum   'Ac8 Dy1 Pd6'
_cell_volume   469.71667952
_cell_formula_units_Z   1
loop_
 _symmetry_equiv_pos_site_id
 _symmetry_equiv_pos_as_xyz
  1  'x, y, z'
loop_
 _atom_site_type_symbol
 _atom_site_label
 _atom_site_symmetry_multiplicity
 _atom_site_fract_x
 _atom_site_fract_y
 _atom_site_fract_z
 _atom_site_occupancy
  Ac  Ac0  1  0.797927  0.797927  0.797927  1
  Ac  Ac1  1  0.202073  0.202073  0.202073  1
  Ac  Ac2  1  0.326355  0.619961  0.832903  1
  Ac  Ac3  1  0.832903  0.326355  0.619961  1
  Ac  Ac4  1  0.619960  0.832903  0.326355  1
  Ac  Ac5  1  0.673645  0.380039  0.167097  1
  Ac  Ac6  1  0.167097  0.673645  0.380039  1
  Ac  Ac7  1  0.380039  0.167097  0.673645  1
  Dy  Dy8  1  0.000000  0.000000  0.000000  1
  Pd  Pd9  1  0.145619  0.963220  0.603512  1
  Pd  Pd10  1  0.603512  0.145619  0.963220  1
  Pd  Pd11  1  0.963220  0.603512  0.145619  1
  Pd  Pd12  1  0.854381  0.036780  0.396488  1
  Pd  Pd13  1  0.396488  0.854381  0.036780  1
  Pd  Pd14  1  0.036780  0.396488  0.854381  1
