# generated using pymatgen
data_Er2Tm2Ga12Rh
_symmetry_space_group_name_H-M   'P 1'
_cell_length_a   7.42115791
_cell_length_b   7.42115741
_cell_length_c   7.41855845
_cell_angle_alpha   109.46916089
_cell_angle_beta   109.46916148
_cell_angle_gamma   109.48954561
_symmetry_Int_Tables_number   1
_chemical_formula_structural   Er2Tm2Ga12Rh
_chemical_formula_sum   'Er2 Tm2 Ga12 Rh1'
_cell_volume   314.45953608
_cell_formula_units_Z   1
loop_
 _symmetry_equiv_pos_site_id
 _symmetry_equiv_pos_as_xyz
  1  'x, y, z'
loop_
 _atom_site_type_symbol
 _atom_site_label
 _atom_site_symmetry_multiplicity
 _atom_site_fract_x
 _atom_site_fract_y
 _atom_site_fract_z
 _atom_site_occupancy
  Er  Er0  1  0.500000  0.500000  0.500000  1
  Er  Er1  1  0.000000  0.000000  0.500000  1
  Tm  Tm2  1  0.000000  0.500000  0.000000  1
  Tm  Tm3  1  0.500000  0.000000  0.000000  1
  Ga  Ga4  1  0.750000  0.250000  0.500000  1
  Ga  Ga5  1  0.000748  0.708525  0.709273  1
  Ga  Ga6  1  0.291475  0.999252  0.290727  1
  Ga  Ga7  1  0.500829  0.250105  0.750933  1
  Ga  Ga8  1  0.749895  0.499171  0.249067  1
  Ga  Ga9  1  0.250000  0.750000  0.500000  1
  Ga  Ga10  1  0.250105  0.500829  0.750933  1
  Ga  Ga11  1  0.708525  0.000748  0.709273  1
  Ga  Ga12  1  0.499171  0.749895  0.249067  1
  Ga  Ga13  1  0.708594  0.708594  0.000000  1
  Ga  Ga14  1  0.291406  0.291406  0.000000  1
  Ga  Ga15  1  0.999252  0.291475  0.290727  1
  Rh  Rh16  1  0.000000  0.000000  0.000000  1
