# generated using pymatgen
data_La3Nd2TcIr
_symmetry_space_group_name_H-M   'P 1'
_cell_length_a   9.11108631
_cell_length_b   9.11108694
_cell_length_c   7.39036449
_cell_angle_alpha   84.31355918
_cell_angle_beta   84.31356016
_cell_angle_gamma   43.06470753
_symmetry_Int_Tables_number   1
_chemical_formula_structural   La3Nd2TcIr
_chemical_formula_sum   'La6 Nd4 Tc2 Ir2'
_cell_volume   416.52114693
_cell_formula_units_Z   2
loop_
 _symmetry_equiv_pos_site_id
 _symmetry_equiv_pos_as_xyz
  1  'x, y, z'
loop_
 _atom_site_type_symbol
 _atom_site_label
 _atom_site_symmetry_multiplicity
 _atom_site_fract_x
 _atom_site_fract_y
 _atom_site_fract_z
 _atom_site_occupancy
  La  La0  1  0.021751  0.793714  0.906756  1
  La  La1  1  0.206286  0.978249  0.593244  1
  La  La2  1  0.994243  0.193728  0.087419  1
  La  La3  1  0.806272  0.005757  0.412581  1
  La  La4  1  0.355666  0.212965  0.816528  1
  La  La5  1  0.787035  0.644334  0.683472  1
  Nd  Nd6  1  0.639559  0.788654  0.182709  1
  Nd  Nd7  1  0.211346  0.360441  0.317291  1
  Nd  Nd8  1  0.575935  0.424065  0.750000  1
  Nd  Nd9  1  0.431244  0.568756  0.250000  1
  Tc  Tc10  1  0.162861  0.618249  0.583403  1
  Tc  Tc11  1  0.381751  0.837139  0.916597  1
  Ir  Ir12  1  0.826371  0.400322  0.419515  1
  Ir  Ir13  1  0.599678  0.173629  0.080485  1
