# generated using pymatgen
data_Y2TaNb3(B2Ru5)2
_symmetry_space_group_name_H-M   'P 1'
_cell_length_a   9.57018100
_cell_length_b   9.57260850
_cell_length_c   3.09353700
_cell_angle_alpha   90.00000000
_cell_angle_beta   90.00000000
_cell_angle_gamma   90.74166408
_symmetry_Int_Tables_number   1
_chemical_formula_structural   Y2TaNb3(B2Ru5)2
_chemical_formula_sum   'Y2 Ta1 Nb3 B4 Ru10'
_cell_volume   283.38011852
_cell_formula_units_Z   1
loop_
 _symmetry_equiv_pos_site_id
 _symmetry_equiv_pos_as_xyz
  1  'x, y, z'
loop_
 _atom_site_type_symbol
 _atom_site_label
 _atom_site_symmetry_multiplicity
 _atom_site_fract_x
 _atom_site_fract_y
 _atom_site_fract_z
 _atom_site_occupancy
  Y  Y0  1  0.823654  0.676579  0.000000  1
  Y  Y1  1  0.176346  0.323421  0.000000  1
  Ta  Ta2  1  0.000000  0.000000  0.000000  1
  Nb  Nb3  1  0.324592  0.824918  0.000000  1
  Nb  Nb4  1  0.675408  0.175082  0.000000  1
  Nb  Nb5  1  0.500000  0.500000  0.000000  1
  B  B6  1  0.620487  0.879428  0.000000  1
  B  B7  1  0.379513  0.120572  0.000000  1
  B  B8  1  0.121145  0.621145  0.000000  1
  B  B9  1  0.878855  0.378855  0.000000  1
  Ru  Ru10  1  0.559000  0.723428  0.500000  1
  Ru  Ru11  1  0.441000  0.276572  0.500000  1
  Ru  Ru12  1  0.081633  0.785496  0.500000  1
  Ru  Ru13  1  0.918367  0.214504  0.500000  1
  Ru  Ru14  1  0.285014  0.582113  0.500000  1
  Ru  Ru15  1  0.714986  0.417887  0.500000  1
  Ru  Ru16  1  0.222823  0.059138  0.500000  1
  Ru  Ru17  1  0.777177  0.940862  0.500000  1
  Ru  Ru18  1  0.500000  0.000000  0.500000  1
  Ru  Ru19  1  0.000000  0.500000  0.500000  1
