# generated using pymatgen
data_La14PtRh4Au
_symmetry_space_group_name_H-M   'P 1'
_cell_length_a   6.58625185
_cell_length_b   10.29885135
_cell_length_c   10.30565500
_cell_angle_alpha   120.18351205
_cell_angle_beta   89.81359977
_cell_angle_gamma   90.12804766
_symmetry_Int_Tables_number   1
_chemical_formula_structural   La14PtRh4Au
_chemical_formula_sum   'La14 Pt1 Rh4 Au1'
_cell_volume   604.26144636
_cell_formula_units_Z   1
loop_
 _symmetry_equiv_pos_site_id
 _symmetry_equiv_pos_as_xyz
  1  'x, y, z'
loop_
 _atom_site_type_symbol
 _atom_site_label
 _atom_site_symmetry_multiplicity
 _atom_site_fract_x
 _atom_site_fract_y
 _atom_site_fract_z
 _atom_site_occupancy
  La  La0  1  0.470461  0.334971  0.668325  1
  La  La1  1  0.963381  0.662218  0.338236  1
  La  La2  1  0.247689  0.123870  0.876261  1
  La  La3  1  0.245908  0.744217  0.860950  1
  La  La4  1  0.243523  0.139897  0.257133  1
  La  La5  1  0.731106  0.872373  0.121613  1
  La  La6  1  0.746208  0.249569  0.122625  1
  La  La7  1  0.745514  0.874499  0.751619  1
  La  La8  1  0.440677  0.543381  0.457376  1
  La  La9  1  0.443861  0.930945  0.476020  1
  La  La10  1  0.442958  0.523554  0.069066  1
  La  La11  1  0.931602  0.464301  0.541338  1
  La  La12  1  0.941668  0.076042  0.542938  1
  La  La13  1  0.939463  0.457875  0.921826  1
  Pt  Pt14  1  0.692317  0.185525  0.374694  1
  Rh  Rh15  1  0.197060  0.378453  0.186193  1
  Rh  Rh16  1  0.196672  0.813040  0.622831  1
  Rh  Rh17  1  0.693493  0.189122  0.811338  1
  Rh  Rh18  1  0.695906  0.623936  0.812283  1
  Au  Au19  1  0.192536  0.812213  0.187335  1
