# generated using pymatgen
data_Eu8HoPt6
_symmetry_space_group_name_H-M   'P 1'
_cell_length_a   7.78943484
_cell_length_b   7.78943446
_cell_length_c   7.78943500
_cell_angle_alpha   70.09931315
_cell_angle_beta   70.09930635
_cell_angle_gamma   70.09932135
_symmetry_Int_Tables_number   1
_chemical_formula_structural   Eu8HoPt6
_chemical_formula_sum   'Eu8 Ho1 Pt6'
_cell_volume   404.16637135
_cell_formula_units_Z   1
loop_
 _symmetry_equiv_pos_site_id
 _symmetry_equiv_pos_as_xyz
  1  'x, y, z'
loop_
 _atom_site_type_symbol
 _atom_site_label
 _atom_site_symmetry_multiplicity
 _atom_site_fract_x
 _atom_site_fract_y
 _atom_site_fract_z
 _atom_site_occupancy
  Eu  Eu0  1  0.800822  0.800822  0.800822  1
  Eu  Eu1  1  0.199938  0.199938  0.199938  1
  Eu  Eu2  1  0.332862  0.602008  0.844829  1
  Eu  Eu3  1  0.844829  0.332862  0.602008  1
  Eu  Eu4  1  0.602008  0.844829  0.332862  1
  Eu  Eu5  1  0.667673  0.398801  0.152885  1
  Eu  Eu6  1  0.152885  0.667673  0.398801  1
  Eu  Eu7  1  0.398801  0.152885  0.667673  1
  Ho  Ho8  1  0.000557  0.000557  0.000557  1
  Pt  Pt9  1  0.151463  0.958125  0.604426  1
  Pt  Pt10  1  0.604426  0.151463  0.958125  1
  Pt  Pt11  1  0.958125  0.604426  0.151463  1
  Pt  Pt12  1  0.844470  0.042646  0.398496  1
  Pt  Pt13  1  0.398496  0.844470  0.042646  1
  Pt  Pt14  1  0.042646  0.398496  0.844470  1
