# generated using pymatgen
data_Hf6Al16Ni2Rh5
_symmetry_space_group_name_H-M   'P 1'
_cell_length_a   8.68868617
_cell_length_b   8.62458152
_cell_length_c   8.62458203
_cell_angle_alpha   60.49235628
_cell_angle_beta   59.75382282
_cell_angle_gamma   59.75381775
_symmetry_Int_Tables_number   1
_chemical_formula_structural   Hf6Al16Ni2Rh5
_chemical_formula_sum   'Hf6 Al16 Ni2 Rh5'
_cell_volume   456.94806551
_cell_formula_units_Z   1
loop_
 _symmetry_equiv_pos_site_id
 _symmetry_equiv_pos_as_xyz
  1  'x, y, z'
loop_
 _atom_site_type_symbol
 _atom_site_label
 _atom_site_symmetry_multiplicity
 _atom_site_fract_x
 _atom_site_fract_y
 _atom_site_fract_z
 _atom_site_occupancy
  Hf  Hf0  1  0.673053  0.326946  0.326946  1
  Hf  Hf1  1  0.326946  0.673053  0.673053  1
  Hf  Hf2  1  0.307682  0.692317  0.307682  1
  Hf  Hf3  1  0.307682  0.307682  0.692317  1
  Hf  Hf4  1  0.692317  0.307682  0.692317  1
  Hf  Hf5  1  0.692317  0.692317  0.307682  1
  Al  Al6  1  0.330100  0.339688  0.339688  1
  Al  Al7  1  0.339688  0.330100  0.990523  1
  Al  Al8  1  0.990523  0.339688  0.339688  1
  Al  Al9  1  0.339688  0.990523  0.330100  1
  Al  Al10  1  0.669900  0.660312  0.660312  1
  Al  Al11  1  0.660312  0.669900  0.009477  1
  Al  Al12  1  0.660312  0.009477  0.669900  1
  Al  Al13  1  0.009477  0.660312  0.660312  1
  Al  Al14  1  0.119269  0.120427  0.120427  1
  Al  Al15  1  0.120427  0.119269  0.639877  1
  Al  Al16  1  0.639877  0.120427  0.120427  1
  Al  Al17  1  0.120427  0.639877  0.119269  1
  Al  Al18  1  0.880730  0.879572  0.879572  1
  Al  Al19  1  0.879572  0.880730  0.360126  1
  Al  Al20  1  0.879572  0.360126  0.880730  1
  Al  Al21  1  0.360126  0.879572  0.879572  1
  Ni  Ni22  1  0.500000  0.000000  0.000000  1
  Ni  Ni23  1  0.000000  0.500000  0.500000  1
  Rh  Rh24  1  0.000000  0.000000  0.000000  1
  Rh  Rh25  1  0.000000  0.500000  0.000000  1
  Rh  Rh26  1  0.000000  0.000000  0.500000  1
  Rh  Rh27  1  0.500000  0.000000  0.500000  1
  Rh  Rh28  1  0.500000  0.500000  0.000000  1
