# generated using pymatgen
data_TbEr11In2(CoTc)2
_symmetry_space_group_name_H-M   'P 1'
_cell_length_a   8.38084545
_cell_length_b   8.37679276
_cell_length_c   8.38084582
_cell_angle_alpha   112.87557094
_cell_angle_beta   111.07523400
_cell_angle_gamma   104.59501587
_symmetry_Int_Tables_number   1
_chemical_formula_structural   TbEr11In2(CoTc)2
_chemical_formula_sum   'Tb1 Er11 In2 Co2 Tc2'
_cell_volume   450.26429907
_cell_formula_units_Z   1
loop_
 _symmetry_equiv_pos_site_id
 _symmetry_equiv_pos_as_xyz
  1  'x, y, z'
loop_
 _atom_site_type_symbol
 _atom_site_label
 _atom_site_symmetry_multiplicity
 _atom_site_fract_x
 _atom_site_fract_y
 _atom_site_fract_z
 _atom_site_occupancy
  Tb  Tb0  1  0.672959  0.991233  0.318275  1
  Er  Er1  1  0.444958  0.245163  0.201013  1
  Er  Er2  1  0.553906  0.755330  0.797988  1
  Er  Er3  1  0.044149  0.245163  0.800205  1
  Er  Er4  1  0.957343  0.755330  0.201424  1
  Er  Er5  1  0.185682  0.288085  0.472996  1
  Er  Er6  1  0.815287  0.711619  0.527742  1
  Er  Er7  1  0.183876  0.711619  0.896331  1
  Er  Er8  1  0.815090  0.288085  0.102403  1
  Er  Er9  1  0.327008  0.647153  0.320145  1
  Er  Er10  1  0.672212  0.352992  0.680779  1
  Er  Er11  1  0.327674  0.007716  0.680041  1
  In  In12  1  0.499725  0.498993  0.999269  1
  In  In13  1  0.999728  0.999850  0.000122  1
  Co  Co14  1  0.111374  0.611174  0.499800  1
  Co  Co15  1  0.889615  0.390301  0.500686  1
  Tc  Tc16  1  0.321924  0.000097  0.322607  1
  Tc  Tc17  1  0.677490  0.000097  0.678174  1
