# generated using pymatgen
data_Ce4MnFeSi2
_symmetry_space_group_name_H-M   'P 1'
_cell_length_a   7.37964500
_cell_length_b   7.37964471
_cell_length_c   9.40452500
_cell_angle_alpha   90.00000000
_cell_angle_beta   90.00000000
_cell_angle_gamma   119.99999680
_symmetry_Int_Tables_number   1
_chemical_formula_structural   Ce4MnFeSi2
_chemical_formula_sum   'Ce12 Mn3 Fe3 Si6'
_cell_volume   443.54576313
_cell_formula_units_Z   3
loop_
 _symmetry_equiv_pos_site_id
 _symmetry_equiv_pos_as_xyz
  1  'x, y, z'
loop_
 _atom_site_type_symbol
 _atom_site_label
 _atom_site_symmetry_multiplicity
 _atom_site_fract_x
 _atom_site_fract_y
 _atom_site_fract_z
 _atom_site_occupancy
  Ce  Ce0  1  0.000000  0.572700  0.499116  1
  Ce  Ce1  1  0.572700  0.000000  0.499116  1
  Ce  Ce2  1  0.427300  0.427300  0.499116  1
  Ce  Ce3  1  0.000000  0.422423  0.001974  1
  Ce  Ce4  1  0.422423  0.000000  0.001974  1
  Ce  Ce5  1  0.577577  0.577577  0.001974  1
  Ce  Ce6  1  0.000000  0.746258  0.175363  1
  Ce  Ce7  1  0.746258  0.000000  0.175363  1
  Ce  Ce8  1  0.253742  0.253742  0.175363  1
  Ce  Ce9  1  0.000000  0.257217  0.673058  1
  Ce  Ce10  1  0.257217  0.000000  0.673058  1
  Ce  Ce11  1  0.742783  0.742783  0.673058  1
  Mn  Mn12  1  0.000000  0.348722  0.341514  1
  Mn  Mn13  1  0.348722  0.000000  0.341514  1
  Mn  Mn14  1  0.651278  0.651278  0.341514  1
  Fe  Fe15  1  0.000000  0.649716  0.842879  1
  Fe  Fe16  1  0.649716  0.000000  0.842879  1
  Fe  Fe17  1  0.350284  0.350284  0.842879  1
  Si  Si18  1  0.666667  0.333333  0.270453  1
  Si  Si19  1  0.333333  0.666667  0.270453  1
  Si  Si20  1  0.333333  0.666667  0.773998  1
  Si  Si21  1  0.666667  0.333333  0.773998  1
  Si  Si22  1  0.000000  0.000000  0.421707  1
  Si  Si23  1  0.000000  0.000000  0.916927  1
