# generated using pymatgen
data_Sm5Ho2Er(Si3Rh)4
_symmetry_space_group_name_H-M   'P 1'
_cell_length_a   8.21487300
_cell_length_b   8.21300556
_cell_length_c   8.06516700
_cell_angle_alpha   90.00000000
_cell_angle_beta   90.00000000
_cell_angle_gamma   120.00752586
_symmetry_Int_Tables_number   1
_chemical_formula_structural   Sm5Ho2Er(Si3Rh)4
_chemical_formula_sum   'Sm5 Ho2 Er1 Si12 Rh4'
_cell_volume   471.20948811
_cell_formula_units_Z   1
loop_
 _symmetry_equiv_pos_site_id
 _symmetry_equiv_pos_as_xyz
  1  'x, y, z'
loop_
 _atom_site_type_symbol
 _atom_site_label
 _atom_site_symmetry_multiplicity
 _atom_site_fract_x
 _atom_site_fract_y
 _atom_site_fract_z
 _atom_site_occupancy
  Sm  Sm0  1  0.999962  0.999923  0.250000  1
  Sm  Sm1  1  0.000017  0.000033  0.750000  1
  Sm  Sm2  1  0.495145  0.504893  0.250000  1
  Sm  Sm3  1  0.495147  0.990294  0.250000  1
  Sm  Sm4  1  0.009748  0.504893  0.250000  1
  Ho  Ho5  1  0.507255  0.492634  0.750000  1
  Ho  Ho6  1  0.985380  0.492634  0.750000  1
  Er  Er7  1  0.507223  0.014444  0.750000  1
  Si  Si8  1  0.833438  0.166398  0.504618  1
  Si  Si9  1  0.833541  0.667082  0.504288  1
  Si  Si10  1  0.332958  0.166398  0.504618  1
  Si  Si11  1  0.833438  0.166398  0.995382  1
  Si  Si12  1  0.833541  0.667082  0.995712  1
  Si  Si13  1  0.332958  0.166398  0.995382  1
  Si  Si14  1  0.167943  0.832159  0.997392  1
  Si  Si15  1  0.664216  0.832159  0.997392  1
  Si  Si16  1  0.167908  0.335816  0.997491  1
  Si  Si17  1  0.167943  0.832159  0.502608  1
  Si  Si18  1  0.664216  0.832159  0.502608  1
  Si  Si19  1  0.167908  0.335816  0.502509  1
  Rh  Rh20  1  0.666566  0.333131  0.490113  1
  Rh  Rh21  1  0.666566  0.333131  0.009887  1
  Rh  Rh22  1  0.333491  0.666982  0.959702  1
  Rh  Rh23  1  0.333491  0.666982  0.540298  1
