# generated using pymatgen
data_AgMo(SO4)2
_symmetry_space_group_name_H-M   'P 1'
_cell_length_a   5.01211656
_cell_length_b   5.01211676
_cell_length_c   7.60909677
_cell_angle_alpha   92.49751820
_cell_angle_beta   92.49751889
_cell_angle_gamma   65.00475647
_symmetry_Int_Tables_number   1
_chemical_formula_structural   AgMo(SO4)2
_chemical_formula_sum   'Ag1 Mo1 S2 O8'
_cell_volume   173.01648273
_cell_formula_units_Z   1
loop_
 _symmetry_equiv_pos_site_id
 _symmetry_equiv_pos_as_xyz
  1  'x, y, z'
loop_
 _atom_site_type_symbol
 _atom_site_label
 _atom_site_symmetry_multiplicity
 _atom_site_fract_x
 _atom_site_fract_y
 _atom_site_fract_z
 _atom_site_occupancy
  Ag  Ag0  1  0.000000  0.000000  0.500000  1
  Mo  Mo1  1  0.000000  0.000000  0.000000  1
  S  S2  1  0.346165  0.346165  0.780617  1
  S  S3  1  0.653835  0.653835  0.219383  1
  O  O4  1  0.262262  0.262262  0.608914  1
  O  O5  1  0.737738  0.737738  0.391086  1
  O  O6  1  0.677477  0.226101  0.796586  1
  O  O7  1  0.322523  0.773899  0.203414  1
  O  O8  1  0.773899  0.322523  0.203414  1
  O  O9  1  0.226101  0.677477  0.796586  1
  O  O10  1  0.242460  0.242460  0.933078  1
  O  O11  1  0.757540  0.757540  0.066922  1
