# generated using pymatgen
data_Tm16In4Ru3Pt
_symmetry_space_group_name_H-M   'P 1'
_cell_length_a   9.54276144
_cell_length_b   9.54935488
_cell_length_c   9.54935500
_cell_angle_alpha   60.00000306
_cell_angle_beta   59.97714444
_cell_angle_gamma   59.97714392
_symmetry_Int_Tables_number   1
_chemical_formula_structural   Tm16In4Ru3Pt
_chemical_formula_sum   'Tm16 In4 Ru3 Pt1'
_cell_volume   615.11601041
_cell_formula_units_Z   1
loop_
 _symmetry_equiv_pos_site_id
 _symmetry_equiv_pos_as_xyz
  1  'x, y, z'
loop_
 _atom_site_type_symbol
 _atom_site_label
 _atom_site_symmetry_multiplicity
 _atom_site_fract_x
 _atom_site_fract_y
 _atom_site_fract_z
 _atom_site_occupancy
  Tm  Tm0  1  0.346855  0.351709  0.351709  1
  Tm  Tm1  1  0.346855  0.351709  0.949728  1
  Tm  Tm2  1  0.346855  0.949728  0.351709  1
  Tm  Tm3  1  0.957724  0.347426  0.347426  1
  Tm  Tm4  1  0.814619  0.190905  0.190905  1
  Tm  Tm5  1  0.189734  0.809480  0.809480  1
  Tm  Tm6  1  0.189734  0.809480  0.191307  1
  Tm  Tm7  1  0.814619  0.190905  0.803572  1
  Tm  Tm8  1  0.189734  0.191307  0.809480  1
  Tm  Tm9  1  0.814619  0.803572  0.190905  1
  Tm  Tm10  1  0.938478  0.559850  0.559850  1
  Tm  Tm11  1  0.556094  0.939640  0.939640  1
  Tm  Tm12  1  0.556094  0.939640  0.564627  1
  Tm  Tm13  1  0.938478  0.559850  0.941824  1
  Tm  Tm14  1  0.556094  0.564627  0.939640  1
  Tm  Tm15  1  0.938478  0.941824  0.559850  1
  In  In16  1  0.583369  0.582567  0.582567  1
  In  In17  1  0.583369  0.582567  0.251497  1
  In  In18  1  0.583369  0.251497  0.582567  1
  In  In19  1  0.246629  0.584457  0.584457  1
  Ru  Ru20  1  0.144407  0.139557  0.139557  1
  Ru  Ru21  1  0.144407  0.139557  0.576479  1
  Ru  Ru22  1  0.144407  0.576479  0.139557  1
  Pt  Pt23  1  0.574987  0.141671  0.141671  1
