# generated using pymatgen
data_YbPaCdPt2
_symmetry_space_group_name_H-M   'P 1'
_cell_length_a   7.72876700
_cell_length_b   7.86785000
_cell_length_c   3.68990400
_cell_angle_alpha   90.00000000
_cell_angle_beta   90.00000000
_cell_angle_gamma   90.00000000
_symmetry_Int_Tables_number   1
_chemical_formula_structural   YbPaCdPt2
_chemical_formula_sum   'Yb2 Pa2 Cd2 Pt4'
_cell_volume   224.37855849
_cell_formula_units_Z   2
loop_
 _symmetry_equiv_pos_site_id
 _symmetry_equiv_pos_as_xyz
  1  'x, y, z'
loop_
 _atom_site_type_symbol
 _atom_site_label
 _atom_site_symmetry_multiplicity
 _atom_site_fract_x
 _atom_site_fract_y
 _atom_site_fract_z
 _atom_site_occupancy
  Yb  Yb0  1  0.831952  0.670454  0.500000  1
  Yb  Yb1  1  0.668048  0.170454  0.500000  1
  Pa  Pa2  1  0.164358  0.332270  0.500000  1
  Pa  Pa3  1  0.335642  0.832270  0.500000  1
  Cd  Cd4  1  0.511140  0.492601  0.000000  1
  Cd  Cd5  1  0.988860  0.992601  0.000000  1
  Pt  Pt6  1  0.607260  0.867610  0.000000  1
  Pt  Pt7  1  0.149885  0.637066  0.000000  1
  Pt  Pt8  1  0.892740  0.367610  0.000000  1
  Pt  Pt9  1  0.350115  0.137066  0.000000  1
