# generated using pymatgen
data_Tm3Mn8CoP6
_symmetry_space_group_name_H-M   'P 1'
_cell_length_a   3.60804200
_cell_length_b   10.83543200
_cell_length_c   12.56793600
_cell_angle_alpha   90.00000000
_cell_angle_beta   90.00000000
_cell_angle_gamma   90.00000000
_symmetry_Int_Tables_number   1
_chemical_formula_structural   Tm3Mn8CoP6
_chemical_formula_sum   'Tm6 Mn16 Co2 P12'
_cell_volume   491.33960892
_cell_formula_units_Z   2
loop_
 _symmetry_equiv_pos_site_id
 _symmetry_equiv_pos_as_xyz
  1  'x, y, z'
loop_
 _atom_site_type_symbol
 _atom_site_label
 _atom_site_symmetry_multiplicity
 _atom_site_fract_x
 _atom_site_fract_y
 _atom_site_fract_z
 _atom_site_occupancy
  Tm  Tm0  1  0.000000  0.500000  0.531561  1
  Tm  Tm1  1  0.500000  0.000000  0.468439  1
  Tm  Tm2  1  0.500000  0.823315  0.206922  1
  Tm  Tm3  1  0.500000  0.176685  0.206922  1
  Tm  Tm4  1  0.000000  0.676685  0.793078  1
  Tm  Tm5  1  0.000000  0.323315  0.793078  1
  Mn  Mn6  1  0.500000  0.500000  0.164640  1
  Mn  Mn7  1  0.000000  0.000000  0.835360  1
  Mn  Mn8  1  0.000000  0.500000  0.992534  1
  Mn  Mn9  1  0.500000  0.000000  0.007466  1
  Mn  Mn10  1  0.500000  0.332760  0.996397  1
  Mn  Mn11  1  0.500000  0.667240  0.996397  1
  Mn  Mn12  1  0.000000  0.167240  0.003603  1
  Mn  Mn13  1  0.000000  0.832760  0.003603  1
  Mn  Mn14  1  0.500000  0.298468  0.432558  1
  Mn  Mn15  1  0.500000  0.701532  0.432558  1
  Mn  Mn16  1  0.000000  0.201532  0.567442  1
  Mn  Mn17  1  0.000000  0.798468  0.567442  1
  Mn  Mn18  1  0.500000  0.880220  0.702734  1
  Mn  Mn19  1  0.500000  0.119780  0.702734  1
  Mn  Mn20  1  0.000000  0.619780  0.297266  1
  Mn  Mn21  1  0.000000  0.380220  0.297266  1
  Co  Co22  1  0.500000  0.500000  0.704893  1
  Co  Co23  1  0.000000  0.000000  0.295107  1
  P  P24  1  0.500000  0.500000  0.879333  1
  P  P25  1  0.000000  0.000000  0.120667  1
  P  P26  1  0.500000  0.500000  0.359443  1
  P  P27  1  0.000000  0.000000  0.640557  1
  P  P28  1  0.500000  0.319352  0.619069  1
  P  P29  1  0.500000  0.680648  0.619069  1
  P  P30  1  0.000000  0.180648  0.380931  1
  P  P31  1  0.000000  0.819352  0.380931  1
  P  P32  1  0.500000  0.844394  0.884548  1
  P  P33  1  0.500000  0.155606  0.884548  1
  P  P34  1  0.000000  0.655606  0.115452  1
  P  P35  1  0.000000  0.344394  0.115452  1
