# generated using pymatgen
data_Y18Th2Si15Pt
_symmetry_space_group_name_H-M   'P 1'
_cell_length_a   7.43760842
_cell_length_b   7.75283887
_cell_length_c   14.68257643
_cell_angle_alpha   89.67700149
_cell_angle_beta   89.89681124
_cell_angle_gamma   89.89293685
_symmetry_Int_Tables_number   1
_chemical_formula_structural   Y18Th2Si15Pt
_chemical_formula_sum   'Y18 Th2 Si15 Pt1'
_cell_volume   846.61894499
_cell_formula_units_Z   1
loop_
 _symmetry_equiv_pos_site_id
 _symmetry_equiv_pos_as_xyz
  1  'x, y, z'
loop_
 _atom_site_type_symbol
 _atom_site_label
 _atom_site_symmetry_multiplicity
 _atom_site_fract_x
 _atom_site_fract_y
 _atom_site_fract_z
 _atom_site_occupancy
  Y  Y0  1  0.812111  0.575011  0.874375  1
  Y  Y1  1  0.319391  0.426267  0.125876  1
  Y  Y2  1  0.182795  0.928154  0.373499  1
  Y  Y3  1  0.682699  0.069445  0.627191  1
  Y  Y4  1  0.181763  0.928088  0.627712  1
  Y  Y5  1  0.681465  0.071400  0.371858  1
  Y  Y6  1  0.814599  0.572405  0.126571  1
  Y  Y7  1  0.321159  0.429727  0.873033  1
  Y  Y8  1  0.643445  0.234460  0.998922  1
  Y  Y9  1  0.155101  0.759645  0.000884  1
  Y  Y10  1  0.351402  0.260648  0.499839  1
  Y  Y11  1  0.850824  0.738580  0.500264  1
  Y  Y12  1  0.475208  0.932336  0.845795  1
  Y  Y13  1  0.972762  0.066420  0.152806  1
  Y  Y14  1  0.476051  0.931225  0.154955  1
  Y  Y15  1  0.974558  0.069889  0.846476  1
  Y  Y16  1  0.526786  0.564909  0.651402  1
  Y  Y17  1  0.026928  0.433899  0.348252  1
  Th  Th18  1  0.523814  0.568548  0.345109  1
  Th  Th19  1  0.023742  0.428713  0.654321  1
  Si  Si20  1  0.019925  0.350790  0.000654  1
  Si  Si21  1  0.477944  0.854667  0.500027  1
  Si  Si22  1  0.977516  0.144840  0.499973  1
  Si  Si23  1  0.652966  0.277449  0.789444  1
  Si  Si24  1  0.151624  0.720807  0.210689  1
  Si  Si25  1  0.351590  0.220979  0.290040  1
  Si  Si26  1  0.852484  0.778896  0.710971  1
  Si  Si27  1  0.356824  0.221717  0.709556  1
  Si  Si28  1  0.857524  0.778710  0.289286  1
  Si  Si29  1  0.646263  0.272739  0.207859  1
  Si  Si30  1  0.145628  0.725304  0.791841  1
  Si  Si31  1  0.771291  0.881376  0.001093  1
  Si  Si32  1  0.258718  0.125496  0.999420  1
  Si  Si33  1  0.232260  0.622708  0.502000  1
  Si  Si34  1  0.732066  0.377945  0.498260  1
  Pt  Pt35  1  0.518776  0.655808  0.999748  1
