# generated using pymatgen
data_KSr2Cd2Bi3
_symmetry_space_group_name_H-M   'P 1'
_cell_length_a   5.03601700
_cell_length_b   13.27253400
_cell_length_c   16.92192700
_cell_angle_alpha   90.00000000
_cell_angle_beta   90.00000000
_cell_angle_gamma   90.00000000
_symmetry_Int_Tables_number   1
_chemical_formula_structural   KSr2Cd2Bi3
_chemical_formula_sum   'K4 Sr8 Cd8 Bi12'
_cell_volume   1131.07356206
_cell_formula_units_Z   4
loop_
 _symmetry_equiv_pos_site_id
 _symmetry_equiv_pos_as_xyz
  1  'x, y, z'
loop_
 _atom_site_type_symbol
 _atom_site_label
 _atom_site_symmetry_multiplicity
 _atom_site_fract_x
 _atom_site_fract_y
 _atom_site_fract_z
 _atom_site_occupancy
  K  K0  1  0.250000  0.402371  0.551168  1
  K  K1  1  0.750000  0.097629  0.051168  1
  K  K2  1  0.250000  0.902371  0.948832  1
  K  K3  1  0.750000  0.597629  0.448832  1
  Sr  Sr4  1  0.250000  0.360717  0.281444  1
  Sr  Sr5  1  0.750000  0.139283  0.781444  1
  Sr  Sr6  1  0.250000  0.860717  0.218556  1
  Sr  Sr7  1  0.750000  0.639283  0.718556  1
  Sr  Sr8  1  0.250000  0.102102  0.426972  1
  Sr  Sr9  1  0.750000  0.397898  0.926972  1
  Sr  Sr10  1  0.250000  0.602102  0.073028  1
  Sr  Sr11  1  0.750000  0.897898  0.573028  1
  Cd  Cd12  1  0.250000  0.303711  0.078546  1
  Cd  Cd13  1  0.750000  0.196289  0.578546  1
  Cd  Cd14  1  0.250000  0.803711  0.421454  1
  Cd  Cd15  1  0.750000  0.696289  0.921454  1
  Cd  Cd16  1  0.250000  0.363841  0.787858  1
  Cd  Cd17  1  0.750000  0.136159  0.287858  1
  Cd  Cd18  1  0.250000  0.863841  0.712142  1
  Cd  Cd19  1  0.750000  0.636159  0.212142  1
  Bi  Bi20  1  0.250000  0.119833  0.196125  1
  Bi  Bi21  1  0.750000  0.380167  0.696125  1
  Bi  Bi22  1  0.250000  0.619833  0.303875  1
  Bi  Bi23  1  0.750000  0.880167  0.803875  1
  Bi  Bi24  1  0.250000  0.704998  0.581609  1
  Bi  Bi25  1  0.750000  0.795002  0.081609  1
  Bi  Bi26  1  0.250000  0.204998  0.918391  1
  Bi  Bi27  1  0.750000  0.295002  0.418391  1
  Bi  Bi28  1  0.250000  0.078947  0.633926  1
  Bi  Bi29  1  0.750000  0.421053  0.133926  1
  Bi  Bi30  1  0.250000  0.578947  0.866074  1
  Bi  Bi31  1  0.750000  0.921053  0.366074  1
