# generated using pymatgen
data_Y11Ho9(Bi2Sb)4
_symmetry_space_group_name_H-M   'P 1'
_cell_length_a   8.18442708
_cell_length_b   9.45416907
_cell_length_c   12.02251608
_cell_angle_alpha   90.00760838
_cell_angle_beta   90.01089326
_cell_angle_gamma   90.01201803
_symmetry_Int_Tables_number   1
_chemical_formula_structural   Y11Ho9(Bi2Sb)4
_chemical_formula_sum   'Y11 Ho9 Bi8 Sb4'
_cell_volume   930.26566911
_cell_formula_units_Z   1
loop_
 _symmetry_equiv_pos_site_id
 _symmetry_equiv_pos_as_xyz
  1  'x, y, z'
loop_
 _atom_site_type_symbol
 _atom_site_label
 _atom_site_symmetry_multiplicity
 _atom_site_fract_x
 _atom_site_fract_y
 _atom_site_fract_z
 _atom_site_occupancy
  Y  Y0  1  0.183559  0.749907  0.718339  1
  Y  Y1  1  0.683568  0.750019  0.781755  1
  Y  Y2  1  0.816451  0.249928  0.281640  1
  Y  Y3  1  0.316430  0.250104  0.218332  1
  Y  Y4  1  0.190316  0.938851  0.441289  1
  Y  Y5  1  0.309731  0.061157  0.941315  1
  Y  Y6  1  0.809668  0.438867  0.558704  1
  Y  Y7  1  0.354096  0.749851  0.212762  1
  Y  Y8  1  0.853870  0.749888  0.287044  1
  Y  Y9  1  0.645984  0.249951  0.787182  1
  Y  Y10  1  0.146017  0.250036  0.712809  1
  Ho  Ho11  1  0.029083  0.749938  0.988519  1
  Ho  Ho12  1  0.529296  0.749884  0.511517  1
  Ho  Ho13  1  0.970654  0.250141  0.011523  1
  Ho  Ho14  1  0.470714  0.249910  0.488488  1
  Ho  Ho15  1  0.309743  0.438576  0.941275  1
  Ho  Ho16  1  0.809637  0.061465  0.558771  1
  Ho  Ho17  1  0.690365  0.938348  0.058747  1
  Ho  Ho18  1  0.190364  0.561462  0.441224  1
  Ho  Ho19  1  0.690320  0.561599  0.058734  1
  Bi  Bi20  1  0.433687  0.003767  0.673588  1
  Bi  Bi21  1  0.933638  0.496209  0.826486  1
  Bi  Bi22  1  0.566368  0.503762  0.326340  1
  Bi  Bi23  1  0.066292  0.996223  0.173568  1
  Bi  Bi24  1  0.566484  0.996194  0.326406  1
  Bi  Bi25  1  0.066374  0.503743  0.173551  1
  Bi  Bi26  1  0.433543  0.496197  0.673604  1
  Bi  Bi27  1  0.933516  0.003800  0.826417  1
  Sb  Sb28  1  0.410171  0.749674  0.959290  1
  Sb  Sb29  1  0.910071  0.750197  0.540743  1
  Sb  Sb30  1  0.590076  0.250144  0.040808  1
  Sb  Sb31  1  0.089915  0.250208  0.459233  1
