# generated using pymatgen
data_Nd2Ho8In3Hg5Pd4
_symmetry_space_group_name_H-M   'P 1'
_cell_length_a   3.64987600
_cell_length_b   7.96209328
_cell_length_c   18.49526434
_cell_angle_alpha   89.70230486
_cell_angle_beta   90.00000000
_cell_angle_gamma   90.00000000
_symmetry_Int_Tables_number   1
_chemical_formula_structural   Nd2Ho8In3Hg5Pd4
_chemical_formula_sum   'Nd2 Ho8 In3 Hg5 Pd4'
_cell_volume   537.47720758
_cell_formula_units_Z   1
loop_
 _symmetry_equiv_pos_site_id
 _symmetry_equiv_pos_as_xyz
  1  'x, y, z'
loop_
 _atom_site_type_symbol
 _atom_site_label
 _atom_site_symmetry_multiplicity
 _atom_site_fract_x
 _atom_site_fract_y
 _atom_site_fract_z
 _atom_site_occupancy
  Nd  Nd0  1  0.000000  0.498912  0.501409  1
  Nd  Nd1  1  0.000000  0.000945  0.000503  1
  Ho  Ho2  1  0.000000  0.743650  0.284217  1
  Ho  Ho3  1  0.000000  0.265667  0.713590  1
  Ho  Ho4  1  0.000000  0.753978  0.781714  1
  Ho  Ho5  1  0.000000  0.244646  0.216471  1
  Ho  Ho6  1  0.000000  0.610006  0.083836  1
  Ho  Ho7  1  0.000000  0.388462  0.915755  1
  Ho  Ho8  1  0.000000  0.885400  0.585619  1
  Ho  Ho9  1  0.000000  0.108314  0.416869  1
  In  In10  1  0.500000  0.418600  0.349313  1
  In  In11  1  0.500000  0.918941  0.152102  1
  In  In12  1  0.500000  0.079824  0.847420  1
  Hg  Hg13  1  0.500000  0.709241  0.931540  1
  Hg  Hg14  1  0.500000  0.291471  0.068762  1
  Hg  Hg15  1  0.500000  0.790253  0.431726  1
  Hg  Hg16  1  0.500000  0.202933  0.567116  1
  Hg  Hg17  1  0.500000  0.582168  0.649922  1
  Pd  Pd18  1  0.500000  0.532893  0.197622  1
  Pd  Pd19  1  0.500000  0.467432  0.803796  1
  Pd  Pd20  1  0.500000  0.973893  0.697702  1
  Pd  Pd21  1  0.500000  0.032372  0.302994  1
