# generated using pymatgen
data_SmMnFeO5
_symmetry_space_group_name_H-M   'P 1'
_cell_length_a   5.81711500
_cell_length_b   7.47671500
_cell_length_c   8.72561700
_cell_angle_alpha   90.00000000
_cell_angle_beta   90.00000000
_cell_angle_gamma   90.00000000
_symmetry_Int_Tables_number   1
_chemical_formula_structural   SmMnFeO5
_chemical_formula_sum   'Sm4 Mn4 Fe4 O20'
_cell_volume   379.50248340
_cell_formula_units_Z   4
loop_
 _symmetry_equiv_pos_site_id
 _symmetry_equiv_pos_as_xyz
  1  'x, y, z'
loop_
 _atom_site_type_symbol
 _atom_site_label
 _atom_site_symmetry_multiplicity
 _atom_site_fract_x
 _atom_site_fract_y
 _atom_site_fract_z
 _atom_site_occupancy
  Sm  Sm0  1  0.000000  0.364972  0.670424  1
  Sm  Sm1  1  0.000000  0.635028  0.329576  1
  Sm  Sm2  1  0.000000  0.864972  0.829576  1
  Sm  Sm3  1  0.000000  0.135028  0.170424  1
  Mn  Mn4  1  0.250526  0.500000  0.000000  1
  Mn  Mn5  1  0.749474  0.000000  0.500000  1
  Mn  Mn6  1  0.749474  0.500000  0.000000  1
  Mn  Mn7  1  0.250526  0.000000  0.500000  1
  Fe  Fe8  1  0.500000  0.108655  0.855738  1
  Fe  Fe9  1  0.500000  0.891345  0.144262  1
  Fe  Fe10  1  0.500000  0.608655  0.644262  1
  Fe  Fe11  1  0.500000  0.391345  0.355738  1
  O  O12  1  0.244841  0.898595  0.295048  1
  O  O13  1  0.244841  0.101405  0.704952  1
  O  O14  1  0.755159  0.398595  0.204952  1
  O  O15  1  0.755159  0.601405  0.795048  1
  O  O16  1  0.755159  0.101405  0.704952  1
  O  O17  1  0.755159  0.898595  0.295048  1
  O  O18  1  0.244841  0.601405  0.795048  1
  O  O19  1  0.244841  0.398595  0.204952  1
  O  O20  1  0.500000  0.347709  0.934013  1
  O  O21  1  0.500000  0.652291  0.065987  1
  O  O22  1  0.500000  0.847709  0.565987  1
  O  O23  1  0.500000  0.152291  0.434013  1
  O  O24  1  0.270167  0.000000  0.000000  1
  O  O25  1  0.729833  0.500000  0.500000  1
  O  O26  1  0.729833  0.000000  0.000000  1
  O  O27  1  0.270167  0.500000  0.500000  1
  O  O28  1  0.000000  0.158881  0.445548  1
  O  O29  1  0.000000  0.841119  0.554452  1
  O  O30  1  0.000000  0.658881  0.054452  1
  O  O31  1  0.000000  0.341119  0.945548  1
