# generated using pymatgen
data_SmTa5TiSn6
_symmetry_space_group_name_H-M   'P 1'
_cell_length_a   5.77488500
_cell_length_b   5.78562496
_cell_length_c   9.63139800
_cell_angle_alpha   89.99990595
_cell_angle_beta   90.00017853
_cell_angle_gamma   119.93860678
_symmetry_Int_Tables_number   1
_chemical_formula_structural   SmTa5TiSn6
_chemical_formula_sum   'Sm1 Ta5 Ti1 Sn6'
_cell_volume   278.85723603
_cell_formula_units_Z   1
loop_
 _symmetry_equiv_pos_site_id
 _symmetry_equiv_pos_as_xyz
  1  'x, y, z'
loop_
 _atom_site_type_symbol
 _atom_site_label
 _atom_site_symmetry_multiplicity
 _atom_site_fract_x
 _atom_site_fract_y
 _atom_site_fract_z
 _atom_site_occupancy
  Sm  Sm0  1  0.999988  0.000000  0.998547  1
  Ta  Ta1  1  0.499982  0.499999  0.250068  1
  Ta  Ta2  1  0.999984  0.500001  0.250068  1
  Ta  Ta3  1  0.499979  0.000000  0.748515  1
  Ta  Ta4  1  0.499981  0.499999  0.751703  1
  Ta  Ta5  1  0.999983  0.500001  0.751703  1
  Ti  Ti6  1  0.499983  0.000000  0.249461  1
  Sn  Sn7  1  0.334224  0.668467  0.001227  1
  Sn  Sn8  1  0.665758  0.331533  0.001227  1
  Sn  Sn9  1  0.334352  0.668725  0.499539  1
  Sn  Sn10  1  0.665628  0.331275  0.499539  1
  Sn  Sn11  1  0.999976  0.000000  0.331075  1
  Sn  Sn12  1  0.999979  0.000000  0.667330  1
