# generated using pymatgen
data_Tb2Mn4V(PRh)7
_symmetry_space_group_name_H-M   'P 1'
_cell_length_a   9.43644169
_cell_length_b   9.42853373
_cell_length_c   3.82731400
_cell_angle_alpha   90.00000000
_cell_angle_beta   90.00000000
_cell_angle_gamma   120.04968139
_symmetry_Int_Tables_number   1
_chemical_formula_structural   Tb2Mn4V(PRh)7
_chemical_formula_sum   'Tb2 Mn4 V1 P7 Rh7'
_cell_volume   294.75386607
_cell_formula_units_Z   1
loop_
 _symmetry_equiv_pos_site_id
 _symmetry_equiv_pos_as_xyz
  1  'x, y, z'
loop_
 _atom_site_type_symbol
 _atom_site_label
 _atom_site_symmetry_multiplicity
 _atom_site_fract_x
 _atom_site_fract_y
 _atom_site_fract_z
 _atom_site_occupancy
  Tb  Tb0  1  0.664749  0.329906  0.000000  1
  Tb  Tb1  1  0.335802  0.667389  0.500000  1
  Mn  Mn2  1  0.267275  0.112024  0.000000  1
  Mn  Mn3  1  0.843261  0.731573  0.000000  1
  Mn  Mn4  1  0.891148  0.162643  0.000000  1
  Mn  Mn5  1  0.115847  0.216080  0.500000  1
  V  V6  1  0.790786  0.901578  0.500000  1
  P  P7  1  0.299815  0.891719  0.000000  1
  P  P8  1  0.596081  0.705192  0.000000  1
  P  P9  1  0.111897  0.410386  0.000000  1
  P  P10  1  0.395441  0.276291  0.500000  1
  P  P11  1  0.877764  0.602822  0.500000  1
  P  P12  1  0.724252  0.116407  0.500000  1
  P  P13  1  0.995739  0.000107  0.000000  1
  Rh  Rh14  1  0.062595  0.636794  0.000000  1
  Rh  Rh15  1  0.572416  0.936861  0.000000  1
  Rh  Rh16  1  0.364380  0.427559  0.000000  1
  Rh  Rh17  1  0.440186  0.052732  0.500000  1
  Rh  Rh18  1  0.612179  0.557094  0.500000  1
  Rh  Rh19  1  0.946917  0.390281  0.500000  1
  Rh  Rh20  1  0.091469  0.874560  0.500000  1
