# generated using pymatgen
data_PrPa(Sb2Au)2
_symmetry_space_group_name_H-M   'P 1'
_cell_length_a   4.44854400
_cell_length_b   4.44854400
_cell_length_c   10.13569100
_cell_angle_alpha   90.00000000
_cell_angle_beta   90.00000000
_cell_angle_gamma   90.00000000
_symmetry_Int_Tables_number   1
_chemical_formula_structural   PrPa(Sb2Au)2
_chemical_formula_sum   'Pr1 Pa1 Sb4 Au2'
_cell_volume   200.58070018
_cell_formula_units_Z   1
loop_
 _symmetry_equiv_pos_site_id
 _symmetry_equiv_pos_as_xyz
  1  'x, y, z'
loop_
 _atom_site_type_symbol
 _atom_site_label
 _atom_site_symmetry_multiplicity
 _atom_site_fract_x
 _atom_site_fract_y
 _atom_site_fract_z
 _atom_site_occupancy
  Pr  Pr0  1  0.500000  0.000000  0.237850  1
  Pa  Pa1  1  0.000000  0.500000  0.746715  1
  Sb  Sb2  1  0.500000  0.500000  0.988386  1
  Sb  Sb3  1  0.000000  0.000000  0.988386  1
  Sb  Sb4  1  0.000000  0.500000  0.324725  1
  Sb  Sb5  1  0.500000  0.000000  0.700710  1
  Au  Au6  1  0.500000  0.500000  0.506614  1
  Au  Au7  1  0.000000  0.000000  0.506614  1
