# generated using pymatgen
data_Sr2Zn3Rh2
_symmetry_space_group_name_H-M   'P 1'
_cell_length_a   5.90434944
_cell_length_b   5.90435026
_cell_length_c   7.35396518
_cell_angle_alpha   63.81178966
_cell_angle_beta   63.81178757
_cell_angle_gamma   42.13887167
_symmetry_Int_Tables_number   1
_chemical_formula_structural   Sr2Zn3Rh2
_chemical_formula_sum   'Sr2 Zn3 Rh2'
_cell_volume   151.55335962
_cell_formula_units_Z   1
loop_
 _symmetry_equiv_pos_site_id
 _symmetry_equiv_pos_as_xyz
  1  'x, y, z'
loop_
 _atom_site_type_symbol
 _atom_site_label
 _atom_site_symmetry_multiplicity
 _atom_site_fract_x
 _atom_site_fract_y
 _atom_site_fract_z
 _atom_site_occupancy
  Sr  Sr0  1  0.138132  0.138132  0.231953  1
  Sr  Sr1  1  0.861868  0.861868  0.768047  1
  Zn  Zn2  1  0.500000  0.500000  0.000000  1
  Zn  Zn3  1  0.340937  0.340937  0.430457  1
  Zn  Zn4  1  0.659063  0.659063  0.569543  1
  Rh  Rh5  1  0.128822  0.128822  0.800110  1
  Rh  Rh6  1  0.871178  0.871178  0.199890  1
