# generated using pymatgen
data_Al27(FeNi2)2
_symmetry_space_group_name_H-M   'P 1'
_cell_length_a   6.21352443
_cell_length_b   6.27248066
_cell_length_c   25.76432591
_cell_angle_alpha   90.10470541
_cell_angle_beta   95.04258006
_cell_angle_gamma   90.00215844
_symmetry_Int_Tables_number   1
_chemical_formula_structural   Al27(FeNi2)2
_chemical_formula_sum   'Al54 Fe4 Ni8'
_cell_volume   1000.25621611
_cell_formula_units_Z   2
loop_
 _symmetry_equiv_pos_site_id
 _symmetry_equiv_pos_as_xyz
  1  'x, y, z'
loop_
 _atom_site_type_symbol
 _atom_site_label
 _atom_site_symmetry_multiplicity
 _atom_site_fract_x
 _atom_site_fract_y
 _atom_site_fract_z
 _atom_site_occupancy
  Al  Al0  1  0.083311  0.792330  0.243930  1
  Al  Al1  1  0.090215  0.791807  0.577171  1
  Al  Al2  1  0.089614  0.791315  0.910785  1
  Al  Al3  1  0.916482  0.291251  0.255863  1
  Al  Al4  1  0.915291  0.285208  0.589243  1
  Al  Al5  1  0.915456  0.285223  0.922758  1
  Al  Al6  1  0.909179  0.210574  0.091113  1
  Al  Al7  1  0.911244  0.213944  0.423296  1
  Al  Al8  1  0.910274  0.213540  0.756923  1
  Al  Al9  1  0.092199  0.712370  0.076706  1
  Al  Al10  1  0.088847  0.708375  0.408889  1
  Al  Al11  1  0.090529  0.709227  0.743067  1
  Al  Al12  1  0.407570  0.462772  0.254912  1
  Al  Al13  1  0.399376  0.466827  0.588728  1
  Al  Al14  1  0.398340  0.466878  0.922132  1
  Al  Al15  1  0.592361  0.964242  0.245001  1
  Al  Al16  1  0.591800  0.975669  0.577466  1
  Al  Al17  1  0.591473  0.975625  0.910754  1
  Al  Al18  1  0.596888  0.527729  0.077621  1
  Al  Al19  1  0.596699  0.527679  0.409644  1
  Al  Al20  1  0.596216  0.527088  0.743760  1
  Al  Al21  1  0.404583  0.026795  0.090397  1
  Al  Al22  1  0.400970  0.022646  0.423108  1
  Al  Al23  1  0.402143  0.021613  0.756719  1
  Al  Al24  1  0.615493  0.304864  0.168978  1
  Al  Al25  1  0.614269  0.302401  0.501335  1
  Al  Al26  1  0.613595  0.301516  0.834984  1
  Al  Al27  1  0.385095  0.805280  0.330962  1
  Al  Al28  1  0.390052  0.805476  0.664167  1
  Al  Al29  1  0.389159  0.806105  0.997778  1
  Al  Al30  1  0.396152  0.693560  0.166641  1
  Al  Al31  1  0.392287  0.696529  0.498396  1
  Al  Al32  1  0.391569  0.695844  0.831861  1
  Al  Al33  1  0.604173  0.196540  0.000699  1
  Al  Al34  1  0.603406  0.193289  0.333657  1
  Al  Al35  1  0.604142  0.197392  0.667514  1
  Al  Al36  1  0.212824  0.114167  0.182746  1
  Al  Al37  1  0.209284  0.114922  0.515897  1
  Al  Al38  1  0.208013  0.114382  0.849141  1
  Al  Al39  1  0.787313  0.613897  0.317392  1
  Al  Al40  1  0.789523  0.608821  0.652221  1
  Al  Al41  1  0.788442  0.608935  0.985782  1
  Al  Al42  1  0.785330  0.888745  0.153779  1
  Al  Al43  1  0.791282  0.890853  0.485852  1
  Al  Al44  1  0.791163  0.890733  0.819401  1
  Al  Al45  1  0.211442  0.387157  0.013470  1
  Al  Al46  1  0.215681  0.388440  0.346453  1
  Al  Al47  1  0.211745  0.387478  0.680132  1
  Al  Al48  1  0.003484  0.507996  0.167591  1
  Al  Al49  1  0.003035  0.505096  0.499909  1
  Al  Al50  1  0.002459  0.505423  0.833604  1
  Al  Al51  1  0.000723  0.002764  0.000010  1
  Al  Al52  1  0.994709  0.008455  0.332156  1
  Al  Al53  1  0.998998  0.002950  0.666220  1
  Fe  Fe54  1  0.263818  0.117882  0.278462  1
  Fe  Fe55  1  0.264543  0.119004  0.611618  1
  Fe  Fe56  1  0.263760  0.118629  0.944494  1
  Fe  Fe57  1  0.736375  0.618201  0.222081  1
  Ni  Ni58  1  0.734586  0.621735  0.555527  1
  Ni  Ni59  1  0.733112  0.621431  0.889012  1
  Ni  Ni60  1  0.735844  0.879785  0.055328  1
  Ni  Ni61  1  0.736013  0.879972  0.389199  1
  Ni  Ni62  1  0.736269  0.879819  0.722277  1
  Ni  Ni63  1  0.263337  0.379569  0.110729  1
  Ni  Ni64  1  0.269035  0.377070  0.444809  1
  Ni  Ni65  1  0.267406  0.376169  0.777751  1
