# generated using pymatgen
data_Lu3(Sn2Rh)2
_symmetry_space_group_name_H-M   'P 1'
_cell_length_a   7.45762800
_cell_length_b   7.45762897
_cell_length_c   4.14391400
_cell_angle_alpha   90.00000000
_cell_angle_beta   90.00000000
_cell_angle_gamma   120.00000218
_symmetry_Int_Tables_number   1
_chemical_formula_structural   Lu3(Sn2Rh)2
_chemical_formula_sum   'Lu3 Sn4 Rh2'
_cell_volume   199.59186896
_cell_formula_units_Z   1
loop_
 _symmetry_equiv_pos_site_id
 _symmetry_equiv_pos_as_xyz
  1  'x, y, z'
loop_
 _atom_site_type_symbol
 _atom_site_label
 _atom_site_symmetry_multiplicity
 _atom_site_fract_x
 _atom_site_fract_y
 _atom_site_fract_z
 _atom_site_occupancy
  Lu  Lu0  1  0.392361  0.417900  0.500000  1
  Lu  Lu1  1  0.582100  0.974462  0.500000  1
  Lu  Lu2  1  0.025538  0.607639  0.500000  1
  Sn  Sn3  1  0.741809  0.761064  0.000000  1
  Sn  Sn4  1  0.238936  0.980746  0.000000  1
  Sn  Sn5  1  0.019254  0.258191  0.000000  1
  Sn  Sn6  1  0.666667  0.333333  0.000000  1
  Rh  Rh7  1  0.333333  0.666667  0.000000  1
  Rh  Rh8  1  0.000000  0.000000  0.500000  1
