# generated using pymatgen
data_Ti2GaMo2C3
_symmetry_space_group_name_H-M   'P 1'
_cell_length_a   3.03281700
_cell_length_b   3.03281576
_cell_length_c   23.62481300
_cell_angle_alpha   90.00000000
_cell_angle_beta   90.00000000
_cell_angle_gamma   119.99998081
_symmetry_Int_Tables_number   1
_chemical_formula_structural   Ti2GaMo2C3
_chemical_formula_sum   'Ti4 Ga2 Mo4 C6'
_cell_volume   188.18774103
_cell_formula_units_Z   2
loop_
 _symmetry_equiv_pos_site_id
 _symmetry_equiv_pos_as_xyz
  1  'x, y, z'
loop_
 _atom_site_type_symbol
 _atom_site_label
 _atom_site_symmetry_multiplicity
 _atom_site_fract_x
 _atom_site_fract_y
 _atom_site_fract_z
 _atom_site_occupancy
  Ti  Ti0  1  0.333333  0.666667  0.446678  1
  Ti  Ti1  1  0.666667  0.333333  0.553322  1
  Ti  Ti2  1  0.666667  0.333333  0.946678  1
  Ti  Ti3  1  0.333333  0.666667  0.053322  1
  Ga  Ga4  1  0.333333  0.666667  0.250000  1
  Ga  Ga5  1  0.666667  0.333333  0.750000  1
  Mo  Mo6  1  0.000000  0.000000  0.341738  1
  Mo  Mo7  1  0.000000  0.000000  0.658262  1
  Mo  Mo8  1  0.000000  0.000000  0.841738  1
  Mo  Mo9  1  0.000000  0.000000  0.158262  1
  C  C10  1  0.000000  0.000000  0.500000  1
  C  C11  1  0.000000  0.000000  0.000000  1
  C  C12  1  0.666667  0.333333  0.392529  1
  C  C13  1  0.333333  0.666667  0.607471  1
  C  C14  1  0.333333  0.666667  0.892529  1
  C  C15  1  0.666667  0.333333  0.107471  1
