# generated using pymatgen
data_Tb2Y6Cd2NiOs
_symmetry_space_group_name_H-M   'P 1'
_cell_length_a   9.63438338
_cell_length_b   9.63438346
_cell_length_c   9.72369600
_cell_angle_alpha   59.69286793
_cell_angle_beta   59.69286767
_cell_angle_gamma   59.54014703
_symmetry_Int_Tables_number   1
_chemical_formula_structural   Tb2Y6Cd2NiOs
_chemical_formula_sum   'Tb4 Y12 Cd4 Ni2 Os2'
_cell_volume   633.01557914
_cell_formula_units_Z   2
loop_
 _symmetry_equiv_pos_site_id
 _symmetry_equiv_pos_as_xyz
  1  'x, y, z'
loop_
 _atom_site_type_symbol
 _atom_site_label
 _atom_site_symmetry_multiplicity
 _atom_site_fract_x
 _atom_site_fract_y
 _atom_site_fract_z
 _atom_site_occupancy
  Tb  Tb0  1  0.600188  0.600188  0.593410  1
  Tb  Tb1  1  0.600188  0.600188  0.206213  1
  Tb  Tb2  1  0.601669  0.205534  0.596398  1
  Tb  Tb3  1  0.205534  0.601669  0.596398  1
  Y  Y4  1  0.061079  0.436568  0.440594  1
  Y  Y5  1  0.436568  0.061079  0.061758  1
  Y  Y6  1  0.436568  0.061079  0.440594  1
  Y  Y7  1  0.061079  0.436568  0.061758  1
  Y  Y8  1  0.438573  0.438573  0.061427  1
  Y  Y9  1  0.059530  0.059530  0.440470  1
  Y  Y10  1  0.189139  0.806138  0.816292  1
  Y  Y11  1  0.806138  0.189139  0.188430  1
  Y  Y12  1  0.806138  0.189139  0.816292  1
  Y  Y13  1  0.189139  0.806138  0.188430  1
  Y  Y14  1  0.814772  0.814772  0.185228  1
  Y  Y15  1  0.191424  0.191424  0.808576  1
  Cd  Cd16  1  0.829234  0.829234  0.832499  1
  Cd  Cd17  1  0.829234  0.829234  0.509033  1
  Cd  Cd18  1  0.829995  0.506671  0.831666  1
  Cd  Cd19  1  0.506671  0.829995  0.831666  1
  Ni  Ni20  1  0.393033  0.825371  0.390799  1
  Ni  Ni21  1  0.825371  0.393033  0.390799  1
  Os  Os22  1  0.394367  0.394367  0.388480  1
  Os  Os23  1  0.394367  0.394367  0.822788  1
