# generated using pymatgen
data_Ho3Sc2(In2Pt)2
_symmetry_space_group_name_H-M   'P 1'
_cell_length_a   3.59944400
_cell_length_b   7.94172600
_cell_length_c   17.81634200
_cell_angle_alpha   90.00000000
_cell_angle_beta   90.00000000
_cell_angle_gamma   90.00000000
_symmetry_Int_Tables_number   1
_chemical_formula_structural   Ho3Sc2(In2Pt)2
_chemical_formula_sum   'Ho6 Sc4 In8 Pt4'
_cell_volume   509.29435352
_cell_formula_units_Z   2
loop_
 _symmetry_equiv_pos_site_id
 _symmetry_equiv_pos_as_xyz
  1  'x, y, z'
loop_
 _atom_site_type_symbol
 _atom_site_label
 _atom_site_symmetry_multiplicity
 _atom_site_fract_x
 _atom_site_fract_y
 _atom_site_fract_z
 _atom_site_occupancy
  Ho  Ho0  1  0.000000  0.241984  0.217702  1
  Ho  Ho1  1  0.000000  0.758016  0.782298  1
  Ho  Ho2  1  0.000000  0.258016  0.717702  1
  Ho  Ho3  1  0.000000  0.741984  0.282298  1
  Ho  Ho4  1  0.000000  0.000000  0.000000  1
  Ho  Ho5  1  0.000000  0.500000  0.500000  1
  Sc  Sc6  1  0.000000  0.116770  0.414040  1
  Sc  Sc7  1  0.000000  0.883230  0.585960  1
  Sc  Sc8  1  0.000000  0.383230  0.914040  1
  Sc  Sc9  1  0.000000  0.616770  0.085960  1
  In  In10  1  0.500000  0.414366  0.351630  1
  In  In11  1  0.500000  0.585634  0.648370  1
  In  In12  1  0.500000  0.085634  0.851630  1
  In  In13  1  0.500000  0.914366  0.148370  1
  In  In14  1  0.500000  0.305020  0.060692  1
  In  In15  1  0.500000  0.694980  0.939308  1
  In  In16  1  0.500000  0.194980  0.560692  1
  In  In17  1  0.500000  0.805020  0.439308  1
  Pt  Pt18  1  0.500000  0.029808  0.307518  1
  Pt  Pt19  1  0.500000  0.970192  0.692482  1
  Pt  Pt20  1  0.500000  0.470192  0.807518  1
  Pt  Pt21  1  0.500000  0.529808  0.192482  1
