# generated using pymatgen
data_Li3Y4Si6Pt
_symmetry_space_group_name_H-M   'P 1'
_cell_length_a   9.23289683
_cell_length_b   9.23289819
_cell_length_c   6.73307400
_cell_angle_alpha   90.25830325
_cell_angle_beta   89.74169671
_cell_angle_gamma   153.41577212
_symmetry_Int_Tables_number   1
_chemical_formula_structural   Li3Y4Si6Pt
_chemical_formula_sum   'Li3 Y4 Si6 Pt1'
_cell_volume   256.85637397
_cell_formula_units_Z   1
loop_
 _symmetry_equiv_pos_site_id
 _symmetry_equiv_pos_as_xyz
  1  'x, y, z'
loop_
 _atom_site_type_symbol
 _atom_site_label
 _atom_site_symmetry_multiplicity
 _atom_site_fract_x
 _atom_site_fract_y
 _atom_site_fract_z
 _atom_site_occupancy
  Li  Li0  1  0.190469  0.809531  0.439616  1
  Li  Li1  1  0.190425  0.809575  0.059569  1
  Li  Li2  1  0.812531  0.187469  0.938084  1
  Y  Y3  1  0.550354  0.449646  0.254024  1
  Y  Y4  1  0.446626  0.553374  0.750210  1
  Y  Y5  1  0.343813  0.656187  0.248005  1
  Y  Y6  1  0.655823  0.344177  0.744742  1
  Si  Si7  1  0.941328  0.058672  0.075297  1
  Si  Si8  1  0.059874  0.940126  0.929832  1
  Si  Si9  1  0.057932  0.942068  0.575248  1
  Si  Si10  1  0.937209  0.062791  0.430657  1
  Si  Si11  1  0.722140  0.277860  0.257575  1
  Si  Si12  1  0.281386  0.718614  0.737066  1
  Pt  Pt13  1  0.810089  0.189911  0.560073  1
