# generated using pymatgen
data_Er2Si14IrRh5
_symmetry_space_group_name_H-M   'P 1'
_cell_length_a   7.98402490
_cell_length_b   7.99266676
_cell_length_c   7.99266608
_cell_angle_alpha   56.98304787
_cell_angle_beta   56.95834918
_cell_angle_gamma   56.95835386
_symmetry_Int_Tables_number   1
_chemical_formula_structural   Er2Si14IrRh5
_chemical_formula_sum   'Er2 Si14 Ir1 Rh5'
_cell_volume   335.42396274
_cell_formula_units_Z   1
loop_
 _symmetry_equiv_pos_site_id
 _symmetry_equiv_pos_as_xyz
  1  'x, y, z'
loop_
 _atom_site_type_symbol
 _atom_site_label
 _atom_site_symmetry_multiplicity
 _atom_site_fract_x
 _atom_site_fract_y
 _atom_site_fract_z
 _atom_site_occupancy
  Er  Er0  1  0.999767  0.999875  0.000949  1
  Er  Er1  1  0.500233  0.499051  0.500125  1
  Si  Si2  1  0.750000  0.748782  0.751218  1
  Si  Si3  1  0.250000  0.250174  0.249826  1
  Si  Si4  1  0.851525  0.066561  0.672047  1
  Si  Si5  1  0.672868  0.851248  0.064132  1
  Si  Si6  1  0.064601  0.673750  0.850218  1
  Si  Si7  1  0.648475  0.827953  0.433439  1
  Si  Si8  1  0.435399  0.649782  0.826250  1
  Si  Si9  1  0.827132  0.435868  0.648752  1
  Si  Si10  1  0.173681  0.563174  0.351367  1
  Si  Si11  1  0.563501  0.351175  0.171742  1
  Si  Si12  1  0.350909  0.171136  0.567173  1
  Si  Si13  1  0.936499  0.328258  0.148825  1
  Si  Si14  1  0.326319  0.148633  0.936826  1
  Si  Si15  1  0.149091  0.932827  0.328864  1
  Ir  Ir16  1  0.750000  0.070399  0.429601  1
  Rh  Rh17  1  0.070836  0.429243  0.750332  1
  Rh  Rh18  1  0.250000  0.930384  0.569616  1
  Rh  Rh19  1  0.570266  0.250475  0.928416  1
  Rh  Rh20  1  0.929734  0.571584  0.249525  1
  Rh  Rh21  1  0.429164  0.749668  0.070757  1
