# generated using pymatgen
data_Nd6HoIrI12
_symmetry_space_group_name_H-M   'P 1'
_cell_length_a   10.06978215
_cell_length_b   10.06978157
_cell_length_c   10.06978100
_cell_angle_alpha   107.07185706
_cell_angle_beta   107.07185010
_cell_angle_gamma   107.07185618
_symmetry_Int_Tables_number   1
_chemical_formula_structural   Nd6HoIrI12
_chemical_formula_sum   'Nd6 Ho1 Ir1 I12'
_cell_volume   848.69361743
_cell_formula_units_Z   1
loop_
 _symmetry_equiv_pos_site_id
 _symmetry_equiv_pos_as_xyz
  1  'x, y, z'
loop_
 _atom_site_type_symbol
 _atom_site_label
 _atom_site_symmetry_multiplicity
 _atom_site_fract_x
 _atom_site_fract_y
 _atom_site_fract_z
 _atom_site_occupancy
  Nd  Nd0  1  0.097307  0.023541  0.300823  1
  Nd  Nd1  1  0.300823  0.097307  0.023541  1
  Nd  Nd2  1  0.023541  0.300823  0.097307  1
  Nd  Nd3  1  0.902693  0.976459  0.699177  1
  Nd  Nd4  1  0.699177  0.902693  0.976459  1
  Nd  Nd5  1  0.976459  0.699177  0.902693  1
  Ho  Ho6  1  0.500000  0.500000  0.500000  1
  Ir  Ir7  1  0.000000  0.000000  0.000000  1
  I  I8  1  0.069885  0.678289  0.226187  1
  I  I9  1  0.226187  0.069885  0.678289  1
  I  I10  1  0.678289  0.226187  0.069885  1
  I  I11  1  0.930115  0.321711  0.773813  1
  I  I12  1  0.773813  0.930115  0.321711  1
  I  I13  1  0.321711  0.773813  0.930115  1
  I  I14  1  0.467325  0.172249  0.390780  1
  I  I15  1  0.390780  0.467325  0.172249  1
  I  I16  1  0.172249  0.390780  0.467325  1
  I  I17  1  0.532675  0.827751  0.609220  1
  I  I18  1  0.609220  0.532675  0.827751  1
  I  I19  1  0.827751  0.609220  0.532675  1
