# generated using pymatgen
data_TbZr(Co5P3)2
_symmetry_space_group_name_H-M   'P 1'
_cell_length_a   3.63928300
_cell_length_b   10.24096100
_cell_length_c   11.70357200
_cell_angle_alpha   90.00000000
_cell_angle_beta   90.00000000
_cell_angle_gamma   90.00000000
_symmetry_Int_Tables_number   1
_chemical_formula_structural   TbZr(Co5P3)2
_chemical_formula_sum   'Tb2 Zr2 Co20 P12'
_cell_volume   436.18926424
_cell_formula_units_Z   2
loop_
 _symmetry_equiv_pos_site_id
 _symmetry_equiv_pos_as_xyz
  1  'x, y, z'
loop_
 _atom_site_type_symbol
 _atom_site_label
 _atom_site_symmetry_multiplicity
 _atom_site_fract_x
 _atom_site_fract_y
 _atom_site_fract_z
 _atom_site_occupancy
  Tb  Tb0  1  0.750000  0.417461  0.296997  1
  Tb  Tb1  1  0.750000  0.082539  0.796997  1
  Zr  Zr2  1  0.250000  0.582103  0.701483  1
  Zr  Zr3  1  0.250000  0.917897  0.201483  1
  Co  Co4  1  0.250000  0.718098  0.992996  1
  Co  Co5  1  0.250000  0.781902  0.492996  1
  Co  Co6  1  0.750000  0.282497  0.009209  1
  Co  Co7  1  0.750000  0.217503  0.509209  1
  Co  Co8  1  0.250000  0.409703  0.490771  1
  Co  Co9  1  0.250000  0.090297  0.990771  1
  Co  Co10  1  0.750000  0.593738  0.515381  1
  Co  Co11  1  0.750000  0.906262  0.015381  1
  Co  Co12  1  0.250000  0.221053  0.177565  1
  Co  Co13  1  0.250000  0.278947  0.677565  1
  Co  Co14  1  0.750000  0.776179  0.822628  1
  Co  Co15  1  0.750000  0.723821  0.322628  1
  Co  Co16  1  0.250000  0.880199  0.698519  1
  Co  Co17  1  0.250000  0.619801  0.198519  1
  Co  Co18  1  0.750000  0.113645  0.299531  1
  Co  Co19  1  0.750000  0.386355  0.799531  1
  Co  Co20  1  0.250000  0.470224  0.928939  1
  Co  Co21  1  0.250000  0.029776  0.428939  1
  Co  Co22  1  0.750000  0.535038  0.066716  1
  Co  Co23  1  0.750000  0.964962  0.566716  1
  P  P24  1  0.250000  0.419102  0.110307  1
  P  P25  1  0.250000  0.080898  0.610307  1
  P  P26  1  0.750000  0.581462  0.884705  1
  P  P27  1  0.750000  0.918538  0.384705  1
  P  P28  1  0.250000  0.270896  0.871701  1
  P  P29  1  0.250000  0.229104  0.371701  1
  P  P30  1  0.750000  0.732339  0.131412  1
  P  P31  1  0.750000  0.767661  0.631412  1
  P  P32  1  0.250000  0.602477  0.391075  1
  P  P33  1  0.250000  0.897523  0.891075  1
  P  P34  1  0.750000  0.400365  0.610067  1
  P  P35  1  0.750000  0.099635  0.110067  1
