# generated using pymatgen
data_Ba5CaOs3O16
_symmetry_space_group_name_H-M   'P 1'
_cell_length_a   6.04491791
_cell_length_b   6.05486206
_cell_length_c   10.73378667
_cell_angle_alpha   93.38769370
_cell_angle_beta   93.21678853
_cell_angle_gamma   90.06075707
_symmetry_Int_Tables_number   1
_chemical_formula_structural   Ba5CaOs3O16
_chemical_formula_sum   'Ba5 Ca1 Os3 O16'
_cell_volume   391.56064039
_cell_formula_units_Z   1
loop_
 _symmetry_equiv_pos_site_id
 _symmetry_equiv_pos_as_xyz
  1  'x, y, z'
loop_
 _atom_site_type_symbol
 _atom_site_label
 _atom_site_symmetry_multiplicity
 _atom_site_fract_x
 _atom_site_fract_y
 _atom_site_fract_z
 _atom_site_occupancy
  Ba  Ba0  1  0.512548  0.027275  0.197980  1
  Ba  Ba1  1  0.029536  0.508578  0.199397  1
  Ba  Ba2  1  0.999982  0.999982  0.499943  1
  Ba  Ba3  1  0.970462  0.491502  0.800703  1
  Ba  Ba4  1  0.487522  0.972713  0.802126  1
  Ca  Ca5  1  0.499998  0.499998  0.000039  1
  Os  Os6  1  0.000029  0.000036  0.000003  1
  Os  Os7  1  0.560028  0.559786  0.390512  1
  Os  Os8  1  0.439805  0.440052  0.609458  1
  O  O9  1  0.752632  0.207694  0.000988  1
  O  O10  1  0.795909  0.757096  0.019925  1
  O  O11  1  0.043279  0.045363  0.172776  1
  O  O12  1  0.476461  0.474997  0.210482  1
  O  O13  1  0.760016  0.760638  0.330278  1
  O  O14  1  0.319900  0.747107  0.378589  1
  O  O15  1  0.750038  0.321941  0.378700  1
  O  O16  1  0.329175  0.327176  0.441137  1
  O  O17  1  0.670835  0.672807  0.558938  1
  O  O18  1  0.250095  0.677961  0.621251  1
  O  O19  1  0.679997  0.253038  0.621362  1
  O  O20  1  0.240066  0.239427  0.669738  1
  O  O21  1  0.523462  0.524924  0.789468  1
  O  O22  1  0.956730  0.954644  0.827207  1
  O  O23  1  0.204098  0.242921  0.980033  1
  O  O24  1  0.247394  0.792335  0.998976  1
