# generated using pymatgen
data_Sc4U4Mn3CrB24
_symmetry_space_group_name_H-M   'P 1'
_cell_length_a   3.48763700
_cell_length_b   8.90729505
_cell_length_c   11.24800906
_cell_angle_alpha   89.98767923
_cell_angle_beta   90.00000000
_cell_angle_gamma   90.00000000
_symmetry_Int_Tables_number   1
_chemical_formula_structural   Sc4U4Mn3CrB24
_chemical_formula_sum   'Sc4 U4 Mn3 Cr1 B24'
_cell_volume   349.42402536
_cell_formula_units_Z   1
loop_
 _symmetry_equiv_pos_site_id
 _symmetry_equiv_pos_as_xyz
  1  'x, y, z'
loop_
 _atom_site_type_symbol
 _atom_site_label
 _atom_site_symmetry_multiplicity
 _atom_site_fract_x
 _atom_site_fract_y
 _atom_site_fract_z
 _atom_site_occupancy
  Sc  Sc0  1  0.000000  0.444335  0.127741  1
  Sc  Sc1  1  0.000000  0.555535  0.872478  1
  Sc  Sc2  1  0.000000  0.944431  0.372190  1
  Sc  Sc3  1  0.000000  0.055543  0.627570  1
  U  U4  1  0.000000  0.822886  0.085624  1
  U  U5  1  0.000000  0.177557  0.913905  1
  U  U6  1  0.000000  0.322790  0.414468  1
  U  U7  1  0.000000  0.676715  0.585833  1
  Mn  Mn8  1  0.000000  0.140088  0.180193  1
  Mn  Mn9  1  0.000000  0.859792  0.819938  1
  Mn  Mn10  1  0.000000  0.640496  0.319622  1
  Cr  Cr11  1  0.000000  0.359527  0.680679  1
  B  B12  1  0.500000  0.054310  0.067476  1
  B  B13  1  0.500000  0.945692  0.932481  1
  B  B14  1  0.500000  0.554336  0.432169  1
  B  B15  1  0.500000  0.446288  0.566844  1
  B  B16  1  0.500000  0.251340  0.081648  1
  B  B17  1  0.500000  0.748634  0.918389  1
  B  B18  1  0.500000  0.751335  0.418314  1
  B  B19  1  0.500000  0.248401  0.580932  1
  B  B20  1  0.500000  0.293690  0.234672  1
  B  B21  1  0.500000  0.706712  0.765508  1
  B  B22  1  0.500000  0.793847  0.265368  1
  B  B23  1  0.500000  0.205346  0.735247  1
  B  B24  1  0.500000  0.130863  0.316239  1
  B  B25  1  0.500000  0.869148  0.683864  1
  B  B26  1  0.500000  0.631171  0.183599  1
  B  B27  1  0.500000  0.368687  0.816784  1
  B  B28  1  0.500000  0.483310  0.286284  1
  B  B29  1  0.500000  0.518047  0.713709  1
  B  B30  1  0.500000  0.983187  0.213554  1
  B  B31  1  0.500000  0.016493  0.786641  1
  B  B32  1  0.500000  0.101534  0.471794  1
  B  B33  1  0.500000  0.898056  0.527575  1
  B  B34  1  0.500000  0.602018  0.027758  1
  B  B35  1  0.500000  0.397860  0.972910  1
