# generated using pymatgen
data_Ac(YSe2)3
_symmetry_space_group_name_H-M   'P 1'
_cell_length_a   4.23244800
_cell_length_b   11.75855912
_cell_length_c   12.04399856
_cell_angle_alpha   71.05006597
_cell_angle_beta   90.00000000
_cell_angle_gamma   90.00000000
_symmetry_Int_Tables_number   1
_chemical_formula_structural   Ac(YSe2)3
_chemical_formula_sum   'Ac2 Y6 Se12'
_cell_volume   566.91374010
_cell_formula_units_Z   2
loop_
 _symmetry_equiv_pos_site_id
 _symmetry_equiv_pos_as_xyz
  1  'x, y, z'
loop_
 _atom_site_type_symbol
 _atom_site_label
 _atom_site_symmetry_multiplicity
 _atom_site_fract_x
 _atom_site_fract_y
 _atom_site_fract_z
 _atom_site_occupancy
  Ac  Ac0  1  0.750000  0.551028  0.802120  1
  Ac  Ac1  1  0.250000  0.448972  0.197880  1
  Y  Y2  1  0.750000  0.178300  0.999729  1
  Y  Y3  1  0.250000  0.821700  0.000271  1
  Y  Y4  1  0.750000  0.944794  0.665480  1
  Y  Y5  1  0.250000  0.055206  0.334520  1
  Y  Y6  1  0.750000  0.661032  0.411307  1
  Y  Y7  1  0.250000  0.338968  0.588693  1
  Se  Se8  1  0.750000  0.978831  0.887844  1
  Se  Se9  1  0.250000  0.021169  0.112156  1
  Se  Se10  1  0.750000  0.298605  0.748721  1
  Se  Se11  1  0.250000  0.701395  0.251279  1
  Se  Se12  1  0.750000  0.892570  0.443028  1
  Se  Se13  1  0.250000  0.107430  0.556972  1
  Se  Se14  1  0.750000  0.416665  0.410897  1
  Se  Se15  1  0.250000  0.583335  0.589103  1
  Se  Se16  1  0.750000  0.229107  0.230580  1
  Se  Se17  1  0.250000  0.770893  0.769420  1
  Se  Se18  1  0.750000  0.625153  0.035024  1
  Se  Se19  1  0.250000  0.374847  0.964976  1
