# generated using pymatgen
data_Ta5B2P
_symmetry_space_group_name_H-M   'P 1'
_cell_length_a   7.24679179
_cell_length_b   7.24679107
_cell_length_c   7.24679128
_cell_angle_alpha   129.39437897
_cell_angle_beta   129.39437535
_cell_angle_gamma   74.37683222
_symmetry_Int_Tables_number   1
_chemical_formula_structural   Ta5B2P
_chemical_formula_sum   'Ta10 B4 P2'
_cell_volume   221.53357266
_cell_formula_units_Z   2
loop_
 _symmetry_equiv_pos_site_id
 _symmetry_equiv_pos_as_xyz
  1  'x, y, z'
loop_
 _atom_site_type_symbol
 _atom_site_label
 _atom_site_symmetry_multiplicity
 _atom_site_fract_x
 _atom_site_fract_y
 _atom_site_fract_z
 _atom_site_occupancy
  Ta  Ta0  1  0.000000  0.000000  0.000000  1
  Ta  Ta1  1  0.500000  0.500000  0.000000  1
  Ta  Ta2  1  0.808371  0.308371  0.834483  1
  Ta  Ta3  1  0.191629  0.691629  0.165517  1
  Ta  Ta4  1  0.473888  0.973888  0.165517  1
  Ta  Ta5  1  0.308371  0.473888  0.500000  1
  Ta  Ta6  1  0.026112  0.191629  0.500000  1
  Ta  Ta7  1  0.526112  0.026112  0.834483  1
  Ta  Ta8  1  0.691629  0.526112  0.500000  1
  Ta  Ta9  1  0.973888  0.808371  0.500000  1
  B  B10  1  0.116159  0.616159  0.732318  1
  B  B11  1  0.883841  0.383841  0.267682  1
  B  B12  1  0.616159  0.883841  0.500000  1
  B  B13  1  0.383841  0.116159  0.500000  1
  P  P14  1  0.250000  0.250000  0.000000  1
  P  P15  1  0.750000  0.750000  0.000000  1
