# generated using pymatgen
data_Ho9ErSi5P
_symmetry_space_group_name_H-M   'P 1'
_cell_length_a   8.36720900
_cell_length_b   8.37382427
_cell_length_c   6.27237201
_cell_angle_alpha   90.00578318
_cell_angle_beta   89.99723741
_cell_angle_gamma   119.97531139
_symmetry_Int_Tables_number   1
_chemical_formula_structural   Ho9ErSi5P
_chemical_formula_sum   'Ho9 Er1 Si5 P1'
_cell_volume   380.69299644
_cell_formula_units_Z   1
loop_
 _symmetry_equiv_pos_site_id
 _symmetry_equiv_pos_as_xyz
  1  'x, y, z'
loop_
 _atom_site_type_symbol
 _atom_site_label
 _atom_site_symmetry_multiplicity
 _atom_site_fract_x
 _atom_site_fract_y
 _atom_site_fract_z
 _atom_site_occupancy
  Ho  Ho0  1  0.001061  0.757250  0.750085  1
  Ho  Ho1  1  0.000827  0.243923  0.249936  1
  Ho  Ho2  1  0.756830  0.756136  0.249925  1
  Ho  Ho3  1  0.755634  0.999953  0.750067  1
  Ho  Ho4  1  0.243770  0.242807  0.750062  1
  Ho  Ho5  1  0.243198  0.999947  0.249947  1
  Ho  Ho6  1  0.333680  0.667345  0.500379  1
  Ho  Ho7  1  0.666308  0.332625  0.999522  1
  Ho  Ho8  1  0.666330  0.332657  0.500463  1
  Er  Er9  1  0.333686  0.667293  0.999641  1
  Si  Si10  1  0.394453  0.394141  0.249797  1
  Si  Si11  1  0.000750  0.606100  0.249782  1
  Si  Si12  1  0.000333  0.394144  0.750208  1
  Si  Si13  1  0.605985  0.606116  0.750204  1
  Si  Si14  1  0.606492  0.999763  0.249798  1
  P  P15  1  0.390663  0.999799  0.750185  1
