# generated using pymatgen
data_Y8GeBBr12
_symmetry_space_group_name_H-M   'P 1'
_cell_length_a   4.02726500
_cell_length_b   13.14226954
_cell_length_c   13.90660805
_cell_angle_alpha   90.12824257
_cell_angle_beta   90.00000000
_cell_angle_gamma   90.00000000
_symmetry_Int_Tables_number   1
_chemical_formula_structural   Y8GeBBr12
_chemical_formula_sum   'Y8 Ge1 B1 Br12'
_cell_volume   736.03879299
_cell_formula_units_Z   1
loop_
 _symmetry_equiv_pos_site_id
 _symmetry_equiv_pos_as_xyz
  1  'x, y, z'
loop_
 _atom_site_type_symbol
 _atom_site_label
 _atom_site_symmetry_multiplicity
 _atom_site_fract_x
 _atom_site_fract_y
 _atom_site_fract_z
 _atom_site_occupancy
  Y  Y0  1  0.500000  0.110649  0.350963  1
  Y  Y1  1  0.500000  0.889351  0.649037  1
  Y  Y2  1  0.500000  0.620912  0.162865  1
  Y  Y3  1  0.500000  0.379088  0.837135  1
  Y  Y4  1  0.000000  0.107644  0.571521  1
  Y  Y5  1  0.000000  0.892356  0.428479  1
  Y  Y6  1  0.000000  0.621478  0.919212  1
  Y  Y7  1  0.000000  0.378522  0.080788  1
  Ge  Ge8  1  0.500000  0.500000  0.000000  1
  B  B9  1  0.500000  0.000000  0.500000  1
  Br  Br10  1  0.500000  0.242335  0.165783  1
  Br  Br11  1  0.500000  0.757665  0.834217  1
  Br  Br12  1  0.500000  0.750020  0.338819  1
  Br  Br13  1  0.500000  0.249980  0.661181  1
  Br  Br14  1  0.000000  0.255143  0.413844  1
  Br  Br15  1  0.000000  0.744857  0.586156  1
  Br  Br16  1  0.000000  0.758694  0.088501  1
  Br  Br17  1  0.000000  0.241306  0.911499  1
  Br  Br18  1  0.000000  0.999553  0.243813  1
  Br  Br19  1  0.000000  0.000447  0.756187  1
  Br  Br20  1  0.000000  0.500950  0.260830  1
  Br  Br21  1  0.000000  0.499050  0.739170  1
