# generated using pymatgen
data_TbDy5(Ho2Si3)2
_symmetry_space_group_name_H-M   'P 1'
_cell_length_a   8.44152411
_cell_length_b   8.43921065
_cell_length_c   6.34945600
_cell_angle_alpha   90.00000000
_cell_angle_beta   90.00000000
_cell_angle_gamma   119.99092952
_symmetry_Int_Tables_number   1
_chemical_formula_structural   TbDy5(Ho2Si3)2
_chemical_formula_sum   'Tb1 Dy5 Ho4 Si6'
_cell_volume   391.76851417
_cell_formula_units_Z   1
loop_
 _symmetry_equiv_pos_site_id
 _symmetry_equiv_pos_as_xyz
  1  'x, y, z'
loop_
 _atom_site_type_symbol
 _atom_site_label
 _atom_site_symmetry_multiplicity
 _atom_site_fract_x
 _atom_site_fract_y
 _atom_site_fract_z
 _atom_site_occupancy
  Tb  Tb0  1  0.000000  0.756787  0.750000  1
  Dy  Dy1  1  0.000000  0.243214  0.250000  1
  Dy  Dy2  1  0.756656  0.756728  0.250000  1
  Dy  Dy3  1  0.756696  0.000017  0.750000  1
  Dy  Dy4  1  0.243304  0.243321  0.750000  1
  Dy  Dy5  1  0.243344  0.000072  0.250000  1
  Ho  Ho6  1  0.333385  0.666662  0.499976  1
  Ho  Ho7  1  0.666615  0.333276  0.000024  1
  Ho  Ho8  1  0.666615  0.333276  0.499976  1
  Ho  Ho9  1  0.333385  0.666662  0.000024  1
  Si  Si10  1  0.394802  0.000126  0.750000  1
  Si  Si11  1  0.394605  0.394623  0.250000  1
  Si  Si12  1  0.000000  0.605405  0.250000  1
  Si  Si13  1  0.000000  0.394490  0.750000  1
  Si  Si14  1  0.605198  0.605324  0.750000  1
  Si  Si15  1  0.605395  0.000017  0.250000  1
