# generated using pymatgen
data_Ce3DyEr6(SiB4)4
_symmetry_space_group_name_H-M   'P 1'
_cell_length_a   7.23318909
_cell_length_b   7.23318945
_cell_length_c   8.11950000
_cell_angle_alpha   89.99660453
_cell_angle_beta   89.99660387
_cell_angle_gamma   90.15447195
_symmetry_Int_Tables_number   1
_chemical_formula_structural   Ce3DyEr6(SiB4)4
_chemical_formula_sum   'Ce3 Dy1 Er6 Si4 B16'
_cell_volume   424.80279447
_cell_formula_units_Z   1
loop_
 _symmetry_equiv_pos_site_id
 _symmetry_equiv_pos_as_xyz
  1  'x, y, z'
loop_
 _atom_site_type_symbol
 _atom_site_label
 _atom_site_symmetry_multiplicity
 _atom_site_fract_x
 _atom_site_fract_y
 _atom_site_fract_z
 _atom_site_occupancy
  Ce  Ce0  1  0.681793  0.181793  0.229823  1
  Ce  Ce1  1  0.317586  0.817586  0.770133  1
  Ce  Ce2  1  0.318438  0.818438  0.230547  1
  Dy  Dy3  1  0.681553  0.181553  0.777026  1
  Er  Er4  1  0.820028  0.679781  0.220379  1
  Er  Er5  1  0.819844  0.680200  0.779459  1
  Er  Er6  1  0.180200  0.319844  0.779459  1
  Er  Er7  1  0.179781  0.320028  0.220379  1
  Er  Er8  1  0.999288  0.000904  0.500417  1
  Er  Er9  1  0.500904  0.499288  0.500417  1
  Si  Si10  1  0.114176  0.614176  0.500485  1
  Si  Si11  1  0.884247  0.384247  0.500721  1
  Si  Si12  1  0.384055  0.116551  0.501013  1
  Si  Si13  1  0.616551  0.884055  0.501013  1
  B  B14  1  0.172499  0.039223  0.998936  1
  B  B15  1  0.827035  0.961167  0.999375  1
  B  B16  1  0.960185  0.172764  0.999153  1
  B  B17  1  0.328048  0.538986  0.999039  1
  B  B18  1  0.038986  0.828048  0.999039  1
  B  B19  1  0.672764  0.460185  0.999153  1
  B  B20  1  0.539223  0.672499  0.998936  1
  B  B21  1  0.461167  0.327035  0.999375  1
  B  B22  1  0.090815  0.590815  0.999226  1
  B  B23  1  0.909405  0.409405  0.000692  1
  B  B24  1  0.409961  0.090457  0.999704  1
  B  B25  1  0.590457  0.909961  0.999704  1
  B  B26  1  0.999742  0.000191  0.161233  1
  B  B27  1  0.000594  0.000485  0.836967  1
  B  B28  1  0.500485  0.500594  0.836967  1
  B  B29  1  0.500191  0.499742  0.161233  1
