# generated using pymatgen
data_Y2NpCo2Si7
_symmetry_space_group_name_H-M   'P 1'
_cell_length_a   3.97028874
_cell_length_b   4.02422900
_cell_length_c   12.43263642
_cell_angle_alpha   90.00000000
_cell_angle_beta   99.18786413
_cell_angle_gamma   90.00000000
_symmetry_Int_Tables_number   1
_chemical_formula_structural   Y2NpCo2Si7
_chemical_formula_sum   'Y2 Np1 Co2 Si7'
_cell_volume   196.09205929
_cell_formula_units_Z   1
loop_
 _symmetry_equiv_pos_site_id
 _symmetry_equiv_pos_as_xyz
  1  'x, y, z'
loop_
 _atom_site_type_symbol
 _atom_site_label
 _atom_site_symmetry_multiplicity
 _atom_site_fract_x
 _atom_site_fract_y
 _atom_site_fract_z
 _atom_site_occupancy
  Y  Y0  1  0.317412  0.000000  0.634825  1
  Y  Y1  1  0.682588  0.000000  0.365175  1
  Np  Np2  1  0.000000  0.500000  0.000000  1
  Co  Co3  1  0.128324  0.500000  0.256648  1
  Co  Co4  1  0.871676  0.500000  0.743352  1
  Si  Si5  1  0.500000  0.000000  0.000000  1
  Si  Si6  1  0.414516  0.500000  0.829032  1
  Si  Si7  1  0.585484  0.500000  0.170968  1
  Si  Si8  1  0.085611  0.000000  0.171221  1
  Si  Si9  1  0.914389  0.000000  0.828779  1
  Si  Si10  1  0.220593  0.500000  0.441186  1
  Si  Si11  1  0.779407  0.500000  0.558814  1
