# generated using pymatgen
data_Dy3Ho17(Bi3Sb)3
_symmetry_space_group_name_H-M   'P 1'
_cell_length_a   8.17335225
_cell_length_b   9.45628000
_cell_length_c   11.96003248
_cell_angle_alpha   90.00000000
_cell_angle_beta   90.04784750
_cell_angle_gamma   90.00000000
_symmetry_Int_Tables_number   1
_chemical_formula_structural   Dy3Ho17(Bi3Sb)3
_chemical_formula_sum   'Dy3 Ho17 Bi9 Sb3'
_cell_volume   924.38469622
_cell_formula_units_Z   1
loop_
 _symmetry_equiv_pos_site_id
 _symmetry_equiv_pos_as_xyz
  1  'x, y, z'
loop_
 _atom_site_type_symbol
 _atom_site_label
 _atom_site_symmetry_multiplicity
 _atom_site_fract_x
 _atom_site_fract_y
 _atom_site_fract_z
 _atom_site_occupancy
  Dy  Dy0  1  0.811431  0.250000  0.278965  1
  Dy  Dy1  1  0.683280  0.750000  0.782129  1
  Dy  Dy2  1  0.183794  0.750000  0.717921  1
  Ho  Ho3  1  0.352661  0.750000  0.213141  1
  Ho  Ho4  1  0.853107  0.750000  0.286335  1
  Ho  Ho5  1  0.647160  0.250000  0.786548  1
  Ho  Ho6  1  0.148104  0.250000  0.716630  1
  Ho  Ho7  1  0.689221  0.563127  0.057520  1
  Ho  Ho8  1  0.190489  0.933563  0.442391  1
  Ho  Ho9  1  0.311012  0.062713  0.942697  1
  Ho  Ho10  1  0.808303  0.439641  0.559122  1
  Ho  Ho11  1  0.311012  0.437287  0.942697  1
  Ho  Ho12  1  0.808303  0.060359  0.559122  1
  Ho  Ho13  1  0.689221  0.936873  0.057520  1
  Ho  Ho14  1  0.190489  0.566437  0.442391  1
  Ho  Ho15  1  0.475572  0.250000  0.488103  1
  Ho  Ho16  1  0.973025  0.250000  0.011729  1
  Ho  Ho17  1  0.528530  0.750000  0.512516  1
  Ho  Ho18  1  0.027684  0.750000  0.988149  1
  Ho  Ho19  1  0.318004  0.250000  0.215976  1
  Bi  Bi20  1  0.092596  0.250000  0.456824  1
  Bi  Bi21  1  0.565275  0.995012  0.325629  1
  Bi  Bi22  1  0.066016  0.504108  0.174325  1
  Bi  Bi23  1  0.433987  0.495281  0.674512  1
  Bi  Bi24  1  0.934070  0.004261  0.825941  1
  Bi  Bi25  1  0.433987  0.004719  0.674512  1
  Bi  Bi26  1  0.934070  0.495739  0.825941  1
  Bi  Bi27  1  0.565275  0.504988  0.325629  1
  Bi  Bi28  1  0.066016  0.995892  0.174325  1
  Sb  Sb29  1  0.407058  0.750000  0.958436  1
  Sb  Sb30  1  0.907851  0.750000  0.541224  1
  Sb  Sb31  1  0.593394  0.250000  0.041099  1
