# generated using pymatgen
data_Ba2Ti2CoO7
_symmetry_space_group_name_H-M   'P 1'
_cell_length_a   5.65542900
_cell_length_b   8.62995200
_cell_length_c   8.63003100
_cell_angle_alpha   89.99975435
_cell_angle_beta   89.99981608
_cell_angle_gamma   89.99991461
_symmetry_Int_Tables_number   1
_chemical_formula_structural   Ba2Ti2CoO7
_chemical_formula_sum   'Ba4 Ti4 Co2 O14'
_cell_volume   421.19799078
_cell_formula_units_Z   2
loop_
 _symmetry_equiv_pos_site_id
 _symmetry_equiv_pos_as_xyz
  1  'x, y, z'
loop_
 _atom_site_type_symbol
 _atom_site_label
 _atom_site_symmetry_multiplicity
 _atom_site_fract_x
 _atom_site_fract_y
 _atom_site_fract_z
 _atom_site_occupancy
  Ba  Ba0  1  0.508278  0.835629  0.335644  1
  Ba  Ba1  1  0.491721  0.664355  0.835629  1
  Ba  Ba2  1  0.508282  0.164368  0.664355  1
  Ba  Ba3  1  0.491721  0.335645  0.164371  1
  Ti  Ti4  1  0.957941  0.357531  0.857522  1
  Ti  Ti5  1  0.042059  0.142480  0.357532  1
  Ti  Ti6  1  0.957940  0.642470  0.142477  1
  Ti  Ti7  1  0.042058  0.857520  0.642470  1
  Co  Co8  1  0.000004  0.000001  0.999999  1
  Co  Co9  1  0.999997  0.500000  0.499999  1
  O  O10  1  0.170479  0.000000  0.500001  1
  O  O11  1  0.829521  0.500000  0.000000  1
  O  O12  1  0.275962  0.359984  0.859961  1
  O  O13  1  0.724036  0.140039  0.359989  1
  O  O14  1  0.275962  0.640013  0.140037  1
  O  O15  1  0.724037  0.859960  0.640013  1
  O  O16  1  0.182652  0.325017  0.411423  1
  O  O17  1  0.817383  0.174975  0.911384  1
  O  O18  1  0.182653  0.674985  0.588573  1
  O  O19  1  0.817384  0.825027  0.088617  1
  O  O20  1  0.817347  0.588576  0.325012  1
  O  O21  1  0.182615  0.911382  0.825025  1
  O  O22  1  0.817350  0.411426  0.674987  1
  O  O23  1  0.182616  0.088616  0.174979  1
