# generated using pymatgen
data_Zr4Sc2Ti2Nb2Al12Os7
_symmetry_space_group_name_H-M   'P 1'
_cell_length_a   8.86122810
_cell_length_b   8.86886699
_cell_length_c   8.86886800
_cell_angle_alpha   60.07060743
_cell_angle_beta   60.02847974
_cell_angle_gamma   60.02848388
_symmetry_Int_Tables_number   1
_chemical_formula_structural   Zr4Sc2Ti2Nb2Al12Os7
_chemical_formula_sum   'Zr4 Sc2 Ti2 Nb2 Al12 Os7'
_cell_volume   493.32541703
_cell_formula_units_Z   1
loop_
 _symmetry_equiv_pos_site_id
 _symmetry_equiv_pos_as_xyz
  1  'x, y, z'
loop_
 _atom_site_type_symbol
 _atom_site_label
 _atom_site_symmetry_multiplicity
 _atom_site_fract_x
 _atom_site_fract_y
 _atom_site_fract_z
 _atom_site_occupancy
  Zr  Zr0  1  0.709521  0.707361  0.285261  1
  Zr  Zr1  1  0.300009  0.703741  0.289397  1
  Zr  Zr2  1  0.703332  0.298745  0.293782  1
  Zr  Zr3  1  0.294791  0.287759  0.706436  1
  Sc  Sc4  1  0.709721  0.286469  0.707642  1
  Sc  Sc5  1  0.288167  0.710022  0.709545  1
  Ti  Ti6  1  0.359697  0.878995  0.879055  1
  Ti  Ti7  1  0.881320  0.879833  0.878398  1
  Nb  Nb8  1  0.879826  0.878353  0.361607  1
  Nb  Nb9  1  0.879421  0.362371  0.877683  1
  Al  Al10  1  0.120898  0.118087  0.638838  1
  Al  Al11  1  0.121081  0.639521  0.117776  1
  Al  Al12  1  0.638981  0.119250  0.119265  1
  Al  Al13  1  0.121895  0.119475  0.119249  1
  Al  Al14  1  0.661987  0.666901  0.010093  1
  Al  Al15  1  0.662655  0.007918  0.667504  1
  Al  Al16  1  0.013740  0.663816  0.664145  1
  Al  Al17  1  0.659166  0.665046  0.665932  1
  Al  Al18  1  0.334752  0.336352  0.995486  1
  Al  Al19  1  0.334487  0.995152  0.336756  1
  Al  Al20  1  0.995484  0.334948  0.336437  1
  Al  Al21  1  0.333376  0.334665  0.336202  1
  Os  Os22  1  0.000575  0.999903  0.998878  1
  Os  Os23  1  0.998050  0.999635  0.501174  1
  Os  Os24  1  0.501399  0.998192  0.502118  1
  Os  Os25  1  0.995731  0.503164  0.502798  1
  Os  Os26  1  0.501014  0.501470  0.999630  1
  Os  Os27  1  0.999250  0.501000  0.999654  1
  Os  Os28  1  0.499673  0.001853  0.999257  1
