# generated using pymatgen
data_Sm3Fe5Co3MoP6
_symmetry_space_group_name_H-M   'P 1'
_cell_length_a   3.79778500
_cell_length_b   10.67281400
_cell_length_c   12.38168100
_cell_angle_alpha   90.00000000
_cell_angle_beta   90.00000000
_cell_angle_gamma   90.00000000
_symmetry_Int_Tables_number   1
_chemical_formula_structural   Sm3Fe5Co3MoP6
_chemical_formula_sum   'Sm6 Fe10 Co6 Mo2 P12'
_cell_volume   501.86733117
_cell_formula_units_Z   2
loop_
 _symmetry_equiv_pos_site_id
 _symmetry_equiv_pos_as_xyz
  1  'x, y, z'
loop_
 _atom_site_type_symbol
 _atom_site_label
 _atom_site_symmetry_multiplicity
 _atom_site_fract_x
 _atom_site_fract_y
 _atom_site_fract_z
 _atom_site_occupancy
  Sm  Sm0  1  0.000000  0.500000  0.525016  1
  Sm  Sm1  1  0.500000  0.000000  0.474984  1
  Sm  Sm2  1  0.500000  0.820827  0.206701  1
  Sm  Sm3  1  0.500000  0.179173  0.206701  1
  Sm  Sm4  1  0.000000  0.679173  0.793299  1
  Sm  Sm5  1  0.000000  0.320827  0.793299  1
  Fe  Fe6  1  0.000000  0.500000  0.988192  1
  Fe  Fe7  1  0.500000  0.000000  0.011808  1
  Fe  Fe8  1  0.500000  0.328254  0.995904  1
  Fe  Fe9  1  0.500000  0.671746  0.995904  1
  Fe  Fe10  1  0.000000  0.171746  0.004096  1
  Fe  Fe11  1  0.000000  0.828254  0.004096  1
  Fe  Fe12  1  0.500000  0.298112  0.430189  1
  Fe  Fe13  1  0.500000  0.701888  0.430189  1
  Fe  Fe14  1  0.000000  0.201888  0.569811  1
  Fe  Fe15  1  0.000000  0.798112  0.569811  1
  Co  Co16  1  0.500000  0.500000  0.700225  1
  Co  Co17  1  0.000000  0.000000  0.299775  1
  Co  Co18  1  0.500000  0.880627  0.707783  1
  Co  Co19  1  0.500000  0.119373  0.707783  1
  Co  Co20  1  0.000000  0.619373  0.292217  1
  Co  Co21  1  0.000000  0.380627  0.292217  1
  Mo  Mo22  1  0.500000  0.500000  0.152075  1
  Mo  Mo23  1  0.000000  0.000000  0.847925  1
  P  P24  1  0.500000  0.500000  0.887785  1
  P  P25  1  0.000000  0.000000  0.112215  1
  P  P26  1  0.500000  0.500000  0.346470  1
  P  P27  1  0.000000  0.000000  0.653530  1
  P  P28  1  0.500000  0.303397  0.612188  1
  P  P29  1  0.500000  0.696603  0.612188  1
  P  P30  1  0.000000  0.196603  0.387812  1
  P  P31  1  0.000000  0.803397  0.387812  1
  P  P32  1  0.500000  0.846499  0.893423  1
  P  P33  1  0.500000  0.153501  0.893423  1
  P  P34  1  0.000000  0.653501  0.106577  1
  P  P35  1  0.000000  0.346499  0.106577  1
