# generated using pymatgen
data_CeSnHRh
_symmetry_space_group_name_H-M   'P 1'
_cell_length_a   4.49176900
_cell_length_b   7.31999400
_cell_length_c   8.47461800
_cell_angle_alpha   90.00000000
_cell_angle_beta   90.00000000
_cell_angle_gamma   90.00000000
_symmetry_Int_Tables_number   1
_chemical_formula_structural   CeSnHRh
_chemical_formula_sum   'Ce4 Sn4 H4 Rh4'
_cell_volume   278.64308499
_cell_formula_units_Z   4
loop_
 _symmetry_equiv_pos_site_id
 _symmetry_equiv_pos_as_xyz
  1  'x, y, z'
loop_
 _atom_site_type_symbol
 _atom_site_label
 _atom_site_symmetry_multiplicity
 _atom_site_fract_x
 _atom_site_fract_y
 _atom_site_fract_z
 _atom_site_occupancy
  Ce  Ce0  1  0.750000  0.512637  0.804586  1
  Ce  Ce1  1  0.250000  0.487363  0.195414  1
  Ce  Ce2  1  0.250000  0.987363  0.304586  1
  Ce  Ce3  1  0.750000  0.012637  0.695414  1
  Sn  Sn4  1  0.750000  0.163919  0.075702  1
  Sn  Sn5  1  0.250000  0.836081  0.924298  1
  Sn  Sn6  1  0.250000  0.336081  0.575702  1
  Sn  Sn7  1  0.750000  0.663919  0.424298  1
  H  H8  1  0.250000  0.957102  0.581649  1
  H  H9  1  0.750000  0.042898  0.418351  1
  H  H10  1  0.750000  0.542898  0.081649  1
  H  H11  1  0.250000  0.457102  0.918351  1
  Rh  Rh12  1  0.750000  0.276789  0.397298  1
  Rh  Rh13  1  0.250000  0.723211  0.602702  1
  Rh  Rh14  1  0.250000  0.223211  0.897298  1
  Rh  Rh15  1  0.750000  0.776789  0.102702  1
