# generated using pymatgen
data_Pr8Ho12Si15Hg
_symmetry_space_group_name_H-M   'P 1'
_cell_length_a   7.54759577
_cell_length_b   7.83708547
_cell_length_c   14.92751504
_cell_angle_alpha   89.97571500
_cell_angle_beta   89.55969196
_cell_angle_gamma   90.18830079
_symmetry_Int_Tables_number   1
_chemical_formula_structural   Pr8Ho12Si15Hg
_chemical_formula_sum   'Pr8 Ho12 Si15 Hg1'
_cell_volume   882.94879858
_cell_formula_units_Z   1
loop_
 _symmetry_equiv_pos_site_id
 _symmetry_equiv_pos_as_xyz
  1  'x, y, z'
loop_
 _atom_site_type_symbol
 _atom_site_label
 _atom_site_symmetry_multiplicity
 _atom_site_fract_x
 _atom_site_fract_y
 _atom_site_fract_z
 _atom_site_occupancy
  Pr  Pr0  1  0.011702  0.172823  0.397160  1
  Pr  Pr1  1  0.516064  0.321135  0.397386  1
  Pr  Pr2  1  0.483246  0.678407  0.902318  1
  Pr  Pr3  1  0.492148  0.683648  0.601398  1
  Pr  Pr4  1  0.984497  0.829989  0.599559  1
  Pr  Pr5  1  0.982524  0.822786  0.902671  1
  Pr  Pr6  1  0.515962  0.321252  0.098413  1
  Pr  Pr7  1  0.016960  0.178592  0.099601  1
  Ho  Ho8  1  0.337328  0.169531  0.626688  1
  Ho  Ho9  1  0.667698  0.823860  0.375158  1
  Ho  Ho10  1  0.664818  0.991054  0.751854  1
  Ho  Ho11  1  0.169362  0.677695  0.373408  1
  Ho  Ho12  1  0.826266  0.321409  0.878310  1
  Ho  Ho13  1  0.823672  0.325833  0.623013  1
  Ho  Ho14  1  0.837190  0.492375  0.250243  1
  Ho  Ho15  1  0.338277  0.006037  0.248754  1
  Ho  Ho16  1  0.325671  0.175986  0.877941  1
  Ho  Ho17  1  0.172568  0.677285  0.122915  1
  Ho  Ho18  1  0.673243  0.822780  0.122530  1
  Ho  Ho19  1  0.162963  0.507805  0.753663  1
  Si  Si20  1  0.279701  0.878299  0.751677  1
  Si  Si21  1  0.464552  0.615303  0.248054  1
  Si  Si22  1  0.035693  0.119525  0.751582  1
  Si  Si23  1  0.536028  0.385868  0.752256  1
  Si  Si24  1  0.964216  0.884362  0.248352  1
  Si  Si25  1  0.717323  0.122020  0.247718  1
  Si  Si26  1  0.850325  0.533838  0.038570  1
  Si  Si27  1  0.350149  0.966152  0.039241  1
  Si  Si28  1  0.148797  0.465323  0.962448  1
  Si  Si29  1  0.653204  0.036392  0.536767  1
  Si  Si30  1  0.345332  0.964782  0.460556  1
  Si  Si31  1  0.837340  0.537470  0.458353  1
  Si  Si32  1  0.783256  0.621131  0.752469  1
  Si  Si33  1  0.218656  0.376707  0.248555  1
  Si  Si34  1  0.648822  0.033279  0.961477  1
  Hg  Hg35  1  0.164442  0.459265  0.538942  1
