# generated using pymatgen
data_Ta12Cr10PIrN4
_symmetry_space_group_name_H-M   'P 1'
_cell_length_a   8.12298716
_cell_length_b   8.08374264
_cell_length_c   8.08374300
_cell_angle_alpha   60.00000261
_cell_angle_beta   60.15969216
_cell_angle_gamma   60.15968501
_symmetry_Int_Tables_number   1
_chemical_formula_structural   Ta12Cr10PIrN4
_chemical_formula_sum   'Ta12 Cr10 P1 Ir1 N4'
_cell_volume   376.24418865
_cell_formula_units_Z   1
loop_
 _symmetry_equiv_pos_site_id
 _symmetry_equiv_pos_as_xyz
  1  'x, y, z'
loop_
 _atom_site_type_symbol
 _atom_site_label
 _atom_site_symmetry_multiplicity
 _atom_site_fract_x
 _atom_site_fract_y
 _atom_site_fract_z
 _atom_site_occupancy
  Ta  Ta0  1  0.807098  0.807392  0.192755  1
  Ta  Ta1  1  0.193845  0.196831  0.804663  1
  Ta  Ta2  1  0.807098  0.192755  0.807392  1
  Ta  Ta3  1  0.193845  0.804663  0.196831  1
  Ta  Ta4  1  0.193845  0.804663  0.804663  1
  Ta  Ta5  1  0.807098  0.192755  0.192755  1
  Ta  Ta6  1  0.442523  0.443035  0.057221  1
  Ta  Ta7  1  0.058884  0.046157  0.447480  1
  Ta  Ta8  1  0.442523  0.057221  0.443035  1
  Ta  Ta9  1  0.058884  0.447480  0.046157  1
  Ta  Ta10  1  0.058884  0.447480  0.447480  1
  Ta  Ta11  1  0.442523  0.057221  0.057221  1
  Cr  Cr12  1  0.625922  0.111298  0.631390  1
  Cr  Cr13  1  0.625922  0.631390  0.111298  1
  Cr  Cr14  1  0.625922  0.631390  0.631390  1
  Cr  Cr15  1  0.420368  0.732450  0.423591  1
  Cr  Cr16  1  0.420368  0.423591  0.732450  1
  Cr  Cr17  1  0.420368  0.423591  0.423591  1
  Cr  Cr18  1  0.502715  0.832429  0.832429  1
  Cr  Cr19  1  0.827714  0.512867  0.829710  1
  Cr  Cr20  1  0.827714  0.829710  0.512867  1
  Cr  Cr21  1  0.827714  0.829710  0.829710  1
  P  P22  1  0.120989  0.626337  0.626337  1
  Ir  Ir23  1  0.747856  0.417381  0.417381  1
  N  N24  1  0.626643  0.124452  0.124452  1
  N  N25  1  0.124246  0.624398  0.125678  1
  N  N26  1  0.124246  0.125678  0.624398  1
  N  N27  1  0.124246  0.125678  0.125678  1
