# generated using pymatgen
data_Ho8Mg4Sc8Si15Ge
_symmetry_space_group_name_H-M   'P 1'
_cell_length_a   6.95355439
_cell_length_b   7.43156589
_cell_length_c   13.91673245
_cell_angle_alpha   90.01684773
_cell_angle_beta   89.92548875
_cell_angle_gamma   90.01497266
_symmetry_Int_Tables_number   1
_chemical_formula_structural   Ho8Mg4Sc8Si15Ge
_chemical_formula_sum   'Ho8 Mg4 Sc8 Si15 Ge1'
_cell_volume   719.15758630
_cell_formula_units_Z   1
loop_
 _symmetry_equiv_pos_site_id
 _symmetry_equiv_pos_as_xyz
  1  'x, y, z'
loop_
 _atom_site_type_symbol
 _atom_site_label
 _atom_site_symmetry_multiplicity
 _atom_site_fract_x
 _atom_site_fract_y
 _atom_site_fract_z
 _atom_site_occupancy
  Ho  Ho0  1  0.011428  0.178573  0.096646  1
  Ho  Ho1  1  0.988636  0.821646  0.903388  1
  Ho  Ho2  1  0.488881  0.678203  0.903352  1
  Ho  Ho3  1  0.988546  0.822628  0.596719  1
  Ho  Ho4  1  0.511038  0.322021  0.096762  1
  Ho  Ho5  1  0.010251  0.177705  0.402790  1
  Ho  Ho6  1  0.511642  0.320418  0.402216  1
  Ho  Ho7  1  0.491450  0.680184  0.597094  1
  Mg  Mg8  1  0.160911  0.504191  0.751331  1
  Mg  Mg9  1  0.839043  0.495642  0.250035  1
  Mg  Mg10  1  0.339303  0.004497  0.249844  1
  Mg  Mg11  1  0.660902  0.995462  0.750287  1
  Sc  Sc12  1  0.333824  0.177320  0.626533  1
  Sc  Sc13  1  0.667321  0.820602  0.373809  1
  Sc  Sc14  1  0.166741  0.680679  0.373969  1
  Sc  Sc15  1  0.668215  0.819722  0.125402  1
  Sc  Sc16  1  0.830990  0.320140  0.625432  1
  Sc  Sc17  1  0.331419  0.179924  0.874652  1
  Sc  Sc18  1  0.831557  0.319991  0.874624  1
  Sc  Sc19  1  0.168122  0.680156  0.125420  1
  Si  Si20  1  0.035633  0.104817  0.750064  1
  Si  Si21  1  0.964194  0.895546  0.249544  1
  Si  Si22  1  0.463742  0.604988  0.249905  1
  Si  Si23  1  0.535694  0.395122  0.750141  1
  Si  Si24  1  0.283671  0.878866  0.750390  1
  Si  Si25  1  0.715968  0.120611  0.249478  1
  Si  Si26  1  0.215588  0.379638  0.249973  1
  Si  Si27  1  0.784587  0.620328  0.750114  1
  Si  Si28  1  0.833754  0.537930  0.465209  1
  Si  Si29  1  0.337956  0.963057  0.465956  1
  Si  Si30  1  0.838648  0.536605  0.034108  1
  Si  Si31  1  0.661992  0.037341  0.533506  1
  Si  Si32  1  0.161505  0.463258  0.966094  1
  Si  Si33  1  0.661159  0.036683  0.965892  1
  Si  Si34  1  0.338849  0.963438  0.034247  1
  Ge  Ge35  1  0.166837  0.462066  0.535080  1
