# generated using pymatgen
data_TbTh(Pd2Pt)2
_symmetry_space_group_name_H-M   'P 1'
_cell_length_a   5.88807900
_cell_length_b   5.91147723
_cell_length_c   9.68530100
_cell_angle_alpha   90.00000000
_cell_angle_beta   90.00000000
_cell_angle_gamma   119.86913644
_symmetry_Int_Tables_number   1
_chemical_formula_structural   TbTh(Pd2Pt)2
_chemical_formula_sum   'Tb2 Th2 Pd8 Pt4'
_cell_volume   292.33753744
_cell_formula_units_Z   2
loop_
 _symmetry_equiv_pos_site_id
 _symmetry_equiv_pos_as_xyz
  1  'x, y, z'
loop_
 _atom_site_type_symbol
 _atom_site_label
 _atom_site_symmetry_multiplicity
 _atom_site_fract_x
 _atom_site_fract_y
 _atom_site_fract_z
 _atom_site_occupancy
  Tb  Tb0  1  0.332625  0.665250  0.250000  1
  Tb  Tb1  1  0.667375  0.334750  0.750000  1
  Th  Th2  1  0.000000  0.000000  0.500000  1
  Th  Th3  1  0.000000  0.000000  0.000000  1
  Pd  Pd4  1  0.500000  0.000000  0.500000  1
  Pd  Pd5  1  0.500000  0.000000  0.000000  1
  Pd  Pd6  1  0.824870  0.649742  0.250000  1
  Pd  Pd7  1  0.348185  0.173861  0.250000  1
  Pd  Pd8  1  0.825675  0.173861  0.250000  1
  Pd  Pd9  1  0.175130  0.350258  0.750000  1
  Pd  Pd10  1  0.651815  0.826139  0.750000  1
  Pd  Pd11  1  0.174325  0.826139  0.750000  1
  Pt  Pt12  1  0.500000  0.500000  0.500000  1
  Pt  Pt13  1  0.000000  0.500000  0.500000  1
  Pt  Pt14  1  0.500000  0.500000  0.000000  1
  Pt  Pt15  1  0.000000  0.500000  0.000000  1
