# generated using pymatgen
data_Dy3ZnHg2Pd3
_symmetry_space_group_name_H-M   'P 1'
_cell_length_a   7.61221527
_cell_length_b   7.59999994
_cell_length_c   3.82968700
_cell_angle_alpha   90.00000000
_cell_angle_beta   90.00000000
_cell_angle_gamma   119.94692864
_symmetry_Int_Tables_number   1
_chemical_formula_structural   Dy3ZnHg2Pd3
_chemical_formula_sum   'Dy3 Zn1 Hg2 Pd3'
_cell_volume   191.97760394
_cell_formula_units_Z   1
loop_
 _symmetry_equiv_pos_site_id
 _symmetry_equiv_pos_as_xyz
  1  'x, y, z'
loop_
 _atom_site_type_symbol
 _atom_site_label
 _atom_site_symmetry_multiplicity
 _atom_site_fract_x
 _atom_site_fract_y
 _atom_site_fract_z
 _atom_site_occupancy
  Dy  Dy0  1  0.398055  0.400148  0.500000  1
  Dy  Dy1  1  0.601945  0.002093  0.500000  1
  Dy  Dy2  1  0.000000  0.588332  0.500000  1
  Zn  Zn3  1  0.000000  0.266153  0.000000  1
  Hg  Hg4  1  0.738841  0.734950  0.000000  1
  Hg  Hg5  1  0.261159  0.996110  0.000000  1
  Pd  Pd6  1  0.675919  0.329023  0.000000  1
  Pd  Pd7  1  0.324081  0.653105  0.000000  1
  Pd  Pd8  1  0.000000  0.030086  0.500000  1
