# generated using pymatgen
data_Zr2Mn6Cr3Fe3P7
_symmetry_space_group_name_H-M   'P 1'
_cell_length_a   9.09427000
_cell_length_b   9.09426963
_cell_length_c   3.56870500
_cell_angle_alpha   90.00000000
_cell_angle_beta   90.00000000
_cell_angle_gamma   119.99999407
_symmetry_Int_Tables_number   1
_chemical_formula_structural   Zr2Mn6Cr3Fe3P7
_chemical_formula_sum   'Zr2 Mn6 Cr3 Fe3 P7'
_cell_volume   255.60949190
_cell_formula_units_Z   1
loop_
 _symmetry_equiv_pos_site_id
 _symmetry_equiv_pos_as_xyz
  1  'x, y, z'
loop_
 _atom_site_type_symbol
 _atom_site_label
 _atom_site_symmetry_multiplicity
 _atom_site_fract_x
 _atom_site_fract_y
 _atom_site_fract_z
 _atom_site_occupancy
  Zr  Zr0  1  0.000000  0.000000  0.000000  1
  Zr  Zr1  1  0.333333  0.666667  0.500000  1
  Mn  Mn2  1  0.096697  0.384197  0.000000  1
  Mn  Mn3  1  0.287501  0.903303  0.000000  1
  Mn  Mn4  1  0.615803  0.712499  0.000000  1
  Mn  Mn5  1  0.058235  0.769569  0.500000  1
  Mn  Mn6  1  0.711335  0.941765  0.500000  1
  Mn  Mn7  1  0.230431  0.288665  0.500000  1
  Cr  Cr8  1  0.885657  0.431905  0.500000  1
  Cr  Cr9  1  0.546249  0.114343  0.500000  1
  Cr  Cr10  1  0.568095  0.453751  0.500000  1
  Fe  Fe11  1  0.825941  0.611312  0.000000  1
  Fe  Fe12  1  0.785372  0.174059  0.000000  1
  Fe  Fe13  1  0.388688  0.214628  0.000000  1
  P  P14  1  0.077620  0.621002  0.000000  1
  P  P15  1  0.543382  0.922380  0.000000  1
  P  P16  1  0.378998  0.456618  0.000000  1
  P  P17  1  0.794293  0.742686  0.500000  1
  P  P18  1  0.948393  0.205707  0.500000  1
  P  P19  1  0.257314  0.051607  0.500000  1
  P  P20  1  0.666667  0.333333  0.000000  1
