# generated using pymatgen
data_Tb6Ho10Cd3AgIr3Pt
_symmetry_space_group_name_H-M   'P 1'
_cell_length_a   9.61271707
_cell_length_b   9.61271777
_cell_length_c   9.61271700
_cell_angle_alpha   60.14326516
_cell_angle_beta   60.14326278
_cell_angle_gamma   60.14327008
_symmetry_Int_Tables_number   1
_chemical_formula_structural   Tb6Ho10Cd3AgIr3Pt
_chemical_formula_sum   'Tb6 Ho10 Cd3 Ag1 Ir3 Pt1'
_cell_volume   630.13067783
_cell_formula_units_Z   1
loop_
 _symmetry_equiv_pos_site_id
 _symmetry_equiv_pos_as_xyz
  1  'x, y, z'
loop_
 _atom_site_type_symbol
 _atom_site_label
 _atom_site_symmetry_multiplicity
 _atom_site_fract_x
 _atom_site_fract_y
 _atom_site_fract_z
 _atom_site_occupancy
  Tb  Tb0  1  0.186488  0.812253  0.812253  1
  Tb  Tb1  1  0.813586  0.187615  0.187615  1
  Tb  Tb2  1  0.812253  0.186488  0.812253  1
  Tb  Tb3  1  0.187615  0.813586  0.187615  1
  Tb  Tb4  1  0.812253  0.812253  0.186488  1
  Tb  Tb5  1  0.187615  0.187615  0.813586  1
  Ho  Ho6  1  0.597767  0.597767  0.597767  1
  Ho  Ho7  1  0.602510  0.602510  0.198673  1
  Ho  Ho8  1  0.602510  0.198673  0.602510  1
  Ho  Ho9  1  0.198673  0.602510  0.602510  1
  Ho  Ho10  1  0.056882  0.439748  0.439748  1
  Ho  Ho11  1  0.437368  0.061059  0.061059  1
  Ho  Ho12  1  0.439748  0.056882  0.439748  1
  Ho  Ho13  1  0.061059  0.437368  0.061059  1
  Ho  Ho14  1  0.439748  0.439748  0.056882  1
  Ho  Ho15  1  0.061059  0.061059  0.437368  1
  Cd  Cd16  1  0.830918  0.830918  0.508473  1
  Cd  Cd17  1  0.830918  0.508473  0.830918  1
  Cd  Cd18  1  0.508473  0.830918  0.830918  1
  Ag  Ag19  1  0.832163  0.832163  0.832163  1
  Ir  Ir20  1  0.391671  0.391671  0.824407  1
  Ir  Ir21  1  0.391671  0.824407  0.391671  1
  Ir  Ir22  1  0.824407  0.391671  0.391671  1
  Pt  Pt23  1  0.392648  0.392648  0.392648  1
