# generated using pymatgen
data_Tb2Dy5Tm(WO6)4
_symmetry_space_group_name_H-M   'P 1'
_cell_length_a   5.40415500
_cell_length_b   7.71730132
_cell_length_c   11.47961171
_cell_angle_alpha   75.50022473
_cell_angle_beta   89.96548775
_cell_angle_gamma   89.90189232
_symmetry_Int_Tables_number   1
_chemical_formula_structural   Tb2Dy5Tm(WO6)4
_chemical_formula_sum   'Tb2 Dy5 Tm1 W4 O24'
_cell_volume   463.51291663
_cell_formula_units_Z   1
loop_
 _symmetry_equiv_pos_site_id
 _symmetry_equiv_pos_as_xyz
  1  'x, y, z'
loop_
 _atom_site_type_symbol
 _atom_site_label
 _atom_site_symmetry_multiplicity
 _atom_site_fract_x
 _atom_site_fract_y
 _atom_site_fract_z
 _atom_site_occupancy
  Tb  Tb0  1  0.683989  0.499647  0.749608  1
  Tb  Tb1  1  0.316739  0.499382  0.251011  1
  Dy  Dy2  1  0.740037  0.000288  0.749035  1
  Dy  Dy3  1  0.259973  0.000538  0.251200  1
  Dy  Dy4  1  0.184049  0.795278  0.577554  1
  Dy  Dy5  1  0.814841  0.794994  0.077714  1
  Dy  Dy6  1  0.185651  0.204794  0.922271  1
  Tm  Tm7  1  0.815719  0.206470  0.421528  1
  W  W8  1  0.255145  0.723707  0.885249  1
  W  W9  1  0.744715  0.723537  0.385261  1
  W  W10  1  0.255440  0.276172  0.613583  1
  W  W11  1  0.745497  0.275902  0.115618  1
  O  O12  1  0.042649  0.939226  0.895468  1
  O  O13  1  0.531188  0.848367  0.930566  1
  O  O14  1  0.952374  0.941874  0.395803  1
  O  O15  1  0.458128  0.790446  0.727383  1
  O  O16  1  0.466043  0.845939  0.430678  1
  O  O17  1  0.981659  0.710896  0.771567  1
  O  O18  1  0.541513  0.789636  0.227836  1
  O  O19  1  0.849019  0.635232  0.548037  1
  O  O20  1  0.360666  0.490404  0.885863  1
  O  O21  1  0.019083  0.711968  0.272197  1
  O  O22  1  0.359869  0.509180  0.612866  1
  O  O23  1  0.849489  0.364314  0.952581  1
  O  O24  1  0.150761  0.634876  0.048100  1
  O  O25  1  0.643078  0.488990  0.386100  1
  O  O26  1  0.982681  0.288944  0.728169  1
  O  O27  1  0.639773  0.509187  0.114405  1
  O  O28  1  0.147431  0.364072  0.451158  1
  O  O29  1  0.458466  0.209069  0.771546  1
  O  O30  1  0.017720  0.288412  0.230272  1
  O  O31  1  0.534281  0.154238  0.566835  1
  O  O32  1  0.544286  0.209021  0.274517  1
  O  O33  1  0.042548  0.061716  0.602977  1
  O  O34  1  0.468010  0.152587  0.070683  1
  O  O35  1  0.957487  0.060695  0.104761  1
