# generated using pymatgen
data_Ba4DyReWO12
_symmetry_space_group_name_H-M   'P 1'
_cell_length_a   10.15527326
_cell_length_b   10.15527439
_cell_length_c   10.15527435
_cell_angle_alpha   33.93011319
_cell_angle_beta   33.93010289
_cell_angle_gamma   33.93011456
_symmetry_Int_Tables_number   1
_chemical_formula_structural   Ba4DyReWO12
_chemical_formula_sum   'Ba4 Dy1 Re1 W1 O12'
_cell_volume   290.82779709
_cell_formula_units_Z   1
loop_
 _symmetry_equiv_pos_site_id
 _symmetry_equiv_pos_as_xyz
  1  'x, y, z'
loop_
 _atom_site_type_symbol
 _atom_site_label
 _atom_site_symmetry_multiplicity
 _atom_site_fract_x
 _atom_site_fract_y
 _atom_site_fract_z
 _atom_site_occupancy
  Ba  Ba0  1  0.709230  0.709230  0.709230  1
  Ba  Ba1  1  0.286557  0.286557  0.286557  1
  Ba  Ba2  1  0.868321  0.868321  0.868321  1
  Ba  Ba3  1  0.137374  0.137374  0.137374  1
  Dy  Dy4  1  0.999717  0.999717  0.999717  1
  Re  Re5  1  0.421291  0.421291  0.421291  1
  W  W6  1  0.578184  0.578184  0.578184  1
  O  O7  1  0.226379  0.683228  0.226379  1
  O  O8  1  0.226379  0.226379  0.683228  1
  O  O9  1  0.683228  0.226379  0.226379  1
  O  O10  1  0.777891  0.311713  0.777891  1
  O  O11  1  0.777891  0.777891  0.311713  1
  O  O12  1  0.311713  0.777891  0.777891  1
  O  O13  1  0.385317  0.863445  0.385317  1
  O  O14  1  0.385317  0.385317  0.863445  1
  O  O15  1  0.863445  0.385317  0.385317  1
  O  O16  1  0.608461  0.144844  0.608461  1
  O  O17  1  0.608461  0.608461  0.144844  1
  O  O18  1  0.144844  0.608461  0.608461  1
