# generated using pymatgen
data_Sr10(InPd)3
_symmetry_space_group_name_H-M   'P 1'
_cell_length_a   9.94922780
_cell_length_b   9.94922795
_cell_length_c   9.89819578
_cell_angle_alpha   129.15210860
_cell_angle_beta   129.15211082
_cell_angle_gamma   75.15021703
_symmetry_Int_Tables_number   1
_chemical_formula_structural   Sr10(InPd)3
_chemical_formula_sum   'Sr10 In3 Pd3'
_cell_volume   572.45931164
_cell_formula_units_Z   1
loop_
 _symmetry_equiv_pos_site_id
 _symmetry_equiv_pos_as_xyz
  1  'x, y, z'
loop_
 _atom_site_type_symbol
 _atom_site_label
 _atom_site_symmetry_multiplicity
 _atom_site_fract_x
 _atom_site_fract_y
 _atom_site_fract_z
 _atom_site_occupancy
  Sr  Sr0  1  0.025932  0.525932  0.827340  1
  Sr  Sr1  1  0.301408  0.801408  0.827340  1
  Sr  Sr2  1  0.966280  0.466280  0.160201  1
  Sr  Sr3  1  0.993167  0.004393  0.997560  1
  Sr  Sr4  1  0.464117  0.319365  0.505570  1
  Sr  Sr5  1  0.186205  0.041453  0.505570  1
  Sr  Sr6  1  0.693921  0.193921  0.160201  1
  Sr  Sr7  1  0.541453  0.686205  0.505570  1
  Sr  Sr8  1  0.819365  0.964117  0.505570  1
  Sr  Sr9  1  0.504393  0.493167  0.997560  1
  In  In10  1  0.250115  0.250115  0.000229  1
  In  In11  1  0.384167  0.884167  0.268335  1
  In  In12  1  0.750115  0.750115  0.000229  1
  Pd  Pd13  1  0.881726  0.618183  0.499909  1
  Pd  Pd14  1  0.619453  0.119453  0.738905  1
  Pd  Pd15  1  0.118183  0.381726  0.499909  1
