# generated using pymatgen
data_Sr4Tb3(US4)5
_symmetry_space_group_name_H-M   'P 1'
_cell_length_a   7.48563697
_cell_length_b   8.12856950
_cell_length_c   11.74846800
_cell_angle_alpha   89.75593832
_cell_angle_beta   89.93399872
_cell_angle_gamma   90.20018392
_symmetry_Int_Tables_number   1
_chemical_formula_structural   Sr4Tb3(US4)5
_chemical_formula_sum   'Sr4 Tb3 U5 S20'
_cell_volume   714.85381006
_cell_formula_units_Z   1
loop_
 _symmetry_equiv_pos_site_id
 _symmetry_equiv_pos_as_xyz
  1  'x, y, z'
loop_
 _atom_site_type_symbol
 _atom_site_label
 _atom_site_symmetry_multiplicity
 _atom_site_fract_x
 _atom_site_fract_y
 _atom_site_fract_z
 _atom_site_occupancy
  Sr  Sr0  1  0.046028  0.492969  0.328269  1
  Sr  Sr1  1  0.547544  0.506953  0.171407  1
  Sr  Sr2  1  0.953358  0.507914  0.669748  1
  Sr  Sr3  1  0.450032  0.494778  0.830281  1
  Tb  Tb4  1  0.031486  0.999557  0.321361  1
  Tb  Tb5  1  0.532485  0.001225  0.180396  1
  Tb  Tb6  1  0.969314  0.001051  0.676061  1
  U  U7  1  0.471351  0.000310  0.822913  1
  U  U8  1  0.065545  0.753324  0.007994  1
  U  U9  1  0.567978  0.246867  0.492740  1
  U  U10  1  0.933227  0.244813  0.991211  1
  U  U11  1  0.429281  0.753329  0.507894  1
  S  S12  1  0.664745  0.957132  0.408878  1
  S  S13  1  0.164328  0.042254  0.091125  1
  S  S14  1  0.338605  0.043514  0.597647  1
  S  S15  1  0.832307  0.953732  0.905217  1
  S  S16  1  0.449119  0.780360  0.998942  1
  S  S17  1  0.946624  0.224661  0.497607  1
  S  S18  1  0.550207  0.220319  0.994853  1
  S  S19  1  0.053359  0.777116  0.502405  1
  S  S20  1  0.843523  0.768443  0.187841  1
  S  S21  1  0.344562  0.230871  0.312395  1
  S  S22  1  0.158968  0.227048  0.811786  1
  S  S23  1  0.651124  0.770435  0.691411  1
  S  S24  1  0.318469  0.764656  0.286239  1
  S  S25  1  0.817287  0.235162  0.210694  1
  S  S26  1  0.682471  0.234058  0.714532  1
  S  S27  1  0.183212  0.768056  0.788463  1
  S  S28  1  0.175728  0.460693  0.075483  1
  S  S29  1  0.672549  0.540390  0.422984  1
  S  S30  1  0.827400  0.538792  0.921325  1
  S  S31  1  0.327784  0.459218  0.579903  1
