# generated using pymatgen
data_Yb2Y3Hf3(Ni4P3)4
_symmetry_space_group_name_H-M   'P 1'
_cell_length_a   12.32635900
_cell_length_b   12.32635836
_cell_length_c   3.79112400
_cell_angle_alpha   90.00000000
_cell_angle_beta   90.00000000
_cell_angle_gamma   120.00000441
_symmetry_Int_Tables_number   1
_chemical_formula_structural   Yb2Y3Hf3(Ni4P3)4
_chemical_formula_sum   'Yb2 Y3 Hf3 Ni16 P12'
_cell_volume   498.84796372
_cell_formula_units_Z   1
loop_
 _symmetry_equiv_pos_site_id
 _symmetry_equiv_pos_as_xyz
  1  'x, y, z'
loop_
 _atom_site_type_symbol
 _atom_site_label
 _atom_site_symmetry_multiplicity
 _atom_site_fract_x
 _atom_site_fract_y
 _atom_site_fract_z
 _atom_site_occupancy
  Yb  Yb0  1  0.333333  0.666667  0.000000  1
  Yb  Yb1  1  0.666667  0.333333  0.000000  1
  Y  Y2  1  0.184571  0.184571  0.500000  1
  Y  Y3  1  0.815429  0.000000  0.500000  1
  Y  Y4  1  0.000000  0.815429  0.500000  1
  Hf  Hf5  1  0.562481  0.562481  0.000000  1
  Hf  Hf6  1  0.437519  0.000000  0.000000  1
  Hf  Hf7  1  0.000000  0.437519  0.000000  1
  Ni  Ni8  1  0.725131  0.725131  0.500000  1
  Ni  Ni9  1  0.274869  0.000000  0.500000  1
  Ni  Ni10  1  0.000000  0.274869  0.500000  1
  Ni  Ni11  1  0.185863  0.378329  0.000000  1
  Ni  Ni12  1  0.621671  0.807535  0.000000  1
  Ni  Ni13  1  0.192465  0.814137  0.000000  1
  Ni  Ni14  1  0.807535  0.621671  0.000000  1
  Ni  Ni15  1  0.814137  0.192465  0.000000  1
  Ni  Ni16  1  0.378329  0.185863  0.000000  1
  Ni  Ni17  1  0.361346  0.486048  0.500000  1
  Ni  Ni18  1  0.513952  0.875299  0.500000  1
  Ni  Ni19  1  0.124701  0.638654  0.500000  1
  Ni  Ni20  1  0.875299  0.513952  0.500000  1
  Ni  Ni21  1  0.638654  0.124701  0.500000  1
  Ni  Ni22  1  0.486048  0.361346  0.500000  1
  Ni  Ni23  1  0.000000  0.000000  0.000000  1
  P  P24  1  0.822236  0.822236  0.000000  1
  P  P25  1  0.177764  0.000000  0.000000  1
  P  P26  1  0.000000  0.177764  0.000000  1
  P  P27  1  0.170373  0.476350  0.500000  1
  P  P28  1  0.523650  0.694022  0.500000  1
  P  P29  1  0.305978  0.829627  0.500000  1
  P  P30  1  0.694022  0.523650  0.500000  1
  P  P31  1  0.829627  0.305978  0.500000  1
  P  P32  1  0.476350  0.170373  0.500000  1
  P  P33  1  0.356817  0.356817  0.000000  1
  P  P34  1  0.643183  0.000000  0.000000  1
  P  P35  1  0.000000  0.643183  0.000000  1
