# generated using pymatgen
data_TmSc3Al8
_symmetry_space_group_name_H-M   'P 1'
_cell_length_a   9.37915282
_cell_length_b   9.37915303
_cell_length_c   9.37915249
_cell_angle_alpha   33.43065450
_cell_angle_beta   33.43065073
_cell_angle_gamma   33.43065742
_symmetry_Int_Tables_number   1
_chemical_formula_structural   TmSc3Al8
_chemical_formula_sum   'Tm1 Sc3 Al8'
_cell_volume   223.01397507
_cell_formula_units_Z   1
loop_
 _symmetry_equiv_pos_site_id
 _symmetry_equiv_pos_as_xyz
  1  'x, y, z'
loop_
 _atom_site_type_symbol
 _atom_site_label
 _atom_site_symmetry_multiplicity
 _atom_site_fract_x
 _atom_site_fract_y
 _atom_site_fract_z
 _atom_site_occupancy
  Tm  Tm0  1  0.687447  0.687447  0.687447  1
  Sc  Sc1  1  0.187480  0.187480  0.187480  1
  Sc  Sc2  1  0.813519  0.813519  0.813519  1
  Sc  Sc3  1  0.311359  0.311359  0.311359  1
  Al  Al4  1  0.999823  0.999823  0.999823  1
  Al  Al5  1  0.500152  0.500152  0.500152  1
  Al  Al6  1  0.752480  0.250414  0.250414  1
  Al  Al7  1  0.247806  0.749552  0.749552  1
  Al  Al8  1  0.250414  0.752480  0.250414  1
  Al  Al9  1  0.749552  0.247806  0.749552  1
  Al  Al10  1  0.250414  0.250414  0.752480  1
  Al  Al11  1  0.749552  0.749552  0.247806  1
