# generated using pymatgen
data_PrSm5Cd23Ge
_symmetry_space_group_name_H-M   'P 1'
_cell_length_a   10.05683811
_cell_length_b   10.05683801
_cell_length_c   10.04740500
_cell_angle_alpha   60.03101965
_cell_angle_beta   60.03101999
_cell_angle_gamma   59.93795477
_symmetry_Int_Tables_number   1
_chemical_formula_structural   PrSm5Cd23Ge
_chemical_formula_sum   'Pr1 Sm5 Cd23 Ge1'
_cell_volume   718.55669950
_cell_formula_units_Z   1
loop_
 _symmetry_equiv_pos_site_id
 _symmetry_equiv_pos_as_xyz
  1  'x, y, z'
loop_
 _atom_site_type_symbol
 _atom_site_label
 _atom_site_symmetry_multiplicity
 _atom_site_fract_x
 _atom_site_fract_y
 _atom_site_fract_z
 _atom_site_occupancy
  Pr  Pr0  1  0.792668  0.792668  0.207332  1
  Sm  Sm1  1  0.207264  0.793263  0.206737  1
  Sm  Sm2  1  0.793263  0.207264  0.206737  1
  Sm  Sm3  1  0.206791  0.206791  0.793209  1
  Sm  Sm4  1  0.793263  0.207264  0.792736  1
  Sm  Sm5  1  0.207264  0.793263  0.792736  1
  Cd  Cd6  1  0.836518  0.836518  0.492964  1
  Cd  Cd7  1  0.835891  0.490860  0.836623  1
  Cd  Cd8  1  0.490860  0.835891  0.836623  1
  Cd  Cd9  1  0.836518  0.836518  0.833998  1
  Cd  Cd10  1  0.163377  0.163377  0.509140  1
  Cd  Cd11  1  0.166002  0.507036  0.163482  1
  Cd  Cd12  1  0.507036  0.166002  0.163482  1
  Cd  Cd13  1  0.163377  0.163377  0.164109  1
  Cd  Cd14  1  0.621705  0.621705  0.132837  1
  Cd  Cd15  1  0.621141  0.134041  0.622410  1
  Cd  Cd16  1  0.134041  0.621141  0.622410  1
  Cd  Cd17  1  0.621705  0.621705  0.623756  1
  Cd  Cd18  1  0.377590  0.377590  0.865959  1
  Cd  Cd19  1  0.376244  0.867163  0.378295  1
  Cd  Cd20  1  0.867163  0.376244  0.378295  1
  Cd  Cd21  1  0.377590  0.377590  0.378859  1
  Cd  Cd22  1  0.000322  0.000322  0.499678  1
  Cd  Cd23  1  0.499642  0.000463  0.500358  1
  Cd  Cd24  1  0.000463  0.499642  0.500358  1
  Cd  Cd25  1  0.500322  0.500322  0.999678  1
  Cd  Cd26  1  0.000463  0.499642  0.999537  1
  Cd  Cd27  1  0.499642  0.000463  0.999537  1
  Cd  Cd28  1  0.500477  0.500477  0.499523  1
  Ge  Ge29  1  0.001397  0.001397  0.998603  1
