# generated using pymatgen
data_HoLu3(NbOs3)2
_symmetry_space_group_name_H-M   'P 1'
_cell_length_a   5.49444600
_cell_length_b   5.49444739
_cell_length_c   8.55275500
_cell_angle_alpha   90.00000000
_cell_angle_beta   90.00000000
_cell_angle_gamma   119.99997958
_symmetry_Int_Tables_number   1
_chemical_formula_structural   HoLu3(NbOs3)2
_chemical_formula_sum   'Ho1 Lu3 Nb2 Os6'
_cell_volume   223.60663263
_cell_formula_units_Z   1
loop_
 _symmetry_equiv_pos_site_id
 _symmetry_equiv_pos_as_xyz
  1  'x, y, z'
loop_
 _atom_site_type_symbol
 _atom_site_label
 _atom_site_symmetry_multiplicity
 _atom_site_fract_x
 _atom_site_fract_y
 _atom_site_fract_z
 _atom_site_occupancy
  Ho  Ho0  1  0.333333  0.666667  0.434548  1
  Lu  Lu1  1  0.666667  0.333333  0.565428  1
  Lu  Lu2  1  0.666667  0.333333  0.934778  1
  Lu  Lu3  1  0.333333  0.666667  0.064807  1
  Nb  Nb4  1  0.000000  0.000000  0.999824  1
  Nb  Nb5  1  0.000000  0.000000  0.500004  1
  Os  Os6  1  0.173982  0.347965  0.750644  1
  Os  Os7  1  0.173982  0.826018  0.750644  1
  Os  Os8  1  0.348505  0.174252  0.249559  1
  Os  Os9  1  0.825748  0.651495  0.249559  1
  Os  Os10  1  0.652035  0.826018  0.750644  1
  Os  Os11  1  0.825748  0.174252  0.249559  1
