# generated using pymatgen
data_HoSc2(Fe2Si)3
_symmetry_space_group_name_H-M   'P 1'
_cell_length_a   8.22148316
_cell_length_b   8.22148210
_cell_length_c   8.22148251
_cell_angle_alpha   35.79066336
_cell_angle_beta   35.79066172
_cell_angle_gamma   35.79066358
_symmetry_Int_Tables_number   1
_chemical_formula_structural   HoSc2(Fe2Si)3
_chemical_formula_sum   'Ho1 Sc2 Fe6 Si3'
_cell_volume   169.93745356
_cell_formula_units_Z   1
loop_
 _symmetry_equiv_pos_site_id
 _symmetry_equiv_pos_as_xyz
  1  'x, y, z'
loop_
 _atom_site_type_symbol
 _atom_site_label
 _atom_site_symmetry_multiplicity
 _atom_site_fract_x
 _atom_site_fract_y
 _atom_site_fract_z
 _atom_site_occupancy
  Ho  Ho0  1  0.000000  0.000000  0.000000  1
  Sc  Sc1  1  0.142717  0.142717  0.142717  1
  Sc  Sc2  1  0.857283  0.857283  0.857283  1
  Fe  Fe3  1  0.077235  0.584938  0.584938  1
  Fe  Fe4  1  0.584938  0.584938  0.077235  1
  Fe  Fe5  1  0.584938  0.077235  0.584938  1
  Fe  Fe6  1  0.415062  0.922765  0.415062  1
  Fe  Fe7  1  0.922765  0.415062  0.415062  1
  Fe  Fe8  1  0.415062  0.415062  0.922765  1
  Si  Si9  1  0.500000  0.500000  0.500000  1
  Si  Si10  1  0.333783  0.333783  0.333783  1
  Si  Si11  1  0.666217  0.666217  0.666217  1
