# generated using pymatgen
data_Li3Zn8Ir4Rh
_symmetry_space_group_name_H-M   'P 1'
_cell_length_a   6.04486400
_cell_length_b   6.08408600
_cell_length_c   6.02122500
_cell_angle_alpha   90.00000000
_cell_angle_beta   89.99990503
_cell_angle_gamma   90.00000000
_symmetry_Int_Tables_number   1
_chemical_formula_structural   Li3Zn8Ir4Rh
_chemical_formula_sum   'Li3 Zn8 Ir4 Rh1'
_cell_volume   221.44543646
_cell_formula_units_Z   1
loop_
 _symmetry_equiv_pos_site_id
 _symmetry_equiv_pos_as_xyz
  1  'x, y, z'
loop_
 _atom_site_type_symbol
 _atom_site_label
 _atom_site_symmetry_multiplicity
 _atom_site_fract_x
 _atom_site_fract_y
 _atom_site_fract_z
 _atom_site_occupancy
  Li  Li0  1  0.750973  0.750000  0.000000  1
  Li  Li1  1  0.749030  0.750000  0.499988  1
  Li  Li2  1  0.250938  0.250000  0.500013  1
  Zn  Zn3  1  0.499086  0.000952  0.249445  1
  Zn  Zn4  1  0.499086  0.499045  0.249445  1
  Zn  Zn5  1  0.000882  0.000927  0.250646  1
  Zn  Zn6  1  0.000882  0.499075  0.250646  1
  Zn  Zn7  1  0.000881  0.000921  0.749354  1
  Zn  Zn8  1  0.000881  0.499077  0.749354  1
  Zn  Zn9  1  0.499093  0.000953  0.750556  1
  Zn  Zn10  1  0.499093  0.499050  0.750556  1
  Ir  Ir11  1  0.750412  0.250000  0.000000  1
  Ir  Ir12  1  0.249400  0.750000  0.999999  1
  Ir  Ir13  1  0.250566  0.750000  0.500000  1
  Ir  Ir14  1  0.749502  0.250000  0.500000  1
  Rh  Rh15  1  0.249289  0.250000  0.999999  1
