# generated using pymatgen
data_Tb3Dy9ZnCo4Sn
_symmetry_space_group_name_H-M   'P 1'
_cell_length_a   8.32869869
_cell_length_b   8.32869938
_cell_length_c   8.33758651
_cell_angle_alpha   107.25020362
_cell_angle_beta   109.12421955
_cell_angle_gamma   112.03491990
_symmetry_Int_Tables_number   1
_chemical_formula_structural   Tb3Dy9ZnCo4Sn
_chemical_formula_sum   'Tb3 Dy9 Zn1 Co4 Sn1'
_cell_volume   444.64799041
_cell_formula_units_Z   1
loop_
 _symmetry_equiv_pos_site_id
 _symmetry_equiv_pos_as_xyz
  1  'x, y, z'
loop_
 _atom_site_type_symbol
 _atom_site_label
 _atom_site_symmetry_multiplicity
 _atom_site_fract_x
 _atom_site_fract_y
 _atom_site_fract_z
 _atom_site_occupancy
  Tb  Tb0  1  0.300145  0.269426  0.569570  1
  Tb  Tb1  1  0.699934  0.730445  0.430380  1
  Tb  Tb2  1  0.300460  0.730702  0.031161  1
  Dy  Dy3  1  0.700027  0.269043  0.969070  1
  Dy  Dy4  1  0.186186  0.511551  0.324626  1
  Dy  Dy5  1  0.187201  0.862055  0.675552  1
  Dy  Dy6  1  0.813497  0.488350  0.675552  1
  Dy  Dy7  1  0.813075  0.138440  0.324626  1
  Dy  Dy8  1  0.397428  0.217610  0.179643  1
  Dy  Dy9  1  0.037411  0.217390  0.820262  1
  Dy  Dy10  1  0.962034  0.782215  0.179643  1
  Dy  Dy11  1  0.602873  0.782850  0.820262  1
  Zn  Zn12  1  0.500527  0.499278  0.999805  1
  Co  Co13  1  0.159116  0.500113  0.659229  1
  Co  Co14  1  0.840376  0.499752  0.340128  1
  Co  Co15  1  0.999117  0.114698  0.113815  1
  Co  Co16  1  0.000129  0.885776  0.885905  1
  Sn  Sn17  1  0.500463  0.000308  0.500771  1
