# generated using pymatgen
data_Sr4Ca2ReRhO12
_symmetry_space_group_name_H-M   'P 1'
_cell_length_a   5.81424963
_cell_length_b   5.93036818
_cell_length_c   8.27226565
_cell_angle_alpha   89.43801199
_cell_angle_beta   90.38118092
_cell_angle_gamma   89.95732133
_symmetry_Int_Tables_number   1
_chemical_formula_structural   Sr4Ca2ReRhO12
_chemical_formula_sum   'Sr4 Ca2 Re1 Rh1 O12'
_cell_volume   285.21289619
_cell_formula_units_Z   1
loop_
 _symmetry_equiv_pos_site_id
 _symmetry_equiv_pos_as_xyz
  1  'x, y, z'
loop_
 _atom_site_type_symbol
 _atom_site_label
 _atom_site_symmetry_multiplicity
 _atom_site_fract_x
 _atom_site_fract_y
 _atom_site_fract_z
 _atom_site_occupancy
  Sr  Sr0  1  0.491345  0.539834  0.233324  1
  Sr  Sr1  1  0.991147  0.950590  0.766358  1
  Sr  Sr2  1  0.508655  0.460166  0.766676  1
  Sr  Sr3  1  0.008853  0.049410  0.233642  1
  Ca  Ca4  1  0.000000  0.500000  0.500000  1
  Ca  Ca5  1  0.500000  0.000000  0.000000  1
  Re  Re6  1  0.500000  0.000000  0.500000  1
  Rh  Rh7  1  0.000000  0.500000  0.000000  1
  O  O8  1  0.236210  0.818037  0.459951  1
  O  O9  1  0.726292  0.696845  0.959941  1
  O  O10  1  0.763790  0.181963  0.540049  1
  O  O11  1  0.273708  0.303155  0.040059  1
  O  O12  1  0.677992  0.735316  0.546612  1
  O  O13  1  0.191637  0.772932  0.044565  1
  O  O14  1  0.322008  0.264684  0.453388  1
  O  O15  1  0.808363  0.227068  0.955435  1
  O  O16  1  0.580041  0.977943  0.277483  1
  O  O17  1  0.082288  0.526264  0.766699  1
  O  O18  1  0.419959  0.022057  0.722517  1
  O  O19  1  0.917712  0.473736  0.233301  1
