# generated using pymatgen
data_Tb5YAl24(CoRu3)2
_symmetry_space_group_name_H-M   'P 1'
_cell_length_a   8.77591409
_cell_length_b   8.77812677
_cell_length_c   9.54497600
_cell_angle_alpha   90.00000000
_cell_angle_beta   90.00000000
_cell_angle_gamma   120.00834085
_symmetry_Int_Tables_number   1
_chemical_formula_structural   Tb5YAl24(CoRu3)2
_chemical_formula_sum   'Tb5 Y1 Al24 Co2 Ru6'
_cell_volume   636.74152958
_cell_formula_units_Z   1
loop_
 _symmetry_equiv_pos_site_id
 _symmetry_equiv_pos_as_xyz
  1  'x, y, z'
loop_
 _atom_site_type_symbol
 _atom_site_label
 _atom_site_symmetry_multiplicity
 _atom_site_fract_x
 _atom_site_fract_y
 _atom_site_fract_z
 _atom_site_occupancy
  Tb  Tb0  1  0.806567  0.193412  0.250000  1
  Tb  Tb1  1  0.806567  0.613155  0.250000  1
  Tb  Tb2  1  0.613225  0.806612  0.750000  1
  Tb  Tb3  1  0.193378  0.806681  0.750000  1
  Tb  Tb4  1  0.193378  0.386697  0.750000  1
  Y  Y5  1  0.387147  0.193573  0.250000  1
  Al  Al6  1  0.438560  0.877165  0.250000  1
  Al  Al7  1  0.122895  0.561448  0.250000  1
  Al  Al8  1  0.438560  0.561395  0.250000  1
  Al  Al9  1  0.561449  0.122923  0.750000  1
  Al  Al10  1  0.877105  0.438553  0.750000  1
  Al  Al11  1  0.561449  0.438525  0.750000  1
  Al  Al12  1  0.159890  0.840116  0.423433  1
  Al  Al13  1  0.159890  0.319776  0.423433  1
  Al  Al14  1  0.680168  0.840085  0.423436  1
  Al  Al15  1  0.840128  0.159924  0.576641  1
  Al  Al16  1  0.840128  0.680201  0.576641  1
  Al  Al17  1  0.319832  0.159915  0.576606  1
  Al  Al18  1  0.840128  0.159924  0.923359  1
  Al  Al19  1  0.840128  0.680201  0.923359  1
  Al  Al20  1  0.319832  0.159915  0.923394  1
  Al  Al21  1  0.159890  0.840116  0.076567  1
  Al  Al22  1  0.159890  0.319776  0.076567  1
  Al  Al23  1  0.680168  0.840085  0.076564  1
  Al  Al24  1  0.333389  0.666695  0.514440  1
  Al  Al25  1  0.666589  0.333294  0.485560  1
  Al  Al26  1  0.666589  0.333294  0.014440  1
  Al  Al27  1  0.333389  0.666695  0.985560  1
  Al  Al28  1  0.999951  0.999975  0.250000  1
  Al  Al29  1  0.999979  0.999989  0.750000  1
  Co  Co30  1  0.999997  0.999999  0.499902  1
  Co  Co31  1  0.999997  0.999999  0.000098  1
  Ru  Ru32  1  0.499957  0.000033  0.499923  1
  Ru  Ru33  1  0.999971  0.499986  0.499927  1
  Ru  Ru34  1  0.499957  0.499924  0.499923  1
  Ru  Ru35  1  0.499957  0.000033  0.000077  1
  Ru  Ru36  1  0.999971  0.499986  0.000073  1
  Ru  Ru37  1  0.499957  0.499924  0.000077  1
