# generated using pymatgen
data_Co2Sb12OsPd
_symmetry_space_group_name_H-M   'P 1'
_cell_length_a   8.02108587
_cell_length_b   8.00905580
_cell_length_c   9.29459954
_cell_angle_alpha   55.05716862
_cell_angle_beta   54.98555741
_cell_angle_gamma   70.83773368
_symmetry_Int_Tables_number   1
_chemical_formula_structural   Co2Sb12OsPd
_chemical_formula_sum   'Co2 Sb12 Os1 Pd1'
_cell_volume   400.86723117
_cell_formula_units_Z   1
loop_
 _symmetry_equiv_pos_site_id
 _symmetry_equiv_pos_as_xyz
  1  'x, y, z'
loop_
 _atom_site_type_symbol
 _atom_site_label
 _atom_site_symmetry_multiplicity
 _atom_site_fract_x
 _atom_site_fract_y
 _atom_site_fract_z
 _atom_site_occupancy
  Co  Co0  1  0.500000  0.000000  0.500000  1
  Co  Co1  1  0.000000  0.500000  0.500000  1
  Sb  Sb2  1  0.667518  0.666620  0.492947  1
  Sb  Sb3  1  0.332482  0.333380  0.507053  1
  Sb  Sb4  1  0.660507  0.654653  0.189456  1
  Sb  Sb5  1  0.339493  0.345347  0.810544  1
  Sb  Sb6  1  0.162354  0.847198  0.660990  1
  Sb  Sb7  1  0.837646  0.152802  0.339010  1
  Sb  Sb8  1  0.852790  0.164568  0.651206  1
  Sb  Sb9  1  0.147210  0.835432  0.348794  1
  Sb  Sb10  1  0.823215  0.491874  0.836914  1
  Sb  Sb11  1  0.176785  0.508126  0.163086  1
  Sb  Sb12  1  0.503949  0.183878  0.165966  1
  Sb  Sb13  1  0.496051  0.816122  0.834034  1
  Os  Os14  1  0.000000  0.500000  0.000000  1
  Pd  Pd15  1  0.500000  0.000000  0.000000  1
