# generated using pymatgen
data_Hf18Mo6RhW2Se
_symmetry_space_group_name_H-M   'P 1'
_cell_length_a   8.72372100
_cell_length_b   8.72371988
_cell_length_c   8.61268000
_cell_angle_alpha   90.00000000
_cell_angle_beta   90.00000000
_cell_angle_gamma   120.00000044
_symmetry_Int_Tables_number   1
_chemical_formula_structural   Hf18Mo6RhW2Se
_chemical_formula_sum   'Hf18 Mo6 Rh1 W2 Se1'
_cell_volume   567.63925434
_cell_formula_units_Z   1
loop_
 _symmetry_equiv_pos_site_id
 _symmetry_equiv_pos_as_xyz
  1  'x, y, z'
loop_
 _atom_site_type_symbol
 _atom_site_label
 _atom_site_symmetry_multiplicity
 _atom_site_fract_x
 _atom_site_fract_y
 _atom_site_fract_z
 _atom_site_occupancy
  Hf  Hf0  1  0.542695  0.085391  0.250000  1
  Hf  Hf1  1  0.456070  0.912139  0.750000  1
  Hf  Hf2  1  0.914609  0.457305  0.250000  1
  Hf  Hf3  1  0.087861  0.543930  0.750000  1
  Hf  Hf4  1  0.542695  0.457305  0.250000  1
  Hf  Hf5  1  0.456070  0.543930  0.750000  1
  Hf  Hf6  1  0.198699  0.397397  0.052193  1
  Hf  Hf7  1  0.806168  0.612335  0.953950  1
  Hf  Hf8  1  0.602603  0.801301  0.052193  1
  Hf  Hf9  1  0.806168  0.612335  0.546050  1
  Hf  Hf10  1  0.387665  0.193832  0.953950  1
  Hf  Hf11  1  0.198699  0.397397  0.447807  1
  Hf  Hf12  1  0.198699  0.801301  0.052193  1
  Hf  Hf13  1  0.387665  0.193832  0.546050  1
  Hf  Hf14  1  0.806168  0.193832  0.953950  1
  Hf  Hf15  1  0.602603  0.801301  0.447807  1
  Hf  Hf16  1  0.806168  0.193832  0.546050  1
  Hf  Hf17  1  0.198699  0.801301  0.447807  1
  Mo  Mo18  1  0.888031  0.776063  0.250000  1
  Mo  Mo19  1  0.110889  0.221776  0.750000  1
  Mo  Mo20  1  0.223937  0.111969  0.250000  1
  Mo  Mo21  1  0.778224  0.889111  0.750000  1
  Mo  Mo22  1  0.888031  0.111969  0.250000  1
  Mo  Mo23  1  0.110889  0.889111  0.750000  1
  Rh  Rh24  1  0.333333  0.666667  0.250000  1
  W  W25  1  0.000000  0.000000  0.002122  1
  W  W26  1  0.000000  0.000000  0.497878  1
  Se  Se27  1  0.666667  0.333333  0.750000  1
