# generated using pymatgen
data_DyPaFe12P7
_symmetry_space_group_name_H-M   'P 1'
_cell_length_a   8.93583900
_cell_length_b   8.93583962
_cell_length_c   3.64943800
_cell_angle_alpha   90.00000000
_cell_angle_beta   90.00000000
_cell_angle_gamma   120.00000142
_symmetry_Int_Tables_number   1
_chemical_formula_structural   DyPaFe12P7
_chemical_formula_sum   'Dy1 Pa1 Fe12 P7'
_cell_volume   252.36394975
_cell_formula_units_Z   1
loop_
 _symmetry_equiv_pos_site_id
 _symmetry_equiv_pos_as_xyz
  1  'x, y, z'
loop_
 _atom_site_type_symbol
 _atom_site_label
 _atom_site_symmetry_multiplicity
 _atom_site_fract_x
 _atom_site_fract_y
 _atom_site_fract_z
 _atom_site_occupancy
  Dy  Dy0  1  0.333333  0.666667  0.000000  1
  Pa  Pa1  1  0.000000  0.000000  0.500000  1
  Fe  Fe2  1  0.730746  0.764039  0.000000  1
  Fe  Fe3  1  0.235961  0.966707  0.000000  1
  Fe  Fe4  1  0.033293  0.269254  0.000000  1
  Fe  Fe5  1  0.940653  0.484897  0.000000  1
  Fe  Fe6  1  0.515103  0.455754  0.000000  1
  Fe  Fe7  1  0.544246  0.059347  0.000000  1
  Fe  Fe8  1  0.099887  0.718658  0.500000  1
  Fe  Fe9  1  0.281342  0.381229  0.500000  1
  Fe  Fe10  1  0.618771  0.900113  0.500000  1
  Fe  Fe11  1  0.763943  0.548933  0.500000  1
  Fe  Fe12  1  0.451067  0.215011  0.500000  1
  Fe  Fe13  1  0.784989  0.236057  0.500000  1
  P  P14  1  0.966312  0.738344  0.000000  1
  P  P15  1  0.261656  0.227967  0.000000  1
  P  P16  1  0.772033  0.033688  0.000000  1
  P  P17  1  0.067699  0.445004  0.500000  1
  P  P18  1  0.554996  0.622694  0.500000  1
  P  P19  1  0.377306  0.932301  0.500000  1
  P  P20  1  0.666667  0.333333  0.000000  1
