# generated using pymatgen
data_Pr5ThHg10
_symmetry_space_group_name_H-M   'P 1'
_cell_length_a   6.57109601
_cell_length_b   6.57109598
_cell_length_c   10.60056800
_cell_angle_alpha   90.00000000
_cell_angle_beta   90.00000000
_cell_angle_gamma   105.18466941
_symmetry_Int_Tables_number   1
_chemical_formula_structural   Pr5ThHg10
_chemical_formula_sum   'Pr5 Th1 Hg10'
_cell_volume   441.74439897
_cell_formula_units_Z   1
loop_
 _symmetry_equiv_pos_site_id
 _symmetry_equiv_pos_as_xyz
  1  'x, y, z'
loop_
 _atom_site_type_symbol
 _atom_site_label
 _atom_site_symmetry_multiplicity
 _atom_site_fract_x
 _atom_site_fract_y
 _atom_site_fract_z
 _atom_site_occupancy
  Pr  Pr0  1  0.405870  0.405870  0.750000  1
  Pr  Pr1  1  0.202451  0.797167  0.498906  1
  Pr  Pr2  1  0.202451  0.797167  0.001094  1
  Pr  Pr3  1  0.797167  0.202451  0.498906  1
  Pr  Pr4  1  0.797167  0.202451  0.001094  1
  Th  Th5  1  0.593109  0.593109  0.250000  1
  Hg  Hg6  1  0.996537  0.996537  0.250000  1
  Hg  Hg7  1  0.000948  0.000948  0.750000  1
  Hg  Hg8  1  0.304310  0.304310  0.035833  1
  Hg  Hg9  1  0.697646  0.697646  0.966031  1
  Hg  Hg10  1  0.304310  0.304310  0.464167  1
  Hg  Hg11  1  0.697646  0.697646  0.533969  1
  Hg  Hg12  1  0.485804  0.054698  0.250000  1
  Hg  Hg13  1  0.946644  0.513242  0.750000  1
  Hg  Hg14  1  0.513242  0.946644  0.750000  1
  Hg  Hg15  1  0.054698  0.485804  0.250000  1
