# generated using pymatgen
data_Sr3LaCd2(RuO6)2
_symmetry_space_group_name_H-M   'P 1'
_cell_length_a   5.74735408
_cell_length_b   5.94885841
_cell_length_c   8.18011618
_cell_angle_alpha   90.33765995
_cell_angle_beta   90.25375604
_cell_angle_gamma   90.19154956
_symmetry_Int_Tables_number   1
_chemical_formula_structural   Sr3LaCd2(RuO6)2
_chemical_formula_sum   'Sr3 La1 Cd2 Ru2 O12'
_cell_volume   279.67058536
_cell_formula_units_Z   1
loop_
 _symmetry_equiv_pos_site_id
 _symmetry_equiv_pos_as_xyz
  1  'x, y, z'
loop_
 _atom_site_type_symbol
 _atom_site_label
 _atom_site_symmetry_multiplicity
 _atom_site_fract_x
 _atom_site_fract_y
 _atom_site_fract_z
 _atom_site_occupancy
  Sr  Sr0  1  0.015930  0.054074  0.251447  1
  Sr  Sr1  1  0.487363  0.550147  0.251361  1
  Sr  Sr2  1  0.987446  0.946441  0.749440  1
  La  La3  1  0.514643  0.440427  0.751683  1
  Cd  Cd4  1  0.998188  0.501607  0.498297  1
  Cd  Cd5  1  0.503158  0.993431  0.003162  1
  Ru  Ru6  1  0.003678  0.499834  0.999616  1
  Ru  Ru7  1  0.496985  0.999330  0.500478  1
  O  O8  1  0.768740  0.192605  0.552314  1
  O  O9  1  0.280065  0.315178  0.039437  1
  O  O10  1  0.221292  0.816723  0.457118  1
  O  O11  1  0.720602  0.681154  0.945364  1
  O  O12  1  0.321626  0.275119  0.451676  1
  O  O13  1  0.811138  0.235506  0.938237  1
  O  O14  1  0.672252  0.720472  0.558952  1
  O  O15  1  0.175865  0.774738  0.050979  1
  O  O16  1  0.909227  0.467503  0.226215  1
  O  O17  1  0.408604  0.040886  0.732438  1
  O  O18  1  0.107964  0.528862  0.767950  1
  O  O19  1  0.595236  0.965962  0.273838  1
