# generated using pymatgen
data_CeTiCo2P3Ru2
_symmetry_space_group_name_H-M   'P 1'
_cell_length_a   3.72816000
_cell_length_b   10.85904200
_cell_length_c   12.46546600
_cell_angle_alpha   90.00000000
_cell_angle_beta   90.00000000
_cell_angle_gamma   90.00000000
_symmetry_Int_Tables_number   1
_chemical_formula_structural   CeTiCo2P3Ru2
_chemical_formula_sum   'Ce4 Ti4 Co8 P12 Ru8'
_cell_volume   504.65499233
_cell_formula_units_Z   4
loop_
 _symmetry_equiv_pos_site_id
 _symmetry_equiv_pos_as_xyz
  1  'x, y, z'
loop_
 _atom_site_type_symbol
 _atom_site_label
 _atom_site_symmetry_multiplicity
 _atom_site_fract_x
 _atom_site_fract_y
 _atom_site_fract_z
 _atom_site_occupancy
  Ce  Ce0  1  0.250000  0.581921  0.707521  1
  Ce  Ce1  1  0.250000  0.918079  0.207521  1
  Ce  Ce2  1  0.750000  0.418079  0.292479  1
  Ce  Ce3  1  0.750000  0.081921  0.792479  1
  Ti  Ti4  1  0.250000  0.696172  0.989314  1
  Ti  Ti5  1  0.250000  0.803828  0.489314  1
  Ti  Ti6  1  0.750000  0.303828  0.010686  1
  Ti  Ti7  1  0.750000  0.196172  0.510686  1
  Co  Co8  1  0.250000  0.886247  0.692454  1
  Co  Co9  1  0.250000  0.613753  0.192454  1
  Co  Co10  1  0.750000  0.113753  0.307546  1
  Co  Co11  1  0.750000  0.386247  0.807546  1
  Co  Co12  1  0.250000  0.464746  0.935593  1
  Co  Co13  1  0.250000  0.035254  0.435593  1
  Co  Co14  1  0.750000  0.535254  0.064407  1
  Co  Co15  1  0.750000  0.964746  0.564407  1
  P  P16  1  0.250000  0.426582  0.111880  1
  P  P17  1  0.250000  0.073418  0.611880  1
  P  P18  1  0.750000  0.573418  0.888120  1
  P  P19  1  0.750000  0.926582  0.388120  1
  P  P20  1  0.250000  0.275946  0.865651  1
  P  P21  1  0.250000  0.224054  0.365651  1
  P  P22  1  0.750000  0.724054  0.134349  1
  P  P23  1  0.750000  0.775946  0.634349  1
  P  P24  1  0.250000  0.601217  0.384768  1
  P  P25  1  0.250000  0.898783  0.884768  1
  P  P26  1  0.750000  0.398783  0.615232  1
  P  P27  1  0.750000  0.101217  0.115232  1
  Ru  Ru28  1  0.250000  0.404099  0.482336  1
  Ru  Ru29  1  0.250000  0.095901  0.982336  1
  Ru  Ru30  1  0.750000  0.595901  0.517664  1
  Ru  Ru31  1  0.750000  0.904099  0.017664  1
  Ru  Ru32  1  0.250000  0.221308  0.176588  1
  Ru  Ru33  1  0.250000  0.278692  0.676588  1
  Ru  Ru34  1  0.750000  0.778692  0.823412  1
  Ru  Ru35  1  0.750000  0.721308  0.323412  1
