# generated using pymatgen
data_CaAl10IrRu
_symmetry_space_group_name_H-M   'P 1'
_cell_length_a   6.88054698
_cell_length_b   6.88054651
_cell_length_c   9.17168514
_cell_angle_alpha   89.89078120
_cell_angle_beta   90.10922122
_cell_angle_gamma   96.67775740
_symmetry_Int_Tables_number   1
_chemical_formula_structural   CaAl10IrRu
_chemical_formula_sum   'Ca2 Al20 Ir2 Ru2'
_cell_volume   431.25810679
_cell_formula_units_Z   2
loop_
 _symmetry_equiv_pos_site_id
 _symmetry_equiv_pos_as_xyz
  1  'x, y, z'
loop_
 _atom_site_type_symbol
 _atom_site_label
 _atom_site_symmetry_multiplicity
 _atom_site_fract_x
 _atom_site_fract_y
 _atom_site_fract_z
 _atom_site_occupancy
  Ca  Ca0  1  0.874717  0.125283  0.749919  1
  Ca  Ca1  1  0.125283  0.874717  0.250081  1
  Al  Al2  1  0.587132  0.857730  0.252064  1
  Al  Al3  1  0.778327  0.520655  0.252175  1
  Al  Al4  1  0.159305  0.840695  0.897235  1
  Al  Al5  1  0.412868  0.142270  0.747936  1
  Al  Al6  1  0.620741  0.379259  0.948805  1
  Al  Al7  1  0.840364  0.159636  0.400618  1
  Al  Al8  1  0.777901  0.777901  0.000000  1
  Al  Al9  1  0.857730  0.587132  0.747936  1
  Al  Al10  1  0.840695  0.159305  0.102765  1
  Al  Al11  1  0.221673  0.479345  0.747825  1
  Al  Al12  1  0.159636  0.840364  0.599382  1
  Al  Al13  1  0.776979  0.776979  0.500000  1
  Al  Al14  1  0.479345  0.221673  0.252175  1
  Al  Al15  1  0.622904  0.377096  0.549367  1
  Al  Al16  1  0.223021  0.223021  0.500000  1
  Al  Al17  1  0.377096  0.622904  0.450633  1
  Al  Al18  1  0.142270  0.412868  0.252064  1
  Al  Al19  1  0.520655  0.778327  0.747825  1
  Al  Al20  1  0.379259  0.620741  0.051195  1
  Al  Al21  1  0.222099  0.222099  0.000000  1
  Ir  Ir22  1  0.500000  0.000000  0.000000  1
  Ir  Ir23  1  0.000000  0.500000  0.000000  1
  Ru  Ru24  1  0.500000  0.000000  0.500000  1
  Ru  Ru25  1  0.000000  0.500000  0.500000  1
