# generated using pymatgen
data_TbHo2Bi(AuO5)2
_symmetry_space_group_name_H-M   'P 1'
_cell_length_a   8.53296352
_cell_length_b   8.53296340
_cell_length_c   5.72092262
_cell_angle_alpha   88.85411462
_cell_angle_beta   91.14587932
_cell_angle_gamma   89.89180173
_symmetry_Int_Tables_number   1
_chemical_formula_structural   TbHo2Bi(AuO5)2
_chemical_formula_sum   'Tb2 Ho4 Bi2 Au4 O20'
_cell_volume   416.38108107
_cell_formula_units_Z   2
loop_
 _symmetry_equiv_pos_site_id
 _symmetry_equiv_pos_as_xyz
  1  'x, y, z'
loop_
 _atom_site_type_symbol
 _atom_site_label
 _atom_site_symmetry_multiplicity
 _atom_site_fract_x
 _atom_site_fract_y
 _atom_site_fract_z
 _atom_site_occupancy
  Tb  Tb0  1  0.651531  0.651531  0.750000  1
  Tb  Tb1  1  0.848469  0.848469  0.250000  1
  Ho  Ho2  1  0.354151  0.656126  0.247229  1
  Ho  Ho3  1  0.843874  0.145849  0.747229  1
  Ho  Ho4  1  0.656126  0.354151  0.252771  1
  Ho  Ho5  1  0.145849  0.843874  0.752771  1
  Bi  Bi6  1  0.358680  0.358680  0.750000  1
  Bi  Bi7  1  0.141320  0.141320  0.250000  1
  Au  Au8  1  0.496340  0.000168  0.408326  1
  Au  Au9  1  0.499832  0.003660  0.908326  1
  Au  Au10  1  0.000168  0.496340  0.091674  1
  Au  Au11  1  0.003660  0.499832  0.591674  1
  O  O12  1  0.106698  0.288873  0.599183  1
  O  O13  1  0.909836  0.279585  0.109389  1
  O  O14  1  0.909805  0.716864  0.611237  1
  O  O15  1  0.716864  0.909805  0.888763  1
  O  O16  1  0.220415  0.590164  0.609389  1
  O  O17  1  0.403829  0.788424  0.895123  1
  O  O18  1  0.393302  0.211127  0.400817  1
  O  O19  1  0.783136  0.590195  0.111237  1
  O  O20  1  0.279585  0.909836  0.390611  1
  O  O21  1  0.590164  0.220415  0.890611  1
  O  O22  1  0.493401  0.498888  0.000014  1
  O  O23  1  0.498888  0.493401  0.499986  1
  O  O24  1  0.788424  0.403829  0.604877  1
  O  O25  1  0.096171  0.711576  0.104877  1
  O  O26  1  0.288873  0.106698  0.900817  1
  O  O27  1  0.590195  0.783136  0.388763  1
  O  O28  1  0.211127  0.393302  0.099183  1
  O  O29  1  0.006599  0.001112  0.999986  1
  O  O30  1  0.001112  0.006599  0.500014  1
  O  O31  1  0.711576  0.096171  0.395123  1
