# generated using pymatgen
data_Dy7Ho13Sn16
_symmetry_space_group_name_H-M   'P 1'
_cell_length_a   8.02043363
_cell_length_b   8.15376270
_cell_length_c   15.41461022
_cell_angle_alpha   90.00614407
_cell_angle_beta   90.08277039
_cell_angle_gamma   89.95895739
_symmetry_Int_Tables_number   1
_chemical_formula_structural   Dy7Ho13Sn16
_chemical_formula_sum   'Dy7 Ho13 Sn16'
_cell_volume   1008.06351773
_cell_formula_units_Z   1
loop_
 _symmetry_equiv_pos_site_id
 _symmetry_equiv_pos_as_xyz
  1  'x, y, z'
loop_
 _atom_site_type_symbol
 _atom_site_label
 _atom_site_symmetry_multiplicity
 _atom_site_fract_x
 _atom_site_fract_y
 _atom_site_fract_z
 _atom_site_occupancy
  Dy  Dy0  1  0.020347  0.179233  0.597244  1
  Dy  Dy1  1  0.479801  0.679023  0.403276  1
  Dy  Dy2  1  0.979397  0.820801  0.096894  1
  Dy  Dy3  1  0.479421  0.678841  0.096852  1
  Dy  Dy4  1  0.979815  0.820853  0.403343  1
  Dy  Dy5  1  0.519970  0.321170  0.596897  1
  Dy  Dy6  1  0.020563  0.179290  0.902905  1
  Ho  Ho7  1  0.367079  0.837441  0.877260  1
  Ho  Ho8  1  0.866372  0.662686  0.622823  1
  Ho  Ho9  1  0.633161  0.162618  0.377349  1
  Ho  Ho10  1  0.132728  0.337597  0.122354  1
  Ho  Ho11  1  0.632647  0.162457  0.122459  1
  Ho  Ho12  1  0.133309  0.337329  0.377401  1
  Ho  Ho13  1  0.366773  0.837579  0.622967  1
  Ho  Ho14  1  0.867332  0.662586  0.877343  1
  Ho  Ho15  1  0.521534  0.321307  0.902608  1
  Ho  Ho16  1  0.198349  0.503410  0.750144  1
  Ho  Ho17  1  0.698263  0.996596  0.750150  1
  Ho  Ho18  1  0.801679  0.496155  0.249880  1
  Ho  Ho19  1  0.301788  0.003541  0.250047  1
  Sn  Sn20  1  0.293722  0.037621  0.041447  1
  Sn  Sn21  1  0.794333  0.461978  0.458588  1
  Sn  Sn22  1  0.705621  0.962218  0.541555  1
  Sn  Sn23  1  0.207218  0.536898  0.958120  1
  Sn  Sn24  1  0.705848  0.962614  0.958354  1
  Sn  Sn25  1  0.205199  0.538426  0.541532  1
  Sn  Sn26  1  0.294275  0.037935  0.458683  1
  Sn  Sn27  1  0.793224  0.461777  0.041066  1
  Sn  Sn28  1  0.564350  0.618961  0.750138  1
  Sn  Sn29  1  0.064331  0.880725  0.749969  1
  Sn  Sn30  1  0.435447  0.380729  0.249798  1
  Sn  Sn31  1  0.935588  0.119313  0.249813  1
  Sn  Sn32  1  0.330787  0.148842  0.750406  1
  Sn  Sn33  1  0.829840  0.351688  0.750088  1
  Sn  Sn34  1  0.670007  0.851297  0.250095  1
  Sn  Sn35  1  0.169879  0.648462  0.250153  1
