# generated using pymatgen
data_CaEuZr2(NiAs2)2
_symmetry_space_group_name_H-M   'P 1'
_cell_length_a   4.11227600
_cell_length_b   4.11227545
_cell_length_c   13.80483600
_cell_angle_alpha   90.00000000
_cell_angle_beta   90.00000000
_cell_angle_gamma   119.99997227
_symmetry_Int_Tables_number   1
_chemical_formula_structural   CaEuZr2(NiAs2)2
_chemical_formula_sum   'Ca1 Eu1 Zr2 Ni2 As4'
_cell_volume   202.17453671
_cell_formula_units_Z   1
loop_
 _symmetry_equiv_pos_site_id
 _symmetry_equiv_pos_as_xyz
  1  'x, y, z'
loop_
 _atom_site_type_symbol
 _atom_site_label
 _atom_site_symmetry_multiplicity
 _atom_site_fract_x
 _atom_site_fract_y
 _atom_site_fract_z
 _atom_site_occupancy
  Ca  Ca0  1  0.666667  0.333333  0.389816  1
  Eu  Eu1  1  0.333333  0.666667  0.890231  1
  Zr  Zr2  1  0.333333  0.666667  0.620743  1
  Zr  Zr3  1  0.666667  0.333333  0.125270  1
  Ni  Ni4  1  0.000000  0.000000  0.705592  1
  Ni  Ni5  1  0.000000  0.000000  0.211369  1
  As  As6  1  0.333333  0.666667  0.255901  1
  As  As7  1  0.000000  0.000000  0.025618  1
  As  As8  1  0.000000  0.000000  0.522933  1
  As  As9  1  0.666667  0.333333  0.752529  1
