# generated using pymatgen
data_K5(TiSe3)2
_symmetry_space_group_name_H-M   'P 1'
_cell_length_a   7.79331051
_cell_length_b   8.28667750
_cell_length_c   17.29169951
_cell_angle_alpha   89.97782879
_cell_angle_beta   100.04080019
_cell_angle_gamma   122.03618256
_symmetry_Int_Tables_number   1
_chemical_formula_structural   K5(TiSe3)2
_chemical_formula_sum   'K10 Ti4 Se12'
_cell_volume   926.45921433
_cell_formula_units_Z   2
loop_
 _symmetry_equiv_pos_site_id
 _symmetry_equiv_pos_as_xyz
  1  'x, y, z'
loop_
 _atom_site_type_symbol
 _atom_site_label
 _atom_site_symmetry_multiplicity
 _atom_site_fract_x
 _atom_site_fract_y
 _atom_site_fract_z
 _atom_site_occupancy
  K  K0  1  0.101805  0.788260  0.998397  1
  K  K1  1  0.890090  0.683405  0.501121  1
  K  K2  1  0.898195  0.211740  0.001603  1
  K  K3  1  0.109910  0.316595  0.498879  1
  K  K4  1  0.317085  0.061005  0.724555  1
  K  K5  1  0.680808  0.742951  0.775003  1
  K  K6  1  0.682915  0.938995  0.275445  1
  K  K7  1  0.319192  0.257049  0.224997  1
  K  K8  1  0.999392  0.361350  0.748722  1
  K  K9  1  0.000608  0.638650  0.251278  1
  Ti  Ti10  1  0.543825  0.908311  0.571390  1
  Ti  Ti11  1  0.455637  0.363518  0.928013  1
  Ti  Ti12  1  0.456175  0.091689  0.428610  1
  Ti  Ti13  1  0.544363  0.636482  0.071987  1
  Se  Se14  1  0.882770  0.982473  0.626738  1
  Se  Se15  1  0.116710  0.098994  0.872575  1
  Se  Se16  1  0.117230  0.017527  0.373262  1
  Se  Se17  1  0.883290  0.901006  0.127425  1
  Se  Se18  1  0.285786  0.686205  0.640879  1
  Se  Se19  1  0.713346  0.399224  0.857971  1
  Se  Se20  1  0.714214  0.313795  0.359121  1
  Se  Se21  1  0.286654  0.600776  0.142029  1
  Se  Se22  1  0.557664  0.216409  0.570412  1
  Se  Se23  1  0.441295  0.657145  0.930095  1
  Se  Se24  1  0.442336  0.783591  0.429588  1
  Se  Se25  1  0.558705  0.342855  0.069905  1
