# generated using pymatgen
data_Na14Zn2O9
_symmetry_space_group_name_H-M   'P 1'
_cell_length_a   6.66820428
_cell_length_b   6.66698931
_cell_length_c   9.38117166
_cell_angle_alpha   89.94568832
_cell_angle_beta   89.90410973
_cell_angle_gamma   60.04527974
_symmetry_Int_Tables_number   1
_chemical_formula_structural   Na14Zn2O9
_chemical_formula_sum   'Na14 Zn2 O9'
_cell_volume   361.34639927
_cell_formula_units_Z   1
loop_
 _symmetry_equiv_pos_site_id
 _symmetry_equiv_pos_as_xyz
  1  'x, y, z'
loop_
 _atom_site_type_symbol
 _atom_site_label
 _atom_site_symmetry_multiplicity
 _atom_site_fract_x
 _atom_site_fract_y
 _atom_site_fract_z
 _atom_site_occupancy
  Na  Na0  1  0.000406  0.999519  0.251234  1
  Na  Na1  1  0.999828  0.999782  0.748658  1
  Na  Na2  1  0.360481  0.677865  0.907557  1
  Na  Na3  1  0.961588  0.361496  0.907708  1
  Na  Na4  1  0.676021  0.963814  0.908239  1
  Na  Na5  1  0.322268  0.039028  0.091709  1
  Na  Na6  1  0.036694  0.640520  0.091795  1
  Na  Na7  1  0.638806  0.324097  0.092849  1
  Na  Na8  1  0.377866  0.933345  0.591785  1
  Na  Na9  1  0.687217  0.375544  0.593279  1
  Na  Na10  1  0.066036  0.311281  0.407353  1
  Na  Na11  1  0.935178  0.686989  0.593016  1
  Na  Na12  1  0.313563  0.622793  0.406821  1
  Na  Na13  1  0.623312  0.064579  0.407880  1
  Zn  Zn14  1  0.332425  0.332798  0.738709  1
  Zn  Zn15  1  0.667841  0.666755  0.261352  1
  O  O16  1  0.999119  0.001250  0.999928  1
  O  O17  1  0.665957  0.667490  0.042332  1
  O  O18  1  0.332991  0.334944  0.957702  1
  O  O19  1  0.362352  0.943370  0.335624  1
  O  O20  1  0.696804  0.360975  0.336957  1
  O  O21  1  0.057138  0.303359  0.662991  1
  O  O22  1  0.944027  0.694814  0.337094  1
  O  O23  1  0.304140  0.638141  0.663438  1
  O  O24  1  0.637739  0.055451  0.663991  1
