# generated using pymatgen
data_K4CrMo3N8
_symmetry_space_group_name_H-M   'P 1'
_cell_length_a   6.00237600
_cell_length_b   7.98358900
_cell_length_c   12.04748100
_cell_angle_alpha   90.00000000
_cell_angle_beta   90.00000000
_cell_angle_gamma   90.00000000
_symmetry_Int_Tables_number   1
_chemical_formula_structural   K4CrMo3N8
_chemical_formula_sum   'K8 Cr2 Mo6 N16'
_cell_volume   577.32134949
_cell_formula_units_Z   2
loop_
 _symmetry_equiv_pos_site_id
 _symmetry_equiv_pos_as_xyz
  1  'x, y, z'
loop_
 _atom_site_type_symbol
 _atom_site_label
 _atom_site_symmetry_multiplicity
 _atom_site_fract_x
 _atom_site_fract_y
 _atom_site_fract_z
 _atom_site_occupancy
  K  K0  1  0.250000  0.153543  0.000000  1
  K  K1  1  0.750000  0.846457  0.500000  1
  K  K2  1  0.750000  0.857027  0.000000  1
  K  K3  1  0.250000  0.142973  0.500000  1
  K  K4  1  0.414068  0.396089  0.751157  1
  K  K5  1  0.914068  0.603911  0.748843  1
  K  K6  1  0.585932  0.603911  0.251157  1
  K  K7  1  0.085932  0.396089  0.248843  1
  Cr  Cr8  1  0.750000  0.359880  0.000000  1
  Cr  Cr9  1  0.250000  0.640120  0.500000  1
  Mo  Mo10  1  0.250000  0.621335  0.000000  1
  Mo  Mo11  1  0.750000  0.378665  0.500000  1
  Mo  Mo12  1  0.851647  0.111656  0.752493  1
  Mo  Mo13  1  0.351647  0.888344  0.747507  1
  Mo  Mo14  1  0.148353  0.888344  0.252493  1
  Mo  Mo15  1  0.648353  0.111656  0.247507  1
  N  N16  1  0.172539  0.087081  0.750311  1
  N  N17  1  0.672539  0.912919  0.749689  1
  N  N18  1  0.827461  0.912919  0.250311  1
  N  N19  1  0.327461  0.087081  0.249689  1
  N  N20  1  0.765671  0.242131  0.629315  1
  N  N21  1  0.265671  0.757869  0.870685  1
  N  N22  1  0.234329  0.757869  0.129315  1
  N  N23  1  0.734329  0.242131  0.370685  1
  N  N24  1  0.227758  0.770499  0.380106  1
  N  N25  1  0.727758  0.229501  0.119894  1
  N  N26  1  0.772242  0.229501  0.880106  1
  N  N27  1  0.272242  0.770499  0.619894  1
  N  N28  1  0.494223  0.513012  0.498345  1
  N  N29  1  0.994223  0.486988  0.001655  1
  N  N30  1  0.505777  0.486988  0.998345  1
  N  N31  1  0.005777  0.513012  0.501655  1
