# generated using pymatgen
data_La10Bi6AsAu
_symmetry_space_group_name_H-M   'P 1'
_cell_length_a   9.87602200
_cell_length_b   9.87602342
_cell_length_c   6.78965900
_cell_angle_alpha   90.00000000
_cell_angle_beta   90.00000000
_cell_angle_gamma   120.00000195
_symmetry_Int_Tables_number   1
_chemical_formula_structural   La10Bi6AsAu
_chemical_formula_sum   'La10 Bi6 As1 Au1'
_cell_volume   573.51231243
_cell_formula_units_Z   1
loop_
 _symmetry_equiv_pos_site_id
 _symmetry_equiv_pos_as_xyz
  1  'x, y, z'
loop_
 _atom_site_type_symbol
 _atom_site_label
 _atom_site_symmetry_multiplicity
 _atom_site_fract_x
 _atom_site_fract_y
 _atom_site_fract_z
 _atom_site_occupancy
  La  La0  1  0.743175  0.000000  0.742012  1
  La  La1  1  0.000000  0.256825  0.257988  1
  La  La2  1  0.743175  0.743175  0.257988  1
  La  La3  1  0.333333  0.666667  0.500000  1
  La  La4  1  0.333333  0.666667  0.000000  1
  La  La5  1  0.666667  0.333333  0.500000  1
  La  La6  1  0.666667  0.333333  0.000000  1
  La  La7  1  0.256825  0.000000  0.257988  1
  La  La8  1  0.256825  0.256825  0.742012  1
  La  La9  1  0.000000  0.743175  0.742012  1
  Bi  Bi10  1  0.387228  0.000000  0.752224  1
  Bi  Bi11  1  0.612772  0.000000  0.247776  1
  Bi  Bi12  1  0.000000  0.612772  0.247776  1
  Bi  Bi13  1  0.612772  0.612772  0.752224  1
  Bi  Bi14  1  0.000000  0.387228  0.752224  1
  Bi  Bi15  1  0.387228  0.387228  0.247776  1
  As  As16  1  0.000000  0.000000  0.500000  1
  Au  Au17  1  0.000000  0.000000  0.000000  1
