# generated using pymatgen
data_Tb3Ho13(In3Ir)2
_symmetry_space_group_name_H-M   'P 1'
_cell_length_a   10.39987700
_cell_length_b   10.39987753
_cell_length_c   7.04466800
_cell_angle_alpha   90.00000000
_cell_angle_beta   90.00000000
_cell_angle_gamma   120.00000150
_symmetry_Int_Tables_number   1
_chemical_formula_structural   Tb3Ho13(In3Ir)2
_chemical_formula_sum   'Tb3 Ho13 In6 Ir2'
_cell_volume   659.85358957
_cell_formula_units_Z   1
loop_
 _symmetry_equiv_pos_site_id
 _symmetry_equiv_pos_as_xyz
  1  'x, y, z'
loop_
 _atom_site_type_symbol
 _atom_site_label
 _atom_site_symmetry_multiplicity
 _atom_site_fract_x
 _atom_site_fract_y
 _atom_site_fract_z
 _atom_site_occupancy
  Tb  Tb0  1  0.532966  0.065932  0.506590  1
  Tb  Tb1  1  0.934068  0.467034  0.506590  1
  Tb  Tb2  1  0.532966  0.467034  0.506590  1
  Ho  Ho3  1  0.466572  0.933144  0.006581  1
  Ho  Ho4  1  0.066856  0.533428  0.006581  1
  Ho  Ho5  1  0.466572  0.533428  0.006581  1
  Ho  Ho6  1  0.176560  0.353117  0.713578  1
  Ho  Ho7  1  0.646883  0.823440  0.713578  1
  Ho  Ho8  1  0.176560  0.823440  0.713578  1
  Ho  Ho9  1  0.823458  0.646917  0.213016  1
  Ho  Ho10  1  0.353083  0.176542  0.213016  1
  Ho  Ho11  1  0.823458  0.176542  0.213016  1
  Ho  Ho12  1  0.666667  0.333333  0.887949  1
  Ho  Ho13  1  0.333333  0.666667  0.387640  1
  Ho  Ho14  1  0.000000  0.000000  0.493393  1
  Ho  Ho15  1  0.000000  0.000000  0.993562  1
  In  In16  1  0.837401  0.674802  0.752095  1
  In  In17  1  0.325198  0.162599  0.752095  1
  In  In18  1  0.837401  0.162599  0.752095  1
  In  In19  1  0.162685  0.325369  0.251688  1
  In  In20  1  0.674631  0.837315  0.251688  1
  In  In21  1  0.162685  0.837315  0.251688  1
  Ir  Ir22  1  0.666667  0.333333  0.281757  1
  Ir  Ir23  1  0.333333  0.666667  0.783098  1
