# generated using pymatgen
data_CaCd2Cu(Ni3B)2
_symmetry_space_group_name_H-M   'P 1'
_cell_length_a   7.46685111
_cell_length_b   7.46685059
_cell_length_c   7.46685051
_cell_angle_alpha   39.62688502
_cell_angle_beta   39.62688619
_cell_angle_gamma   39.62688553
_symmetry_Int_Tables_number   1
_chemical_formula_structural   CaCd2Cu(Ni3B)2
_chemical_formula_sum   'Ca1 Cd2 Cu1 Ni6 B2'
_cell_volume   152.47173086
_cell_formula_units_Z   1
loop_
 _symmetry_equiv_pos_site_id
 _symmetry_equiv_pos_as_xyz
  1  'x, y, z'
loop_
 _atom_site_type_symbol
 _atom_site_label
 _atom_site_symmetry_multiplicity
 _atom_site_fract_x
 _atom_site_fract_y
 _atom_site_fract_z
 _atom_site_occupancy
  Ca  Ca0  1  0.500000  0.500000  0.500000  1
  Cd  Cd1  1  0.647199  0.647199  0.647199  1
  Cd  Cd2  1  0.352801  0.352801  0.352801  1
  Cu  Cu3  1  0.000000  0.000000  0.000000  1
  Ni  Ni4  1  0.567873  0.067094  0.067094  1
  Ni  Ni5  1  0.067094  0.067094  0.567873  1
  Ni  Ni6  1  0.067094  0.567873  0.067094  1
  Ni  Ni7  1  0.932906  0.432127  0.932906  1
  Ni  Ni8  1  0.932906  0.932906  0.432127  1
  Ni  Ni9  1  0.432127  0.932906  0.932906  1
  B  B10  1  0.833525  0.833525  0.833525  1
  B  B11  1  0.166475  0.166475  0.166475  1
