# generated using pymatgen
data_Dy4Al13Pt9
_symmetry_space_group_name_H-M   'P 1'
_cell_length_a   11.42268900
_cell_length_b   11.42268731
_cell_length_c   4.06369100
_cell_angle_alpha   90.00000000
_cell_angle_beta   90.00000000
_cell_angle_gamma   119.99990355
_symmetry_Int_Tables_number   1
_chemical_formula_structural   Dy4Al13Pt9
_chemical_formula_sum   'Dy4 Al13 Pt9'
_cell_volume   459.18571792
_cell_formula_units_Z   1
loop_
 _symmetry_equiv_pos_site_id
 _symmetry_equiv_pos_as_xyz
  1  'x, y, z'
loop_
 _atom_site_type_symbol
 _atom_site_label
 _atom_site_symmetry_multiplicity
 _atom_site_fract_x
 _atom_site_fract_y
 _atom_site_fract_z
 _atom_site_occupancy
  Dy  Dy0  1  0.204079  0.795921  0.500000  1
  Dy  Dy1  1  0.591842  0.795921  0.500000  1
  Dy  Dy2  1  0.204079  0.408158  0.500000  1
  Dy  Dy3  1  0.666667  0.333333  0.000000  1
  Al  Al4  1  0.950456  0.292420  0.000000  1
  Al  Al5  1  0.707580  0.658038  0.000000  1
  Al  Al6  1  0.950456  0.658037  0.000000  1
  Al  Al7  1  0.341963  0.049544  0.000000  1
  Al  Al8  1  0.167916  0.083958  0.500000  1
  Al  Al9  1  0.916042  0.832084  0.500000  1
  Al  Al10  1  0.707580  0.049544  0.000000  1
  Al  Al11  1  0.530599  0.061197  0.500000  1
  Al  Al12  1  0.916042  0.083958  0.500000  1
  Al  Al13  1  0.341962  0.292420  0.000000  1
  Al  Al14  1  0.530599  0.469401  0.500000  1
  Al  Al15  1  0.938803  0.469401  0.500000  1
  Al  Al16  1  0.333334  0.666667  0.000000  1
  Pt  Pt17  1  0.455809  0.544191  0.000000  1
  Pt  Pt18  1  0.831788  0.915894  0.000000  1
  Pt  Pt19  1  0.455809  0.911617  0.000000  1
  Pt  Pt20  1  0.084106  0.168212  0.000000  1
  Pt  Pt21  1  0.084106  0.915894  0.000000  1
  Pt  Pt22  1  0.788119  0.576237  0.500000  1
  Pt  Pt23  1  0.088383  0.544191  0.000000  1
  Pt  Pt24  1  0.788118  0.211881  0.500000  1
  Pt  Pt25  1  0.423763  0.211882  0.500000  1
