# generated using pymatgen
data_Dy7Lu3(Sn3Cl)2
_symmetry_space_group_name_H-M   'P 1'
_cell_length_a   9.06044100
_cell_length_b   9.06044032
_cell_length_c   6.48622300
_cell_angle_alpha   90.00000000
_cell_angle_beta   90.00000000
_cell_angle_gamma   120.00000614
_symmetry_Int_Tables_number   1
_chemical_formula_structural   Dy7Lu3(Sn3Cl)2
_chemical_formula_sum   'Dy7 Lu3 Sn6 Cl2'
_cell_volume   461.12760470
_cell_formula_units_Z   1
loop_
 _symmetry_equiv_pos_site_id
 _symmetry_equiv_pos_as_xyz
  1  'x, y, z'
loop_
 _atom_site_type_symbol
 _atom_site_label
 _atom_site_symmetry_multiplicity
 _atom_site_fract_x
 _atom_site_fract_y
 _atom_site_fract_z
 _atom_site_occupancy
  Dy  Dy0  1  0.262339  0.262452  0.749800  1
  Dy  Dy1  1  0.000113  0.737661  0.749800  1
  Dy  Dy2  1  0.737548  0.999887  0.749800  1
  Dy  Dy3  1  0.000113  0.262452  0.250200  1
  Dy  Dy4  1  0.737548  0.737661  0.250200  1
  Dy  Dy5  1  0.262339  0.999887  0.250200  1
  Dy  Dy6  1  0.666667  0.333333  0.000000  1
  Lu  Lu7  1  0.333333  0.666667  0.500000  1
  Lu  Lu8  1  0.666667  0.333333  0.500000  1
  Lu  Lu9  1  0.333333  0.666667  0.000000  1
  Sn  Sn10  1  0.609006  0.998859  0.250789  1
  Sn  Sn11  1  0.001141  0.390994  0.749211  1
  Sn  Sn12  1  0.389853  0.998859  0.749211  1
  Sn  Sn13  1  0.609006  0.610147  0.749211  1
  Sn  Sn14  1  0.001141  0.610147  0.250789  1
  Sn  Sn15  1  0.389853  0.390994  0.250789  1
  Cl  Cl16  1  0.000000  0.000000  0.000000  1
  Cl  Cl17  1  0.000000  0.000000  0.500000  1
