# generated using pymatgen
data_Th10BiP2Pb5
_symmetry_space_group_name_H-M   'P 1'
_cell_length_a   9.57683362
_cell_length_b   9.57683274
_cell_length_c   6.71314200
_cell_angle_alpha   90.00000000
_cell_angle_beta   90.00000000
_cell_angle_gamma   120.17063691
_symmetry_Int_Tables_number   1
_chemical_formula_structural   Th10BiP2Pb5
_chemical_formula_sum   'Th10 Bi1 P2 Pb5'
_cell_volume   532.29328949
_cell_formula_units_Z   1
loop_
 _symmetry_equiv_pos_site_id
 _symmetry_equiv_pos_as_xyz
  1  'x, y, z'
loop_
 _atom_site_type_symbol
 _atom_site_label
 _atom_site_symmetry_multiplicity
 _atom_site_fract_x
 _atom_site_fract_y
 _atom_site_fract_z
 _atom_site_occupancy
  Th  Th0  1  0.752749  0.752749  0.250000  1
  Th  Th1  1  0.247133  0.998937  0.250000  1
  Th  Th2  1  0.998937  0.247133  0.250000  1
  Th  Th3  1  0.246705  0.246705  0.750000  1
  Th  Th4  1  0.752501  0.000039  0.750000  1
  Th  Th5  1  0.000039  0.752501  0.750000  1
  Th  Th6  1  0.667206  0.333484  0.500441  1
  Th  Th7  1  0.333484  0.667206  0.500441  1
  Th  Th8  1  0.333484  0.667206  0.999559  1
  Th  Th9  1  0.667206  0.333484  0.999559  1
  Bi  Bi10  1  0.394781  0.394781  0.250000  1
  P  P11  1  0.000257  0.000257  0.499983  1
  P  P12  1  0.000257  0.000257  0.000017  1
  Pb  Pb13  1  0.605592  0.999896  0.250000  1
  Pb  Pb14  1  0.999896  0.605592  0.250000  1
  Pb  Pb15  1  0.606010  0.606010  0.750000  1
  Pb  Pb16  1  0.394183  0.999581  0.750000  1
  Pb  Pb17  1  0.999581  0.394183  0.750000  1
