# generated using pymatgen
data_Y2HfBe2Ir5
_symmetry_space_group_name_H-M   'P 1'
_cell_length_a   9.82204000
_cell_length_b   9.82204000
_cell_length_c   3.28127200
_cell_angle_alpha   90.00000000
_cell_angle_beta   90.00000000
_cell_angle_gamma   90.00000000
_symmetry_Int_Tables_number   1
_chemical_formula_structural   Y2HfBe2Ir5
_chemical_formula_sum   'Y4 Hf2 Be4 Ir10'
_cell_volume   316.55241380
_cell_formula_units_Z   2
loop_
 _symmetry_equiv_pos_site_id
 _symmetry_equiv_pos_as_xyz
  1  'x, y, z'
loop_
 _atom_site_type_symbol
 _atom_site_label
 _atom_site_symmetry_multiplicity
 _atom_site_fract_x
 _atom_site_fract_y
 _atom_site_fract_z
 _atom_site_occupancy
  Y  Y0  1  0.175977  0.675977  0.000000  1
  Y  Y1  1  0.324023  0.175977  0.000000  1
  Y  Y2  1  0.824023  0.324023  0.000000  1
  Y  Y3  1  0.675977  0.824023  0.000000  1
  Hf  Hf4  1  0.500000  0.500000  0.000000  1
  Hf  Hf5  1  0.000000  0.000000  0.000000  1
  Be  Be6  1  0.379936  0.879936  0.000000  1
  Be  Be7  1  0.120064  0.379936  0.000000  1
  Be  Be8  1  0.879936  0.620064  0.000000  1
  Be  Be9  1  0.620064  0.120064  0.000000  1
  Ir  Ir10  1  0.217358  0.931203  0.500000  1
  Ir  Ir11  1  0.931203  0.782642  0.500000  1
  Ir  Ir12  1  0.431203  0.717358  0.500000  1
  Ir  Ir13  1  0.568797  0.282642  0.500000  1
  Ir  Ir14  1  0.717358  0.568797  0.500000  1
  Ir  Ir15  1  0.282642  0.431203  0.500000  1
  Ir  Ir16  1  0.068797  0.217358  0.500000  1
  Ir  Ir17  1  0.000000  0.500000  0.500000  1
  Ir  Ir18  1  0.500000  0.000000  0.500000  1
  Ir  Ir19  1  0.782642  0.068797  0.500000  1
