# generated using pymatgen
data_Na2Th3(In2Br9)2
_symmetry_space_group_name_H-M   'P 1'
_cell_length_a   13.52095900
_cell_length_b   13.58663003
_cell_length_c   6.85518844
_cell_angle_alpha   90.77128994
_cell_angle_beta   90.00000000
_cell_angle_gamma   119.84023008
_symmetry_Int_Tables_number   1
_chemical_formula_structural   Na2Th3(In2Br9)2
_chemical_formula_sum   'Na2 Th3 In4 Br18'
_cell_volume   1092.22953253
_cell_formula_units_Z   1
loop_
 _symmetry_equiv_pos_site_id
 _symmetry_equiv_pos_as_xyz
  1  'x, y, z'
loop_
 _atom_site_type_symbol
 _atom_site_label
 _atom_site_symmetry_multiplicity
 _atom_site_fract_x
 _atom_site_fract_y
 _atom_site_fract_z
 _atom_site_occupancy
  Na  Na0  1  0.336317  0.339207  0.997110  1
  Na  Na1  1  0.002890  0.339207  0.997110  1
  Th  Th2  1  0.666794  0.333586  0.498411  1
  Th  Th3  1  0.323563  0.647127  0.499777  1
  Th  Th4  1  0.009054  0.018108  0.001804  1
  In  In5  1  0.661016  0.001942  0.003300  1
  In  In6  1  0.340926  0.001942  0.003300  1
  In  In7  1  0.000460  0.661162  0.000625  1
  In  In8  1  0.660702  0.661162  0.000625  1
  Br  Br9  1  0.562446  0.124894  0.701895  1
  Br  Br10  1  0.775179  0.244074  0.251764  1
  Br  Br11  1  0.809646  0.914674  0.237264  1
  Br  Br12  1  0.421790  0.542980  0.261523  1
  Br  Br13  1  0.771441  0.542882  0.295870  1
  Br  Br14  1  0.112459  0.224918  0.225735  1
  Br  Br15  1  0.224843  0.754697  0.723429  1
  Br  Br16  1  0.556710  0.421417  0.746988  1
  Br  Br17  1  0.227058  0.454117  0.749338  1
  Br  Br18  1  0.121191  0.542980  0.261523  1
  Br  Br19  1  0.213917  0.116476  0.775058  1
  Br  Br20  1  0.105028  0.914674  0.237264  1
  Br  Br21  1  0.529855  0.754697  0.723429  1
  Br  Br22  1  0.422232  0.844463  0.266431  1
  Br  Br23  1  0.902559  0.116476  0.775058  1
  Br  Br24  1  0.864706  0.421417  0.746988  1
  Br  Br25  1  0.468895  0.244074  0.251764  1
  Br  Br26  1  0.908325  0.816649  0.766615  1
