# generated using pymatgen
data_Y9Ho(Pb3Cl)2
_symmetry_space_group_name_H-M   'P 1'
_cell_length_a   9.22190300
_cell_length_b   9.22190252
_cell_length_c   6.64190100
_cell_angle_alpha   90.00000000
_cell_angle_beta   90.00000000
_cell_angle_gamma   119.99999815
_symmetry_Int_Tables_number   1
_chemical_formula_structural   Y9Ho(Pb3Cl)2
_chemical_formula_sum   'Y9 Ho1 Pb6 Cl2'
_cell_volume   489.17484341
_cell_formula_units_Z   1
loop_
 _symmetry_equiv_pos_site_id
 _symmetry_equiv_pos_as_xyz
  1  'x, y, z'
loop_
 _atom_site_type_symbol
 _atom_site_label
 _atom_site_symmetry_multiplicity
 _atom_site_fract_x
 _atom_site_fract_y
 _atom_site_fract_z
 _atom_site_occupancy
  Y  Y0  1  0.260360  0.999933  0.750075  1
  Y  Y1  1  0.739573  0.999933  0.249925  1
  Y  Y2  1  0.000067  0.260427  0.750075  1
  Y  Y3  1  0.000067  0.739640  0.249925  1
  Y  Y4  1  0.739573  0.739640  0.750075  1
  Y  Y5  1  0.260360  0.260427  0.249925  1
  Y  Y6  1  0.333333  0.666667  0.500000  1
  Y  Y7  1  0.666667  0.333333  0.500000  1
  Y  Y8  1  0.666667  0.333333  0.000000  1
  Ho  Ho9  1  0.333333  0.666667  0.000000  1
  Pb  Pb10  1  0.609771  0.999723  0.750273  1
  Pb  Pb11  1  0.389952  0.999723  0.249727  1
  Pb  Pb12  1  0.000277  0.610048  0.750273  1
  Pb  Pb13  1  0.000277  0.390229  0.249727  1
  Pb  Pb14  1  0.389952  0.390229  0.750273  1
  Pb  Pb15  1  0.609771  0.610048  0.249727  1
  Cl  Cl16  1  0.000000  0.000000  0.500000  1
  Cl  Cl17  1  0.000000  0.000000  0.000000  1
