# generated using pymatgen
data_Tb5Ho7Tc3Pt
_symmetry_space_group_name_H-M   'P 1'
_cell_length_a   6.30018413
_cell_length_b   7.39818025
_cell_length_c   9.16363798
_cell_angle_alpha   89.96778340
_cell_angle_beta   90.06816683
_cell_angle_gamma   90.00338833
_symmetry_Int_Tables_number   1
_chemical_formula_structural   Tb5Ho7Tc3Pt
_chemical_formula_sum   'Tb5 Ho7 Tc3 Pt1'
_cell_volume   427.11585974
_cell_formula_units_Z   1
loop_
 _symmetry_equiv_pos_site_id
 _symmetry_equiv_pos_as_xyz
  1  'x, y, z'
loop_
 _atom_site_type_symbol
 _atom_site_label
 _atom_site_symmetry_multiplicity
 _atom_site_fract_x
 _atom_site_fract_y
 _atom_site_fract_z
 _atom_site_occupancy
  Tb  Tb0  1  0.329523  0.676135  0.066922  1
  Tb  Tb1  1  0.873185  0.542695  0.250317  1
  Tb  Tb2  1  0.622922  0.038763  0.250200  1
  Tb  Tb3  1  0.127680  0.455348  0.749676  1
  Tb  Tb4  1  0.371348  0.965281  0.749840  1
  Ho  Ho5  1  0.164334  0.177767  0.435944  1
  Ho  Ho6  1  0.667451  0.318538  0.559177  1
  Ho  Ho7  1  0.837565  0.827385  0.939366  1
  Ho  Ho8  1  0.667825  0.318269  0.940590  1
  Ho  Ho9  1  0.837602  0.827196  0.560396  1
  Ho  Ho10  1  0.329401  0.676137  0.433401  1
  Ho  Ho11  1  0.164215  0.177693  0.064123  1
  Tc  Tc12  1  0.038338  0.885884  0.250263  1
  Tc  Tc13  1  0.463838  0.386600  0.250227  1
  Tc  Tc14  1  0.956786  0.113806  0.750022  1
  Pt  Pt15  1  0.547986  0.612502  0.749537  1
