# generated using pymatgen
data_Y7Er3(In2Sb)2
_symmetry_space_group_name_H-M   'P 1'
_cell_length_a   8.98303657
_cell_length_b   8.94319098
_cell_length_c   6.59607303
_cell_angle_alpha   89.98957255
_cell_angle_beta   90.00519244
_cell_angle_gamma   119.85337296
_symmetry_Int_Tables_number   1
_chemical_formula_structural   Y7Er3(In2Sb)2
_chemical_formula_sum   'Y7 Er3 In4 Sb2'
_cell_volume   459.59101884
_cell_formula_units_Z   1
loop_
 _symmetry_equiv_pos_site_id
 _symmetry_equiv_pos_as_xyz
  1  'x, y, z'
loop_
 _atom_site_type_symbol
 _atom_site_label
 _atom_site_symmetry_multiplicity
 _atom_site_fract_x
 _atom_site_fract_y
 _atom_site_fract_z
 _atom_site_occupancy
  Y  Y0  1  0.003113  0.765592  0.750234  1
  Y  Y1  1  0.003113  0.237520  0.249766  1
  Y  Y2  1  0.764340  0.759648  0.249861  1
  Y  Y3  1  0.764340  0.004692  0.750139  1
  Y  Y4  1  0.235270  0.237093  0.750184  1
  Y  Y5  1  0.235270  0.998177  0.249816  1
  Y  Y6  1  0.330166  0.665083  0.500000  1
  Er  Er7  1  0.665098  0.332549  0.000000  1
  Er  Er8  1  0.665316  0.332658  0.500000  1
  Er  Er9  1  0.329622  0.664812  0.000000  1
  In  In10  1  0.399675  0.001910  0.750863  1
  In  In11  1  0.399675  0.397766  0.249137  1
  In  In12  1  0.997111  0.595827  0.249059  1
  In  In13  1  0.997111  0.401284  0.750941  1
  Sb  Sb14  1  0.605390  0.606793  0.750553  1
  Sb  Sb15  1  0.605390  0.998596  0.249447  1
