# generated using pymatgen
data_HfZrSb2Ru3
_symmetry_space_group_name_H-M   'P 1'
_cell_length_a   4.51686079
_cell_length_b   4.51686188
_cell_length_c   7.81053116
_cell_angle_alpha   73.19281383
_cell_angle_beta   73.19281048
_cell_angle_gamma   60.00001157
_symmetry_Int_Tables_number   1
_chemical_formula_structural   HfZrSb2Ru3
_chemical_formula_sum   'Hf1 Zr1 Sb2 Ru3'
_cell_volume   130.08246385
_cell_formula_units_Z   1
loop_
 _symmetry_equiv_pos_site_id
 _symmetry_equiv_pos_as_xyz
  1  'x, y, z'
loop_
 _atom_site_type_symbol
 _atom_site_label
 _atom_site_symmetry_multiplicity
 _atom_site_fract_x
 _atom_site_fract_y
 _atom_site_fract_z
 _atom_site_occupancy
  Hf  Hf0  1  0.754239  0.754239  0.737281  1
  Zr  Zr1  1  0.246519  0.246519  0.260441  1
  Sb  Sb2  1  0.995455  0.995455  0.013635  1
  Sb  Sb3  1  0.503325  0.503325  0.490027  1
  Ru  Ru4  1  0.628844  0.628844  0.113467  1
  Ru  Ru5  1  0.121929  0.121929  0.634212  1
  Ru  Ru6  1  0.374687  0.374687  0.875940  1
