# generated using pymatgen
data_Tb4Dy4Sc11Si16Tc
_symmetry_space_group_name_H-M   'P 1'
_cell_length_a   7.03538107
_cell_length_b   7.36401726
_cell_length_c   13.92074710
_cell_angle_alpha   90.00759376
_cell_angle_beta   89.98870078
_cell_angle_gamma   90.11008010
_symmetry_Int_Tables_number   1
_chemical_formula_structural   Tb4Dy4Sc11Si16Tc
_chemical_formula_sum   'Tb4 Dy4 Sc11 Si16 Tc1'
_cell_volume   721.21400783
_cell_formula_units_Z   1
loop_
 _symmetry_equiv_pos_site_id
 _symmetry_equiv_pos_as_xyz
  1  'x, y, z'
loop_
 _atom_site_type_symbol
 _atom_site_label
 _atom_site_symmetry_multiplicity
 _atom_site_fract_x
 _atom_site_fract_y
 _atom_site_fract_z
 _atom_site_occupancy
  Tb  Tb0  1  0.511668  0.324097  0.095454  1
  Tb  Tb1  1  0.012076  0.176572  0.406396  1
  Tb  Tb2  1  0.511670  0.324333  0.404436  1
  Tb  Tb3  1  0.487088  0.671940  0.598662  1
  Dy  Dy4  1  0.012226  0.176967  0.093719  1
  Dy  Dy5  1  0.992654  0.818761  0.900183  1
  Dy  Dy6  1  0.486862  0.672076  0.901235  1
  Dy  Dy7  1  0.992754  0.818827  0.600013  1
  Sc  Sc8  1  0.841889  0.496781  0.249880  1
  Sc  Sc9  1  0.342029  0.002957  0.249941  1
  Sc  Sc10  1  0.658063  0.996250  0.750061  1
  Sc  Sc11  1  0.325554  0.178167  0.627512  1
  Sc  Sc12  1  0.672306  0.824126  0.374789  1
  Sc  Sc13  1  0.171650  0.674875  0.376862  1
  Sc  Sc14  1  0.671976  0.823966  0.125082  1
  Sc  Sc15  1  0.828667  0.330840  0.628328  1
  Sc  Sc16  1  0.325646  0.178218  0.872626  1
  Sc  Sc17  1  0.828628  0.330824  0.871768  1
  Sc  Sc18  1  0.171926  0.674851  0.123049  1
  Si  Si19  1  0.029585  0.121213  0.750052  1
  Si  Si20  1  0.971890  0.884533  0.249849  1
  Si  Si21  1  0.468155  0.617334  0.249949  1
  Si  Si22  1  0.519905  0.392824  0.750241  1
  Si  Si23  1  0.284981  0.865354  0.750176  1
  Si  Si24  1  0.717485  0.127611  0.249785  1
  Si  Si25  1  0.214374  0.373008  0.249810  1
  Si  Si26  1  0.794377  0.627956  0.750156  1
  Si  Si27  1  0.154990  0.465887  0.547529  1
  Si  Si28  1  0.843517  0.536354  0.462945  1
  Si  Si29  1  0.346533  0.964675  0.462898  1
  Si  Si30  1  0.843574  0.536059  0.037058  1
  Si  Si31  1  0.657018  0.034355  0.540212  1
  Si  Si32  1  0.155301  0.465920  0.952489  1
  Si  Si33  1  0.656943  0.033954  0.959745  1
  Si  Si34  1  0.346151  0.964562  0.036979  1
  Tc  Tc35  1  0.149888  0.492972  0.750131  1
