# generated using pymatgen
data_NdYErGa8Ag3
_symmetry_space_group_name_H-M   'P 1'
_cell_length_a   4.35152198
_cell_length_b   8.40686538
_cell_length_c   8.40686550
_cell_angle_alpha   69.18825520
_cell_angle_beta   75.00066555
_cell_angle_gamma   75.00066779
_symmetry_Int_Tables_number   1
_chemical_formula_structural   NdYErGa8Ag3
_chemical_formula_sum   'Nd1 Y1 Er1 Ga8 Ag3'
_cell_volume   272.90167330
_cell_formula_units_Z   1
loop_
 _symmetry_equiv_pos_site_id
 _symmetry_equiv_pos_as_xyz
  1  'x, y, z'
loop_
 _atom_site_type_symbol
 _atom_site_label
 _atom_site_symmetry_multiplicity
 _atom_site_fract_x
 _atom_site_fract_y
 _atom_site_fract_z
 _atom_site_occupancy
  Nd  Nd0  1  0.500131  0.499869  0.499869  1
  Y  Y1  1  0.199862  0.800138  0.800138  1
  Er  Er2  1  0.800524  0.199476  0.199476  1
  Ga  Ga3  1  0.355665  0.360488  0.928183  1
  Ga  Ga4  1  0.644099  0.638527  0.073275  1
  Ga  Ga5  1  0.355665  0.928183  0.360488  1
  Ga  Ga6  1  0.644099  0.073275  0.638527  1
  Ga  Ga7  1  0.160839  0.471318  0.207005  1
  Ga  Ga8  1  0.839799  0.527684  0.792717  1
  Ga  Ga9  1  0.160839  0.207005  0.471318  1
  Ga  Ga10  1  0.839799  0.792717  0.527684  1
  Ag  Ag11  1  0.499567  0.000433  0.000433  1
  Ag  Ag12  1  0.999557  0.806198  0.194689  1
  Ag  Ag13  1  0.999557  0.194689  0.806198  1
