# generated using pymatgen
data_Rb3NaPb4
_symmetry_space_group_name_H-M   'P 1'
_cell_length_a   9.31003956
_cell_length_b   9.31004006
_cell_length_c   11.13988600
_cell_angle_alpha   90.00000000
_cell_angle_beta   90.00000000
_cell_angle_gamma   132.29993932
_symmetry_Int_Tables_number   1
_chemical_formula_structural   Rb3NaPb4
_chemical_formula_sum   'Rb6 Na2 Pb8'
_cell_volume   714.16638128
_cell_formula_units_Z   2
loop_
 _symmetry_equiv_pos_site_id
 _symmetry_equiv_pos_as_xyz
  1  'x, y, z'
loop_
 _atom_site_type_symbol
 _atom_site_label
 _atom_site_symmetry_multiplicity
 _atom_site_fract_x
 _atom_site_fract_y
 _atom_site_fract_z
 _atom_site_occupancy
  Rb  Rb0  1  0.230742  0.769258  0.250000  1
  Rb  Rb1  1  0.769258  0.230742  0.750000  1
  Rb  Rb2  1  0.611690  0.388310  0.045956  1
  Rb  Rb3  1  0.388310  0.611690  0.954044  1
  Rb  Rb4  1  0.388310  0.611690  0.545956  1
  Rb  Rb5  1  0.611690  0.388310  0.454044  1
  Na  Na6  1  0.000000  0.000000  0.000000  1
  Na  Na7  1  0.000000  0.000000  0.500000  1
  Pb  Pb8  1  0.170344  0.260075  0.250000  1
  Pb  Pb9  1  0.829656  0.739925  0.750000  1
  Pb  Pb10  1  0.739925  0.829656  0.250000  1
  Pb  Pb11  1  0.260075  0.170344  0.750000  1
  Pb  Pb12  1  0.824554  0.175446  0.110624  1
  Pb  Pb13  1  0.175446  0.824554  0.889376  1
  Pb  Pb14  1  0.175446  0.824554  0.610624  1
  Pb  Pb15  1  0.824554  0.175446  0.389376  1
