# generated using pymatgen
data_La10Co2SnBi3
_symmetry_space_group_name_H-M   'P 1'
_cell_length_a   8.49570349
_cell_length_b   9.23813041
_cell_length_c   12.91189727
_cell_angle_alpha   89.95485092
_cell_angle_beta   90.05049453
_cell_angle_gamma   89.95508315
_symmetry_Int_Tables_number   1
_chemical_formula_structural   La10Co2SnBi3
_chemical_formula_sum   'La20 Co4 Sn2 Bi6'
_cell_volume   1013.38170590
_cell_formula_units_Z   2
loop_
 _symmetry_equiv_pos_site_id
 _symmetry_equiv_pos_as_xyz
  1  'x, y, z'
loop_
 _atom_site_type_symbol
 _atom_site_label
 _atom_site_symmetry_multiplicity
 _atom_site_fract_x
 _atom_site_fract_y
 _atom_site_fract_z
 _atom_site_occupancy
  La  La0  1  0.354743  0.747683  0.698272  1
  La  La1  1  0.645257  0.252317  0.301728  1
  La  La2  1  0.851723  0.252370  0.803675  1
  La  La3  1  0.148277  0.747630  0.196325  1
  La  La4  1  0.878270  0.747602  0.810773  1
  La  La5  1  0.121730  0.252398  0.189227  1
  La  La6  1  0.385686  0.252996  0.690243  1
  La  La7  1  0.614314  0.747004  0.309757  1
  La  La8  1  0.680976  0.535488  0.567713  1
  La  La9  1  0.319024  0.464512  0.432287  1
  La  La10  1  0.185158  0.464818  0.937107  1
  La  La11  1  0.317703  0.035437  0.436987  1
  La  La12  1  0.814842  0.535182  0.062893  1
  La  La13  1  0.682297  0.964563  0.563013  1
  La  La14  1  0.817398  0.966842  0.063384  1
  La  La15  1  0.182602  0.033158  0.936616  1
  La  La16  1  0.057730  0.750207  0.494807  1
  La  La17  1  0.942270  0.249793  0.505193  1
  La  La18  1  0.556827  0.254741  0.005875  1
  La  La19  1  0.443173  0.745259  0.994125  1
  Co  Co20  1  0.071433  0.751419  0.991876  1
  Co  Co21  1  0.928567  0.248581  0.008124  1
  Co  Co22  1  0.572995  0.249454  0.506742  1
  Co  Co23  1  0.427005  0.750546  0.493258  1
  Sn  Sn24  1  0.574712  0.505520  0.826453  1
  Sn  Sn25  1  0.425288  0.494480  0.173547  1
  Bi  Bi26  1  0.075502  0.493727  0.673437  1
  Bi  Bi27  1  0.424466  0.005699  0.173106  1
  Bi  Bi28  1  0.924498  0.506273  0.326563  1
  Bi  Bi29  1  0.575534  0.994301  0.826894  1
  Bi  Bi30  1  0.924136  0.994073  0.325668  1
  Bi  Bi31  1  0.075864  0.005927  0.674332  1
