# generated using pymatgen
data_Ca10AgRh3
_symmetry_space_group_name_H-M   'P 1'
_cell_length_a   8.91444818
_cell_length_b   8.89781786
_cell_length_c   7.70476970
_cell_angle_alpha   82.73683440
_cell_angle_beta   83.18213153
_cell_angle_gamma   43.49616214
_symmetry_Int_Tables_number   1
_chemical_formula_structural   Ca10AgRh3
_chemical_formula_sum   'Ca10 Ag1 Rh3'
_cell_volume   416.94662929
_cell_formula_units_Z   1
loop_
 _symmetry_equiv_pos_site_id
 _symmetry_equiv_pos_as_xyz
  1  'x, y, z'
loop_
 _atom_site_type_symbol
 _atom_site_label
 _atom_site_symmetry_multiplicity
 _atom_site_fract_x
 _atom_site_fract_y
 _atom_site_fract_z
 _atom_site_occupancy
  Ca  Ca0  1  0.356531  0.200245  0.807924  1
  Ca  Ca1  1  0.793622  0.638057  0.679322  1
  Ca  Ca2  1  0.633635  0.788136  0.178772  1
  Ca  Ca3  1  0.185674  0.374056  0.331128  1
  Ca  Ca4  1  0.420836  0.585469  0.259001  1
  Ca  Ca5  1  0.574929  0.434901  0.735253  1
  Ca  Ca6  1  0.809527  0.014920  0.432351  1
  Ca  Ca7  1  0.987436  0.198854  0.085359  1
  Ca  Ca8  1  0.196538  0.985527  0.586192  1
  Ca  Ca9  1  0.041909  0.781972  0.909934  1
  Ag  Ag10  1  0.595272  0.184133  0.077607  1
  Rh  Rh11  1  0.182378  0.592299  0.582335  1
  Rh  Rh12  1  0.398530  0.822720  0.918774  1
  Rh  Rh13  1  0.823183  0.398713  0.416048  1
