# generated using pymatgen
data_Th2CdCuNi
_symmetry_space_group_name_H-M   'P 1'
_cell_length_a   7.77397945
_cell_length_b   7.77397882
_cell_length_c   3.73869500
_cell_angle_alpha   90.00000000
_cell_angle_beta   90.00000000
_cell_angle_gamma   90.96251718
_symmetry_Int_Tables_number   1
_chemical_formula_structural   Th2CdCuNi
_chemical_formula_sum   'Th4 Cd2 Cu2 Ni2'
_cell_volume   225.91522226
_cell_formula_units_Z   2
loop_
 _symmetry_equiv_pos_site_id
 _symmetry_equiv_pos_as_xyz
  1  'x, y, z'
loop_
 _atom_site_type_symbol
 _atom_site_label
 _atom_site_symmetry_multiplicity
 _atom_site_fract_x
 _atom_site_fract_y
 _atom_site_fract_z
 _atom_site_occupancy
  Th  Th0  1  0.684064  0.184064  0.500000  1
  Th  Th1  1  0.315936  0.815936  0.500000  1
  Th  Th2  1  0.166364  0.333636  0.500000  1
  Th  Th3  1  0.833636  0.666364  0.500000  1
  Cd  Cd4  1  0.000000  0.000000  0.000000  1
  Cd  Cd5  1  0.500000  0.500000  0.000000  1
  Cu  Cu6  1  0.619470  0.880530  0.000000  1
  Cu  Cu7  1  0.380530  0.119470  0.000000  1
  Ni  Ni8  1  0.123583  0.623583  0.000000  1
  Ni  Ni9  1  0.876417  0.376417  0.000000  1
