# generated using pymatgen
data_SmHf(ZrPd6)2
_symmetry_space_group_name_H-M   'P 1'
_cell_length_a   5.77474300
_cell_length_b   5.77474226
_cell_length_c   9.39707800
_cell_angle_alpha   90.00000000
_cell_angle_beta   90.00000000
_cell_angle_gamma   120.00000994
_symmetry_Int_Tables_number   1
_chemical_formula_structural   SmHf(ZrPd6)2
_chemical_formula_sum   'Sm1 Hf1 Zr2 Pd12'
_cell_volume   271.38677911
_cell_formula_units_Z   1
loop_
 _symmetry_equiv_pos_site_id
 _symmetry_equiv_pos_as_xyz
  1  'x, y, z'
loop_
 _atom_site_type_symbol
 _atom_site_label
 _atom_site_symmetry_multiplicity
 _atom_site_fract_x
 _atom_site_fract_y
 _atom_site_fract_z
 _atom_site_occupancy
  Sm  Sm0  1  0.666667  0.333333  0.750000  1
  Hf  Hf1  1  0.333333  0.666667  0.250000  1
  Zr  Zr2  1  0.000000  0.000000  0.501857  1
  Zr  Zr3  1  0.000000  0.000000  0.998143  1
  Pd  Pd4  1  0.170622  0.341244  0.750000  1
  Pd  Pd5  1  0.005891  0.502945  0.007311  1
  Pd  Pd6  1  0.831452  0.662905  0.250000  1
  Pd  Pd7  1  0.337095  0.168548  0.250000  1
  Pd  Pd8  1  0.497055  0.502945  0.007311  1
  Pd  Pd9  1  0.831452  0.168548  0.250000  1
  Pd  Pd10  1  0.497055  0.502945  0.492689  1
  Pd  Pd11  1  0.497055  0.994109  0.492689  1
  Pd  Pd12  1  0.170622  0.829378  0.750000  1
  Pd  Pd13  1  0.658756  0.829378  0.750000  1
  Pd  Pd14  1  0.497055  0.994109  0.007311  1
  Pd  Pd15  1  0.005891  0.502945  0.492689  1
