# generated using pymatgen
data_Er3CuP2Ir3
_symmetry_space_group_name_H-M   'P 1'
_cell_length_a   6.60004100
_cell_length_b   6.60004160
_cell_length_c   4.05233400
_cell_angle_alpha   90.00000000
_cell_angle_beta   90.00000000
_cell_angle_gamma   120.00001202
_symmetry_Int_Tables_number   1
_chemical_formula_structural   Er3CuP2Ir3
_chemical_formula_sum   'Er3 Cu1 P2 Ir3'
_cell_volume   152.87241236
_cell_formula_units_Z   1
loop_
 _symmetry_equiv_pos_site_id
 _symmetry_equiv_pos_as_xyz
  1  'x, y, z'
loop_
 _atom_site_type_symbol
 _atom_site_label
 _atom_site_symmetry_multiplicity
 _atom_site_fract_x
 _atom_site_fract_y
 _atom_site_fract_z
 _atom_site_occupancy
  Er  Er0  1  0.000000  0.409481  0.500000  1
  Er  Er1  1  0.590519  0.590519  0.500000  1
  Er  Er2  1  0.409481  0.000000  0.500000  1
  Cu  Cu3  1  0.000000  0.000000  0.500000  1
  P  P4  1  0.666667  0.333333  0.000000  1
  P  P5  1  0.333333  0.666667  0.000000  1
  Ir  Ir6  1  0.000000  0.756582  0.000000  1
  Ir  Ir7  1  0.243418  0.243418  0.000000  1
  Ir  Ir8  1  0.756582  0.000000  0.000000  1
