# generated using pymatgen
data_Lu10Al5PC8
_symmetry_space_group_name_H-M   'P 1'
_cell_length_a   10.54323800
_cell_length_b   10.54323800
_cell_length_c   3.45420000
_cell_angle_alpha   90.00000000
_cell_angle_beta   90.00000000
_cell_angle_gamma   90.00000000
_symmetry_Int_Tables_number   1
_chemical_formula_structural   Lu10Al5PC8
_chemical_formula_sum   'Lu10 Al5 P1 C8'
_cell_volume   383.96841440
_cell_formula_units_Z   1
loop_
 _symmetry_equiv_pos_site_id
 _symmetry_equiv_pos_as_xyz
  1  'x, y, z'
loop_
 _atom_site_type_symbol
 _atom_site_label
 _atom_site_symmetry_multiplicity
 _atom_site_fract_x
 _atom_site_fract_y
 _atom_site_fract_z
 _atom_site_occupancy
  Lu  Lu0  1  0.547973  0.723800  0.500000  1
  Lu  Lu1  1  0.452027  0.276200  0.500000  1
  Lu  Lu2  1  0.052245  0.766916  0.500000  1
  Lu  Lu3  1  0.947755  0.233084  0.500000  1
  Lu  Lu4  1  0.276200  0.547973  0.500000  1
  Lu  Lu5  1  0.723800  0.452027  0.500000  1
  Lu  Lu6  1  0.233084  0.052245  0.500000  1
  Lu  Lu7  1  0.766916  0.947755  0.500000  1
  Lu  Lu8  1  0.500000  0.000000  0.000000  1
  Lu  Lu9  1  0.000000  0.500000  0.000000  1
  Al  Al10  1  0.710326  0.194898  0.000000  1
  Al  Al11  1  0.289674  0.805102  0.000000  1
  Al  Al12  1  0.194898  0.289674  0.000000  1
  Al  Al13  1  0.805102  0.710326  0.000000  1
  Al  Al14  1  0.000000  0.000000  0.000000  1
  P  P15  1  0.500000  0.500000  0.000000  1
  C  C16  1  0.626249  0.130461  0.500000  1
  C  C17  1  0.373751  0.869539  0.500000  1
  C  C18  1  0.130461  0.373751  0.500000  1
  C  C19  1  0.869539  0.626249  0.500000  1
  C  C20  1  0.166707  0.657970  0.000000  1
  C  C21  1  0.833293  0.342030  0.000000  1
  C  C22  1  0.657970  0.833293  0.000000  1
  C  C23  1  0.342030  0.166707  0.000000  1
