# generated using pymatgen
data_FeNi5AsP2
_symmetry_space_group_name_H-M   'P 1'
_cell_length_a   5.95152927
_cell_length_b   5.97685472
_cell_length_c   3.34483500
_cell_angle_alpha   90.00000000
_cell_angle_beta   90.00000000
_cell_angle_gamma   120.00813207
_symmetry_Int_Tables_number   1
_chemical_formula_structural   FeNi5AsP2
_chemical_formula_sum   'Fe1 Ni5 As1 P2'
_cell_volume   103.03173442
_cell_formula_units_Z   1
loop_
 _symmetry_equiv_pos_site_id
 _symmetry_equiv_pos_as_xyz
  1  'x, y, z'
loop_
 _atom_site_type_symbol
 _atom_site_label
 _atom_site_symmetry_multiplicity
 _atom_site_fract_x
 _atom_site_fract_y
 _atom_site_fract_z
 _atom_site_occupancy
  Fe  Fe0  1  0.006972  0.747122  0.000000  1
  Ni  Ni1  1  0.394305  0.991147  0.500000  1
  Ni  Ni2  1  0.581901  0.621886  0.500000  1
  Ni  Ni3  1  0.020506  0.390474  0.500000  1
  Ni  Ni4  1  0.254783  0.259463  0.000000  1
  Ni  Ni5  1  0.740785  0.994338  0.000000  1
  As  As6  1  0.674086  0.341013  0.000000  1
  P  P7  1  0.000578  0.986728  0.500000  1
  P  P8  1  0.326085  0.667828  0.000000  1
