# generated using pymatgen
data_Tb16SmEr3Sn16
_symmetry_space_group_name_H-M   'P 1'
_cell_length_a   8.06567543
_cell_length_b   8.21672102
_cell_length_c   15.54558000
_cell_angle_alpha   90.01653315
_cell_angle_beta   89.70153857
_cell_angle_gamma   89.81542744
_symmetry_Int_Tables_number   1
_chemical_formula_structural   Tb16SmEr3Sn16
_chemical_formula_sum   'Tb16 Sm1 Er3 Sn16'
_cell_volume   1030.23914500
_cell_formula_units_Z   1
loop_
 _symmetry_equiv_pos_site_id
 _symmetry_equiv_pos_as_xyz
  1  'x, y, z'
loop_
 _atom_site_type_symbol
 _atom_site_label
 _atom_site_symmetry_multiplicity
 _atom_site_fract_x
 _atom_site_fract_y
 _atom_site_fract_z
 _atom_site_occupancy
  Tb  Tb0  1  0.364353  0.836779  0.876841  1
  Tb  Tb1  1  0.866828  0.662708  0.620783  1
  Tb  Tb2  1  0.632416  0.162001  0.377838  1
  Tb  Tb3  1  0.135777  0.337058  0.122853  1
  Tb  Tb4  1  0.635517  0.163791  0.123304  1
  Tb  Tb5  1  0.132354  0.337992  0.377945  1
  Tb  Tb6  1  0.368779  0.837991  0.621562  1
  Tb  Tb7  1  0.865262  0.662880  0.877467  1
  Tb  Tb8  1  0.518395  0.321898  0.903085  1
  Tb  Tb9  1  0.021390  0.179461  0.598044  1
  Tb  Tb10  1  0.479459  0.679104  0.401625  1
  Tb  Tb11  1  0.982688  0.819306  0.097240  1
  Tb  Tb12  1  0.481475  0.678969  0.097805  1
  Tb  Tb13  1  0.979507  0.821053  0.402150  1
  Tb  Tb14  1  0.519993  0.321123  0.596579  1
  Tb  Tb15  1  0.197997  0.502377  0.749272  1
  Sm  Sm16  1  0.014527  0.179280  0.904467  1
  Er  Er17  1  0.698196  0.996922  0.749205  1
  Er  Er18  1  0.802029  0.497377  0.250387  1
  Er  Er19  1  0.302530  0.002456  0.250858  1
  Sn  Sn20  1  0.298142  0.034944  0.043440  1
  Sn  Sn21  1  0.791987  0.463134  0.457346  1
  Sn  Sn22  1  0.708484  0.965452  0.542654  1
  Sn  Sn23  1  0.205519  0.539183  0.959044  1
  Sn  Sn24  1  0.699560  0.958738  0.959402  1
  Sn  Sn25  1  0.207925  0.538004  0.541416  1
  Sn  Sn26  1  0.292475  0.036544  0.457583  1
  Sn  Sn27  1  0.794994  0.463118  0.042284  1
  Sn  Sn28  1  0.564644  0.619328  0.749656  1
  Sn  Sn29  1  0.063297  0.881152  0.749004  1
  Sn  Sn30  1  0.436335  0.381812  0.250512  1
  Sn  Sn31  1  0.937521  0.117774  0.250311  1
  Sn  Sn32  1  0.330149  0.147054  0.749798  1
  Sn  Sn33  1  0.825738  0.352553  0.748861  1
  Sn  Sn34  1  0.672364  0.851830  0.249588  1
  Sn  Sn35  1  0.171399  0.648847  0.249791  1
