# generated using pymatgen
data_Ca7Ho(Si3Pd)4
_symmetry_space_group_name_H-M   'P 1'
_cell_length_a   8.26887400
_cell_length_b   8.26887405
_cell_length_c   8.34629500
_cell_angle_alpha   90.00000000
_cell_angle_beta   90.00000000
_cell_angle_gamma   119.99999981
_symmetry_Int_Tables_number   1
_chemical_formula_structural   Ca7Ho(Si3Pd)4
_chemical_formula_sum   'Ca7 Ho1 Si12 Pd4'
_cell_volume   494.21635619
_cell_formula_units_Z   1
loop_
 _symmetry_equiv_pos_site_id
 _symmetry_equiv_pos_as_xyz
  1  'x, y, z'
loop_
 _atom_site_type_symbol
 _atom_site_label
 _atom_site_symmetry_multiplicity
 _atom_site_fract_x
 _atom_site_fract_y
 _atom_site_fract_z
 _atom_site_occupancy
  Ca  Ca0  1  0.501239  0.002478  0.250000  1
  Ca  Ca1  1  0.498734  0.997469  0.750000  1
  Ca  Ca2  1  0.997522  0.498761  0.250000  1
  Ca  Ca3  1  0.002531  0.501266  0.750000  1
  Ca  Ca4  1  0.501239  0.498761  0.250000  1
  Ca  Ca5  1  0.498734  0.501266  0.750000  1
  Ca  Ca6  1  0.000000  0.000000  0.250000  1
  Ho  Ho7  1  0.000000  0.000000  0.750000  1
  Si  Si8  1  0.164592  0.329182  0.996660  1
  Si  Si9  1  0.835634  0.671270  0.995067  1
  Si  Si10  1  0.670818  0.835408  0.996660  1
  Si  Si11  1  0.835634  0.671270  0.504933  1
  Si  Si12  1  0.328730  0.164366  0.995067  1
  Si  Si13  1  0.164592  0.329182  0.503340  1
  Si  Si14  1  0.164592  0.835408  0.996660  1
  Si  Si15  1  0.328730  0.164366  0.504933  1
  Si  Si16  1  0.835634  0.164366  0.995067  1
  Si  Si17  1  0.670818  0.835408  0.503340  1
  Si  Si18  1  0.835634  0.164366  0.504933  1
  Si  Si19  1  0.164592  0.835408  0.503340  1
  Pd  Pd20  1  0.333333  0.666667  0.007508  1
  Pd  Pd21  1  0.666667  0.333333  0.993395  1
  Pd  Pd22  1  0.666667  0.333333  0.506605  1
  Pd  Pd23  1  0.333333  0.666667  0.492492  1
