# generated using pymatgen
data_YbPa(TcO4)6
_symmetry_space_group_name_H-M   'P 1'
_cell_length_a   10.25394700
_cell_length_b   10.25394737
_cell_length_c   6.22917400
_cell_angle_alpha   90.00000000
_cell_angle_beta   90.00000000
_cell_angle_gamma   119.99999903
_symmetry_Int_Tables_number   1
_chemical_formula_structural   YbPa(TcO4)6
_chemical_formula_sum   'Yb1 Pa1 Tc6 O24'
_cell_volume   567.20917942
_cell_formula_units_Z   1
loop_
 _symmetry_equiv_pos_site_id
 _symmetry_equiv_pos_as_xyz
  1  'x, y, z'
loop_
 _atom_site_type_symbol
 _atom_site_label
 _atom_site_symmetry_multiplicity
 _atom_site_fract_x
 _atom_site_fract_y
 _atom_site_fract_z
 _atom_site_occupancy
  Yb  Yb0  1  0.333333  0.666667  0.250000  1
  Pa  Pa1  1  0.666667  0.333333  0.750000  1
  Tc  Tc2  1  0.087124  0.394071  0.750000  1
  Tc  Tc3  1  0.395345  0.300340  0.250000  1
  Tc  Tc4  1  0.605929  0.693051  0.750000  1
  Tc  Tc5  1  0.904992  0.604655  0.250000  1
  Tc  Tc6  1  0.306949  0.912876  0.750000  1
  Tc  Tc7  1  0.699660  0.095008  0.250000  1
  O  O8  1  0.493518  0.652564  0.523366  1
  O  O9  1  0.347436  0.840954  0.523366  1
  O  O10  1  0.847453  0.734923  0.250000  1
  O  O11  1  0.119545  0.858701  0.750000  1
  O  O12  1  0.265077  0.112530  0.250000  1
  O  O13  1  0.141299  0.260844  0.750000  1
  O  O14  1  0.514871  0.344621  0.021358  1
  O  O15  1  0.887470  0.152547  0.250000  1
  O  O16  1  0.098894  0.690454  0.250000  1
  O  O17  1  0.159046  0.506482  0.976634  1
  O  O18  1  0.159046  0.506482  0.523366  1
  O  O19  1  0.887595  0.309519  0.750000  1
  O  O20  1  0.309546  0.408441  0.250000  1
  O  O21  1  0.690481  0.578076  0.750000  1
  O  O22  1  0.829750  0.485129  0.478642  1
  O  O23  1  0.421924  0.112405  0.750000  1
  O  O24  1  0.655379  0.170250  0.021358  1
  O  O25  1  0.493518  0.652564  0.976634  1
  O  O26  1  0.347436  0.840954  0.976634  1
  O  O27  1  0.655379  0.170250  0.478642  1
  O  O28  1  0.514871  0.344621  0.478642  1
  O  O29  1  0.829750  0.485129  0.021358  1
  O  O30  1  0.739156  0.880455  0.750000  1
  O  O31  1  0.591559  0.901106  0.250000  1
