# generated using pymatgen
data_Tm2Ga2Ru2C
_symmetry_space_group_name_H-M   'P 1'
_cell_length_a   6.00532421
_cell_length_b   6.00532426
_cell_length_c   6.95890593
_cell_angle_alpha   126.93768693
_cell_angle_beta   126.93768613
_cell_angle_gamma   39.24466595
_symmetry_Int_Tables_number   1
_chemical_formula_structural   Tm2Ga2Ru2C
_chemical_formula_sum   'Tm2 Ga2 Ru2 C1'
_cell_volume   122.25838615
_cell_formula_units_Z   1
loop_
 _symmetry_equiv_pos_site_id
 _symmetry_equiv_pos_as_xyz
  1  'x, y, z'
loop_
 _atom_site_type_symbol
 _atom_site_label
 _atom_site_symmetry_multiplicity
 _atom_site_fract_x
 _atom_site_fract_y
 _atom_site_fract_z
 _atom_site_occupancy
  Tm  Tm0  1  0.439001  0.439001  0.165969  1
  Tm  Tm1  1  0.560999  0.560999  0.834031  1
  Ga  Ga2  1  0.852509  0.852509  0.389086  1
  Ga  Ga3  1  0.147491  0.147491  0.610914  1
  Ru  Ru4  1  0.199581  0.199581  0.305677  1
  Ru  Ru5  1  0.800419  0.800419  0.694323  1
  C  C6  1  0.000000  0.000000  0.000000  1
