# generated using pymatgen
data_Tb6Ce2Y2Al4IrRu5
_symmetry_space_group_name_H-M   'P 1'
_cell_length_a   8.50317308
_cell_length_b   8.42161014
_cell_length_c   8.37043020
_cell_angle_alpha   110.26788593
_cell_angle_beta   109.18815963
_cell_angle_gamma   110.16518874
_symmetry_Int_Tables_number   1
_chemical_formula_structural   Tb6Ce2Y2Al4IrRu5
_chemical_formula_sum   'Tb6 Ce2 Y2 Al4 Ir1 Ru5'
_cell_volume   454.38271030
_cell_formula_units_Z   1
loop_
 _symmetry_equiv_pos_site_id
 _symmetry_equiv_pos_as_xyz
  1  'x, y, z'
loop_
 _atom_site_type_symbol
 _atom_site_label
 _atom_site_symmetry_multiplicity
 _atom_site_fract_x
 _atom_site_fract_y
 _atom_site_fract_z
 _atom_site_occupancy
  Tb  Tb0  1  0.780407  0.783634  0.779364  1
  Tb  Tb1  1  0.316818  0.564786  0.755227  1
  Tb  Tb2  1  0.751348  0.318661  0.566357  1
  Tb  Tb3  1  0.566068  0.748779  0.312741  1
  Tb  Tb4  1  0.721541  0.504285  0.999468  1
  Tb  Tb5  1  0.000325  0.720472  0.506458  1
  Ce  Ce6  1  0.942858  0.250016  0.194865  1
  Ce  Ce7  1  0.196883  0.941453  0.251957  1
  Y  Y8  1  0.498509  0.989431  0.716693  1
  Y  Y9  1  0.257363  0.191471  0.934978  1
  Al  Al10  1  0.414364  0.409153  0.407964  1
  Al  Al11  1  0.092571  0.491444  0.995500  1
  Al  Al12  1  0.999794  0.093334  0.501865  1
  Al  Al13  1  0.501806  0.011852  0.094990  1
  Ir  Ir14  1  0.869690  0.117397  0.739200  1
  Ru  Ru15  1  0.753098  0.904992  0.123254  1
  Ru  Ru16  1  0.127133  0.764272  0.910659  1
  Ru  Ru17  1  0.222180  0.586610  0.360290  1
  Ru  Ru18  1  0.358773  0.220452  0.594276  1
  Ru  Ru19  1  0.628466  0.387510  0.253890  1
