# generated using pymatgen
data_Gd4TiSn3S
_symmetry_space_group_name_H-M   'P 1'
_cell_length_a   9.16158300
_cell_length_b   9.16158358
_cell_length_c   6.36880300
_cell_angle_alpha   90.00000000
_cell_angle_beta   90.00000000
_cell_angle_gamma   120.00000151
_symmetry_Int_Tables_number   1
_chemical_formula_structural   Gd4TiSn3S
_chemical_formula_sum   'Gd8 Ti2 Sn6 S2'
_cell_volume   462.94511854
_cell_formula_units_Z   2
loop_
 _symmetry_equiv_pos_site_id
 _symmetry_equiv_pos_as_xyz
  1  'x, y, z'
loop_
 _atom_site_type_symbol
 _atom_site_label
 _atom_site_symmetry_multiplicity
 _atom_site_fract_x
 _atom_site_fract_y
 _atom_site_fract_z
 _atom_site_occupancy
  Gd  Gd0  1  0.333333  0.666667  0.500000  1
  Gd  Gd1  1  0.666667  0.333333  0.500000  1
  Gd  Gd2  1  0.751180  0.751180  0.752269  1
  Gd  Gd3  1  0.248820  0.000000  0.752269  1
  Gd  Gd4  1  0.000000  0.248820  0.752269  1
  Gd  Gd5  1  0.248820  0.248820  0.247731  1
  Gd  Gd6  1  0.751180  0.000000  0.247731  1
  Gd  Gd7  1  0.000000  0.751180  0.247731  1
  Ti  Ti8  1  0.666667  0.333333  0.000000  1
  Ti  Ti9  1  0.333333  0.666667  0.000000  1
  Sn  Sn10  1  0.401547  0.401547  0.766460  1
  Sn  Sn11  1  0.598453  0.000000  0.766460  1
  Sn  Sn12  1  0.000000  0.598453  0.766460  1
  Sn  Sn13  1  0.598453  0.598453  0.233540  1
  Sn  Sn14  1  0.401547  0.000000  0.233540  1
  Sn  Sn15  1  0.000000  0.401547  0.233540  1
  S  S16  1  0.000000  0.000000  0.000000  1
  S  S17  1  0.000000  0.000000  0.500000  1
