# generated using pymatgen
data_Tb6Zn4Pd12Rh
_symmetry_space_group_name_H-M   'P 1'
_cell_length_a   8.25306704
_cell_length_b   8.25306848
_cell_length_c   8.25306800
_cell_angle_alpha   109.47122192
_cell_angle_beta   109.47122543
_cell_angle_gamma   109.47121926
_symmetry_Int_Tables_number   1
_chemical_formula_structural   Tb6Zn4Pd12Rh
_chemical_formula_sum   'Tb6 Zn4 Pd12 Rh1'
_cell_volume   432.73729800
_cell_formula_units_Z   1
loop_
 _symmetry_equiv_pos_site_id
 _symmetry_equiv_pos_as_xyz
  1  'x, y, z'
loop_
 _atom_site_type_symbol
 _atom_site_label
 _atom_site_symmetry_multiplicity
 _atom_site_fract_x
 _atom_site_fract_y
 _atom_site_fract_z
 _atom_site_occupancy
  Tb  Tb0  1  0.702949  0.702949  0.000000  1
  Tb  Tb1  1  0.297051  0.000000  0.297051  1
  Tb  Tb2  1  0.000000  0.297051  0.297051  1
  Tb  Tb3  1  0.297051  0.297051  0.000000  1
  Tb  Tb4  1  0.702949  0.000000  0.702949  1
  Tb  Tb5  1  0.000000  0.702949  0.702949  1
  Zn  Zn6  1  0.000000  0.000000  0.500000  1
  Zn  Zn7  1  0.000000  0.500000  0.000000  1
  Zn  Zn8  1  0.500000  0.000000  0.000000  1
  Zn  Zn9  1  0.500000  0.500000  0.500000  1
  Pd  Pd10  1  0.332471  0.332471  0.664943  1
  Pd  Pd11  1  0.667529  0.000000  0.332471  1
  Pd  Pd12  1  0.000000  0.667529  0.332471  1
  Pd  Pd13  1  0.667529  0.332471  0.000000  1
  Pd  Pd14  1  0.332471  0.664943  0.332471  1
  Pd  Pd15  1  0.000000  0.332471  0.667529  1
  Pd  Pd16  1  0.332471  0.667529  0.000000  1
  Pd  Pd17  1  0.332471  0.000000  0.667529  1
  Pd  Pd18  1  0.664943  0.332471  0.332471  1
  Pd  Pd19  1  0.667529  0.667529  0.335057  1
  Pd  Pd20  1  0.667529  0.335057  0.667529  1
  Pd  Pd21  1  0.335057  0.667529  0.667529  1
  Rh  Rh22  1  0.000000  0.000000  0.000000  1
