# generated using pymatgen
data_Ho8Mg2Cu3SiBi2
_symmetry_space_group_name_H-M   'P 1'
_cell_length_a   8.60533365
_cell_length_b   8.60749230
_cell_length_c   8.56392221
_cell_angle_alpha   127.01847665
_cell_angle_beta   127.01950281
_cell_angle_gamma   78.58427895
_symmetry_Int_Tables_number   1
_chemical_formula_structural   Ho8Mg2Cu3SiBi2
_chemical_formula_sum   'Ho8 Mg2 Cu3 Si1 Bi2'
_cell_volume   390.67983079
_cell_formula_units_Z   1
loop_
 _symmetry_equiv_pos_site_id
 _symmetry_equiv_pos_as_xyz
  1  'x, y, z'
loop_
 _atom_site_type_symbol
 _atom_site_label
 _atom_site_symmetry_multiplicity
 _atom_site_fract_x
 _atom_site_fract_y
 _atom_site_fract_z
 _atom_site_occupancy
  Ho  Ho0  1  0.024360  0.529395  0.825901  1
  Ho  Ho1  1  0.698312  0.203118  0.173562  1
  Ho  Ho2  1  0.530430  0.706890  0.500140  1
  Ho  Ho3  1  0.206546  0.018537  0.500256  1
  Ho  Ho4  1  0.970674  0.475538  0.173917  1
  Ho  Ho5  1  0.296444  0.801583  0.826047  1
  Ho  Ho6  1  0.481660  0.293653  0.500105  1
  Ho  Ho7  1  0.793202  0.969657  0.500062  1
  Mg  Mg8  1  0.001254  0.001467  0.002569  1
  Mg  Mg9  1  0.498399  0.499615  0.997795  1
  Cu  Cu10  1  0.370638  0.871994  0.242579  1
  Cu  Cu11  1  0.627807  0.129050  0.757104  1
  Cu  Cu12  1  0.872439  0.627043  0.499696  1
  Si  Si13  1  0.133912  0.366151  0.500048  1
  Bi  Bi14  1  0.746957  0.753131  0.000105  1
  Bi  Bi15  1  0.246967  0.253180  0.000114  1
