# generated using pymatgen
data_Dy4CrTc3B16
_symmetry_space_group_name_H-M   'P 1'
_cell_length_a   3.56640000
_cell_length_b   5.96283123
_cell_length_c   11.52575709
_cell_angle_alpha   89.88657590
_cell_angle_beta   90.00000000
_cell_angle_gamma   90.00000000
_symmetry_Int_Tables_number   1
_chemical_formula_structural   Dy4CrTc3B16
_chemical_formula_sum   'Dy4 Cr1 Tc3 B16'
_cell_volume   245.10444083
_cell_formula_units_Z   1
loop_
 _symmetry_equiv_pos_site_id
 _symmetry_equiv_pos_as_xyz
  1  'x, y, z'
loop_
 _atom_site_type_symbol
 _atom_site_label
 _atom_site_symmetry_multiplicity
 _atom_site_fract_x
 _atom_site_fract_y
 _atom_site_fract_z
 _atom_site_occupancy
  Dy  Dy0  1  0.000000  0.625933  0.350610  1
  Dy  Dy1  1  0.000000  0.375093  0.649548  1
  Dy  Dy2  1  0.000000  0.127732  0.150371  1
  Dy  Dy3  1  0.000000  0.872499  0.848153  1
  Cr  Cr4  1  0.000000  0.871824  0.583131  1
  Tc  Tc5  1  0.000000  0.633698  0.087779  1
  Tc  Tc6  1  0.000000  0.366346  0.912266  1
  Tc  Tc7  1  0.000000  0.127240  0.416915  1
  B  B8  1  0.500000  0.786718  0.185806  1
  B  B9  1  0.500000  0.212874  0.813982  1
  B  B10  1  0.500000  0.286009  0.316089  1
  B  B11  1  0.500000  0.715426  0.683399  1
  B  B12  1  0.500000  0.864618  0.031216  1
  B  B13  1  0.500000  0.135629  0.968373  1
  B  B14  1  0.500000  0.363953  0.468954  1
  B  B15  1  0.500000  0.636936  0.532568  1
  B  B16  1  0.500000  0.885402  0.453756  1
  B  B17  1  0.500000  0.112402  0.548109  1
  B  B18  1  0.500000  0.386867  0.047130  1
  B  B19  1  0.500000  0.613782  0.952347  1
  B  B20  1  0.500000  0.977097  0.308422  1
  B  B21  1  0.500000  0.021152  0.691521  1
  B  B22  1  0.500000  0.475900  0.192947  1
  B  B23  1  0.500000  0.524869  0.806607  1
