# generated using pymatgen
data_Rb2NdTcN4
_symmetry_space_group_name_H-M   'P 1'
_cell_length_a   11.21246565
_cell_length_b   10.85109812
_cell_length_c   8.27462053
_cell_angle_alpha   70.31300884
_cell_angle_beta   65.67199777
_cell_angle_gamma   44.01499168
_symmetry_Int_Tables_number   1
_chemical_formula_structural   Rb2NdTcN4
_chemical_formula_sum   'Rb8 Nd4 Tc4 N16'
_cell_volume   636.10821604
_cell_formula_units_Z   4
loop_
 _symmetry_equiv_pos_site_id
 _symmetry_equiv_pos_as_xyz
  1  'x, y, z'
loop_
 _atom_site_type_symbol
 _atom_site_label
 _atom_site_symmetry_multiplicity
 _atom_site_fract_x
 _atom_site_fract_y
 _atom_site_fract_z
 _atom_site_occupancy
  Rb  Rb0  1  0.561591  0.938409  0.938409  1
  Rb  Rb1  1  0.938409  0.561591  0.561591  1
  Rb  Rb2  1  0.311591  0.688409  0.688409  1
  Rb  Rb3  1  0.109074  0.109074  0.890926  1
  Rb  Rb4  1  0.140926  0.140926  0.359074  1
  Rb  Rb5  1  0.359074  0.359074  0.140926  1
  Rb  Rb6  1  0.688409  0.311591  0.311591  1
  Rb  Rb7  1  0.890926  0.890926  0.109074  1
  Nd  Nd8  1  0.340574  0.340574  0.659426  1
  Nd  Nd9  1  0.909426  0.909426  0.590574  1
  Nd  Nd10  1  0.659426  0.659426  0.340574  1
  Nd  Nd11  1  0.590574  0.590574  0.909426  1
  Tc  Tc12  1  0.503810  0.996190  0.503810  1
  Tc  Tc13  1  0.996190  0.503810  0.996190  1
  Tc  Tc14  1  0.746190  0.253810  0.746190  1
  Tc  Tc15  1  0.253810  0.746190  0.253810  1
  N  N16  1  0.012698  0.648330  0.812295  1
  N  N17  1  0.693244  0.299926  0.969271  1
  N  N18  1  0.648330  0.012698  0.526676  1
  N  N19  1  0.526676  0.812295  0.648330  1
  N  N20  1  0.237302  0.601670  0.437705  1
  N  N21  1  0.723324  0.437705  0.601670  1
  N  N22  1  0.969271  0.037560  0.693244  1
  N  N23  1  0.556756  0.950074  0.280729  1
  N  N24  1  0.437705  0.723324  0.237302  1
  N  N25  1  0.950074  0.556756  0.212440  1
  N  N26  1  0.299926  0.693244  0.037560  1
  N  N27  1  0.812295  0.526676  0.012698  1
  N  N28  1  0.212440  0.280729  0.950074  1
  N  N29  1  0.601670  0.237302  0.723324  1
  N  N30  1  0.280729  0.212440  0.556756  1
  N  N31  1  0.037560  0.969271  0.299926  1
