# generated using pymatgen
data_La2Pr14Cd4CoPd3
_symmetry_space_group_name_H-M   'P 1'
_cell_length_a   10.07151110
_cell_length_b   10.07151162
_cell_length_c   10.09731451
_cell_angle_alpha   59.82191947
_cell_angle_beta   59.82192438
_cell_angle_gamma   59.88464290
_symmetry_Int_Tables_number   1
_chemical_formula_structural   La2Pr14Cd4CoPd3
_chemical_formula_sum   'La2 Pr14 Cd4 Co1 Pd3'
_cell_volume   721.65221208
_cell_formula_units_Z   1
loop_
 _symmetry_equiv_pos_site_id
 _symmetry_equiv_pos_as_xyz
  1  'x, y, z'
loop_
 _atom_site_type_symbol
 _atom_site_label
 _atom_site_symmetry_multiplicity
 _atom_site_fract_x
 _atom_site_fract_y
 _atom_site_fract_z
 _atom_site_occupancy
  La  La0  1  0.351344  0.351344  0.351946  1
  La  La1  1  0.341167  0.341167  0.956250  1
  Pr  Pr2  1  0.344634  0.950135  0.346131  1
  Pr  Pr3  1  0.950135  0.344634  0.346131  1
  Pr  Pr4  1  0.821959  0.189461  0.188926  1
  Pr  Pr5  1  0.191175  0.808159  0.807911  1
  Pr  Pr6  1  0.189461  0.821959  0.188926  1
  Pr  Pr7  1  0.808159  0.191175  0.807911  1
  Pr  Pr8  1  0.189645  0.189645  0.820069  1
  Pr  Pr9  1  0.808036  0.808036  0.190184  1
  Pr  Pr10  1  0.937144  0.563615  0.563069  1
  Pr  Pr11  1  0.562670  0.934878  0.934666  1
  Pr  Pr12  1  0.563615  0.937144  0.563069  1
  Pr  Pr13  1  0.934878  0.562670  0.934666  1
  Pr  Pr14  1  0.563301  0.563301  0.936523  1
  Pr  Pr15  1  0.934618  0.934618  0.562876  1
  Cd  Cd16  1  0.579832  0.579832  0.579501  1
  Cd  Cd17  1  0.581650  0.581650  0.259078  1
  Cd  Cd18  1  0.581947  0.259041  0.580706  1
  Cd  Cd19  1  0.259041  0.581947  0.580706  1
  Co  Co20  1  0.145066  0.145066  0.140237  1
  Pd  Pd21  1  0.144945  0.144945  0.570443  1
  Pd  Pd22  1  0.144994  0.570583  0.145037  1
  Pd  Pd23  1  0.570583  0.144994  0.145037  1
