# generated using pymatgen
data_Y8In2HgPd
_symmetry_space_group_name_H-M   'P 1'
_cell_length_a   10.50507700
_cell_length_b   10.47337635
_cell_length_c   7.05636516
_cell_angle_alpha   89.92109553
_cell_angle_beta   90.00000000
_cell_angle_gamma   120.10022324
_symmetry_Int_Tables_number   1
_chemical_formula_structural   Y8In2HgPd
_chemical_formula_sum   'Y16 In4 Hg2 Pd2'
_cell_volume   671.67253658
_cell_formula_units_Z   2
loop_
 _symmetry_equiv_pos_site_id
 _symmetry_equiv_pos_as_xyz
  1  'x, y, z'
loop_
 _atom_site_type_symbol
 _atom_site_label
 _atom_site_symmetry_multiplicity
 _atom_site_fract_x
 _atom_site_fract_y
 _atom_site_fract_z
 _atom_site_occupancy
  Y  Y0  1  0.473918  0.534686  0.476164  1
  Y  Y1  1  0.060768  0.534686  0.476164  1
  Y  Y2  1  0.467681  0.935361  0.476059  1
  Y  Y3  1  0.528948  0.467257  0.979352  1
  Y  Y4  1  0.938309  0.467257  0.979352  1
  Y  Y5  1  0.531857  0.063716  0.975652  1
  Y  Y6  1  0.823728  0.166213  0.270980  1
  Y  Y7  1  0.342486  0.166213  0.270979  1
  Y  Y8  1  0.830309  0.660617  0.266615  1
  Y  Y9  1  0.173830  0.825063  0.784596  1
  Y  Y10  1  0.651233  0.825063  0.784595  1
  Y  Y11  1  0.175182  0.350365  0.769395  1
  Y  Y12  1  0.335286  0.670573  0.108998  1
  Y  Y13  1  0.667094  0.334188  0.605866  1
  Y  Y14  1  0.999464  0.998928  0.499348  1
  Y  Y15  1  0.001204  0.002407  0.995432  1
  In  In16  1  0.164225  0.328450  0.236549  1
  In  In17  1  0.836823  0.163637  0.735841  1
  In  In18  1  0.326814  0.163637  0.735841  1
  In  In19  1  0.836537  0.673073  0.736185  1
  Hg  Hg20  1  0.164267  0.833606  0.229248  1
  Hg  Hg21  1  0.669339  0.833606  0.229248  1
  Pd  Pd22  1  0.333759  0.667518  0.710745  1
  Pd  Pd23  1  0.666939  0.333880  0.211349  1
