# generated using pymatgen
data_ErTm(Fe5P3)2
_symmetry_space_group_name_H-M   'P 1'
_cell_length_a   3.64127100
_cell_length_b   10.26902200
_cell_length_c   11.79041400
_cell_angle_alpha   90.00000000
_cell_angle_beta   90.00000000
_cell_angle_gamma   90.00000000
_symmetry_Int_Tables_number   1
_chemical_formula_structural   ErTm(Fe5P3)2
_chemical_formula_sum   'Er2 Tm2 Fe20 P12'
_cell_volume   440.87060317
_cell_formula_units_Z   2
loop_
 _symmetry_equiv_pos_site_id
 _symmetry_equiv_pos_as_xyz
  1  'x, y, z'
loop_
 _atom_site_type_symbol
 _atom_site_label
 _atom_site_symmetry_multiplicity
 _atom_site_fract_x
 _atom_site_fract_y
 _atom_site_fract_z
 _atom_site_occupancy
  Er  Er0  1  0.250000  0.580639  0.704576  1
  Er  Er1  1  0.250000  0.919361  0.204576  1
  Tm  Tm2  1  0.750000  0.419474  0.295470  1
  Tm  Tm3  1  0.750000  0.080526  0.795470  1
  Fe  Fe4  1  0.250000  0.708147  0.988544  1
  Fe  Fe5  1  0.250000  0.791853  0.488544  1
  Fe  Fe6  1  0.750000  0.291866  0.011361  1
  Fe  Fe7  1  0.750000  0.208134  0.511361  1
  Fe  Fe8  1  0.250000  0.405467  0.489706  1
  Fe  Fe9  1  0.250000  0.094533  0.989706  1
  Fe  Fe10  1  0.750000  0.594454  0.509905  1
  Fe  Fe11  1  0.750000  0.905546  0.009905  1
  Fe  Fe12  1  0.250000  0.219414  0.176637  1
  Fe  Fe13  1  0.250000  0.280586  0.676637  1
  Fe  Fe14  1  0.750000  0.780902  0.823355  1
  Fe  Fe15  1  0.750000  0.719098  0.323355  1
  Fe  Fe16  1  0.250000  0.876313  0.701394  1
  Fe  Fe17  1  0.250000  0.623687  0.201394  1
  Fe  Fe18  1  0.750000  0.124232  0.298780  1
  Fe  Fe19  1  0.750000  0.375768  0.798780  1
  Fe  Fe20  1  0.250000  0.462943  0.932482  1
  Fe  Fe21  1  0.250000  0.037057  0.432482  1
  Fe  Fe22  1  0.750000  0.536586  0.067807  1
  Fe  Fe23  1  0.750000  0.963414  0.567807  1
  P  P24  1  0.250000  0.421605  0.113282  1
  P  P25  1  0.250000  0.078395  0.613282  1
  P  P26  1  0.750000  0.578399  0.887196  1
  P  P27  1  0.750000  0.921601  0.387196  1
  P  P28  1  0.250000  0.265095  0.871415  1
  P  P29  1  0.250000  0.234905  0.371415  1
  P  P30  1  0.750000  0.734443  0.128328  1
  P  P31  1  0.750000  0.765557  0.628328  1
  P  P32  1  0.250000  0.600138  0.395846  1
  P  P33  1  0.250000  0.899862  0.895846  1
  P  P34  1  0.750000  0.399408  0.603915  1
  P  P35  1  0.750000  0.100592  0.103915  1
