# generated using pymatgen
data_TbTm3(NiB4)4
_symmetry_space_group_name_H-M   'P 1'
_cell_length_a   6.79796179
_cell_length_b   6.79796123
_cell_length_c   6.79796167
_cell_angle_alpha   112.98088392
_cell_angle_beta   112.98088032
_cell_angle_gamma   102.65923944
_symmetry_Int_Tables_number   1
_chemical_formula_structural   TbTm3(NiB4)4
_chemical_formula_sum   'Tb1 Tm3 Ni4 B16'
_cell_volume   239.31075101
_cell_formula_units_Z   1
loop_
 _symmetry_equiv_pos_site_id
 _symmetry_equiv_pos_as_xyz
  1  'x, y, z'
loop_
 _atom_site_type_symbol
 _atom_site_label
 _atom_site_symmetry_multiplicity
 _atom_site_fract_x
 _atom_site_fract_y
 _atom_site_fract_z
 _atom_site_occupancy
  Tb  Tb0  1  0.250000  0.750000  0.500000  1
  Tm  Tm1  1  0.203535  0.203535  0.000000  1
  Tm  Tm2  1  0.796465  0.796465  0.000000  1
  Tm  Tm3  1  0.750000  0.250000  0.500000  1
  Ni  Ni4  1  0.499954  0.271448  0.771493  1
  Ni  Ni5  1  0.499954  0.728461  0.228507  1
  Ni  Ni6  1  0.728552  0.500046  0.228507  1
  Ni  Ni7  1  0.271539  0.500046  0.771493  1
  B  B8  1  0.111981  0.275901  0.386989  1
  B  B9  1  0.888912  0.724992  0.613011  1
  B  B10  1  0.888912  0.275901  0.163921  1
  B  B11  1  0.111981  0.724992  0.836079  1
  B  B12  1  0.724099  0.888019  0.613011  1
  B  B13  1  0.275008  0.111088  0.386989  1
  B  B14  1  0.724099  0.111088  0.836079  1
  B  B15  1  0.275008  0.888019  0.163921  1
  B  B16  1  0.420892  0.418809  0.533543  1
  B  B17  1  0.885267  0.887350  0.466457  1
  B  B18  1  0.581191  0.114733  0.002083  1
  B  B19  1  0.112650  0.579108  0.997917  1
  B  B20  1  0.581191  0.579108  0.466457  1
  B  B21  1  0.112650  0.114733  0.533543  1
  B  B22  1  0.885267  0.418809  0.997917  1
  B  B23  1  0.420892  0.887350  0.002083  1
