# generated using pymatgen
data_Tm8V12Si15Ge
_symmetry_space_group_name_H-M   'P 1'
_cell_length_a   6.63325765
_cell_length_b   6.80977905
_cell_length_c   12.83085402
_cell_angle_alpha   90.04062610
_cell_angle_beta   90.05139959
_cell_angle_gamma   89.97861659
_symmetry_Int_Tables_number   1
_chemical_formula_structural   Tm8V12Si15Ge
_chemical_formula_sum   'Tm8 V12 Si15 Ge1'
_cell_volume   579.58233093
_cell_formula_units_Z   1
loop_
 _symmetry_equiv_pos_site_id
 _symmetry_equiv_pos_as_xyz
  1  'x, y, z'
loop_
 _atom_site_type_symbol
 _atom_site_label
 _atom_site_symmetry_multiplicity
 _atom_site_fract_x
 _atom_site_fract_y
 _atom_site_fract_z
 _atom_site_occupancy
  Tm  Tm0  1  0.001268  0.169300  0.095016  1
  Tm  Tm1  1  0.500242  0.329903  0.403540  1
  Tm  Tm2  1  0.498853  0.668771  0.905164  1
  Tm  Tm3  1  0.998896  0.831482  0.595473  1
  Tm  Tm4  1  0.999141  0.831017  0.905263  1
  Tm  Tm5  1  0.495646  0.670821  0.596065  1
  Tm  Tm6  1  0.501260  0.331262  0.095319  1
  Tm  Tm7  1  0.002045  0.168542  0.404075  1
  V  V8  1  0.666115  0.986727  0.249857  1
  V  V9  1  0.165623  0.513648  0.249755  1
  V  V10  1  0.834396  0.485927  0.752725  1
  V  V11  1  0.334711  0.013394  0.749894  1
  V  V12  1  0.837681  0.672672  0.126166  1
  V  V13  1  0.338033  0.828361  0.373036  1
  V  V14  1  0.662984  0.172672  0.873927  1
  V  V15  1  0.164944  0.326851  0.626953  1
  V  V16  1  0.162012  0.327529  0.873868  1
  V  V17  1  0.658826  0.167645  0.627880  1
  V  V18  1  0.338448  0.827370  0.126028  1
  V  V19  1  0.839141  0.675344  0.371679  1
  Si  Si20  1  0.804281  0.380056  0.249650  1
  Si  Si21  1  0.304198  0.120040  0.249293  1
  Si  Si22  1  0.696677  0.878155  0.750850  1
  Si  Si23  1  0.195240  0.620151  0.750374  1
  Si  Si24  1  0.041277  0.867420  0.248872  1
  Si  Si25  1  0.540389  0.633358  0.249715  1
  Si  Si26  1  0.460016  0.367041  0.750614  1
  Si  Si27  1  0.959944  0.132958  0.750076  1
  Si  Si28  1  0.838714  0.457581  0.956845  1
  Si  Si29  1  0.337851  0.043215  0.542955  1
  Si  Si30  1  0.661646  0.957624  0.043620  1
  Si  Si31  1  0.164662  0.544107  0.455140  1
  Si  Si32  1  0.161345  0.542714  0.043846  1
  Si  Si33  1  0.661640  0.956737  0.456473  1
  Si  Si34  1  0.338906  0.042928  0.956295  1
  Ge  Ge35  1  0.832945  0.456673  0.543703  1
