# generated using pymatgen
data_Li2Nd18Si15Tc
_symmetry_space_group_name_H-M   'P 1'
_cell_length_a   7.51008700
_cell_length_b   8.00057181
_cell_length_c   15.14708600
_cell_angle_alpha   90.00000000
_cell_angle_beta   90.00000000
_cell_angle_gamma   89.87248293
_symmetry_Int_Tables_number   1
_chemical_formula_structural   Li2Nd18Si15Tc
_chemical_formula_sum   'Li2 Nd18 Si15 Tc1'
_cell_volume   910.11026253
_cell_formula_units_Z   1
loop_
 _symmetry_equiv_pos_site_id
 _symmetry_equiv_pos_as_xyz
  1  'x, y, z'
loop_
 _atom_site_type_symbol
 _atom_site_label
 _atom_site_symmetry_multiplicity
 _atom_site_fract_x
 _atom_site_fract_y
 _atom_site_fract_z
 _atom_site_occupancy
  Li  Li0  1  0.149968  0.528380  0.750000  1
  Li  Li1  1  0.651039  0.974809  0.750000  1
  Nd  Nd2  1  0.817685  0.321915  0.628578  1
  Nd  Nd3  1  0.460102  0.694720  0.894265  1
  Nd  Nd4  1  0.961286  0.807482  0.895505  1
  Nd  Nd5  1  0.198130  0.676586  0.126065  1
  Nd  Nd6  1  0.680758  0.813904  0.121558  1
  Nd  Nd7  1  0.316886  0.182339  0.870596  1
  Nd  Nd8  1  0.198130  0.676586  0.373935  1
  Nd  Nd9  1  0.028841  0.182932  0.095031  1
  Nd  Nd10  1  0.316886  0.182339  0.629404  1
  Nd  Nd11  1  0.840481  0.488951  0.250000  1
  Nd  Nd12  1  0.360485  0.018338  0.250000  1
  Nd  Nd13  1  0.526084  0.320743  0.406792  1
  Nd  Nd14  1  0.817685  0.321915  0.871422  1
  Nd  Nd15  1  0.961286  0.807482  0.604495  1
  Nd  Nd16  1  0.460102  0.694720  0.605735  1
  Nd  Nd17  1  0.028841  0.182932  0.404969  1
  Nd  Nd18  1  0.680758  0.813904  0.378442  1
  Nd  Nd19  1  0.526084  0.320743  0.093208  1
  Si  Si20  1  0.240900  0.371116  0.250000  1
  Si  Si21  1  0.867408  0.522602  0.462381  1
  Si  Si22  1  0.513743  0.423365  0.750000  1
  Si  Si23  1  0.643926  0.031135  0.959755  1
  Si  Si24  1  0.011000  0.076840  0.750000  1
  Si  Si25  1  0.749731  0.628354  0.750000  1
  Si  Si26  1  0.752822  0.120106  0.250000  1
  Si  Si27  1  0.358720  0.976994  0.464221  1
  Si  Si28  1  0.980239  0.900389  0.250000  1
  Si  Si29  1  0.358720  0.976994  0.035779  1
  Si  Si30  1  0.643926  0.031135  0.540245  1
  Si  Si31  1  0.148138  0.470360  0.962135  1
  Si  Si32  1  0.148138  0.470360  0.537865  1
  Si  Si33  1  0.867408  0.522602  0.037619  1
  Si  Si34  1  0.247761  0.874878  0.750000  1
  Tc  Tc35  1  0.485906  0.591050  0.250000  1
