# generated using pymatgen
data_TbDy(BeSi)2
_symmetry_space_group_name_H-M   'P 1'
_cell_length_a   3.87432600
_cell_length_b   3.87432623
_cell_length_c   8.08055800
_cell_angle_alpha   90.00000000
_cell_angle_beta   90.00000000
_cell_angle_gamma   119.99999807
_symmetry_Int_Tables_number   1
_chemical_formula_structural   TbDy(BeSi)2
_chemical_formula_sum   'Tb1 Dy1 Be2 Si2'
_cell_volume   105.04232831
_cell_formula_units_Z   1
loop_
 _symmetry_equiv_pos_site_id
 _symmetry_equiv_pos_as_xyz
  1  'x, y, z'
loop_
 _atom_site_type_symbol
 _atom_site_label
 _atom_site_symmetry_multiplicity
 _atom_site_fract_x
 _atom_site_fract_y
 _atom_site_fract_z
 _atom_site_occupancy
  Tb  Tb0  1  0.000000  0.000000  0.500000  1
  Dy  Dy1  1  0.000000  0.000000  0.000000  1
  Be  Be2  1  0.333333  0.666667  0.249114  1
  Be  Be3  1  0.666667  0.333333  0.750886  1
  Si  Si4  1  0.666667  0.333333  0.248732  1
  Si  Si5  1  0.333333  0.666667  0.751268  1
