# generated using pymatgen
data_Y5Tm5(IrOs)2
_symmetry_space_group_name_H-M   'P 1'
_cell_length_a   6.39084251
_cell_length_b   7.31324276
_cell_length_c   8.41908033
_cell_angle_alpha   96.82631743
_cell_angle_beta   112.61124800
_cell_angle_gamma   90.12618944
_symmetry_Int_Tables_number   1
_chemical_formula_structural   Y5Tm5(IrOs)2
_chemical_formula_sum   'Y5 Tm5 Ir2 Os2'
_cell_volume   360.17562580
_cell_formula_units_Z   1
loop_
 _symmetry_equiv_pos_site_id
 _symmetry_equiv_pos_as_xyz
  1  'x, y, z'
loop_
 _atom_site_type_symbol
 _atom_site_label
 _atom_site_symmetry_multiplicity
 _atom_site_fract_x
 _atom_site_fract_y
 _atom_site_fract_z
 _atom_site_occupancy
  Y  Y0  1  0.969689  0.917491  0.181935  1
  Y  Y1  1  0.786036  0.581816  0.818186  1
  Y  Y2  1  0.026470  0.081529  0.814526  1
  Y  Y3  1  0.212759  0.419610  0.186636  1
  Y  Y4  1  0.650889  0.816833  0.440244  1
  Tm  Tm5  1  0.210870  0.681840  0.560596  1
  Tm  Tm6  1  0.352937  0.179360  0.563019  1
  Tm  Tm7  1  0.791423  0.320537  0.437243  1
  Tm  Tm8  1  0.423663  0.749828  0.999328  1
  Tm  Tm9  1  0.576670  0.250043  0.000205  1
  Ir  Ir10  1  0.178070  0.424338  0.776964  1
  Ir  Ir11  1  0.397992  0.077406  0.219648  1
  Os  Os12  1  0.821284  0.573357  0.217660  1
  Os  Os13  1  0.601248  0.926011  0.783811  1
