# generated using pymatgen
data_Rb8Er3Tm3BeBr20
_symmetry_space_group_name_H-M   'P 1'
_cell_length_a   12.27921027
_cell_length_b   12.28086265
_cell_length_c   12.28250914
_cell_angle_alpha   59.99456432
_cell_angle_beta   60.00793847
_cell_angle_gamma   60.02145555
_symmetry_Int_Tables_number   1
_chemical_formula_structural   Rb8Er3Tm3BeBr20
_chemical_formula_sum   'Rb8 Er3 Tm3 Be1 Br20'
_cell_volume   1309.93572060
_cell_formula_units_Z   1
loop_
 _symmetry_equiv_pos_site_id
 _symmetry_equiv_pos_as_xyz
  1  'x, y, z'
loop_
 _atom_site_type_symbol
 _atom_site_label
 _atom_site_symmetry_multiplicity
 _atom_site_fract_x
 _atom_site_fract_y
 _atom_site_fract_z
 _atom_site_occupancy
  Rb  Rb0  1  0.358950  0.358971  0.358959  1
  Rb  Rb1  1  0.641041  0.641050  0.641041  1
  Rb  Rb2  1  0.358934  0.358963  0.923157  1
  Rb  Rb3  1  0.358947  0.923145  0.358947  1
  Rb  Rb4  1  0.641049  0.641048  0.076855  1
  Rb  Rb5  1  0.641045  0.076841  0.641058  1
  Rb  Rb6  1  0.923160  0.358949  0.358939  1
  Rb  Rb7  1  0.076854  0.641049  0.641049  1
  Er  Er8  1  0.846462  0.153544  0.153492  1
  Er  Er9  1  0.153477  0.846515  0.846447  1
  Er  Er10  1  0.153440  0.846574  0.153437  1
  Tm  Tm11  1  0.846551  0.153437  0.846554  1
  Tm  Tm12  1  0.153360  0.153425  0.846585  1
  Tm  Tm13  1  0.846574  0.846640  0.153349  1
  Be  Be14  1  0.999909  0.000091  0.999908  1
  Br  Br15  1  0.329186  0.000292  0.999719  1
  Br  Br16  1  0.671061  0.000003  0.999988  1
  Br  Br17  1  0.999996  0.328923  0.671074  1
  Br  Br18  1  0.999714  0.670828  0.329172  1
  Br  Br19  1  0.000276  0.329184  0.999718  1
  Br  Br20  1  0.670826  0.999728  0.329157  1
  Br  Br21  1  0.999708  0.670832  0.000264  1
  Br  Br22  1  0.329156  0.000289  0.670826  1
  Br  Br23  1  0.999996  0.000009  0.329424  1
  Br  Br24  1  0.999711  0.000280  0.670831  1
  Br  Br25  1  0.670845  0.329157  0.999713  1
  Br  Br26  1  0.329412  0.670589  0.999992  1
  Br  Br27  1  0.681570  0.318449  0.318446  1
  Br  Br28  1  0.318432  0.681550  0.681549  1
  Br  Br29  1  0.318456  0.681563  0.318450  1
  Br  Br30  1  0.681905  0.318080  0.681906  1
  Br  Br31  1  0.318091  0.318095  0.681920  1
  Br  Br32  1  0.681904  0.681908  0.318078  1
  Br  Br33  1  0.249998  0.249996  0.249996  1
  Br  Br34  1  0.750003  0.750004  0.749999  1
