# generated using pymatgen
data_Tb3HoLu16(CoSb2)4
_symmetry_space_group_name_H-M   'P 1'
_cell_length_a   7.71471120
_cell_length_b   8.73900900
_cell_length_c   11.97832232
_cell_angle_alpha   90.00000000
_cell_angle_beta   90.02634836
_cell_angle_gamma   90.00000000
_symmetry_Int_Tables_number   1
_chemical_formula_structural   Tb3HoLu16(CoSb2)4
_chemical_formula_sum   'Tb3 Ho1 Lu16 Co4 Sb8'
_cell_volume   807.56559610
_cell_formula_units_Z   1
loop_
 _symmetry_equiv_pos_site_id
 _symmetry_equiv_pos_as_xyz
  1  'x, y, z'
loop_
 _atom_site_type_symbol
 _atom_site_label
 _atom_site_symmetry_multiplicity
 _atom_site_fract_x
 _atom_site_fract_y
 _atom_site_fract_z
 _atom_site_occupancy
  Tb  Tb0  1  0.122549  0.250000  0.192968  1
  Tb  Tb1  1  0.377467  0.250000  0.692932  1
  Tb  Tb2  1  0.877440  0.750000  0.807014  1
  Ho  Ho3  1  0.622152  0.750000  0.307411  1
  Lu  Lu4  1  0.155222  0.750000  0.203947  1
  Lu  Lu5  1  0.655044  0.250000  0.296151  1
  Lu  Lu6  1  0.844926  0.250000  0.796072  1
  Lu  Lu7  1  0.344886  0.750000  0.703906  1
  Lu  Lu8  1  0.446422  0.750000  0.997602  1
  Lu  Lu9  1  0.946167  0.250000  0.502406  1
  Lu  Lu10  1  0.553665  0.250000  0.002435  1
  Lu  Lu11  1  0.053609  0.750000  0.497545  1
  Lu  Lu12  1  0.823831  0.962344  0.065401  1
  Lu  Lu13  1  0.324189  0.037272  0.434569  1
  Lu  Lu14  1  0.176109  0.462252  0.934633  1
  Lu  Lu15  1  0.676020  0.537943  0.565158  1
  Lu  Lu16  1  0.176109  0.037748  0.934633  1
  Lu  Lu17  1  0.676020  0.962057  0.565158  1
  Lu  Lu18  1  0.823831  0.537656  0.065401  1
  Lu  Lu19  1  0.324189  0.462728  0.434569  1
  Co  Co20  1  0.431423  0.750000  0.491325  1
  Co  Co21  1  0.931159  0.250000  0.008446  1
  Co  Co22  1  0.568819  0.250000  0.508395  1
  Co  Co23  1  0.068780  0.750000  0.991569  1
  Sb  Sb24  1  0.930653  0.991198  0.329187  1
  Sb  Sb25  1  0.431500  0.008103  0.170944  1
  Sb  Sb26  1  0.068890  0.491508  0.670807  1
  Sb  Sb27  1  0.568945  0.508471  0.829239  1
  Sb  Sb28  1  0.068890  0.008492  0.670807  1
  Sb  Sb29  1  0.568945  0.991529  0.829239  1
  Sb  Sb30  1  0.930653  0.508802  0.329187  1
  Sb  Sb31  1  0.431500  0.491897  0.170944  1
