# generated using pymatgen
data_Ce3SmGd6(Al2Ru3)2
_symmetry_space_group_name_H-M   'P 1'
_cell_length_a   8.44261163
_cell_length_b   8.44440004
_cell_length_c   8.45585900
_cell_angle_alpha   110.17255018
_cell_angle_beta   110.23189614
_cell_angle_gamma   110.06025165
_symmetry_Int_Tables_number   1
_chemical_formula_structural   Ce3SmGd6(Al2Ru3)2
_chemical_formula_sum   'Ce3 Sm1 Gd6 Al4 Ru6'
_cell_volume   451.93905194
_cell_formula_units_Z   1
loop_
 _symmetry_equiv_pos_site_id
 _symmetry_equiv_pos_as_xyz
  1  'x, y, z'
loop_
 _atom_site_type_symbol
 _atom_site_label
 _atom_site_symmetry_multiplicity
 _atom_site_fract_x
 _atom_site_fract_y
 _atom_site_fract_z
 _atom_site_occupancy
  Ce  Ce0  1  0.253735  0.200937  0.944566  1
  Ce  Ce1  1  0.943839  0.253796  0.200353  1
  Ce  Ce2  1  0.200697  0.944185  0.254369  1
  Sm  Sm3  1  0.505980  0.994163  0.723674  1
  Gd  Gd4  1  0.781242  0.780566  0.780851  1
  Gd  Gd5  1  0.311939  0.564909  0.753660  1
  Gd  Gd6  1  0.753505  0.312330  0.565261  1
  Gd  Gd7  1  0.565015  0.753052  0.311303  1
  Gd  Gd8  1  0.722005  0.507671  0.994378  1
  Gd  Gd9  1  0.992730  0.720968  0.505843  1
  Al  Al10  1  0.411006  0.410830  0.409798  1
  Al  Al11  1  0.092025  0.496389  0.003002  1
  Al  Al12  1  0.003785  0.092058  0.496247  1
  Al  Al13  1  0.496715  0.003547  0.094432  1
  Ru  Ru14  1  0.906901  0.120091  0.752712  1
  Ru  Ru15  1  0.753145  0.904324  0.119987  1
  Ru  Ru16  1  0.120378  0.753263  0.905610  1
  Ru  Ru17  1  0.223034  0.594325  0.365242  1
  Ru  Ru18  1  0.366716  0.226009  0.594854  1
  Ru  Ru19  1  0.595607  0.366587  0.223858  1
