# generated using pymatgen
data_Lu20Ir11Rh
_symmetry_space_group_name_H-M   'P 1'
_cell_length_a   10.64642300
_cell_length_b   10.64642300
_cell_length_c   6.28628600
_cell_angle_alpha   90.00000000
_cell_angle_beta   90.00000000
_cell_angle_gamma   90.00000000
_symmetry_Int_Tables_number   1
_chemical_formula_structural   Lu20Ir11Rh
_chemical_formula_sum   'Lu20 Ir11 Rh1'
_cell_volume   712.52740151
_cell_formula_units_Z   1
loop_
 _symmetry_equiv_pos_site_id
 _symmetry_equiv_pos_as_xyz
  1  'x, y, z'
loop_
 _atom_site_type_symbol
 _atom_site_label
 _atom_site_symmetry_multiplicity
 _atom_site_fract_x
 _atom_site_fract_y
 _atom_site_fract_z
 _atom_site_occupancy
  Lu  Lu0  1  0.291980  0.088751  0.383904  1
  Lu  Lu1  1  0.291261  0.910812  0.881495  1
  Lu  Lu2  1  0.708739  0.089188  0.881495  1
  Lu  Lu3  1  0.708020  0.911249  0.383904  1
  Lu  Lu4  1  0.589188  0.791261  0.881495  1
  Lu  Lu5  1  0.588751  0.208020  0.383904  1
  Lu  Lu6  1  0.411249  0.791980  0.383904  1
  Lu  Lu7  1  0.410812  0.208739  0.881495  1
  Lu  Lu8  1  0.208078  0.411119  0.617268  1
  Lu  Lu9  1  0.208148  0.589423  0.117585  1
  Lu  Lu10  1  0.791852  0.410577  0.117585  1
  Lu  Lu11  1  0.791922  0.588881  0.617268  1
  Lu  Lu12  1  0.910577  0.708148  0.117585  1
  Lu  Lu13  1  0.911119  0.291922  0.617268  1
  Lu  Lu14  1  0.088881  0.708078  0.617268  1
  Lu  Lu15  1  0.089423  0.291852  0.117585  1
  Lu  Lu16  1  0.000000  0.000000  0.500477  1
  Lu  Lu17  1  0.000000  0.000000  0.000491  1
  Lu  Lu18  1  0.500000  0.500000  0.000491  1
  Lu  Lu19  1  0.500000  0.500000  0.500477  1
  Ir  Ir20  1  0.846093  0.152367  0.250264  1
  Ir  Ir21  1  0.846948  0.847004  0.750069  1
  Ir  Ir22  1  0.153052  0.152996  0.750069  1
  Ir  Ir23  1  0.153907  0.847633  0.250264  1
  Ir  Ir24  1  0.652996  0.346948  0.750069  1
  Ir  Ir25  1  0.652367  0.653907  0.250264  1
  Ir  Ir26  1  0.347633  0.346093  0.250264  1
  Ir  Ir27  1  0.347004  0.653052  0.750069  1
  Ir  Ir28  1  0.500000  0.000000  0.628141  1
  Ir  Ir29  1  0.000000  0.500000  0.871643  1
  Ir  Ir30  1  0.000000  0.500000  0.371158  1
  Rh  Rh31  1  0.500000  0.000000  0.124785  1
