# generated using pymatgen
data_KSrCr2F9
_symmetry_space_group_name_H-M   'P 1'
_cell_length_a   7.33460863
_cell_length_b   7.33460758
_cell_length_c   7.87685532
_cell_angle_alpha   87.04197016
_cell_angle_beta   87.04196196
_cell_angle_gamma   117.85532572
_symmetry_Int_Tables_number   1
_chemical_formula_structural   KSrCr2F9
_chemical_formula_sum   'K2 Sr2 Cr4 F18'
_cell_volume   372.77017842
_cell_formula_units_Z   2
loop_
 _symmetry_equiv_pos_site_id
 _symmetry_equiv_pos_as_xyz
  1  'x, y, z'
loop_
 _atom_site_type_symbol
 _atom_site_label
 _atom_site_symmetry_multiplicity
 _atom_site_fract_x
 _atom_site_fract_y
 _atom_site_fract_z
 _atom_site_occupancy
  K  K0  1  0.500000  0.000000  0.000000  1
  K  K1  1  0.000000  0.500000  0.500000  1
  Sr  Sr2  1  0.486540  0.513460  0.750000  1
  Sr  Sr3  1  0.513460  0.486540  0.250000  1
  Cr  Cr4  1  0.000000  0.000000  0.500000  1
  Cr  Cr5  1  0.000000  0.000000  0.000000  1
  Cr  Cr6  1  0.500000  0.000000  0.500000  1
  Cr  Cr7  1  0.000000  0.500000  0.000000  1
  F  F8  1  0.198869  0.900766  0.547690  1
  F  F9  1  0.801131  0.099234  0.452310  1
  F  F10  1  0.099234  0.801131  0.952310  1
  F  F11  1  0.900766  0.198869  0.047690  1
  F  F12  1  0.972824  0.027176  0.750000  1
  F  F13  1  0.027176  0.972824  0.250000  1
  F  F14  1  0.514413  0.864241  0.710852  1
  F  F15  1  0.485587  0.135759  0.289148  1
  F  F16  1  0.135759  0.485587  0.789148  1
  F  F17  1  0.864241  0.514413  0.210852  1
  F  F18  1  0.563752  0.259833  0.597562  1
  F  F19  1  0.436248  0.740167  0.402438  1
  F  F20  1  0.740167  0.436248  0.902438  1
  F  F21  1  0.259833  0.563752  0.097562  1
  F  F22  1  0.714489  0.783215  0.027654  1
  F  F23  1  0.285511  0.216785  0.972346  1
  F  F24  1  0.216785  0.285511  0.472346  1
  F  F25  1  0.783215  0.714489  0.527654  1
