# generated using pymatgen
data_V13Sn3
_symmetry_space_group_name_H-M   'P 1'
_cell_length_a   4.93251300
_cell_length_b   4.90806300
_cell_length_c   9.82146400
_cell_angle_alpha   90.00000000
_cell_angle_beta   90.00000000
_cell_angle_gamma   90.00000000
_symmetry_Int_Tables_number   1
_chemical_formula_structural   V13Sn3
_chemical_formula_sum   'V13 Sn3'
_cell_volume   237.76865240
_cell_formula_units_Z   1
loop_
 _symmetry_equiv_pos_site_id
 _symmetry_equiv_pos_as_xyz
  1  'x, y, z'
loop_
 _atom_site_type_symbol
 _atom_site_label
 _atom_site_symmetry_multiplicity
 _atom_site_fract_x
 _atom_site_fract_y
 _atom_site_fract_z
 _atom_site_occupancy
  V  V0  1  0.500000  0.500000  0.500000  1
  V  V1  1  0.500000  0.000000  0.615871  1
  V  V2  1  0.500000  0.000000  0.128103  1
  V  V3  1  0.738277  0.500000  0.262323  1
  V  V4  1  0.738277  0.500000  0.737677  1
  V  V5  1  0.000000  0.737333  0.500000  1
  V  V6  1  0.000000  0.749956  0.000000  1
  V  V7  1  0.500000  0.000000  0.384129  1
  V  V8  1  0.500000  0.000000  0.871897  1
  V  V9  1  0.261723  0.500000  0.262323  1
  V  V10  1  0.261723  0.500000  0.737677  1
  V  V11  1  0.000000  0.262667  0.500000  1
  V  V12  1  0.000000  0.250044  0.000000  1
  Sn  Sn13  1  0.500000  0.500000  0.000000  1
  Sn  Sn14  1  0.000000  0.000000  0.251148  1
  Sn  Sn15  1  0.000000  0.000000  0.748852  1
