# generated using pymatgen
data_PrNd11(GeI3)4
_symmetry_space_group_name_H-M   'P 1'
_cell_length_a   10.85645667
_cell_length_b   10.85645815
_cell_length_c   10.86823801
_cell_angle_alpha   109.42018235
_cell_angle_beta   109.42018443
_cell_angle_gamma   109.58354555
_symmetry_Int_Tables_number   1
_chemical_formula_structural   PrNd11(GeI3)4
_chemical_formula_sum   'Pr1 Nd11 Ge4 I12'
_cell_volume   985.95633335
_cell_formula_units_Z   1
loop_
 _symmetry_equiv_pos_site_id
 _symmetry_equiv_pos_as_xyz
  1  'x, y, z'
loop_
 _atom_site_type_symbol
 _atom_site_label
 _atom_site_symmetry_multiplicity
 _atom_site_fract_x
 _atom_site_fract_y
 _atom_site_fract_z
 _atom_site_occupancy
  Pr  Pr0  1  0.234723  0.265277  0.750000  1
  Nd  Nd1  1  0.466759  0.483552  0.233695  1
  Nd  Nd2  1  0.749950  0.233298  0.266731  1
  Nd  Nd3  1  0.749342  0.016299  0.482686  1
  Nd  Nd4  1  0.233010  0.466614  0.482499  1
  Nd  Nd5  1  0.266702  0.750050  0.233269  1
  Nd  Nd6  1  0.033386  0.266990  0.017501  1
  Nd  Nd7  1  0.016448  0.033241  0.266305  1
  Nd  Nd8  1  0.483701  0.750658  0.017314  1
  Nd  Nd9  1  0.483107  0.233586  0.466817  1
  Nd  Nd10  1  0.016932  0.483068  0.750000  1
  Nd  Nd11  1  0.266414  0.016893  0.033183  1
  Ge  Ge12  1  0.250004  0.249996  0.250000  1
  Ge  Ge13  1  0.499634  0.000366  0.250000  1
  Ge  Ge14  1  0.999914  0.249801  0.499709  1
  Ge  Ge15  1  0.250199  0.500086  0.000291  1
  I  I16  1  0.250064  0.756755  0.743619  1
  I  I17  1  0.515097  0.509536  0.756006  1
  I  I18  1  0.986563  0.743079  0.993332  1
  I  I19  1  0.743245  0.249936  0.756381  1
  I  I20  1  0.990464  0.984903  0.743994  1
  I  I21  1  0.249497  0.991214  0.504666  1
  I  I22  1  0.756921  0.513437  0.506668  1
  I  I23  1  0.508786  0.250503  0.995334  1
  I  I24  1  0.756667  0.743333  0.250000  1
  I  I25  1  0.742976  0.993546  0.986558  1
  I  I26  1  0.993041  0.506959  0.250000  1
  I  I27  1  0.506454  0.757024  0.513442  1
