# generated using pymatgen
data_Zr6TaCo17P12
_symmetry_space_group_name_H-M   'P 1'
_cell_length_a   3.63268500
_cell_length_b   10.35755800
_cell_length_c   12.01461500
_cell_angle_alpha   90.00000000
_cell_angle_beta   90.00000000
_cell_angle_gamma   90.00000000
_symmetry_Int_Tables_number   1
_chemical_formula_structural   Zr6TaCo17P12
_chemical_formula_sum   'Zr6 Ta1 Co17 P12'
_cell_volume   452.05884727
_cell_formula_units_Z   1
loop_
 _symmetry_equiv_pos_site_id
 _symmetry_equiv_pos_as_xyz
  1  'x, y, z'
loop_
 _atom_site_type_symbol
 _atom_site_label
 _atom_site_symmetry_multiplicity
 _atom_site_fract_x
 _atom_site_fract_y
 _atom_site_fract_z
 _atom_site_occupancy
  Zr  Zr0  1  0.000000  0.500000  0.532469  1
  Zr  Zr1  1  0.500000  0.000000  0.474070  1
  Zr  Zr2  1  0.500000  0.822374  0.208426  1
  Zr  Zr3  1  0.500000  0.177626  0.208426  1
  Zr  Zr4  1  0.000000  0.679276  0.794111  1
  Zr  Zr5  1  0.000000  0.320724  0.794111  1
  Ta  Ta6  1  0.500000  0.500000  0.158827  1
  Co  Co7  1  0.000000  0.500000  0.987177  1
  Co  Co8  1  0.500000  0.000000  0.014484  1
  Co  Co9  1  0.500000  0.297942  0.434431  1
  Co  Co10  1  0.500000  0.702058  0.434431  1
  Co  Co11  1  0.000000  0.200196  0.567357  1
  Co  Co12  1  0.000000  0.799804  0.567357  1
  Co  Co13  1  0.500000  0.876554  0.706338  1
  Co  Co14  1  0.500000  0.123446  0.706338  1
  Co  Co15  1  0.000000  0.624568  0.295160  1
  Co  Co16  1  0.000000  0.375432  0.295160  1
  Co  Co17  1  0.500000  0.330106  0.989355  1
  Co  Co18  1  0.500000  0.669894  0.989355  1
  Co  Co19  1  0.000000  0.164352  0.003154  1
  Co  Co20  1  0.000000  0.835648  0.003154  1
  Co  Co21  1  0.000000  0.000000  0.833056  1
  Co  Co22  1  0.500000  0.500000  0.702506  1
  Co  Co23  1  0.000000  0.000000  0.296881  1
  P  P24  1  0.500000  0.315226  0.618814  1
  P  P25  1  0.500000  0.684774  0.618814  1
  P  P26  1  0.000000  0.182251  0.383793  1
  P  P27  1  0.000000  0.817749  0.383793  1
  P  P28  1  0.500000  0.500000  0.878399  1
  P  P29  1  0.000000  0.000000  0.120314  1
  P  P30  1  0.500000  0.849731  0.886747  1
  P  P31  1  0.500000  0.150269  0.886747  1
  P  P32  1  0.000000  0.665203  0.107347  1
  P  P33  1  0.000000  0.334797  0.107347  1
  P  P34  1  0.500000  0.500000  0.364011  1
  P  P35  1  0.000000  0.000000  0.647744  1
