# generated using pymatgen
data_Tb5TmAl19Si5Ru8
_symmetry_space_group_name_H-M   'P 1'
_cell_length_a   8.68144407
_cell_length_b   8.68251125
_cell_length_c   9.59771800
_cell_angle_alpha   90.00000000
_cell_angle_beta   90.00000000
_cell_angle_gamma   119.88219786
_symmetry_Int_Tables_number   1
_chemical_formula_structural   Tb5TmAl19Si5Ru8
_chemical_formula_sum   'Tb5 Tm1 Al19 Si5 Ru8'
_cell_volume   627.26383764
_cell_formula_units_Z   1
loop_
 _symmetry_equiv_pos_site_id
 _symmetry_equiv_pos_as_xyz
  1  'x, y, z'
loop_
 _atom_site_type_symbol
 _atom_site_label
 _atom_site_symmetry_multiplicity
 _atom_site_fract_x
 _atom_site_fract_y
 _atom_site_fract_z
 _atom_site_occupancy
  Tb  Tb0  1  0.806409  0.194056  0.750000  1
  Tb  Tb1  1  0.193115  0.806950  0.250000  1
  Tb  Tb2  1  0.390007  0.197655  0.750000  1
  Tb  Tb3  1  0.612383  0.806328  0.250000  1
  Tb  Tb4  1  0.193956  0.388205  0.250000  1
  Tm  Tm5  1  0.800619  0.606681  0.750000  1
  Al  Al6  1  0.834972  0.164878  0.421476  1
  Al  Al7  1  0.164835  0.834554  0.579363  1
  Al  Al8  1  0.330480  0.165386  0.422328  1
  Al  Al9  1  0.164835  0.834554  0.920637  1
  Al  Al10  1  0.670664  0.835752  0.579236  1
  Al  Al11  1  0.834972  0.164878  0.078524  1
  Al  Al12  1  0.834594  0.669611  0.422817  1
  Al  Al13  1  0.670664  0.835752  0.920764  1
  Al  Al14  1  0.164137  0.329784  0.579080  1
  Al  Al15  1  0.330480  0.165386  0.077672  1
  Al  Al16  1  0.164137  0.329784  0.920920  1
  Al  Al17  1  0.834594  0.669611  0.077183  1
  Al  Al18  1  0.562996  0.437222  0.250000  1
  Al  Al19  1  0.126603  0.561098  0.750000  1
  Al  Al20  1  0.872578  0.436977  0.250000  1
  Al  Al21  1  0.438966  0.872347  0.750000  1
  Al  Al22  1  0.563219  0.127550  0.250000  1
  Al  Al23  1  0.999127  0.997791  0.750000  1
  Al  Al24  1  0.999662  0.000405  0.250000  1
  Si  Si25  1  0.667919  0.333367  0.962771  1
  Si  Si26  1  0.332762  0.667718  0.038220  1
  Si  Si27  1  0.332762  0.667718  0.461780  1
  Si  Si28  1  0.667919  0.333367  0.537229  1
  Si  Si29  1  0.437403  0.564144  0.750000  1
  Ru  Ru30  1  0.499736  0.501134  0.993587  1
  Ru  Ru31  1  0.000923  0.500317  0.998989  1
  Ru  Ru32  1  0.499736  0.501134  0.506413  1
  Ru  Ru33  1  0.500089  0.999076  0.999293  1
  Ru  Ru34  1  0.000923  0.500317  0.501011  1
  Ru  Ru35  1  0.500089  0.999076  0.500707  1
  Ru  Ru36  1  0.000370  0.999719  0.999973  1
  Ru  Ru37  1  0.000370  0.999719  0.500027  1
