# generated using pymatgen
data_Lu2Pa(AlCo)3
_symmetry_space_group_name_H-M   'P 1'
_cell_length_a   6.98100614
_cell_length_b   7.17564146
_cell_length_c   3.60729400
_cell_angle_alpha   90.00000000
_cell_angle_beta   90.00000000
_cell_angle_gamma   120.92665004
_symmetry_Int_Tables_number   1
_chemical_formula_structural   Lu2Pa(AlCo)3
_chemical_formula_sum   'Lu2 Pa1 Al3 Co3'
_cell_volume   155.00991194
_cell_formula_units_Z   1
loop_
 _symmetry_equiv_pos_site_id
 _symmetry_equiv_pos_as_xyz
  1  'x, y, z'
loop_
 _atom_site_type_symbol
 _atom_site_label
 _atom_site_symmetry_multiplicity
 _atom_site_fract_x
 _atom_site_fract_y
 _atom_site_fract_z
 _atom_site_occupancy
  Lu  Lu0  1  0.413225  0.414971  0.500000  1
  Lu  Lu1  1  0.586775  0.001745  0.500000  1
  Pa  Pa2  1  0.000000  0.568304  0.500000  1
  Al  Al3  1  0.755790  0.757934  0.000000  1
  Al  Al4  1  0.244210  0.002145  0.000000  1
  Al  Al5  1  0.000000  0.225344  0.000000  1
  Co  Co6  1  0.704991  0.369803  0.000000  1
  Co  Co7  1  0.295009  0.664813  0.000000  1
  Co  Co8  1  0.000000  0.994940  0.500000  1
