# generated using pymatgen
data_Nd4YHo5Pb6
_symmetry_space_group_name_H-M   'P 1'
_cell_length_a   9.16568603
_cell_length_b   9.16568526
_cell_length_c   6.72209500
_cell_angle_alpha   90.00000000
_cell_angle_beta   90.00000000
_cell_angle_gamma   119.55646972
_symmetry_Int_Tables_number   1
_chemical_formula_structural   Nd4YHo5Pb6
_chemical_formula_sum   'Nd4 Y1 Ho5 Pb6'
_cell_volume   491.23453382
_cell_formula_units_Z   1
loop_
 _symmetry_equiv_pos_site_id
 _symmetry_equiv_pos_as_xyz
  1  'x, y, z'
loop_
 _atom_site_type_symbol
 _atom_site_label
 _atom_site_symmetry_multiplicity
 _atom_site_fract_x
 _atom_site_fract_y
 _atom_site_fract_z
 _atom_site_occupancy
  Nd  Nd0  1  0.238852  0.000414  0.750000  1
  Nd  Nd1  1  0.000414  0.238852  0.750000  1
  Nd  Nd2  1  0.761355  0.999299  0.250000  1
  Nd  Nd3  1  0.999299  0.761355  0.250000  1
  Y  Y4  1  0.242422  0.242422  0.250000  1
  Ho  Ho5  1  0.666411  0.333432  0.999898  1
  Ho  Ho6  1  0.333432  0.666411  0.999898  1
  Ho  Ho7  1  0.333432  0.666411  0.500102  1
  Ho  Ho8  1  0.666411  0.333432  0.500102  1
  Ho  Ho9  1  0.758133  0.758133  0.750000  1
  Pb  Pb10  1  0.400955  0.400955  0.750000  1
  Pb  Pb11  1  0.603735  0.997067  0.750000  1
  Pb  Pb12  1  0.997067  0.603735  0.750000  1
  Pb  Pb13  1  0.599634  0.599634  0.250000  1
  Pb  Pb14  1  0.396669  0.001778  0.250000  1
  Pb  Pb15  1  0.001778  0.396669  0.250000  1
