# generated using pymatgen
data_TmLu5Tc2
_symmetry_space_group_name_H-M   'P 1'
_cell_length_a   6.15851700
_cell_length_b   7.32253200
_cell_length_c   8.92033000
_cell_angle_alpha   90.00000000
_cell_angle_beta   90.00000000
_cell_angle_gamma   90.00000000
_symmetry_Int_Tables_number   1
_chemical_formula_structural   TmLu5Tc2
_chemical_formula_sum   'Tm2 Lu10 Tc4'
_cell_volume   402.27064688
_cell_formula_units_Z   2
loop_
 _symmetry_equiv_pos_site_id
 _symmetry_equiv_pos_as_xyz
  1  'x, y, z'
loop_
 _atom_site_type_symbol
 _atom_site_label
 _atom_site_symmetry_multiplicity
 _atom_site_fract_x
 _atom_site_fract_y
 _atom_site_fract_z
 _atom_site_occupancy
  Tm  Tm0  1  0.872088  0.541242  0.250000  1
  Tm  Tm1  1  0.627912  0.041242  0.250000  1
  Lu  Lu2  1  0.340972  0.675378  0.061501  1
  Lu  Lu3  1  0.159028  0.175378  0.438499  1
  Lu  Lu4  1  0.658916  0.324703  0.562306  1
  Lu  Lu5  1  0.841084  0.824703  0.937694  1
  Lu  Lu6  1  0.658916  0.324703  0.937694  1
  Lu  Lu7  1  0.841084  0.824703  0.562306  1
  Lu  Lu8  1  0.340972  0.675378  0.438499  1
  Lu  Lu9  1  0.159028  0.175378  0.061501  1
  Lu  Lu10  1  0.128513  0.458592  0.750000  1
  Lu  Lu11  1  0.371487  0.958592  0.750000  1
  Tc  Tc12  1  0.041690  0.884986  0.250000  1
  Tc  Tc13  1  0.458310  0.384986  0.250000  1
  Tc  Tc14  1  0.959016  0.115016  0.750000  1
  Tc  Tc15  1  0.540984  0.615016  0.750000  1
