# generated using pymatgen
data_Yb4Al3RuO12
_symmetry_space_group_name_H-M   'P 1'
_cell_length_a   5.26576964
_cell_length_b   5.29046114
_cell_length_c   7.46744418
_cell_angle_alpha   89.60410523
_cell_angle_beta   89.78616331
_cell_angle_gamma   89.86924491
_symmetry_Int_Tables_number   1
_chemical_formula_structural   Yb4Al3RuO12
_chemical_formula_sum   'Yb4 Al3 Ru1 O12'
_cell_volume   208.02372629
_cell_formula_units_Z   1
loop_
 _symmetry_equiv_pos_site_id
 _symmetry_equiv_pos_as_xyz
  1  'x, y, z'
loop_
 _atom_site_type_symbol
 _atom_site_label
 _atom_site_symmetry_multiplicity
 _atom_site_fract_x
 _atom_site_fract_y
 _atom_site_fract_z
 _atom_site_occupancy
  Yb  Yb0  1  0.507140  0.536356  0.270603  1
  Yb  Yb1  1  0.998202  0.028390  0.271759  1
  Yb  Yb2  1  0.492860  0.463644  0.729397  1
  Yb  Yb3  1  0.001798  0.971610  0.728241  1
  Al  Al4  1  0.500000  0.000000  0.500000  1
  Al  Al5  1  0.000000  0.500000  0.500000  1
  Al  Al6  1  0.500000  0.000000  0.000000  1
  Ru  Ru7  1  0.000000  0.500000  0.000000  1
  O  O8  1  0.432772  0.984596  0.243557  1
  O  O9  1  0.070825  0.485580  0.248394  1
  O  O10  1  0.567228  0.015404  0.756443  1
  O  O11  1  0.929175  0.514420  0.751606  1
  O  O12  1  0.802368  0.800703  0.037905  1
  O  O13  1  0.731641  0.272569  0.467398  1
  O  O14  1  0.227263  0.231148  0.532760  1
  O  O15  1  0.300634  0.699000  0.961982  1
  O  O16  1  0.197632  0.199297  0.962095  1
  O  O17  1  0.268359  0.727431  0.532602  1
  O  O18  1  0.772737  0.768852  0.467240  1
  O  O19  1  0.699366  0.301000  0.038018  1
