# generated using pymatgen
data_Be2Nb3Ru3Rh2
_symmetry_space_group_name_H-M   'P 1'
_cell_length_a   9.46584922
_cell_length_b   9.41646133
_cell_length_c   3.14806300
_cell_angle_alpha   90.00000000
_cell_angle_beta   90.00000000
_cell_angle_gamma   90.15170176
_symmetry_Int_Tables_number   1
_chemical_formula_structural   Be2Nb3Ru3Rh2
_chemical_formula_sum   'Be4 Nb6 Ru6 Rh4'
_cell_volume   280.60099210
_cell_formula_units_Z   2
loop_
 _symmetry_equiv_pos_site_id
 _symmetry_equiv_pos_as_xyz
  1  'x, y, z'
loop_
 _atom_site_type_symbol
 _atom_site_label
 _atom_site_symmetry_multiplicity
 _atom_site_fract_x
 _atom_site_fract_y
 _atom_site_fract_z
 _atom_site_occupancy
  Be  Be0  1  0.619923  0.879632  0.000000  1
  Be  Be1  1  0.380077  0.120368  0.000000  1
  Be  Be2  1  0.121551  0.618690  0.000000  1
  Be  Be3  1  0.878449  0.381310  0.000000  1
  Nb  Nb4  1  0.826890  0.677981  0.000000  1
  Nb  Nb5  1  0.173110  0.322019  0.000000  1
  Nb  Nb6  1  0.318972  0.825187  0.000000  1
  Nb  Nb7  1  0.681028  0.174813  0.000000  1
  Nb  Nb8  1  0.500000  0.500000  0.000000  1
  Nb  Nb9  1  0.000000  0.000000  0.000000  1
  Ru  Ru10  1  0.070224  0.785766  0.500000  1
  Ru  Ru11  1  0.929776  0.214234  0.500000  1
  Ru  Ru12  1  0.287783  0.568457  0.500000  1
  Ru  Ru13  1  0.712217  0.431543  0.500000  1
  Ru  Ru14  1  0.214048  0.071802  0.500000  1
  Ru  Ru15  1  0.785952  0.928198  0.500000  1
  Rh  Rh16  1  0.569096  0.714272  0.500000  1
  Rh  Rh17  1  0.430904  0.285728  0.500000  1
  Rh  Rh18  1  0.500000  0.000000  0.500000  1
  Rh  Rh19  1  0.000000  0.500000  0.500000  1
