# generated using pymatgen
data_Hf6Ta4ZnCuSn6
_symmetry_space_group_name_H-M   'P 1'
_cell_length_a   8.49360900
_cell_length_b   8.49360947
_cell_length_c   5.69200600
_cell_angle_alpha   90.00000000
_cell_angle_beta   90.00000000
_cell_angle_gamma   119.99999426
_symmetry_Int_Tables_number   1
_chemical_formula_structural   Hf6Ta4ZnCuSn6
_chemical_formula_sum   'Hf6 Ta4 Zn1 Cu1 Sn6'
_cell_volume   355.61539953
_cell_formula_units_Z   1
loop_
 _symmetry_equiv_pos_site_id
 _symmetry_equiv_pos_as_xyz
  1  'x, y, z'
loop_
 _atom_site_type_symbol
 _atom_site_label
 _atom_site_symmetry_multiplicity
 _atom_site_fract_x
 _atom_site_fract_y
 _atom_site_fract_z
 _atom_site_occupancy
  Hf  Hf0  1  0.268877  0.000000  0.252735  1
  Hf  Hf1  1  0.268877  0.268877  0.747265  1
  Hf  Hf2  1  0.000000  0.731123  0.747265  1
  Hf  Hf3  1  0.000000  0.268877  0.252735  1
  Hf  Hf4  1  0.731123  0.731123  0.252735  1
  Hf  Hf5  1  0.731123  0.000000  0.747265  1
  Ta  Ta6  1  0.333333  0.666667  0.000000  1
  Ta  Ta7  1  0.666667  0.333333  0.500000  1
  Ta  Ta8  1  0.666667  0.333333  0.000000  1
  Ta  Ta9  1  0.333333  0.666667  0.500000  1
  Zn  Zn10  1  0.000000  0.000000  0.000000  1
  Cu  Cu11  1  0.000000  0.000000  0.500000  1
  Sn  Sn12  1  0.612431  0.000000  0.249626  1
  Sn  Sn13  1  0.612431  0.612431  0.750374  1
  Sn  Sn14  1  0.000000  0.387569  0.750374  1
  Sn  Sn15  1  0.000000  0.612431  0.249626  1
  Sn  Sn16  1  0.387569  0.387569  0.249626  1
  Sn  Sn17  1  0.387569  0.000000  0.750374  1
