# generated using pymatgen
data_Ho2Al8SiIrRh2
_symmetry_space_group_name_H-M   'P 1'
_cell_length_a   7.51622899
_cell_length_b   7.51623530
_cell_length_c   9.33874505
_cell_angle_alpha   89.99356624
_cell_angle_beta   89.99394162
_cell_angle_gamma   119.51695560
_symmetry_Int_Tables_number   1
_chemical_formula_structural   Ho2Al8SiIrRh2
_chemical_formula_sum   'Ho4 Al16 Si2 Ir2 Rh4'
_cell_volume   459.10594520
_cell_formula_units_Z   2
loop_
 _symmetry_equiv_pos_site_id
 _symmetry_equiv_pos_as_xyz
  1  'x, y, z'
loop_
 _atom_site_type_symbol
 _atom_site_label
 _atom_site_symmetry_multiplicity
 _atom_site_fract_x
 _atom_site_fract_y
 _atom_site_fract_z
 _atom_site_occupancy
  Ho  Ho0  1  0.994959  0.675269  0.250249  1
  Ho  Ho1  1  0.005041  0.324731  0.749751  1
  Ho  Ho2  1  0.675268  0.994957  0.250250  1
  Ho  Ho3  1  0.324732  0.005043  0.749750  1
  Al  Al4  1  0.001209  0.336141  0.076729  1
  Al  Al5  1  0.998791  0.663859  0.923271  1
  Al  Al6  1  0.998452  0.663748  0.576863  1
  Al  Al7  1  0.336252  0.001548  0.423137  1
  Al  Al8  1  0.001548  0.336252  0.423137  1
  Al  Al9  1  0.663748  0.998452  0.576863  1
  Al  Al10  1  0.663859  0.998791  0.923271  1
  Al  Al11  1  0.336141  0.001209  0.076729  1
  Al  Al12  1  0.335346  0.335346  0.557155  1
  Al  Al13  1  0.664654  0.664654  0.442845  1
  Al  Al14  1  0.664499  0.664499  0.057404  1
  Al  Al15  1  0.335501  0.335501  0.942596  1
  Al  Al16  1  0.334903  0.548833  0.249091  1
  Al  Al17  1  0.665097  0.451167  0.750909  1
  Al  Al18  1  0.548833  0.334903  0.249091  1
  Al  Al19  1  0.451167  0.665097  0.750909  1
  Si  Si20  1  0.127791  0.127790  0.250047  1
  Si  Si21  1  0.872209  0.872210  0.749953  1
  Ir  Ir22  1  0.328097  0.671902  0.500000  1
  Ir  Ir23  1  0.671903  0.328098  0.500000  1
  Rh  Rh24  1  0.671928  0.328074  0.000000  1
  Rh  Rh25  1  0.328072  0.671926  0.000000  1
  Rh  Rh26  1  0.000000  0.000000  0.000000  1
  Rh  Rh27  1  0.000000  0.000000  0.500000  1
