# generated using pymatgen
data_TmNp3Ga12Ni
_symmetry_space_group_name_H-M   'P 1'
_cell_length_a   7.48271667
_cell_length_b   7.42027421
_cell_length_c   7.42027500
_cell_angle_alpha   109.30011924
_cell_angle_beta   109.64177500
_cell_angle_gamma   109.64177659
_symmetry_Int_Tables_number   1
_chemical_formula_structural   TmNp3Ga12Ni
_chemical_formula_sum   'Tm1 Np3 Ga12 Ni1'
_cell_volume   316.48923671
_cell_formula_units_Z   1
loop_
 _symmetry_equiv_pos_site_id
 _symmetry_equiv_pos_as_xyz
  1  'x, y, z'
loop_
 _atom_site_type_symbol
 _atom_site_label
 _atom_site_symmetry_multiplicity
 _atom_site_fract_x
 _atom_site_fract_y
 _atom_site_fract_z
 _atom_site_occupancy
  Tm  Tm0  1  0.500000  0.000000  0.000000  1
  Np  Np1  1  0.000000  0.000000  0.500000  1
  Np  Np2  1  0.000000  0.500000  0.000000  1
  Np  Np3  1  0.500000  0.500000  0.500000  1
  Ga  Ga4  1  0.749741  0.249741  0.499482  1
  Ga  Ga5  1  0.749741  0.499482  0.249741  1
  Ga  Ga6  1  0.500000  0.249741  0.750259  1
  Ga  Ga7  1  0.250259  0.500518  0.750259  1
  Ga  Ga8  1  0.250259  0.750259  0.500518  1
  Ga  Ga9  1  0.500000  0.750259  0.249741  1
  Ga  Ga10  1  0.714283  0.713978  0.000000  1
  Ga  Ga11  1  0.285717  0.000000  0.286022  1
  Ga  Ga12  1  0.000304  0.286022  0.286022  1
  Ga  Ga13  1  0.285717  0.286022  0.000000  1
  Ga  Ga14  1  0.714283  0.000000  0.713978  1
  Ga  Ga15  1  0.999696  0.713978  0.713978  1
  Ni  Ni16  1  0.000000  0.000000  0.000000  1
