# generated using pymatgen
data_Tb4Er(SiHg)2
_symmetry_space_group_name_H-M   'P 1'
_cell_length_a   8.83200991
_cell_length_b   8.83201039
_cell_length_c   7.56194600
_cell_angle_alpha   90.00000000
_cell_angle_beta   90.00000000
_cell_angle_gamma   129.61280724
_symmetry_Int_Tables_number   1
_chemical_formula_structural   Tb4Er(SiHg)2
_chemical_formula_sum   'Tb8 Er2 Si4 Hg4'
_cell_volume   454.41480268
_cell_formula_units_Z   2
loop_
 _symmetry_equiv_pos_site_id
 _symmetry_equiv_pos_as_xyz
  1  'x, y, z'
loop_
 _atom_site_type_symbol
 _atom_site_label
 _atom_site_symmetry_multiplicity
 _atom_site_fract_x
 _atom_site_fract_y
 _atom_site_fract_z
 _atom_site_occupancy
  Tb  Tb0  1  0.053517  0.308179  0.324858  1
  Tb  Tb1  1  0.946483  0.691821  0.675142  1
  Tb  Tb2  1  0.446483  0.191821  0.824858  1
  Tb  Tb3  1  0.808179  0.553517  0.175142  1
  Tb  Tb4  1  0.553517  0.808179  0.175142  1
  Tb  Tb5  1  0.191821  0.446483  0.824858  1
  Tb  Tb6  1  0.691821  0.946483  0.675142  1
  Tb  Tb7  1  0.308179  0.053517  0.324858  1
  Er  Er8  1  0.000000  0.000000  0.000000  1
  Er  Er9  1  0.500000  0.500000  0.500000  1
  Si  Si10  1  0.379814  0.379814  0.122662  1
  Si  Si11  1  0.620186  0.620186  0.877338  1
  Si  Si12  1  0.120186  0.120186  0.622662  1
  Si  Si13  1  0.879814  0.879814  0.377338  1
  Hg  Hg14  1  0.783331  0.216669  0.000000  1
  Hg  Hg15  1  0.216670  0.783331  0.000000  1
  Hg  Hg16  1  0.716669  0.283331  0.500000  1
  Hg  Hg17  1  0.283331  0.716669  0.500000  1
