# generated using pymatgen
data_TbYPa2(NiGe)4
_symmetry_space_group_name_H-M   'P 1'
_cell_length_a   4.25684900
_cell_length_b   7.10256031
_cell_length_c   7.15052527
_cell_angle_alpha   89.93097650
_cell_angle_beta   90.00000000
_cell_angle_gamma   90.00000000
_symmetry_Int_Tables_number   1
_chemical_formula_structural   TbYPa2(NiGe)4
_chemical_formula_sum   'Tb1 Y1 Pa2 Ni4 Ge4'
_cell_volume   216.19259087
_cell_formula_units_Z   1
loop_
 _symmetry_equiv_pos_site_id
 _symmetry_equiv_pos_as_xyz
  1  'x, y, z'
loop_
 _atom_site_type_symbol
 _atom_site_label
 _atom_site_symmetry_multiplicity
 _atom_site_fract_x
 _atom_site_fract_y
 _atom_site_fract_z
 _atom_site_occupancy
  Tb  Tb0  1  0.750000  0.996621  0.216313  1
  Y  Y1  1  0.750000  0.496694  0.283661  1
  Pa  Pa2  1  0.250000  0.015436  0.782843  1
  Pa  Pa3  1  0.250000  0.515247  0.716796  1
  Ni  Ni4  1  0.250000  0.764076  0.434604  1
  Ni  Ni5  1  0.250000  0.264472  0.065546  1
  Ni  Ni6  1  0.750000  0.191385  0.589171  1
  Ni  Ni7  1  0.750000  0.690730  0.910959  1
  Ge  Ge8  1  0.250000  0.226745  0.408538  1
  Ge  Ge9  1  0.250000  0.726768  0.091300  1
  Ge  Ge10  1  0.750000  0.805800  0.587623  1
  Ge  Ge11  1  0.750000  0.306025  0.912645  1
