# generated using pymatgen
data_Ca7Tm(Sc3Sn4)4
_symmetry_space_group_name_H-M   'P 1'
_cell_length_a   7.67483603
_cell_length_b   8.09228014
_cell_length_c   15.15057360
_cell_angle_alpha   89.93282226
_cell_angle_beta   89.90597394
_cell_angle_gamma   90.18758410
_symmetry_Int_Tables_number   1
_chemical_formula_structural   Ca7Tm(Sc3Sn4)4
_chemical_formula_sum   'Ca7 Tm1 Sc12 Sn16'
_cell_volume   940.94854767
_cell_formula_units_Z   1
loop_
 _symmetry_equiv_pos_site_id
 _symmetry_equiv_pos_as_xyz
  1  'x, y, z'
loop_
 _atom_site_type_symbol
 _atom_site_label
 _atom_site_symmetry_multiplicity
 _atom_site_fract_x
 _atom_site_fract_y
 _atom_site_fract_z
 _atom_site_occupancy
  Ca  Ca0  1  0.994112  0.177781  0.091579  1
  Ca  Ca1  1  0.006177  0.822540  0.906697  1
  Ca  Ca2  1  0.506370  0.677537  0.907688  1
  Ca  Ca3  1  0.006789  0.822306  0.591842  1
  Ca  Ca4  1  0.494018  0.322320  0.091393  1
  Ca  Ca5  1  0.994289  0.178921  0.409211  1
  Ca  Ca6  1  0.494324  0.321700  0.409022  1
  Tm  Tm7  1  0.504294  0.681645  0.594727  1
  Sc  Sc8  1  0.164869  0.499517  0.749987  1
  Sc  Sc9  1  0.834380  0.500203  0.250128  1
  Sc  Sc10  1  0.335053  0.999327  0.249906  1
  Sc  Sc11  1  0.666101  0.000364  0.749289  1
  Sc  Sc12  1  0.331008  0.158481  0.626472  1
  Sc  Sc13  1  0.667165  0.840553  0.373936  1
  Sc  Sc14  1  0.167910  0.658616  0.374345  1
  Sc  Sc15  1  0.668238  0.841147  0.126061  1
  Sc  Sc16  1  0.832482  0.341263  0.626144  1
  Sc  Sc17  1  0.330823  0.158703  0.872141  1
  Sc  Sc18  1  0.831536  0.340332  0.872729  1
  Sc  Sc19  1  0.168013  0.659152  0.126117  1
  Sn  Sn20  1  0.026126  0.130657  0.749089  1
  Sn  Sn21  1  0.973416  0.869643  0.250402  1
  Sn  Sn22  1  0.472783  0.629143  0.249936  1
  Sn  Sn23  1  0.525731  0.374033  0.748251  1
  Sn  Sn24  1  0.309138  0.852414  0.748324  1
  Sn  Sn25  1  0.696293  0.143254  0.250363  1
  Sn  Sn26  1  0.196052  0.356949  0.250611  1
  Sn  Sn27  1  0.801905  0.644022  0.747346  1
  Sn  Sn28  1  0.177115  0.460535  0.545463  1
  Sn  Sn29  1  0.823408  0.546092  0.458598  1
  Sn  Sn30  1  0.330022  0.952719  0.458638  1
  Sn  Sn31  1  0.829259  0.543397  0.043726  1
  Sn  Sn32  1  0.670973  0.037423  0.545381  1
  Sn  Sn33  1  0.170756  0.457107  0.955476  1
  Sn  Sn34  1  0.669993  0.042877  0.955229  1
  Sn  Sn35  1  0.329081  0.957327  0.043751  1
