# generated using pymatgen
data_Na2La2PrNd3Te8
_symmetry_space_group_name_H-M   'P 1'
_cell_length_a   9.09353092
_cell_length_b   9.18443834
_cell_length_c   9.09353057
_cell_angle_alpha   59.64910829
_cell_angle_beta   59.49601144
_cell_angle_gamma   59.64911134
_symmetry_Int_Tables_number   1
_chemical_formula_structural   Na2La2PrNd3Te8
_chemical_formula_sum   'Na2 La2 Pr1 Nd3 Te8'
_cell_volume   532.12655096
_cell_formula_units_Z   1
loop_
 _symmetry_equiv_pos_site_id
 _symmetry_equiv_pos_as_xyz
  1  'x, y, z'
loop_
 _atom_site_type_symbol
 _atom_site_label
 _atom_site_symmetry_multiplicity
 _atom_site_fract_x
 _atom_site_fract_y
 _atom_site_fract_z
 _atom_site_occupancy
  Na  Na0  1  0.125000  0.125000  0.625000  1
  Na  Na1  1  0.625000  0.125000  0.125000  1
  La  La2  1  0.125000  0.625000  0.125000  1
  La  La3  1  0.125000  0.125000  0.125000  1
  Pr  Pr4  1  0.625000  0.625000  0.625000  1
  Nd  Nd5  1  0.625000  0.125000  0.625000  1
  Nd  Nd6  1  0.125000  0.625000  0.625000  1
  Nd  Nd7  1  0.625000  0.625000  0.125000  1
  Te  Te8  1  0.375476  0.873527  0.375476  1
  Te  Te9  1  0.874524  0.376473  0.874524  1
  Te  Te10  1  0.872659  0.876393  0.376088  1
  Te  Te11  1  0.873718  0.875325  0.873718  1
  Te  Te12  1  0.873912  0.373607  0.377341  1
  Te  Te13  1  0.377341  0.373607  0.873912  1
  Te  Te14  1  0.376282  0.374675  0.376282  1
  Te  Te15  1  0.376088  0.876393  0.872659  1
