# generated using pymatgen
data_U3Ta(P3Rh4)2
_symmetry_space_group_name_H-M   'P 1'
_cell_length_a   3.99812500
_cell_length_b   11.30953500
_cell_length_c   13.03479700
_cell_angle_alpha   90.00000000
_cell_angle_beta   90.00000000
_cell_angle_gamma   90.00000000
_symmetry_Int_Tables_number   1
_chemical_formula_structural   U3Ta(P3Rh4)2
_chemical_formula_sum   'U6 Ta2 P12 Rh16'
_cell_volume   589.39356376
_cell_formula_units_Z   2
loop_
 _symmetry_equiv_pos_site_id
 _symmetry_equiv_pos_as_xyz
  1  'x, y, z'
loop_
 _atom_site_type_symbol
 _atom_site_label
 _atom_site_symmetry_multiplicity
 _atom_site_fract_x
 _atom_site_fract_y
 _atom_site_fract_z
 _atom_site_occupancy
  U  U0  1  0.000000  0.500000  0.524677  1
  U  U1  1  0.500000  0.000000  0.475323  1
  U  U2  1  0.500000  0.822376  0.205067  1
  U  U3  1  0.500000  0.177624  0.205067  1
  U  U4  1  0.000000  0.677624  0.794933  1
  U  U5  1  0.000000  0.322376  0.794933  1
  Ta  Ta6  1  0.500000  0.500000  0.163109  1
  Ta  Ta7  1  0.000000  0.000000  0.836891  1
  P  P8  1  0.500000  0.500000  0.878252  1
  P  P9  1  0.000000  0.000000  0.121748  1
  P  P10  1  0.500000  0.500000  0.356001  1
  P  P11  1  0.000000  0.000000  0.643999  1
  P  P12  1  0.500000  0.311419  0.616183  1
  P  P13  1  0.500000  0.688581  0.616183  1
  P  P14  1  0.000000  0.188581  0.383817  1
  P  P15  1  0.000000  0.811419  0.383817  1
  P  P16  1  0.500000  0.842299  0.886194  1
  P  P17  1  0.500000  0.157701  0.886194  1
  P  P18  1  0.000000  0.657701  0.113806  1
  P  P19  1  0.000000  0.342299  0.113806  1
  Rh  Rh20  1  0.500000  0.500000  0.695386  1
  Rh  Rh21  1  0.000000  0.000000  0.304614  1
  Rh  Rh22  1  0.000000  0.500000  0.994818  1
  Rh  Rh23  1  0.500000  0.000000  0.005182  1
  Rh  Rh24  1  0.500000  0.332943  0.987808  1
  Rh  Rh25  1  0.500000  0.667057  0.987808  1
  Rh  Rh26  1  0.000000  0.167057  0.012192  1
  Rh  Rh27  1  0.000000  0.832943  0.012192  1
  Rh  Rh28  1  0.500000  0.294319  0.433536  1
  Rh  Rh29  1  0.500000  0.705681  0.433536  1
  Rh  Rh30  1  0.000000  0.205681  0.566464  1
  Rh  Rh31  1  0.000000  0.794319  0.566464  1
  Rh  Rh32  1  0.500000  0.875591  0.707219  1
  Rh  Rh33  1  0.500000  0.124409  0.707219  1
  Rh  Rh34  1  0.000000  0.624409  0.292781  1
  Rh  Rh35  1  0.000000  0.375591  0.292781  1
