# generated using pymatgen
data_Sm5Dy3(GeI6)2
_symmetry_space_group_name_H-M   'P 1'
_cell_length_a   4.27606900
_cell_length_b   14.22959236
_cell_length_c   15.02251700
_cell_angle_alpha   89.96062866
_cell_angle_beta   90.00000000
_cell_angle_gamma   90.00000000
_symmetry_Int_Tables_number   1
_chemical_formula_structural   Sm5Dy3(GeI6)2
_chemical_formula_sum   'Sm5 Dy3 Ge2 I12'
_cell_volume   914.07065133
_cell_formula_units_Z   1
loop_
 _symmetry_equiv_pos_site_id
 _symmetry_equiv_pos_as_xyz
  1  'x, y, z'
loop_
 _atom_site_type_symbol
 _atom_site_label
 _atom_site_symmetry_multiplicity
 _atom_site_fract_x
 _atom_site_fract_y
 _atom_site_fract_z
 _atom_site_occupancy
  Sm  Sm0  1  0.500000  0.116379  0.345528  1
  Sm  Sm1  1  0.500000  0.883800  0.654715  1
  Sm  Sm2  1  0.500000  0.614798  0.152606  1
  Sm  Sm3  1  0.000000  0.114002  0.576973  1
  Sm  Sm4  1  0.000000  0.886485  0.423617  1
  Dy  Dy5  1  0.500000  0.385555  0.847646  1
  Dy  Dy6  1  0.000000  0.610358  0.925933  1
  Dy  Dy7  1  0.000000  0.389707  0.074094  1
  Ge  Ge8  1  0.500000  0.000291  0.500248  1
  Ge  Ge9  1  0.500000  0.498918  0.998495  1
  I  I10  1  0.500000  0.248824  0.159245  1
  I  I11  1  0.500000  0.750589  0.839846  1
  I  I12  1  0.500000  0.743161  0.337135  1
  I  I13  1  0.500000  0.257920  0.665004  1
  I  I14  1  0.000000  0.260443  0.415257  1
  I  I15  1  0.000000  0.739588  0.585204  1
  I  I16  1  0.000000  0.758178  0.081503  1
  I  I17  1  0.000000  0.245263  0.914974  1
  I  I18  1  0.000000  0.999206  0.239033  1
  I  I19  1  0.000000  0.000949  0.761303  1
  I  I20  1  0.000000  0.495848  0.257295  1
  I  I21  1  0.000000  0.499736  0.744345  1
