# generated using pymatgen
data_Ac6SnTe7
_symmetry_space_group_name_H-M   'P 1'
_cell_length_a   8.65955010
_cell_length_b   8.65955121
_cell_length_c   8.65955098
_cell_angle_alpha   109.37206205
_cell_angle_beta   109.37205610
_cell_angle_gamma   109.37206813
_symmetry_Int_Tables_number   1
_chemical_formula_structural   Ac6SnTe7
_chemical_formula_sum   'Ac6 Sn1 Te7'
_cell_volume   501.70498414
_cell_formula_units_Z   1
loop_
 _symmetry_equiv_pos_site_id
 _symmetry_equiv_pos_as_xyz
  1  'x, y, z'
loop_
 _atom_site_type_symbol
 _atom_site_label
 _atom_site_symmetry_multiplicity
 _atom_site_fract_x
 _atom_site_fract_y
 _atom_site_fract_z
 _atom_site_occupancy
  Ac  Ac0  1  0.868173  0.115428  0.747430  1
  Ac  Ac1  1  0.383592  0.260218  0.625608  1
  Ac  Ac2  1  0.115428  0.747430  0.868173  1
  Ac  Ac3  1  0.747430  0.868173  0.115428  1
  Ac  Ac4  1  0.260218  0.625608  0.383592  1
  Ac  Ac5  1  0.625608  0.383592  0.260218  1
  Sn  Sn6  1  0.659978  0.659978  0.659978  1
  Te  Te7  1  0.498203  0.997855  0.344267  1
  Te  Te8  1  0.997855  0.344267  0.498203  1
  Te  Te9  1  0.344267  0.498203  0.997855  1
  Te  Te10  1  0.001008  0.847615  0.497535  1
  Te  Te11  1  0.847615  0.497535  0.001008  1
  Te  Te12  1  0.153089  0.153089  0.153089  1
  Te  Te13  1  0.497535  0.001008  0.847615  1
