# generated using pymatgen
data_Tb3Y7B2I15
_symmetry_space_group_name_H-M   'P 1'
_cell_length_a   9.63634915
_cell_length_b   10.38727473
_cell_length_c   11.32132303
_cell_angle_alpha   91.71805558
_cell_angle_beta   114.41484450
_cell_angle_gamma   110.46890294
_symmetry_Int_Tables_number   1
_chemical_formula_structural   Tb3Y7B2I15
_chemical_formula_sum   'Tb3 Y7 B2 I15'
_cell_volume   946.27936943
_cell_formula_units_Z   1
loop_
 _symmetry_equiv_pos_site_id
 _symmetry_equiv_pos_as_xyz
  1  'x, y, z'
loop_
 _atom_site_type_symbol
 _atom_site_label
 _atom_site_symmetry_multiplicity
 _atom_site_fract_x
 _atom_site_fract_y
 _atom_site_fract_z
 _atom_site_occupancy
  Tb  Tb0  1  0.784851  0.393904  0.268101  1
  Tb  Tb1  1  0.214968  0.606117  0.731882  1
  Tb  Tb2  1  0.663598  0.751974  0.825351  1
  Y  Y3  1  0.336999  0.247910  0.174641  1
  Y  Y4  1  0.523137  0.713027  0.086067  1
  Y  Y5  1  0.476793  0.286999  0.913970  1
  Y  Y6  1  0.580392  0.043809  0.309223  1
  Y  Y7  1  0.419480  0.956240  0.690774  1
  Y  Y8  1  0.707546  0.070015  0.045625  1
  Y  Y9  1  0.292299  0.929992  0.954384  1
  B  B10  1  0.468453  0.822772  0.880061  1
  B  B11  1  0.531481  0.177228  0.119939  1
  I  I12  1  0.000195  0.000224  0.000158  1
  I  I13  1  0.638402  0.882762  0.582580  1
  I  I14  1  0.361534  0.117338  0.417278  1
  I  I15  1  0.884870  0.299241  0.531445  1
  I  I16  1  0.115113  0.700774  0.468551  1
  I  I17  1  0.284678  0.760103  0.177776  1
  I  I18  1  0.715278  0.239907  0.822236  1
  I  I19  1  0.055133  0.339987  0.225403  1
  I  I20  1  0.160262  0.056023  0.701741  1
  I  I21  1  0.839707  0.943989  0.298277  1
  I  I22  1  0.228596  0.409759  0.942210  1
  I  I23  1  0.771395  0.590181  0.057897  1
  I  I24  1  0.409506  0.459013  0.659753  1
  I  I25  1  0.590209  0.540747  0.340109  1
  I  I26  1  0.945123  0.659967  0.774569  1
