# generated using pymatgen
data_YbHfI6
_symmetry_space_group_name_H-M   'P 1'
_cell_length_a   8.64913188
_cell_length_b   8.64913328
_cell_length_c   8.64913400
_cell_angle_alpha   52.88946174
_cell_angle_beta   52.88946304
_cell_angle_gamma   52.88945821
_symmetry_Int_Tables_number   1
_chemical_formula_structural   YbHfI6
_chemical_formula_sum   'Yb1 Hf1 I6'
_cell_volume   381.23488390
_cell_formula_units_Z   1
loop_
 _symmetry_equiv_pos_site_id
 _symmetry_equiv_pos_as_xyz
  1  'x, y, z'
loop_
 _atom_site_type_symbol
 _atom_site_label
 _atom_site_symmetry_multiplicity
 _atom_site_fract_x
 _atom_site_fract_y
 _atom_site_fract_z
 _atom_site_occupancy
  Yb  Yb0  1  0.333413  0.333413  0.333413  1
  Hf  Hf1  1  0.666750  0.666750  0.666750  1
  I  I2  1  0.051299  0.451538  0.725998  1
  I  I3  1  0.300076  0.899001  0.571928  1
  I  I4  1  0.451538  0.725998  0.051299  1
  I  I5  1  0.571928  0.300076  0.899001  1
  I  I6  1  0.725998  0.051299  0.451538  1
  I  I7  1  0.899001  0.571928  0.300076  1
