# generated using pymatgen
data_GdTcI18
_symmetry_space_group_name_H-M   'P 1'
_cell_length_a   10.37341946
_cell_length_b   10.37341988
_cell_length_c   10.37342265
_cell_angle_alpha   91.33551100
_cell_angle_beta   91.33550488
_cell_angle_gamma   91.33551357
_symmetry_Int_Tables_number   1
_chemical_formula_structural   GdTcI18
_chemical_formula_sum   'Gd1 Tc1 I18'
_cell_volume   1115.33749302
_cell_formula_units_Z   1
loop_
 _symmetry_equiv_pos_site_id
 _symmetry_equiv_pos_as_xyz
  1  'x, y, z'
loop_
 _atom_site_type_symbol
 _atom_site_label
 _atom_site_symmetry_multiplicity
 _atom_site_fract_x
 _atom_site_fract_y
 _atom_site_fract_z
 _atom_site_occupancy
  Gd  Gd0  1  0.000000  0.000000  0.000000  1
  Tc  Tc1  1  0.500000  0.500000  0.500000  1
  I  I2  1  0.741260  0.139509  0.600340  1
  I  I3  1  0.983409  0.028403  0.705818  1
  I  I4  1  0.600340  0.741260  0.139509  1
  I  I5  1  0.971597  0.294182  0.016591  1
  I  I6  1  0.705818  0.983409  0.028403  1
  I  I7  1  0.028403  0.705818  0.983409  1
  I  I8  1  0.016591  0.971597  0.294182  1
  I  I9  1  0.860491  0.399660  0.258740  1
  I  I10  1  0.294182  0.016591  0.971597  1
  I  I11  1  0.258740  0.860491  0.399660  1
  I  I12  1  0.139509  0.600340  0.741260  1
  I  I13  1  0.399660  0.258740  0.860491  1
  I  I14  1  0.761654  0.529320  0.488048  1
  I  I15  1  0.529320  0.488048  0.761654  1
  I  I16  1  0.238346  0.470680  0.511952  1
  I  I17  1  0.470680  0.511952  0.238346  1
  I  I18  1  0.488048  0.761654  0.529320  1
  I  I19  1  0.511952  0.238346  0.470680  1
