# generated using pymatgen
data_Er6Lu4Si5Pb
_symmetry_space_group_name_H-M   'P 1'
_cell_length_a   8.40871500
_cell_length_b   8.43078617
_cell_length_c   6.26481600
_cell_angle_alpha   90.00000000
_cell_angle_beta   90.00000000
_cell_angle_gamma   119.91344135
_symmetry_Int_Tables_number   1
_chemical_formula_structural   Er6Lu4Si5Pb
_chemical_formula_sum   'Er6 Lu4 Si5 Pb1'
_cell_volume   384.95928615
_cell_formula_units_Z   1
loop_
 _symmetry_equiv_pos_site_id
 _symmetry_equiv_pos_as_xyz
  1  'x, y, z'
loop_
 _atom_site_type_symbol
 _atom_site_label
 _atom_site_symmetry_multiplicity
 _atom_site_fract_x
 _atom_site_fract_y
 _atom_site_fract_z
 _atom_site_occupancy
  Er  Er0  1  0.766759  0.000000  0.750000  1
  Er  Er1  1  0.755906  0.757026  0.250000  1
  Er  Er2  1  0.998879  0.242974  0.250000  1
  Er  Er3  1  0.987463  0.747374  0.750000  1
  Er  Er4  1  0.240090  0.252626  0.750000  1
  Er  Er5  1  0.240172  0.000000  0.250000  1
  Lu  Lu6  1  0.674831  0.343504  0.003858  1
  Lu  Lu7  1  0.331326  0.656496  0.496142  1
  Lu  Lu8  1  0.331326  0.656496  0.003858  1
  Lu  Lu9  1  0.674831  0.343504  0.496142  1
  Si  Si10  1  0.394916  0.393499  0.250000  1
  Si  Si11  1  0.001417  0.606501  0.250000  1
  Si  Si12  1  0.998625  0.395457  0.750000  1
  Si  Si13  1  0.603168  0.604543  0.750000  1
  Si  Si14  1  0.605079  0.000000  0.250000  1
  Pb  Pb15  1  0.395213  0.000000  0.750000  1
