# generated using pymatgen
data_YbPaAl20(FeCo)2
_symmetry_space_group_name_H-M   'P 1'
_cell_length_a   6.76727022
_cell_length_b   6.77975525
_cell_length_c   8.96681800
_cell_angle_alpha   90.00000000
_cell_angle_beta   90.00000000
_cell_angle_gamma   97.74208420
_symmetry_Int_Tables_number   1
_chemical_formula_structural   YbPaAl20(FeCo)2
_chemical_formula_sum   'Yb1 Pa1 Al20 Fe2 Co2'
_cell_volume   407.65139473
_cell_formula_units_Z   1
loop_
 _symmetry_equiv_pos_site_id
 _symmetry_equiv_pos_as_xyz
  1  'x, y, z'
loop_
 _atom_site_type_symbol
 _atom_site_label
 _atom_site_symmetry_multiplicity
 _atom_site_fract_x
 _atom_site_fract_y
 _atom_site_fract_z
 _atom_site_occupancy
  Yb  Yb0  1  0.126391  0.877141  0.750000  1
  Pa  Pa1  1  0.873947  0.117374  0.250000  1
  Al  Al2  1  0.226890  0.224032  0.501041  1
  Al  Al3  1  0.774826  0.774103  0.999749  1
  Al  Al4  1  0.774826  0.774103  0.500251  1
  Al  Al5  1  0.226890  0.224032  0.998959  1
  Al  Al6  1  0.375284  0.627248  0.549141  1
  Al  Al7  1  0.622933  0.375764  0.051415  1
  Al  Al8  1  0.583883  0.865463  0.750000  1
  Al  Al9  1  0.409748  0.133157  0.250000  1
  Al  Al10  1  0.866108  0.589942  0.250000  1
  Al  Al11  1  0.136047  0.415211  0.750000  1
  Al  Al12  1  0.477860  0.221279  0.750000  1
  Al  Al13  1  0.520433  0.777132  0.250000  1
  Al  Al14  1  0.222871  0.477515  0.250000  1
  Al  Al15  1  0.776671  0.522384  0.750000  1
  Al  Al16  1  0.157574  0.843522  0.402307  1
  Al  Al17  1  0.840535  0.159561  0.900132  1
  Al  Al18  1  0.840535  0.159561  0.599868  1
  Al  Al19  1  0.157574  0.843522  0.097693  1
  Al  Al20  1  0.375284  0.627248  0.950859  1
  Al  Al21  1  0.622933  0.375764  0.448585  1
  Fe  Fe22  1  0.506299  0.001996  0.495932  1
  Fe  Fe23  1  0.506299  0.001996  0.004068  1
  Co  Co24  1  0.998677  0.495475  0.496858  1
  Co  Co25  1  0.998677  0.495475  0.003142  1
