# generated using pymatgen
data_Se4I2O11
_symmetry_space_group_name_H-M   'P 1'
_cell_length_a   11.07120823
_cell_length_b   11.07120883
_cell_length_c   14.09726077
_cell_angle_alpha   68.25528465
_cell_angle_beta   68.25528302
_cell_angle_gamma   24.65383501
_symmetry_Int_Tables_number   1
_chemical_formula_structural   Se4I2O11
_chemical_formula_sum   'Se8 I4 O22'
_cell_volume   666.94197630
_cell_formula_units_Z   2
loop_
 _symmetry_equiv_pos_site_id
 _symmetry_equiv_pos_as_xyz
  1  'x, y, z'
loop_
 _atom_site_type_symbol
 _atom_site_label
 _atom_site_symmetry_multiplicity
 _atom_site_fract_x
 _atom_site_fract_y
 _atom_site_fract_z
 _atom_site_occupancy
  Se  Se0  1  0.295988  0.851119  0.255920  1
  Se  Se1  1  0.148881  0.704012  0.244080  1
  Se  Se2  1  0.704012  0.148881  0.744080  1
  Se  Se3  1  0.851119  0.295988  0.755920  1
  Se  Se4  1  0.927922  0.399978  0.415626  1
  Se  Se5  1  0.600022  0.072078  0.084374  1
  Se  Se6  1  0.072078  0.600022  0.584374  1
  Se  Se7  1  0.399978  0.927922  0.915626  1
  I  I8  1  0.500000  0.000000  0.500000  1
  I  I9  1  0.000000  0.500000  0.000000  1
  I  I10  1  0.000000  0.000000  0.500000  1
  I  I11  1  0.000000  0.000000  0.000000  1
  O  O12  1  0.025989  0.974011  0.250000  1
  O  O13  1  0.974011  0.025989  0.750000  1
  O  O14  1  0.069240  0.171979  0.256917  1
  O  O15  1  0.828021  0.930760  0.243083  1
  O  O16  1  0.930760  0.828021  0.743083  1
  O  O17  1  0.171979  0.069240  0.756917  1
  O  O18  1  0.366814  0.706489  0.386430  1
  O  O19  1  0.293511  0.633186  0.113570  1
  O  O20  1  0.633186  0.293511  0.613570  1
  O  O21  1  0.706489  0.366814  0.886430  1
  O  O22  1  0.244765  0.211006  0.383614  1
  O  O23  1  0.788994  0.755235  0.116386  1
  O  O24  1  0.139804  0.057395  0.003049  1
  O  O25  1  0.942605  0.860196  0.496951  1
  O  O26  1  0.860196  0.942605  0.996951  1
  O  O27  1  0.057395  0.139804  0.503049  1
  O  O28  1  0.609510  0.741648  0.013244  1
  O  O29  1  0.258352  0.390490  0.486756  1
  O  O30  1  0.390490  0.258352  0.986756  1
  O  O31  1  0.741648  0.609510  0.513244  1
  O  O32  1  0.211006  0.244765  0.883614  1
  O  O33  1  0.755235  0.788994  0.616386  1
