# generated using pymatgen
data_NaY6RuI12
_symmetry_space_group_name_H-M   'P 1'
_cell_length_a   9.78163972
_cell_length_b   9.78163903
_cell_length_c   9.78163885
_cell_angle_alpha   106.81105017
_cell_angle_beta   106.81104938
_cell_angle_gamma   106.81103817
_symmetry_Int_Tables_number   1
_chemical_formula_structural   NaY6RuI12
_chemical_formula_sum   'Na1 Y6 Ru1 I12'
_cell_volume   783.41914673
_cell_formula_units_Z   1
loop_
 _symmetry_equiv_pos_site_id
 _symmetry_equiv_pos_as_xyz
  1  'x, y, z'
loop_
 _atom_site_type_symbol
 _atom_site_label
 _atom_site_symmetry_multiplicity
 _atom_site_fract_x
 _atom_site_fract_y
 _atom_site_fract_z
 _atom_site_occupancy
  Na  Na0  1  0.500000  0.500000  0.500000  1
  Y  Y1  1  0.899070  0.696996  0.971174  1
  Y  Y2  1  0.971174  0.899070  0.696996  1
  Y  Y3  1  0.696996  0.971174  0.899070  1
  Y  Y4  1  0.100930  0.303004  0.028826  1
  Y  Y5  1  0.028826  0.100930  0.303004  1
  Y  Y6  1  0.303004  0.028826  0.100930  1
  Ru  Ru7  1  0.000000  0.000000  0.000000  1
  I  I8  1  0.627528  0.858715  0.548489  1
  I  I9  1  0.548489  0.627528  0.858715  1
  I  I10  1  0.858715  0.548489  0.627528  1
  I  I11  1  0.372472  0.141285  0.451511  1
  I  I12  1  0.451511  0.372472  0.141285  1
  I  I13  1  0.141285  0.451511  0.372472  1
  I  I14  1  0.680696  0.073926  0.223600  1
  I  I15  1  0.223600  0.680696  0.073926  1
  I  I16  1  0.073926  0.223600  0.680696  1
  I  I17  1  0.319304  0.926074  0.776400  1
  I  I18  1  0.776400  0.319304  0.926074  1
  I  I19  1  0.926074  0.776400  0.319304  1
