# generated using pymatgen
data_Eu2Sc3Ga3Ge
_symmetry_space_group_name_H-M   'P 1'
_cell_length_a   7.39029650
_cell_length_b   7.73211324
_cell_length_c   14.86914400
_cell_angle_alpha   89.97071526
_cell_angle_beta   90.02104896
_cell_angle_gamma   89.94766577
_symmetry_Int_Tables_number   1
_chemical_formula_structural   Eu2Sc3Ga3Ge
_chemical_formula_sum   'Eu8 Sc12 Ga12 Ge4'
_cell_volume   849.66116452
_cell_formula_units_Z   4
loop_
 _symmetry_equiv_pos_site_id
 _symmetry_equiv_pos_as_xyz
  1  'x, y, z'
loop_
 _atom_site_type_symbol
 _atom_site_label
 _atom_site_symmetry_multiplicity
 _atom_site_fract_x
 _atom_site_fract_y
 _atom_site_fract_z
 _atom_site_occupancy
  Eu  Eu0  1  0.004159  0.170626  0.094494  1
  Eu  Eu1  1  0.996722  0.829998  0.904093  1
  Eu  Eu2  1  0.495865  0.670553  0.905626  1
  Eu  Eu3  1  0.995105  0.826067  0.596756  1
  Eu  Eu4  1  0.503146  0.329251  0.094388  1
  Eu  Eu5  1  0.006772  0.171573  0.405880  1
  Eu  Eu6  1  0.501159  0.328763  0.405097  1
  Eu  Eu7  1  0.492759  0.672169  0.594482  1
  Sc  Sc8  1  0.163213  0.501060  0.748911  1
  Sc  Sc9  1  0.838103  0.503927  0.249432  1
  Sc  Sc10  1  0.335086  0.997330  0.250142  1
  Sc  Sc11  1  0.661899  0.004350  0.749739  1
  Sc  Sc12  1  0.323936  0.174330  0.624978  1
  Sc  Sc13  1  0.670292  0.827125  0.372380  1
  Sc  Sc14  1  0.171625  0.673572  0.376099  1
  Sc  Sc15  1  0.669369  0.825089  0.127222  1
  Sc  Sc16  1  0.836266  0.325085  0.626290  1
  Sc  Sc17  1  0.327535  0.173977  0.873464  1
  Sc  Sc18  1  0.833190  0.324880  0.873492  1
  Sc  Sc19  1  0.170646  0.674629  0.125556  1
  Ga  Ga20  1  0.533897  0.370741  0.749837  1
  Ga  Ga21  1  0.290095  0.879463  0.750670  1
  Ga  Ga22  1  0.711698  0.122229  0.249307  1
  Ga  Ga23  1  0.210832  0.380084  0.249379  1
  Ga  Ga24  1  0.784241  0.619434  0.750847  1
  Ga  Ga25  1  0.843543  0.540715  0.460597  1
  Ga  Ga26  1  0.349809  0.957413  0.459058  1
  Ga  Ga27  1  0.845172  0.542621  0.039300  1
  Ga  Ga28  1  0.654654  0.042720  0.539643  1
  Ga  Ga29  1  0.153961  0.459194  0.960319  1
  Ga  Ga30  1  0.654680  0.039081  0.960847  1
  Ga  Ga31  1  0.346720  0.958623  0.039492  1
  Ge  Ge32  1  0.032164  0.126861  0.750420  1
  Ge  Ge33  1  0.968854  0.870656  0.250063  1
  Ge  Ge34  1  0.467755  0.627150  0.250434  1
  Ge  Ge35  1  0.155081  0.458659  0.541265  1
