# generated using pymatgen
data_La2Ga5Pd2Pt
_symmetry_space_group_name_H-M   'P 1'
_cell_length_a   8.73571874
_cell_length_b   8.73577700
_cell_length_c   8.73574900
_cell_angle_alpha   140.50164689
_cell_angle_beta   107.74442350
_cell_angle_gamma   85.61725179
_symmetry_Int_Tables_number   1
_chemical_formula_structural   La2Ga5Pd2Pt
_chemical_formula_sum   'La4 Ga10 Pd4 Pt2'
_cell_volume   389.74182043
_cell_formula_units_Z   2
loop_
 _symmetry_equiv_pos_site_id
 _symmetry_equiv_pos_as_xyz
  1  'x, y, z'
loop_
 _atom_site_type_symbol
 _atom_site_label
 _atom_site_symmetry_multiplicity
 _atom_site_fract_x
 _atom_site_fract_y
 _atom_site_fract_z
 _atom_site_occupancy
  La  La0  1  0.086958  0.861938  0.225014  1
  La  La1  1  0.639090  0.363358  0.275722  1
  La  La2  1  0.912362  0.136645  0.775739  1
  La  La3  1  0.363085  0.638069  0.725025  1
  Ga  Ga4  1  0.288433  0.041033  0.752337  1
  Ga  Ga5  1  0.288420  0.536080  0.247379  1
  Ga  Ga6  1  0.000023  0.250006  0.250025  1
  Ga  Ga7  1  0.241673  0.403114  0.838558  1
  Ga  Ga8  1  0.759513  0.598537  0.160977  1
  Ga  Ga9  1  0.711307  0.458974  0.747403  1
  Ga  Ga10  1  0.562435  0.901469  0.660983  1
  Ga  Ga11  1  0.711297  0.963912  0.252339  1
  Ga  Ga12  1  0.435443  0.096872  0.338544  1
  Ga  Ga13  1  0.999997  0.749994  0.749994  1
  Pd  Pd14  1  0.956578  0.356842  0.599746  1
  Pd  Pd15  1  0.242902  0.143147  0.099729  1
  Pd  Pd16  1  0.500280  0.749994  0.250288  1
  Pd  Pd17  1  0.500260  0.249998  0.750245  1
  Pt  Pt18  1  0.044214  0.644246  0.399971  1
  Pt  Pt19  1  0.755727  0.855771  0.899985  1
