# generated using pymatgen
data_Li2Nd15Ho(InRh2)2
_symmetry_space_group_name_H-M   'P 1'
_cell_length_a   9.94330708
_cell_length_b   9.94330688
_cell_length_c   9.93972829
_cell_angle_alpha   59.98896003
_cell_angle_beta   59.98896198
_cell_angle_gamma   59.91572071
_symmetry_Int_Tables_number   1
_chemical_formula_structural   Li2Nd15Ho(InRh2)2
_chemical_formula_sum   'Li2 Nd15 Ho1 In2 Rh4'
_cell_volume   694.33880121
_cell_formula_units_Z   1
loop_
 _symmetry_equiv_pos_site_id
 _symmetry_equiv_pos_as_xyz
  1  'x, y, z'
loop_
 _atom_site_type_symbol
 _atom_site_label
 _atom_site_symmetry_multiplicity
 _atom_site_fract_x
 _atom_site_fract_y
 _atom_site_fract_z
 _atom_site_occupancy
  Li  Li0  1  0.821142  0.821142  0.825581  1
  Li  Li1  1  0.820011  0.820011  0.530719  1
  Nd  Nd2  1  0.187814  0.187814  0.810061  1
  Nd  Nd3  1  0.599076  0.599076  0.204095  1
  Nd  Nd4  1  0.439653  0.060030  0.440969  1
  Nd  Nd5  1  0.444796  0.444796  0.055199  1
  Nd  Nd6  1  0.812906  0.187079  0.811546  1
  Nd  Nd7  1  0.186315  0.809426  0.189579  1
  Nd  Nd8  1  0.439483  0.061419  0.057392  1
  Nd  Nd9  1  0.187079  0.812906  0.811546  1
  Nd  Nd10  1  0.061419  0.439483  0.057392  1
  Nd  Nd11  1  0.810539  0.810539  0.189903  1
  Nd  Nd12  1  0.208073  0.598577  0.598326  1
  Nd  Nd13  1  0.060030  0.439653  0.440969  1
  Nd  Nd14  1  0.067258  0.067258  0.430002  1
  Nd  Nd15  1  0.809426  0.186315  0.189579  1
  Nd  Nd16  1  0.598577  0.208073  0.598326  1
  Ho  Ho17  1  0.596902  0.596902  0.599499  1
  In  In18  1  0.506869  0.831880  0.828573  1
  In  In19  1  0.831880  0.506869  0.828573  1
  Rh  Rh20  1  0.397530  0.823506  0.394103  1
  Rh  Rh21  1  0.393222  0.393222  0.391667  1
  Rh  Rh22  1  0.823506  0.397530  0.394103  1
  Rh  Rh23  1  0.396495  0.396495  0.822303  1
