# generated using pymatgen
data_LaCe2Ho2P12Ru19
_symmetry_space_group_name_H-M   'P 1'
_cell_length_a   12.60655400
_cell_length_b   12.61466481
_cell_length_c   3.99775600
_cell_angle_alpha   90.00000000
_cell_angle_beta   90.00000000
_cell_angle_gamma   119.97873834
_symmetry_Int_Tables_number   1
_chemical_formula_structural   LaCe2Ho2P12Ru19
_chemical_formula_sum   'La1 Ce2 Ho2 P12 Ru19'
_cell_volume   550.69613124
_cell_formula_units_Z   1
loop_
 _symmetry_equiv_pos_site_id
 _symmetry_equiv_pos_as_xyz
  1  'x, y, z'
loop_
 _atom_site_type_symbol
 _atom_site_label
 _atom_site_symmetry_multiplicity
 _atom_site_fract_x
 _atom_site_fract_y
 _atom_site_fract_z
 _atom_site_occupancy
  La  La0  1  0.185620  0.000000  0.500000  1
  Ce  Ce1  1  0.999968  0.183718  0.500000  1
  Ce  Ce2  1  0.816250  0.816282  0.500000  1
  Ho  Ho3  1  0.667701  0.333849  0.000000  1
  Ho  Ho4  1  0.333851  0.666151  0.000000  1
  P  P5  1  0.999139  0.811085  0.000000  1
  P  P6  1  0.188054  0.188915  0.000000  1
  P  P7  1  0.812124  0.000000  0.000000  1
  P  P8  1  0.695037  0.173428  0.500000  1
  P  P9  1  0.825316  0.520456  0.500000  1
  P  P10  1  0.478985  0.305090  0.500000  1
  P  P11  1  0.173894  0.694910  0.500000  1
  P  P12  1  0.521608  0.826572  0.500000  1
  P  P13  1  0.304859  0.479544  0.500000  1
  P  P14  1  0.999702  0.374555  0.000000  1
  P  P15  1  0.625147  0.625445  0.000000  1
  P  P16  1  0.376851  0.000000  0.000000  1
  Ru  Ru17  1  0.997502  0.553389  0.000000  1
  Ru  Ru18  1  0.444112  0.446611  0.000000  1
  Ru  Ru19  1  0.556512  0.000000  0.000000  1
  Ru  Ru20  1  0.998284  0.712423  0.500000  1
  Ru  Ru21  1  0.285861  0.287577  0.500000  1
  Ru  Ru22  1  0.714600  0.000000  0.500000  1
  Ru  Ru23  1  0.807569  0.184963  0.000000  1
  Ru  Ru24  1  0.813736  0.621498  0.000000  1
  Ru  Ru25  1  0.382189  0.197174  0.000000  1
  Ru  Ru26  1  0.185016  0.802826  0.000000  1
  Ru  Ru27  1  0.622606  0.815037  0.000000  1
  Ru  Ru28  1  0.192238  0.378502  0.000000  1
  Ru  Ru29  1  0.873339  0.366382  0.500000  1
  Ru  Ru30  1  0.631808  0.506869  0.500000  1
  Ru  Ru31  1  0.493790  0.125650  0.500000  1
  Ru  Ru32  1  0.368140  0.874350  0.500000  1
  Ru  Ru33  1  0.506957  0.633618  0.500000  1
  Ru  Ru34  1  0.124939  0.493131  0.500000  1
  Ru  Ru35  1  0.996697  0.000000  0.000000  1
