# generated using pymatgen
data_Nd6Y10AgHg3Pt4
_symmetry_space_group_name_H-M   'P 1'
_cell_length_a   9.80951734
_cell_length_b   9.82137890
_cell_length_c   9.82137900
_cell_angle_alpha   59.99999630
_cell_angle_beta   59.95998858
_cell_angle_gamma   59.95999900
_symmetry_Int_Tables_number   1
_chemical_formula_structural   Nd6Y10AgHg3Pt4
_chemical_formula_sum   'Nd6 Y10 Ag1 Hg3 Pt4'
_cell_volume   668.67438345
_cell_formula_units_Z   1
loop_
 _symmetry_equiv_pos_site_id
 _symmetry_equiv_pos_as_xyz
  1  'x, y, z'
loop_
 _atom_site_type_symbol
 _atom_site_label
 _atom_site_symmetry_multiplicity
 _atom_site_fract_x
 _atom_site_fract_y
 _atom_site_fract_z
 _atom_site_occupancy
  Nd  Nd0  1  0.940732  0.563061  0.563061  1
  Nd  Nd1  1  0.563396  0.936810  0.936810  1
  Nd  Nd2  1  0.563396  0.936810  0.562981  1
  Nd  Nd3  1  0.940732  0.563061  0.933146  1
  Nd  Nd4  1  0.563396  0.562981  0.936810  1
  Nd  Nd5  1  0.940732  0.933146  0.563061  1
  Y  Y6  1  0.351314  0.351524  0.351524  1
  Y  Y7  1  0.351314  0.351524  0.945640  1
  Y  Y8  1  0.351314  0.945640  0.351524  1
  Y  Y9  1  0.943274  0.352243  0.352243  1
  Y  Y10  1  0.810019  0.189245  0.189245  1
  Y  Y11  1  0.186665  0.812728  0.812728  1
  Y  Y12  1  0.186665  0.812728  0.187880  1
  Y  Y13  1  0.810019  0.189245  0.811489  1
  Y  Y14  1  0.186665  0.187880  0.812728  1
  Y  Y15  1  0.810019  0.811489  0.189245  1
  Ag  Ag16  1  0.259522  0.580159  0.580159  1
  Hg  Hg17  1  0.581472  0.584446  0.584446  1
  Hg  Hg18  1  0.581472  0.584446  0.249637  1
  Hg  Hg19  1  0.581472  0.249637  0.584446  1
  Pt  Pt20  1  0.141611  0.143171  0.143171  1
  Pt  Pt21  1  0.141611  0.143171  0.572047  1
  Pt  Pt22  1  0.141611  0.572047  0.143171  1
  Pt  Pt23  1  0.571576  0.142808  0.142808  1
