# generated using pymatgen
data_Dy2Y10InGaCo4
_symmetry_space_group_name_H-M   'P 1'
_cell_length_a   8.37462427
_cell_length_b   8.39231625
_cell_length_c   8.37462388
_cell_angle_alpha   111.75923404
_cell_angle_beta   109.85573397
_cell_angle_gamma   106.75308537
_symmetry_Int_Tables_number   1
_chemical_formula_structural   Dy2Y10InGaCo4
_chemical_formula_sum   'Dy2 Y10 In1 Ga1 Co4'
_cell_volume   452.69290039
_cell_formula_units_Z   1
loop_
 _symmetry_equiv_pos_site_id
 _symmetry_equiv_pos_as_xyz
  1  'x, y, z'
loop_
 _atom_site_type_symbol
 _atom_site_label
 _atom_site_symmetry_multiplicity
 _atom_site_fract_x
 _atom_site_fract_y
 _atom_site_fract_z
 _atom_site_occupancy
  Dy  Dy0  1  0.315150  0.010232  0.695081  1
  Dy  Dy1  1  0.684850  0.989768  0.304919  1
  Y  Y2  1  0.429673  0.223398  0.204737  1
  Y  Y3  1  0.570327  0.776602  0.795263  1
  Y  Y4  1  0.018663  0.223398  0.793724  1
  Y  Y5  1  0.981337  0.776602  0.206276  1
  Y  Y6  1  0.186324  0.287905  0.474247  1
  Y  Y7  1  0.813676  0.712095  0.525753  1
  Y  Y8  1  0.186343  0.712095  0.898420  1
  Y  Y9  1  0.813657  0.287905  0.101580  1
  Y  Y10  1  0.315334  0.617964  0.302631  1
  Y  Y11  1  0.684666  0.382036  0.697369  1
  In  In12  1  0.500000  0.500000  0.000000  1
  Ga  Ga13  1  0.000000  0.000000  0.000000  1
  Co  Co14  1  0.379227  0.000000  0.379227  1
  Co  Co15  1  0.620773  0.000000  0.620773  1
  Co  Co16  1  0.111249  0.612265  0.501016  1
  Co  Co17  1  0.888751  0.387735  0.498984  1
