# generated using pymatgen
data_Tb7LuAlPd24
_symmetry_space_group_name_H-M   'P 1'
_cell_length_a   8.36412246
_cell_length_b   8.36412291
_cell_length_c   8.36412300
_cell_angle_alpha   89.98108664
_cell_angle_beta   90.01892021
_cell_angle_gamma   90.01891275
_symmetry_Int_Tables_number   1
_chemical_formula_structural   Tb7LuAlPd24
_chemical_formula_sum   'Tb7 Lu1 Al1 Pd24'
_cell_volume   585.14180695
_cell_formula_units_Z   1
loop_
 _symmetry_equiv_pos_site_id
 _symmetry_equiv_pos_as_xyz
  1  'x, y, z'
loop_
 _atom_site_type_symbol
 _atom_site_label
 _atom_site_symmetry_multiplicity
 _atom_site_fract_x
 _atom_site_fract_y
 _atom_site_fract_z
 _atom_site_occupancy
  Tb  Tb0  1  0.251309  0.251661  0.251661  1
  Tb  Tb1  1  0.748398  0.748228  0.748228  1
  Tb  Tb2  1  0.748339  0.748691  0.251661  1
  Tb  Tb3  1  0.748339  0.251661  0.748691  1
  Tb  Tb4  1  0.251772  0.251602  0.748228  1
  Tb  Tb5  1  0.251772  0.748228  0.251602  1
  Tb  Tb6  1  0.251742  0.748258  0.748258  1
  Lu  Lu7  1  0.747721  0.252279  0.252279  1
  Al  Al8  1  0.000206  0.999794  0.999794  1
  Pd  Pd9  1  0.259690  0.499672  0.999966  1
  Pd  Pd10  1  0.740319  0.498889  0.001706  1
  Pd  Pd11  1  0.998294  0.259681  0.498889  1
  Pd  Pd12  1  0.501111  0.259681  0.001706  1
  Pd  Pd13  1  0.000034  0.740310  0.499672  1
  Pd  Pd14  1  0.500328  0.740310  0.999966  1
  Pd  Pd15  1  0.501111  0.001706  0.259681  1
  Pd  Pd16  1  0.259690  0.999966  0.499672  1
  Pd  Pd17  1  0.500328  0.999966  0.740310  1
  Pd  Pd18  1  0.740319  0.001706  0.498889  1
  Pd  Pd19  1  0.998294  0.498889  0.259681  1
  Pd  Pd20  1  0.000034  0.499672  0.740310  1
  Pd  Pd21  1  0.252639  0.499775  0.499775  1
  Pd  Pd22  1  0.747198  0.498818  0.498818  1
  Pd  Pd23  1  0.501182  0.252802  0.498818  1
  Pd  Pd24  1  0.500225  0.747361  0.499775  1
  Pd  Pd25  1  0.501182  0.498818  0.252802  1
  Pd  Pd26  1  0.500225  0.499775  0.747361  1
  Pd  Pd27  1  0.289723  0.999936  0.999936  1
  Pd  Pd28  1  0.710994  0.001322  0.001322  1
  Pd  Pd29  1  0.998678  0.289006  0.001322  1
  Pd  Pd30  1  0.000064  0.710277  0.999936  1
  Pd  Pd31  1  0.998678  0.001322  0.289006  1
  Pd  Pd32  1  0.000064  0.999936  0.710277  1
