# generated using pymatgen
data_Hf3GeAs2Ru3
_symmetry_space_group_name_H-M   'P 1'
_cell_length_a   7.68007669
_cell_length_b   7.68007683
_cell_length_c   7.68007667
_cell_angle_alpha   128.33549879
_cell_angle_beta   119.91175654
_cell_angle_gamma   83.16960382
_symmetry_Int_Tables_number   1
_chemical_formula_structural   Hf3GeAs2Ru3
_chemical_formula_sum   'Hf6 Ge2 As4 Ru6'
_cell_volume   295.67680759
_cell_formula_units_Z   2
loop_
 _symmetry_equiv_pos_site_id
 _symmetry_equiv_pos_as_xyz
  1  'x, y, z'
loop_
 _atom_site_type_symbol
 _atom_site_label
 _atom_site_symmetry_multiplicity
 _atom_site_fract_x
 _atom_site_fract_y
 _atom_site_fract_z
 _atom_site_occupancy
  Hf  Hf0  1  0.475529  0.708823  0.733295  1
  Hf  Hf1  1  0.524471  0.257766  0.233295  1
  Hf  Hf2  1  0.750174  0.833714  0.583539  1
  Hf  Hf3  1  0.249826  0.833366  0.083539  1
  Hf  Hf4  1  0.052438  0.255591  0.703153  1
  Hf  Hf5  1  0.947562  0.650715  0.203153  1
  Ge  Ge6  1  0.277546  0.279364  0.501820  1
  Ge  Ge7  1  0.722454  0.224274  0.001820  1
  As  As8  1  0.328633  0.585677  0.247453  1
  As  As9  1  0.671367  0.918821  0.257044  1
  As  As10  1  0.161777  0.918821  0.747453  1
  As  As11  1  0.838223  0.585677  0.757044  1
  Ru  Ru12  1  0.500000  0.498034  0.998034  1
  Ru  Ru13  1  0.000000  0.498034  0.498034  1
  Ru  Ru14  1  0.092685  0.250749  0.097397  1
  Ru  Ru15  1  0.907315  0.004712  0.158064  1
  Ru  Ru16  1  0.346647  0.004712  0.597397  1
  Ru  Ru17  1  0.653353  0.250749  0.658064  1
