# generated using pymatgen
data_Y11(Tl3Ge2)2
_symmetry_space_group_name_H-M   'P 1'
_cell_length_a   11.59847820
_cell_length_b   11.59847829
_cell_length_c   11.59847800
_cell_angle_alpha   120.07602470
_cell_angle_beta   120.07602496
_cell_angle_gamma   89.86837097
_symmetry_Int_Tables_number   1
_chemical_formula_structural   Y11(Tl3Ge2)2
_chemical_formula_sum   'Y22 Tl12 Ge8'
_cell_volume   1102.01485557
_cell_formula_units_Z   2
loop_
 _symmetry_equiv_pos_site_id
 _symmetry_equiv_pos_as_xyz
  1  'x, y, z'
loop_
 _atom_site_type_symbol
 _atom_site_label
 _atom_site_symmetry_multiplicity
 _atom_site_fract_x
 _atom_site_fract_y
 _atom_site_fract_z
 _atom_site_occupancy
  Y  Y0  1  0.686636  0.937951  0.251315  1
  Y  Y1  1  0.686636  0.435322  0.748685  1
  Y  Y2  1  0.937951  0.686636  0.251315  1
  Y  Y3  1  0.435322  0.686636  0.748685  1
  Y  Y4  1  0.313364  0.062049  0.748685  1
  Y  Y5  1  0.313364  0.564678  0.251315  1
  Y  Y6  1  0.062049  0.313364  0.748685  1
  Y  Y7  1  0.564678  0.313364  0.251315  1
  Y  Y8  1  0.898383  0.243976  0.345593  1
  Y  Y9  1  0.898383  0.552790  0.654407  1
  Y  Y10  1  0.243976  0.898383  0.345593  1
  Y  Y11  1  0.552790  0.898383  0.654407  1
  Y  Y12  1  0.101617  0.756024  0.654407  1
  Y  Y13  1  0.101617  0.447210  0.345593  1
  Y  Y14  1  0.756024  0.101617  0.654407  1
  Y  Y15  1  0.447210  0.101617  0.345593  1
  Y  Y16  1  0.332514  0.332514  0.665029  1
  Y  Y17  1  0.667486  0.667486  0.334971  1
  Y  Y18  1  0.332514  0.667486  0.000000  1
  Y  Y19  1  0.667486  0.332514  0.000000  1
  Y  Y20  1  0.831105  0.831105  0.000000  1
  Y  Y21  1  0.168895  0.168895  0.000000  1
  Tl  Tl22  1  0.033987  0.033987  0.411110  1
  Tl  Tl23  1  0.622877  0.622877  0.588890  1
  Tl  Tl24  1  0.033987  0.622877  0.000000  1
  Tl  Tl25  1  0.622877  0.033987  0.000000  1
  Tl  Tl26  1  0.966013  0.966013  0.588890  1
  Tl  Tl27  1  0.377123  0.377123  0.411110  1
  Tl  Tl28  1  0.966013  0.377123  0.000000  1
  Tl  Tl29  1  0.377123  0.966013  0.000000  1
  Tl  Tl30  1  0.131299  0.131299  0.262597  1
  Tl  Tl31  1  0.868701  0.868701  0.737403  1
  Tl  Tl32  1  0.131299  0.868701  0.000000  1
  Tl  Tl33  1  0.868701  0.131299  0.000000  1
  Ge  Ge34  1  0.152709  0.500000  0.652709  1
  Ge  Ge35  1  0.847291  0.500000  0.347291  1
  Ge  Ge36  1  0.500000  0.847291  0.347291  1
  Ge  Ge37  1  0.500000  0.152709  0.652709  1
  Ge  Ge38  1  0.621665  0.621665  0.000000  1
  Ge  Ge39  1  0.378335  0.378335  0.000000  1
  Ge  Ge40  1  0.750000  0.250000  0.500000  1
  Ge  Ge41  1  0.250000  0.750000  0.500000  1
