# generated using pymatgen
data_Cs4V2CoNiSe8
_symmetry_space_group_name_H-M   'P 1'
_cell_length_a   14.69514533
_cell_length_b   13.09354710
_cell_length_c   7.78914011
_cell_angle_alpha   85.45472416
_cell_angle_beta   62.64911178
_cell_angle_gamma   31.89616446
_symmetry_Int_Tables_number   1
_chemical_formula_structural   Cs4V2CoNiSe8
_chemical_formula_sum   'Cs4 V2 Co1 Ni1 Se8'
_cell_volume   527.00061095
_cell_formula_units_Z   1
loop_
 _symmetry_equiv_pos_site_id
 _symmetry_equiv_pos_as_xyz
  1  'x, y, z'
loop_
 _atom_site_type_symbol
 _atom_site_label
 _atom_site_symmetry_multiplicity
 _atom_site_fract_x
 _atom_site_fract_y
 _atom_site_fract_z
 _atom_site_occupancy
  Cs  Cs0  1  0.821798  0.821798  0.178202  1
  Cs  Cs1  1  0.426220  0.426220  0.073780  1
  Cs  Cs2  1  0.178202  0.178202  0.821798  1
  Cs  Cs3  1  0.073780  0.073780  0.426220  1
  V  V4  1  0.000000  0.000000  0.000000  1
  V  V5  1  0.250000  0.250000  0.250000  1
  Co  Co6  1  0.500000  0.500000  0.500000  1
  Ni  Ni7  1  0.750000  0.750000  0.750000  1
  Se  Se8  1  0.532052  0.864437  0.148387  1
  Se  Se9  1  0.864437  0.532052  0.455124  1
  Se  Se10  1  0.793222  0.103891  0.388400  1
  Se  Se11  1  0.103891  0.793222  0.714487  1
  Se  Se12  1  0.148387  0.455124  0.532052  1
  Se  Se13  1  0.455124  0.148387  0.864437  1
  Se  Se14  1  0.388400  0.714487  0.793222  1
  Se  Se15  1  0.714487  0.388400  0.103891  1
