# generated using pymatgen
data_Dy8ReTc3C8
_symmetry_space_group_name_H-M   'P 1'
_cell_length_a   5.11331900
_cell_length_b   6.57376608
_cell_length_c   9.87997012
_cell_angle_alpha   90.01778609
_cell_angle_beta   90.00000000
_cell_angle_gamma   90.00000000
_symmetry_Int_Tables_number   1
_chemical_formula_structural   Dy8ReTc3C8
_chemical_formula_sum   'Dy8 Re1 Tc3 C8'
_cell_volume   332.10295797
_cell_formula_units_Z   1
loop_
 _symmetry_equiv_pos_site_id
 _symmetry_equiv_pos_as_xyz
  1  'x, y, z'
loop_
 _atom_site_type_symbol
 _atom_site_label
 _atom_site_symmetry_multiplicity
 _atom_site_fract_x
 _atom_site_fract_y
 _atom_site_fract_z
 _atom_site_occupancy
  Dy  Dy0  1  0.250000  0.820809  0.942784  1
  Dy  Dy1  1  0.250000  0.320371  0.556975  1
  Dy  Dy2  1  0.750000  0.178792  0.056591  1
  Dy  Dy3  1  0.750000  0.680420  0.442542  1
  Dy  Dy4  1  0.250000  0.468044  0.216180  1
  Dy  Dy5  1  0.250000  0.967548  0.283267  1
  Dy  Dy6  1  0.750000  0.531696  0.783702  1
  Dy  Dy7  1  0.750000  0.031370  0.716176  1
  Re  Re8  1  0.750000  0.221069  0.365798  1
  Tc  Tc9  1  0.250000  0.279455  0.865671  1
  Tc  Tc10  1  0.250000  0.779164  0.634222  1
  Tc  Tc11  1  0.750000  0.721239  0.134048  1
  C  C12  1  0.250000  0.045902  0.741615  1
  C  C13  1  0.250000  0.545655  0.758237  1
  C  C14  1  0.750000  0.955273  0.259303  1
  C  C15  1  0.750000  0.453936  0.241940  1
  C  C16  1  0.250000  0.677524  0.451629  1
  C  C17  1  0.250000  0.177882  0.048387  1
  C  C18  1  0.750000  0.321754  0.549468  1
  C  C19  1  0.750000  0.822095  0.951469  1
