# generated using pymatgen
data_SmPa3(Pd2Pb)2
_symmetry_space_group_name_H-M   'P 1'
_cell_length_a   7.90456830
_cell_length_b   7.90456830
_cell_length_c   3.70079100
_cell_angle_alpha   90.00000000
_cell_angle_beta   90.00000000
_cell_angle_gamma   90.84379839
_symmetry_Int_Tables_number   1
_chemical_formula_structural   SmPa3(Pd2Pb)2
_chemical_formula_sum   'Sm1 Pa3 Pd4 Pb2'
_cell_volume   231.20848810
_cell_formula_units_Z   1
loop_
 _symmetry_equiv_pos_site_id
 _symmetry_equiv_pos_as_xyz
  1  'x, y, z'
loop_
 _atom_site_type_symbol
 _atom_site_label
 _atom_site_symmetry_multiplicity
 _atom_site_fract_x
 _atom_site_fract_y
 _atom_site_fract_z
 _atom_site_occupancy
  Sm  Sm0  1  0.175043  0.324957  0.500000  1
  Pa  Pa1  1  0.325758  0.825732  0.500000  1
  Pa  Pa2  1  0.674268  0.174242  0.500000  1
  Pa  Pa3  1  0.827236  0.672764  0.500000  1
  Pd  Pd4  1  0.120129  0.637671  0.000000  1
  Pd  Pd5  1  0.386490  0.113510  0.000000  1
  Pd  Pd6  1  0.862329  0.379871  0.000000  1
  Pd  Pd7  1  0.631898  0.868102  0.000000  1
  Pb  Pb8  1  0.001981  0.005132  0.000000  1
  Pb  Pb9  1  0.494868  0.498019  0.000000  1
