# generated using pymatgen
data_Ho4Ga6Ir5Pd2
_symmetry_space_group_name_H-M   'P 1'
_cell_length_a   7.32672980
_cell_length_b   7.32673042
_cell_length_c   7.32673096
_cell_angle_alpha   109.53795559
_cell_angle_beta   109.53795370
_cell_angle_gamma   109.33783742
_symmetry_Int_Tables_number   1
_chemical_formula_structural   Ho4Ga6Ir5Pd2
_chemical_formula_sum   'Ho4 Ga6 Ir5 Pd2'
_cell_volume   302.76590290
_cell_formula_units_Z   1
loop_
 _symmetry_equiv_pos_site_id
 _symmetry_equiv_pos_as_xyz
  1  'x, y, z'
loop_
 _atom_site_type_symbol
 _atom_site_label
 _atom_site_symmetry_multiplicity
 _atom_site_fract_x
 _atom_site_fract_y
 _atom_site_fract_z
 _atom_site_occupancy
  Ho  Ho0  1  0.002615  0.997385  0.500000  1
  Ho  Ho1  1  0.002615  0.502615  0.005229  1
  Ho  Ho2  1  0.497385  0.997385  0.994771  1
  Ho  Ho3  1  0.497385  0.502615  0.500000  1
  Ga  Ga4  1  0.678934  0.678934  0.000000  1
  Ga  Ga5  1  0.320404  0.999731  0.320673  1
  Ga  Ga6  1  0.000269  0.320942  0.320673  1
  Ga  Ga7  1  0.321066  0.321066  0.000000  1
  Ga  Ga8  1  0.679058  0.999731  0.679327  1
  Ga  Ga9  1  0.000269  0.679596  0.679327  1
  Ir  Ir10  1  0.750767  0.500246  0.250521  1
  Ir  Ir11  1  0.499754  0.249233  0.749479  1
  Ir  Ir12  1  0.249725  0.500246  0.749479  1
  Ir  Ir13  1  0.250000  0.750000  0.500000  1
  Ir  Ir14  1  0.499754  0.750275  0.250521  1
  Pd  Pd15  1  0.750000  0.250000  0.500000  1
  Pd  Pd16  1  0.000000  0.000000  0.000000  1
