# generated using pymatgen
data_Hf3Zr3Mn5Si6Os
_symmetry_space_group_name_H-M   'P 1'
_cell_length_a   7.58179984
_cell_length_b   7.57835436
_cell_length_c   7.58031356
_cell_angle_alpha   127.01371919
_cell_angle_beta   125.95464122
_cell_angle_gamma   79.09394034
_symmetry_Int_Tables_number   1
_chemical_formula_structural   Hf3Zr3Mn5Si6Os
_chemical_formula_sum   'Hf3 Zr3 Mn5 Si6 Os1'
_cell_volume   272.27880144
_cell_formula_units_Z   1
loop_
 _symmetry_equiv_pos_site_id
 _symmetry_equiv_pos_as_xyz
  1  'x, y, z'
loop_
 _atom_site_type_symbol
 _atom_site_label
 _atom_site_symmetry_multiplicity
 _atom_site_fract_x
 _atom_site_fract_y
 _atom_site_fract_z
 _atom_site_occupancy
  Hf  Hf0  1  0.046254  0.089629  0.543074  1
  Hf  Hf1  1  0.748582  0.900683  0.649432  1
  Hf  Hf2  1  0.251396  0.900939  0.152197  1
  Zr  Zr3  1  0.545888  0.089606  0.043061  1
  Zr  Zr4  1  0.453986  0.496985  0.543219  1
  Zr  Zr5  1  0.954110  0.497015  0.042744  1
  Mn  Mn6  1  0.122726  0.746528  0.622275  1
  Mn  Mn7  1  0.876891  0.498784  0.622675  1
  Mn  Mn8  1  0.625837  0.748336  0.124056  1
  Mn  Mn9  1  0.374663  0.497258  0.121960  1
  Mn  Mn10  1  0.498530  0.246976  0.746286  1
  Si  Si11  1  0.333664  0.831560  0.496945  1
  Si  Si12  1  0.666672  0.161853  0.496191  1
  Si  Si13  1  0.833468  0.827533  0.994647  1
  Si  Si14  1  0.166297  0.159927  0.992349  1
  Si  Si15  1  0.744493  0.500787  0.244784  1
  Si  Si16  1  0.255707  0.500738  0.757234  1
  Os  Os17  1  0.000837  0.248862  0.250869  1
