# generated using pymatgen
data_Tb5Y(ScAu5)2
_symmetry_space_group_name_H-M   'P 1'
_cell_length_a   7.94599359
_cell_length_b   7.94702546
_cell_length_c   7.94489532
_cell_angle_alpha   66.22255680
_cell_angle_beta   66.23428285
_cell_angle_gamma   66.22683573
_symmetry_Int_Tables_number   1
_chemical_formula_structural   Tb5Y(ScAu5)2
_chemical_formula_sum   'Tb5 Y1 Sc2 Au10'
_cell_volume   402.46263008
_cell_formula_units_Z   1
loop_
 _symmetry_equiv_pos_site_id
 _symmetry_equiv_pos_as_xyz
  1  'x, y, z'
loop_
 _atom_site_type_symbol
 _atom_site_label
 _atom_site_symmetry_multiplicity
 _atom_site_fract_x
 _atom_site_fract_y
 _atom_site_fract_z
 _atom_site_occupancy
  Tb  Tb0  1  0.891287  0.188886  0.619025  1
  Tb  Tb1  1  0.619063  0.891302  0.188884  1
  Tb  Tb2  1  0.188901  0.619049  0.891272  1
  Tb  Tb3  1  0.108699  0.811148  0.380949  1
  Tb  Tb4  1  0.380917  0.108766  0.811115  1
  Y  Y5  1  0.811128  0.380980  0.108700  1
  Sc  Sc6  1  0.659147  0.659144  0.659190  1
  Sc  Sc7  1  0.340838  0.340848  0.340799  1
  Au  Au8  1  0.999992  0.000016  0.999995  1
  Au  Au9  1  0.500017  0.499976  0.500038  1
  Au  Au10  1  0.806805  0.806814  0.806833  1
  Au  Au11  1  0.193165  0.193179  0.193194  1
  Au  Au12  1  0.937244  0.549989  0.320489  1
  Au  Au13  1  0.320494  0.937233  0.549996  1
  Au  Au14  1  0.549992  0.320482  0.937243  1
  Au  Au15  1  0.062800  0.449980  0.679516  1
  Au  Au16  1  0.679526  0.062720  0.450005  1
  Au  Au17  1  0.449985  0.679490  0.062756  1
