# generated using pymatgen
data_BaCaOsO6
_symmetry_space_group_name_H-M   'P 1'
_cell_length_a   5.68513800
_cell_length_b   5.68513719
_cell_length_c   5.53051300
_cell_angle_alpha   90.00000000
_cell_angle_beta   90.00000000
_cell_angle_gamma   120.00000470
_symmetry_Int_Tables_number   1
_chemical_formula_structural   BaCaOsO6
_chemical_formula_sum   'Ba1 Ca1 Os1 O6'
_cell_volume   154.80250684
_cell_formula_units_Z   1
loop_
 _symmetry_equiv_pos_site_id
 _symmetry_equiv_pos_as_xyz
  1  'x, y, z'
loop_
 _atom_site_type_symbol
 _atom_site_label
 _atom_site_symmetry_multiplicity
 _atom_site_fract_x
 _atom_site_fract_y
 _atom_site_fract_z
 _atom_site_occupancy
  Ba  Ba0  1  0.000000  0.000000  0.000000  1
  Ca  Ca1  1  0.333334  0.666667  0.500001  1
  Os  Os2  1  0.666666  0.333334  0.500001  1
  O  O3  1  0.653946  0.056834  0.305158  1
  O  O4  1  0.402888  0.346054  0.305158  1
  O  O5  1  0.943166  0.597111  0.305158  1
  O  O6  1  0.402887  0.056834  0.694841  1
  O  O7  1  0.943167  0.346054  0.694841  1
  O  O8  1  0.653946  0.597111  0.694841  1
