# generated using pymatgen
data_Sm2Ho3Lu3(Si3Rh)4
_symmetry_space_group_name_H-M   'P 1'
_cell_length_a   8.14977900
_cell_length_b   8.14977869
_cell_length_c   7.87497600
_cell_angle_alpha   90.00000000
_cell_angle_beta   90.00000000
_cell_angle_gamma   120.00000533
_symmetry_Int_Tables_number   1
_chemical_formula_structural   Sm2Ho3Lu3(Si3Rh)4
_chemical_formula_sum   'Sm2 Ho3 Lu3 Si12 Rh4'
_cell_volume   452.97214318
_cell_formula_units_Z   1
loop_
 _symmetry_equiv_pos_site_id
 _symmetry_equiv_pos_as_xyz
  1  'x, y, z'
loop_
 _atom_site_type_symbol
 _atom_site_label
 _atom_site_symmetry_multiplicity
 _atom_site_fract_x
 _atom_site_fract_y
 _atom_site_fract_z
 _atom_site_occupancy
  Sm  Sm0  1  0.000000  0.000000  0.250000  1
  Sm  Sm1  1  0.000000  0.000000  0.750000  1
  Ho  Ho2  1  0.491248  0.508752  0.750000  1
  Ho  Ho3  1  0.491248  0.982495  0.750000  1
  Ho  Ho4  1  0.017505  0.508752  0.750000  1
  Lu  Lu5  1  0.509078  0.490922  0.250000  1
  Lu  Lu6  1  0.509078  0.018157  0.250000  1
  Lu  Lu7  1  0.981843  0.490922  0.250000  1
  Si  Si8  1  0.168262  0.831738  0.498977  1
  Si  Si9  1  0.168262  0.336522  0.498977  1
  Si  Si10  1  0.663478  0.831738  0.498977  1
  Si  Si11  1  0.832079  0.167921  0.496893  1
  Si  Si12  1  0.832079  0.664160  0.496893  1
  Si  Si13  1  0.335840  0.167921  0.496893  1
  Si  Si14  1  0.832079  0.167921  0.003107  1
  Si  Si15  1  0.832079  0.664160  0.003107  1
  Si  Si16  1  0.335840  0.167921  0.003107  1
  Si  Si17  1  0.168262  0.831738  0.001023  1
  Si  Si18  1  0.168262  0.336522  0.001023  1
  Si  Si19  1  0.663478  0.831738  0.001023  1
  Rh  Rh20  1  0.333333  0.666667  0.458549  1
  Rh  Rh21  1  0.666667  0.333333  0.529379  1
  Rh  Rh22  1  0.666667  0.333333  0.970621  1
  Rh  Rh23  1  0.333333  0.666667  0.041451  1
