# generated using pymatgen
data_TbDy9(In2Au)4
_symmetry_space_group_name_H-M   'P 1'
_cell_length_a   3.64842700
_cell_length_b   8.20921588
_cell_length_c   18.42730300
_cell_angle_alpha   90.03874989
_cell_angle_beta   90.00000000
_cell_angle_gamma   90.00000000
_symmetry_Int_Tables_number   1
_chemical_formula_structural   TbDy9(In2Au)4
_chemical_formula_sum   'Tb1 Dy9 In8 Au4'
_cell_volume   551.91095577
_cell_formula_units_Z   1
loop_
 _symmetry_equiv_pos_site_id
 _symmetry_equiv_pos_as_xyz
  1  'x, y, z'
loop_
 _atom_site_type_symbol
 _atom_site_label
 _atom_site_symmetry_multiplicity
 _atom_site_fract_x
 _atom_site_fract_y
 _atom_site_fract_z
 _atom_site_occupancy
  Tb  Tb0  1  0.000000  0.500000  0.500000  1
  Dy  Dy1  1  0.000000  0.000000  0.000000  1
  Dy  Dy2  1  0.000000  0.736115  0.282236  1
  Dy  Dy3  1  0.000000  0.263885  0.717764  1
  Dy  Dy4  1  0.000000  0.763907  0.782547  1
  Dy  Dy5  1  0.000000  0.236093  0.217453  1
  Dy  Dy6  1  0.000000  0.619878  0.079405  1
  Dy  Dy7  1  0.000000  0.380122  0.920595  1
  Dy  Dy8  1  0.000000  0.879886  0.579608  1
  Dy  Dy9  1  0.000000  0.120114  0.420392  1
  In  In10  1  0.500000  0.711167  0.932921  1
  In  In11  1  0.500000  0.288833  0.067079  1
  In  In12  1  0.500000  0.789683  0.432679  1
  In  In13  1  0.500000  0.210317  0.567321  1
  In  In14  1  0.500000  0.580634  0.647310  1
  In  In15  1  0.500000  0.419366  0.352690  1
  In  In16  1  0.500000  0.919577  0.146630  1
  In  In17  1  0.500000  0.080423  0.853370  1
  Au  Au18  1  0.500000  0.526601  0.196316  1
  Au  Au19  1  0.500000  0.473399  0.803684  1
  Au  Au20  1  0.500000  0.973432  0.696638  1
  Au  Au21  1  0.500000  0.026568  0.303362  1
