# generated using pymatgen
data_Zr2Si4Ni10Mo2P3
_symmetry_space_group_name_H-M   'P 1'
_cell_length_a   9.20612626
_cell_length_b   9.15608667
_cell_length_c   3.65796300
_cell_angle_alpha   90.00000000
_cell_angle_beta   90.00000000
_cell_angle_gamma   120.51301562
_symmetry_Int_Tables_number   1
_chemical_formula_structural   Zr2Si4Ni10Mo2P3
_chemical_formula_sum   'Zr2 Si4 Ni10 Mo2 P3'
_cell_volume   265.63689190
_cell_formula_units_Z   1
loop_
 _symmetry_equiv_pos_site_id
 _symmetry_equiv_pos_as_xyz
  1  'x, y, z'
loop_
 _atom_site_type_symbol
 _atom_site_label
 _atom_site_symmetry_multiplicity
 _atom_site_fract_x
 _atom_site_fract_y
 _atom_site_fract_z
 _atom_site_occupancy
  Zr  Zr0  1  0.995228  0.000691  0.000000  1
  Zr  Zr1  1  0.335242  0.668518  0.500000  1
  Si  Si2  1  0.659412  0.320544  0.000000  1
  Si  Si3  1  0.083395  0.453795  0.000000  1
  Si  Si4  1  0.549425  0.630158  0.000000  1
  Si  Si5  1  0.380599  0.928918  0.000000  1
  Ni  Ni6  1  0.290889  0.390848  0.000000  1
  Ni  Ni7  1  0.103793  0.714397  0.000000  1
  Ni  Ni8  1  0.370906  0.168787  0.000000  1
  Ni  Ni9  1  0.796738  0.624740  0.000000  1
  Ni  Ni10  1  0.828154  0.205109  0.000000  1
  Ni  Ni11  1  0.227601  0.948074  0.500000  1
  Ni  Ni12  1  0.052370  0.275017  0.500000  1
  Ni  Ni13  1  0.723857  0.777039  0.500000  1
  Ni  Ni14  1  0.571475  0.108675  0.500000  1
  Ni  Ni15  1  0.608042  0.899549  0.000000  1
  Mo  Mo16  1  0.886677  0.454869  0.500000  1
  Mo  Mo17  1  0.543836  0.427908  0.500000  1
  P  P18  1  0.250871  0.210629  0.500000  1
  P  P19  1  0.784623  0.045081  0.500000  1
  P  P20  1  0.956865  0.746657  0.500000  1
