# generated using pymatgen
data_Pm2LuUO8
_symmetry_space_group_name_H-M   'P 1'
_cell_length_a   6.61717339
_cell_length_b   6.61717384
_cell_length_c   6.61717313
_cell_angle_alpha   131.53911285
_cell_angle_beta   131.53911037
_cell_angle_gamma   70.95793299
_symmetry_Int_Tables_number   1
_chemical_formula_structural   Pm2LuUO8
_chemical_formula_sum   'Pm2 Lu1 U1 O8'
_cell_volume   158.96741620
_cell_formula_units_Z   1
loop_
 _symmetry_equiv_pos_site_id
 _symmetry_equiv_pos_as_xyz
  1  'x, y, z'
loop_
 _atom_site_type_symbol
 _atom_site_label
 _atom_site_symmetry_multiplicity
 _atom_site_fract_x
 _atom_site_fract_y
 _atom_site_fract_z
 _atom_site_occupancy
  Pm  Pm0  1  0.000000  0.000000  0.000000  1
  Pm  Pm1  1  0.750000  0.250000  0.500000  1
  Lu  Lu2  1  0.500000  0.500000  0.000000  1
  U  U3  1  0.250000  0.750000  0.500000  1
  O  O4  1  0.370510  0.399545  0.512163  1
  O  O5  1  0.887381  0.858347  0.487837  1
  O  O6  1  0.141653  0.112619  0.512163  1
  O  O7  1  0.600455  0.112619  0.970966  1
  O  O8  1  0.887381  0.399545  0.029034  1
  O  O9  1  0.600455  0.629490  0.487837  1
  O  O10  1  0.141653  0.629490  0.029034  1
  O  O11  1  0.370510  0.858347  0.970966  1
