# generated using pymatgen
data_Dy4Ho(SnSb)2
_symmetry_space_group_name_H-M   'P 1'
_cell_length_a   8.72391238
_cell_length_b   8.72391349
_cell_length_c   8.14089300
_cell_angle_alpha   90.00000000
_cell_angle_beta   90.00000000
_cell_angle_gamma   124.72382098
_symmetry_Int_Tables_number   1
_chemical_formula_structural   Dy4Ho(SnSb)2
_chemical_formula_sum   'Dy8 Ho2 Sn4 Sb4'
_cell_volume   509.23415419
_cell_formula_units_Z   2
loop_
 _symmetry_equiv_pos_site_id
 _symmetry_equiv_pos_as_xyz
  1  'x, y, z'
loop_
 _atom_site_type_symbol
 _atom_site_label
 _atom_site_symmetry_multiplicity
 _atom_site_fract_x
 _atom_site_fract_y
 _atom_site_fract_z
 _atom_site_occupancy
  Dy  Dy0  1  0.030031  0.301630  0.335954  1
  Dy  Dy1  1  0.969969  0.698370  0.664046  1
  Dy  Dy2  1  0.469969  0.198370  0.835954  1
  Dy  Dy3  1  0.801630  0.530031  0.164046  1
  Dy  Dy4  1  0.530031  0.801630  0.164046  1
  Dy  Dy5  1  0.198370  0.469969  0.835954  1
  Dy  Dy6  1  0.698370  0.969969  0.664046  1
  Dy  Dy7  1  0.301630  0.030031  0.335954  1
  Ho  Ho8  1  0.000000  0.000000  0.000000  1
  Ho  Ho9  1  0.500000  0.500000  0.500000  1
  Sn  Sn10  1  0.363683  0.363683  0.136009  1
  Sn  Sn11  1  0.636317  0.636317  0.863991  1
  Sn  Sn12  1  0.136317  0.136317  0.636009  1
  Sn  Sn13  1  0.863683  0.863683  0.363991  1
  Sb  Sb14  1  0.797558  0.202442  0.000000  1
  Sb  Sb15  1  0.202442  0.797558  0.000000  1
  Sb  Sb16  1  0.702442  0.297558  0.500000  1
  Sb  Sb17  1  0.297558  0.702442  0.500000  1
