# generated using pymatgen
data_NdTm6Th3Sn8
_symmetry_space_group_name_H-M   'P 1'
_cell_length_a   8.09789900
_cell_length_b   8.17995139
_cell_length_c   15.44920962
_cell_angle_alpha   90.06673993
_cell_angle_beta   90.00000000
_cell_angle_gamma   90.00000000
_symmetry_Int_Tables_number   1
_chemical_formula_structural   NdTm6Th3Sn8
_chemical_formula_sum   'Nd2 Tm12 Th6 Sn16'
_cell_volume   1023.36144212
_cell_formula_units_Z   2
loop_
 _symmetry_equiv_pos_site_id
 _symmetry_equiv_pos_as_xyz
  1  'x, y, z'
loop_
 _atom_site_type_symbol
 _atom_site_label
 _atom_site_symmetry_multiplicity
 _atom_site_fract_x
 _atom_site_fract_y
 _atom_site_fract_z
 _atom_site_occupancy
  Nd  Nd0  1  0.520174  0.322003  0.902735  1
  Nd  Nd1  1  0.020174  0.177997  0.597265  1
  Tm  Tm2  1  0.360254  0.837296  0.875652  1
  Tm  Tm3  1  0.860254  0.662704  0.624348  1
  Tm  Tm4  1  0.638531  0.163117  0.376114  1
  Tm  Tm5  1  0.138531  0.336883  0.123886  1
  Tm  Tm6  1  0.639982  0.162875  0.124066  1
  Tm  Tm7  1  0.139982  0.337125  0.375934  1
  Tm  Tm8  1  0.361441  0.837638  0.624354  1
  Tm  Tm9  1  0.861441  0.662362  0.875646  1
  Tm  Tm10  1  0.191299  0.500828  0.750172  1
  Tm  Tm11  1  0.691299  0.999172  0.749828  1
  Tm  Tm12  1  0.809309  0.500368  0.250017  1
  Tm  Tm13  1  0.309309  0.999632  0.249983  1
  Th  Th14  1  0.480538  0.678659  0.403679  1
  Th  Th15  1  0.980538  0.821341  0.096321  1
  Th  Th16  1  0.481068  0.679081  0.096503  1
  Th  Th17  1  0.981068  0.820919  0.403497  1
  Th  Th18  1  0.518292  0.321946  0.596107  1
  Th  Th19  1  0.018292  0.178054  0.903893  1
  Sn  Sn20  1  0.299341  0.038792  0.042856  1
  Sn  Sn21  1  0.799341  0.461208  0.457144  1
  Sn  Sn22  1  0.700063  0.959654  0.542033  1
  Sn  Sn23  1  0.200063  0.540346  0.957967  1
  Sn  Sn24  1  0.699785  0.958344  0.958048  1
  Sn  Sn25  1  0.199785  0.541656  0.541952  1
  Sn  Sn26  1  0.299874  0.039780  0.457231  1
  Sn  Sn27  1  0.799874  0.460220  0.042769  1
  Sn  Sn28  1  0.557124  0.624054  0.749467  1
  Sn  Sn29  1  0.057124  0.875946  0.750533  1
  Sn  Sn30  1  0.442650  0.375997  0.249956  1
  Sn  Sn31  1  0.942650  0.124003  0.250044  1
  Sn  Sn32  1  0.326341  0.143790  0.750427  1
  Sn  Sn33  1  0.826341  0.356210  0.749573  1
  Sn  Sn34  1  0.673935  0.857266  0.250097  1
  Sn  Sn35  1  0.173935  0.642734  0.249903  1
