# generated using pymatgen
data_Tm9Lu11Pb16
_symmetry_space_group_name_H-M   'P 1'
_cell_length_a   8.10935320
_cell_length_b   8.15363211
_cell_length_c   15.38829120
_cell_angle_alpha   90.00426208
_cell_angle_beta   90.01781276
_cell_angle_gamma   90.01812921
_symmetry_Int_Tables_number   1
_chemical_formula_structural   Tm9Lu11Pb16
_chemical_formula_sum   'Tm9 Lu11 Pb16'
_cell_volume   1017.48421534
_cell_formula_units_Z   1
loop_
 _symmetry_equiv_pos_site_id
 _symmetry_equiv_pos_as_xyz
  1  'x, y, z'
loop_
 _atom_site_type_symbol
 _atom_site_label
 _atom_site_symmetry_multiplicity
 _atom_site_fract_x
 _atom_site_fract_y
 _atom_site_fract_z
 _atom_site_occupancy
  Tm  Tm0  1  0.877813  0.657580  0.878374  1
  Tm  Tm1  1  0.540491  0.323934  0.900722  1
  Tm  Tm2  1  0.040352  0.176052  0.599328  1
  Tm  Tm3  1  0.459553  0.675947  0.400661  1
  Tm  Tm4  1  0.959225  0.824616  0.100062  1
  Tm  Tm5  1  0.459702  0.675668  0.099402  1
  Tm  Tm6  1  0.959644  0.824276  0.400488  1
  Tm  Tm7  1  0.540059  0.323793  0.599260  1
  Tm  Tm8  1  0.040596  0.175570  0.900407  1
  Lu  Lu9  1  0.377554  0.842609  0.877782  1
  Lu  Lu10  1  0.877337  0.657043  0.621790  1
  Lu  Lu11  1  0.622864  0.156965  0.377760  1
  Lu  Lu12  1  0.122686  0.343133  0.121920  1
  Lu  Lu13  1  0.622237  0.157039  0.122515  1
  Lu  Lu14  1  0.122669  0.342804  0.377934  1
  Lu  Lu15  1  0.377646  0.842916  0.621808  1
  Lu  Lu16  1  0.209085  0.505326  0.749740  1
  Lu  Lu17  1  0.708831  0.994820  0.749732  1
  Lu  Lu18  1  0.791514  0.494590  0.250153  1
  Lu  Lu19  1  0.291078  0.005392  0.249988  1
  Pb  Pb20  1  0.280660  0.033003  0.042847  1
  Pb  Pb21  1  0.781074  0.465751  0.456792  1
  Pb  Pb22  1  0.719016  0.966236  0.542946  1
  Pb  Pb23  1  0.219377  0.533827  0.957224  1
  Pb  Pb24  1  0.718442  0.966722  0.957308  1
  Pb  Pb25  1  0.218337  0.533724  0.542883  1
  Pb  Pb26  1  0.281660  0.033555  0.457410  1
  Pb  Pb27  1  0.780426  0.465773  0.043703  1
  Pb  Pb28  1  0.570521  0.626413  0.749509  1
  Pb  Pb29  1  0.071711  0.873575  0.749391  1
  Pb  Pb30  1  0.428832  0.374263  0.250144  1
  Pb  Pb31  1  0.929356  0.127495  0.250069  1
  Pb  Pb32  1  0.351685  0.156998  0.749938  1
  Pb  Pb33  1  0.851675  0.343331  0.749967  1
  Pb  Pb34  1  0.648058  0.842607  0.250052  1
  Pb  Pb35  1  0.148233  0.656655  0.249991  1
