# generated using pymatgen
data_TbSm2Th5(ReC2)4
_symmetry_space_group_name_H-M   'P 1'
_cell_length_a   5.33826300
_cell_length_b   6.66444390
_cell_length_c   10.01864833
_cell_angle_alpha   90.08301520
_cell_angle_beta   90.00000000
_cell_angle_gamma   90.00000000
_symmetry_Int_Tables_number   1
_chemical_formula_structural   TbSm2Th5(ReC2)4
_chemical_formula_sum   'Tb1 Sm2 Th5 Re4 C8'
_cell_volume   356.42861204
_cell_formula_units_Z   1
loop_
 _symmetry_equiv_pos_site_id
 _symmetry_equiv_pos_as_xyz
  1  'x, y, z'
loop_
 _atom_site_type_symbol
 _atom_site_label
 _atom_site_symmetry_multiplicity
 _atom_site_fract_x
 _atom_site_fract_y
 _atom_site_fract_z
 _atom_site_occupancy
  Tb  Tb0  1  0.750000  0.319574  0.448974  1
  Sm  Sm1  1  0.250000  0.187835  0.949930  1
  Sm  Sm2  1  0.250000  0.684070  0.548650  1
  Th  Th3  1  0.750000  0.472599  0.778654  1
  Th  Th4  1  0.250000  0.026333  0.283597  1
  Th  Th5  1  0.750000  0.975621  0.715909  1
  Th  Th6  1  0.250000  0.522917  0.222302  1
  Th  Th7  1  0.750000  0.812648  0.047318  1
  Re  Re8  1  0.750000  0.771983  0.364786  1
  Re  Re9  1  0.250000  0.729205  0.861010  1
  Re  Re10  1  0.250000  0.228938  0.636739  1
  Re  Re11  1  0.750000  0.272972  0.138038  1
  C  C12  1  0.250000  0.964123  0.739791  1
  C  C13  1  0.750000  0.534290  0.244057  1
  C  C14  1  0.250000  0.464511  0.757877  1
  C  C15  1  0.750000  0.038708  0.261111  1
  C  C16  1  0.250000  0.323187  0.448978  1
  C  C17  1  0.750000  0.171911  0.949360  1
  C  C18  1  0.250000  0.824642  0.051915  1
  C  C19  1  0.750000  0.673933  0.551005  1
