# generated using pymatgen
data_Ce(Al5Re)2
_symmetry_space_group_name_H-M   'P 1'
_cell_length_a   6.93904439
_cell_length_b   6.93918748
_cell_length_c   9.24769500
_cell_angle_alpha   90.00000000
_cell_angle_beta   90.00000000
_cell_angle_gamma   96.92816446
_symmetry_Int_Tables_number   1
_chemical_formula_structural   Ce(Al5Re)2
_chemical_formula_sum   'Ce2 Al20 Re4'
_cell_volume   442.03738901
_cell_formula_units_Z   2
loop_
 _symmetry_equiv_pos_site_id
 _symmetry_equiv_pos_as_xyz
  1  'x, y, z'
loop_
 _atom_site_type_symbol
 _atom_site_label
 _atom_site_symmetry_multiplicity
 _atom_site_fract_x
 _atom_site_fract_y
 _atom_site_fract_z
 _atom_site_occupancy
  Ce  Ce0  1  0.872565  0.127485  0.750000  1
  Ce  Ce1  1  0.127435  0.872515  0.250000  1
  Al  Al2  1  0.593024  0.861917  0.250000  1
  Al  Al3  1  0.784013  0.524291  0.250000  1
  Al  Al4  1  0.158122  0.841885  0.900359  1
  Al  Al5  1  0.406976  0.138083  0.750000  1
  Al  Al6  1  0.622498  0.377490  0.954496  1
  Al  Al7  1  0.841878  0.158115  0.400359  1
  Al  Al8  1  0.773801  0.773809  0.999997  1
  Al  Al9  1  0.861909  0.593030  0.750000  1
  Al  Al10  1  0.841878  0.158115  0.099641  1
  Al  Al11  1  0.215987  0.475709  0.750000  1
  Al  Al12  1  0.158122  0.841885  0.599641  1
  Al  Al13  1  0.773801  0.773809  0.500003  1
  Al  Al14  1  0.475700  0.215967  0.250000  1
  Al  Al15  1  0.622498  0.377490  0.545504  1
  Al  Al16  1  0.226199  0.226191  0.499997  1
  Al  Al17  1  0.377502  0.622510  0.454496  1
  Al  Al18  1  0.138091  0.406970  0.250000  1
  Al  Al19  1  0.524300  0.784033  0.750000  1
  Al  Al20  1  0.377502  0.622510  0.045504  1
  Al  Al21  1  0.226199  0.226191  0.000003  1
  Re  Re22  1  0.500000  0.000000  0.000000  1
  Re  Re23  1  0.500000  0.000000  0.500000  1
  Re  Re24  1  0.000000  0.500000  0.000000  1
  Re  Re25  1  0.000000  0.500000  0.500000  1
