# generated using pymatgen
data_Sr4LuSn3
_symmetry_space_group_name_H-M   'P 1'
_cell_length_a   9.71826890
_cell_length_b   9.71860033
_cell_length_c   9.71826995
_cell_angle_alpha   96.76850571
_cell_angle_beta   96.76010914
_cell_angle_gamma   139.85356312
_symmetry_Int_Tables_number   1
_chemical_formula_structural   Sr4LuSn3
_chemical_formula_sum   'Sr8 Lu2 Sn6'
_cell_volume   555.85217847
_cell_formula_units_Z   2
loop_
 _symmetry_equiv_pos_site_id
 _symmetry_equiv_pos_as_xyz
  1  'x, y, z'
loop_
 _atom_site_type_symbol
 _atom_site_label
 _atom_site_symmetry_multiplicity
 _atom_site_fract_x
 _atom_site_fract_y
 _atom_site_fract_z
 _atom_site_occupancy
  Sr  Sr0  1  0.085706  0.212871  0.298504  1
  Sr  Sr1  1  0.914294  0.787129  0.701496  1
  Sr  Sr2  1  0.787177  0.085670  0.872839  1
  Sr  Sr3  1  0.414366  0.712871  0.127164  1
  Sr  Sr4  1  0.212823  0.914330  0.127161  1
  Sr  Sr5  1  0.585634  0.287129  0.872836  1
  Sr  Sr6  1  0.712831  0.585670  0.298494  1
  Sr  Sr7  1  0.287169  0.414330  0.701506  1
  Lu  Lu8  1  0.249983  0.750000  0.499983  1
  Lu  Lu9  1  0.750017  0.250000  0.500017  1
  Sn  Sn10  1  0.143806  0.643806  0.787575  1
  Sn  Sn11  1  0.856194  0.356194  0.212425  1
  Sn  Sn12  1  0.356228  0.143806  0.500000  1
  Sn  Sn13  1  0.643772  0.856194  0.500000  1
  Sn  Sn14  1  0.249999  0.250000  0.999999  1
  Sn  Sn15  1  0.750001  0.750000  0.000001  1
