# generated using pymatgen
data_Dy3Er9In20
_symmetry_space_group_name_H-M   'P 1'
_cell_length_a   6.49479970
_cell_length_b   10.38904256
_cell_length_c   12.21659459
_cell_angle_alpha   90.06450694
_cell_angle_beta   89.97772297
_cell_angle_gamma   89.99633554
_symmetry_Int_Tables_number   1
_chemical_formula_structural   Dy3Er9In20
_chemical_formula_sum   'Dy3 Er9 In20'
_cell_volume   824.31108527
_cell_formula_units_Z   1
loop_
 _symmetry_equiv_pos_site_id
 _symmetry_equiv_pos_as_xyz
  1  'x, y, z'
loop_
 _atom_site_type_symbol
 _atom_site_label
 _atom_site_symmetry_multiplicity
 _atom_site_fract_x
 _atom_site_fract_y
 _atom_site_fract_z
 _atom_site_occupancy
  Dy  Dy0  1  0.389983  0.992447  0.358369  1
  Dy  Dy1  1  0.890211  0.007982  0.141534  1
  Dy  Dy2  1  0.609791  0.492093  0.641471  1
  Er  Er3  1  0.350746  0.750705  0.054231  1
  Er  Er4  1  0.149190  0.749500  0.554348  1
  Er  Er5  1  0.650045  0.250642  0.945631  1
  Er  Er6  1  0.851104  0.249045  0.445576  1
  Er  Er7  1  0.890681  0.492253  0.140167  1
  Er  Er8  1  0.609379  0.007700  0.641119  1
  Er  Er9  1  0.109761  0.992031  0.858860  1
  Er  Er10  1  0.390482  0.507721  0.359188  1
  Er  Er11  1  0.109268  0.507948  0.859356  1
  In  In12  1  0.614863  0.750104  0.505500  1
  In  In13  1  0.885412  0.749722  0.005298  1
  In  In14  1  0.385075  0.250455  0.494852  1
  In  In15  1  0.115815  0.250321  0.993495  1
  In  In16  1  0.650943  0.748719  0.244374  1
  In  In17  1  0.848840  0.750632  0.744624  1
  In  In18  1  0.348661  0.249522  0.755995  1
  In  In19  1  0.151095  0.251350  0.255251  1
  In  In20  1  0.125723  0.748814  0.282643  1
  In  In21  1  0.372600  0.749813  0.782975  1
  In  In22  1  0.874284  0.249033  0.717384  1
  In  In23  1  0.625718  0.251406  0.217358  1
  In  In24  1  0.875184  0.542938  0.399788  1
  In  In25  1  0.625144  0.956625  0.899851  1
  In  In26  1  0.125252  0.043248  0.600123  1
  In  In27  1  0.374951  0.457015  0.099877  1
  In  In28  1  0.124000  0.456402  0.600017  1
  In  In29  1  0.375444  0.044183  0.098711  1
  In  In30  1  0.875451  0.955842  0.401199  1
  In  In31  1  0.624906  0.543791  0.900833  1
