# generated using pymatgen
data_Ho8Si7SnPd8
_symmetry_space_group_name_H-M   'P 1'
_cell_length_a   4.35699500
_cell_length_b   7.58732079
_cell_length_c   13.92146749
_cell_angle_alpha   89.72980134
_cell_angle_beta   90.00000000
_cell_angle_gamma   90.00000000
_symmetry_Int_Tables_number   1
_chemical_formula_structural   Ho8Si7SnPd8
_chemical_formula_sum   'Ho8 Si7 Sn1 Pd8'
_cell_volume   460.20962388
_cell_formula_units_Z   1
loop_
 _symmetry_equiv_pos_site_id
 _symmetry_equiv_pos_as_xyz
  1  'x, y, z'
loop_
 _atom_site_type_symbol
 _atom_site_label
 _atom_site_symmetry_multiplicity
 _atom_site_fract_x
 _atom_site_fract_y
 _atom_site_fract_z
 _atom_site_occupancy
  Ho  Ho0  1  0.000000  0.213806  0.746123  1
  Ho  Ho1  1  0.000000  0.212345  0.251667  1
  Ho  Ho2  1  0.500000  0.782340  0.744820  1
  Ho  Ho3  1  0.500000  0.788333  0.252155  1
  Ho  Ho4  1  0.000000  0.289299  0.499216  1
  Ho  Ho5  1  0.500000  0.705713  0.001486  1
  Ho  Ho6  1  0.000000  0.307351  0.006449  1
  Ho  Ho7  1  0.500000  0.701598  0.498933  1
  Si  Si8  1  0.000000  0.585088  0.855942  1
  Si  Si9  1  0.000000  0.595153  0.145054  1
  Si  Si10  1  0.500000  0.408855  0.642207  1
  Si  Si11  1  0.500000  0.408803  0.358070  1
  Si  Si12  1  0.000000  0.909139  0.405800  1
  Si  Si13  1  0.000000  0.909276  0.592582  1
  Si  Si14  1  0.500000  0.093597  0.104444  1
  Sn  Sn15  1  0.500000  0.094318  0.903236  1
  Pd  Pd16  1  0.000000  0.900282  0.888111  1
  Pd  Pd17  1  0.000000  0.925255  0.109374  1
  Pd  Pd18  1  0.500000  0.076254  0.608296  1
  Pd  Pd19  1  0.500000  0.075600  0.390974  1
  Pd  Pd20  1  0.000000  0.579744  0.344532  1
  Pd  Pd21  1  0.000000  0.579039  0.652794  1
  Pd  Pd22  1  0.500000  0.423246  0.158611  1
  Pd  Pd23  1  0.500000  0.435566  0.839122  1
