# generated using pymatgen
data_MgMn7Zn6(NiO6)4
_symmetry_space_group_name_H-M   'P 1'
_cell_length_a   5.98350880
_cell_length_b   5.98272476
_cell_length_c   13.24309863
_cell_angle_alpha   77.17095110
_cell_angle_beta   77.50438508
_cell_angle_gamma   90.12903911
_symmetry_Int_Tables_number   1
_chemical_formula_structural   MgMn7Zn6(NiO6)4
_chemical_formula_sum   'Mg1 Mn7 Zn6 Ni4 O24'
_cell_volume   450.65844694
_cell_formula_units_Z   1
loop_
 _symmetry_equiv_pos_site_id
 _symmetry_equiv_pos_as_xyz
  1  'x, y, z'
loop_
 _atom_site_type_symbol
 _atom_site_label
 _atom_site_symmetry_multiplicity
 _atom_site_fract_x
 _atom_site_fract_y
 _atom_site_fract_z
 _atom_site_occupancy
  Mg  Mg0  1  0.500000  0.500000  0.500000  1
  Mn  Mn1  1  0.500000  0.000000  0.000000  1
  Mn  Mn2  1  0.000000  0.500000  0.500000  1
  Mn  Mn3  1  0.158110  0.168372  0.166746  1
  Mn  Mn4  1  0.841890  0.831628  0.833254  1
  Mn  Mn5  1  0.168633  0.165340  0.665856  1
  Mn  Mn6  1  0.831367  0.834660  0.334144  1
  Mn  Mn7  1  0.500000  0.500000  0.000000  1
  Zn  Zn8  1  0.291093  0.024547  0.417546  1
  Zn  Zn9  1  0.977604  0.699180  0.083707  1
  Zn  Zn10  1  0.626947  0.366833  0.749498  1
  Zn  Zn11  1  0.022396  0.300820  0.916293  1
  Zn  Zn12  1  0.708907  0.975453  0.582454  1
  Zn  Zn13  1  0.373053  0.633167  0.250502  1
  Ni  Ni14  1  0.168620  0.663858  0.666619  1
  Ni  Ni15  1  0.831380  0.336142  0.333381  1
  Ni  Ni16  1  0.660206  0.166432  0.169848  1
  Ni  Ni17  1  0.339794  0.833568  0.830152  1
  O  O18  1  0.079340  0.071085  0.821507  1
  O  O19  1  0.770581  0.737817  0.490376  1
  O  O20  1  0.397167  0.394636  0.163392  1
  O  O21  1  0.931297  0.923216  0.678165  1
  O  O22  1  0.610635  0.601620  0.334747  1
  O  O23  1  0.235697  0.245627  0.013475  1
  O  O24  1  0.387807  0.931611  0.666904  1
  O  O25  1  0.056987  0.592917  0.345299  1
  O  O26  1  0.704409  0.249942  0.005011  1
  O  O27  1  0.076275  0.615043  0.827944  1
  O  O28  1  0.766694  0.286296  0.494334  1
  O  O29  1  0.402015  0.947382  0.157213  1
  O  O30  1  0.229419  0.262183  0.509624  1
  O  O31  1  0.920660  0.928915  0.178493  1
  O  O32  1  0.602833  0.605364  0.836608  1
  O  O33  1  0.389365  0.398380  0.665253  1
  O  O34  1  0.068703  0.076785  0.321835  1
  O  O35  1  0.764303  0.754373  0.986525  1
  O  O36  1  0.943013  0.407083  0.654701  1
  O  O37  1  0.612193  0.068389  0.333096  1
  O  O38  1  0.295591  0.750058  0.994989  1
  O  O39  1  0.233306  0.713704  0.505666  1
  O  O40  1  0.923725  0.384957  0.172056  1
  O  O41  1  0.597985  0.052618  0.842787  1
