# generated using pymatgen
data_BaAs12Ru3Rh
_symmetry_space_group_name_H-M   'P 1'
_cell_length_a   7.49490702
_cell_length_b   7.49490666
_cell_length_c   7.49395100
_cell_angle_alpha   109.46863230
_cell_angle_beta   109.46863133
_cell_angle_gamma   109.47381460
_symmetry_Int_Tables_number   1
_chemical_formula_structural   BaAs12Ru3Rh
_chemical_formula_sum   'Ba1 As12 Ru3 Rh1'
_cell_volume   324.06735373
_cell_formula_units_Z   1
loop_
 _symmetry_equiv_pos_site_id
 _symmetry_equiv_pos_as_xyz
  1  'x, y, z'
loop_
 _atom_site_type_symbol
 _atom_site_label
 _atom_site_symmetry_multiplicity
 _atom_site_fract_x
 _atom_site_fract_y
 _atom_site_fract_z
 _atom_site_occupancy
  Ba  Ba0  1  0.000000  0.000000  0.000000  1
  As  As1  1  0.847638  0.644286  0.496596  1
  As  As2  1  0.152362  0.355714  0.503404  1
  As  As3  1  0.151461  0.648365  0.799710  1
  As  As4  1  0.848539  0.351635  0.200290  1
  As  As5  1  0.648365  0.496904  0.848656  1
  As  As6  1  0.351635  0.503096  0.151344  1
  As  As7  1  0.644286  0.796649  0.147691  1
  As  As8  1  0.355714  0.203351  0.852309  1
  As  As9  1  0.496904  0.848539  0.648248  1
  As  As10  1  0.503096  0.151461  0.351752  1
  As  As11  1  0.203351  0.847638  0.351042  1
  As  As12  1  0.796649  0.152362  0.648958  1
  Ru  Ru13  1  0.500000  0.500000  0.500000  1
  Ru  Ru14  1  0.500000  0.000000  0.000000  1
  Ru  Ru15  1  0.000000  0.500000  0.000000  1
  Rh  Rh16  1  0.000000  0.000000  0.500000  1
