# generated using pymatgen
data_Ac12OsPt3
_symmetry_space_group_name_H-M   'P 1'
_cell_length_a   6.98422498
_cell_length_b   7.77618112
_cell_length_c   10.77771500
_cell_angle_alpha   90.00000000
_cell_angle_beta   90.00000000
_cell_angle_gamma   90.21794160
_symmetry_Int_Tables_number   1
_chemical_formula_structural   Ac12OsPt3
_chemical_formula_sum   'Ac12 Os1 Pt3'
_cell_volume   585.33991651
_cell_formula_units_Z   1
loop_
 _symmetry_equiv_pos_site_id
 _symmetry_equiv_pos_as_xyz
  1  'x, y, z'
loop_
 _atom_site_type_symbol
 _atom_site_label
 _atom_site_symmetry_multiplicity
 _atom_site_fract_x
 _atom_site_fract_y
 _atom_site_fract_z
 _atom_site_occupancy
  Ac  Ac0  1  0.323665  0.677139  0.071350  1
  Ac  Ac1  1  0.168564  0.169315  0.427678  1
  Ac  Ac2  1  0.668232  0.325873  0.567130  1
  Ac  Ac3  1  0.832361  0.825360  0.935888  1
  Ac  Ac4  1  0.668232  0.325873  0.932870  1
  Ac  Ac5  1  0.832361  0.825360  0.564112  1
  Ac  Ac6  1  0.323665  0.677139  0.428650  1
  Ac  Ac7  1  0.168564  0.169315  0.072322  1
  Ac  Ac8  1  0.850816  0.548483  0.250000  1
  Ac  Ac9  1  0.662055  0.037870  0.250000  1
  Ac  Ac10  1  0.153552  0.459729  0.750000  1
  Ac  Ac11  1  0.348006  0.960916  0.750000  1
  Os  Os12  1  0.068886  0.878630  0.250000  1
  Pt  Pt13  1  0.433257  0.377926  0.250000  1
  Pt  Pt14  1  0.925582  0.120389  0.750000  1
  Pt  Pt15  1  0.572206  0.620679  0.750000  1
