# generated using pymatgen
data_Pr2Ho2TmPb4
_symmetry_space_group_name_H-M   'P 1'
_cell_length_a   8.27697900
_cell_length_b   8.38659500
_cell_length_c   15.82280800
_cell_angle_alpha   90.00000000
_cell_angle_beta   90.00000000
_cell_angle_gamma   90.00000000
_symmetry_Int_Tables_number   1
_chemical_formula_structural   Pr2Ho2TmPb4
_chemical_formula_sum   'Pr8 Ho8 Tm4 Pb16'
_cell_volume   1098.35082962
_cell_formula_units_Z   4
loop_
 _symmetry_equiv_pos_site_id
 _symmetry_equiv_pos_as_xyz
  1  'x, y, z'
loop_
 _atom_site_type_symbol
 _atom_site_label
 _atom_site_symmetry_multiplicity
 _atom_site_fract_x
 _atom_site_fract_y
 _atom_site_fract_z
 _atom_site_occupancy
  Pr  Pr0  1  0.476088  0.677652  0.597229  1
  Pr  Pr1  1  0.976088  0.822348  0.902771  1
  Pr  Pr2  1  0.523912  0.322348  0.097229  1
  Pr  Pr3  1  0.023912  0.177652  0.402771  1
  Pr  Pr4  1  0.523912  0.322348  0.402771  1
  Pr  Pr5  1  0.023912  0.177652  0.097229  1
  Pr  Pr6  1  0.476088  0.677652  0.902771  1
  Pr  Pr7  1  0.976088  0.822348  0.597229  1
  Ho  Ho8  1  0.632924  0.158255  0.622267  1
  Ho  Ho9  1  0.132924  0.341745  0.877733  1
  Ho  Ho10  1  0.367076  0.841745  0.122267  1
  Ho  Ho11  1  0.867076  0.658255  0.377733  1
  Ho  Ho12  1  0.367076  0.841745  0.377733  1
  Ho  Ho13  1  0.867076  0.658255  0.122267  1
  Ho  Ho14  1  0.632924  0.158255  0.877733  1
  Ho  Ho15  1  0.132924  0.341745  0.622267  1
  Tm  Tm16  1  0.798552  0.494618  0.750000  1
  Tm  Tm17  1  0.298552  0.005382  0.750000  1
  Tm  Tm18  1  0.201448  0.505382  0.250000  1
  Tm  Tm19  1  0.701448  0.994618  0.250000  1
  Pb  Pb20  1  0.705839  0.959213  0.456284  1
  Pb  Pb21  1  0.205839  0.540787  0.043716  1
  Pb  Pb22  1  0.294161  0.040787  0.956284  1
  Pb  Pb23  1  0.794161  0.459213  0.543716  1
  Pb  Pb24  1  0.294161  0.040787  0.543716  1
  Pb  Pb25  1  0.794161  0.459213  0.956284  1
  Pb  Pb26  1  0.705839  0.959213  0.043716  1
  Pb  Pb27  1  0.205839  0.540787  0.456284  1
  Pb  Pb28  1  0.436675  0.370582  0.750000  1
  Pb  Pb29  1  0.936675  0.129418  0.750000  1
  Pb  Pb30  1  0.563325  0.629418  0.250000  1
  Pb  Pb31  1  0.063325  0.870582  0.250000  1
  Pb  Pb32  1  0.662964  0.850429  0.750000  1
  Pb  Pb33  1  0.162964  0.649571  0.750000  1
  Pb  Pb34  1  0.337036  0.149571  0.250000  1
  Pb  Pb35  1  0.837036  0.350429  0.250000  1
