# generated using pymatgen
data_Zr6TaNb2Al13Co7
_symmetry_space_group_name_H-M   'P 1'
_cell_length_a   8.62011715
_cell_length_b   8.61511828
_cell_length_c   8.61511895
_cell_angle_alpha   59.82737768
_cell_angle_beta   59.78489924
_cell_angle_gamma   59.78490479
_symmetry_Int_Tables_number   1
_chemical_formula_structural   Zr6TaNb2Al13Co7
_chemical_formula_sum   'Zr6 Ta1 Nb2 Al13 Co7'
_cell_volume   450.33422678
_cell_formula_units_Z   1
loop_
 _symmetry_equiv_pos_site_id
 _symmetry_equiv_pos_as_xyz
  1  'x, y, z'
loop_
 _atom_site_type_symbol
 _atom_site_label
 _atom_site_symmetry_multiplicity
 _atom_site_fract_x
 _atom_site_fract_y
 _atom_site_fract_z
 _atom_site_occupancy
  Zr  Zr0  1  0.694610  0.307774  0.307774  1
  Zr  Zr1  1  0.691406  0.309078  0.691830  1
  Zr  Zr2  1  0.691406  0.691830  0.309078  1
  Zr  Zr3  1  0.310079  0.690587  0.690587  1
  Zr  Zr4  1  0.306758  0.695719  0.306952  1
  Zr  Zr5  1  0.306758  0.306952  0.695719  1
  Ta  Ta6  1  0.642074  0.119253  0.119253  1
  Nb  Nb7  1  0.119244  0.642091  0.118930  1
  Nb  Nb8  1  0.119244  0.118930  0.642091  1
  Al  Al9  1  0.117592  0.117648  0.117648  1
  Al  Al10  1  0.359702  0.881421  0.881421  1
  Al  Al11  1  0.881345  0.359487  0.881454  1
  Al  Al12  1  0.881345  0.881454  0.359487  1
  Al  Al13  1  0.878782  0.879106  0.879106  1
  Al  Al14  1  0.995640  0.332603  0.332603  1
  Al  Al15  1  0.332505  0.995399  0.332124  1
  Al  Al16  1  0.332505  0.332124  0.995399  1
  Al  Al17  1  0.336315  0.337540  0.337540  1
  Al  Al18  1  0.004316  0.664888  0.664888  1
  Al  Al19  1  0.664722  0.004319  0.665213  1
  Al  Al20  1  0.664722  0.665213  0.004319  1
  Al  Al21  1  0.665629  0.665432  0.665432  1
  Co  Co22  1  0.996634  0.998061  0.998061  1
  Co  Co23  1  0.505035  0.002167  0.002167  1
  Co  Co24  1  0.497608  0.003718  0.494089  1
  Co  Co25  1  0.497608  0.494089  0.003718  1
  Co  Co26  1  0.002662  0.496776  0.496776  1
  Co  Co27  1  0.001877  0.504332  0.002009  1
  Co  Co28  1  0.001877  0.002009  0.504332  1
