# generated using pymatgen
data_Pr7NdTe12(MoO12)4
_symmetry_space_group_name_H-M   'P 1'
_cell_length_a   5.42451000
_cell_length_b   11.47031805
_cell_length_c   18.33555909
_cell_angle_alpha   90.01084503
_cell_angle_beta   89.99639091
_cell_angle_gamma   89.99757168
_symmetry_Int_Tables_number   1
_chemical_formula_structural   Pr7NdTe12(MoO12)4
_chemical_formula_sum   'Pr7 Nd1 Te12 Mo4 O48'
_cell_volume   1140.85414041
_cell_formula_units_Z   1
loop_
 _symmetry_equiv_pos_site_id
 _symmetry_equiv_pos_as_xyz
  1  'x, y, z'
loop_
 _atom_site_type_symbol
 _atom_site_label
 _atom_site_symmetry_multiplicity
 _atom_site_fract_x
 _atom_site_fract_y
 _atom_site_fract_z
 _atom_site_occupancy
  Pr  Pr0  1  0.256349  0.922893  0.937124  1
  Pr  Pr1  1  0.756455  0.423034  0.562628  1
  Pr  Pr2  1  0.743660  0.422902  0.062864  1
  Pr  Pr3  1  0.743660  0.077108  0.062867  1
  Pr  Pr4  1  0.756251  0.077074  0.562834  1
  Pr  Pr5  1  0.243826  0.922480  0.437111  1
  Pr  Pr6  1  0.256350  0.577095  0.937132  1
  Nd  Nd7  1  0.243199  0.576958  0.437218  1
  Te  Te8  1  0.226845  0.589511  0.169322  1
  Te  Te9  1  0.713910  0.749334  0.545868  1
  Te  Te10  1  0.213625  0.249987  0.953721  1
  Te  Te11  1  0.727395  0.411288  0.331046  1
  Te  Te12  1  0.786386  0.750010  0.046280  1
  Te  Te13  1  0.273344  0.589459  0.669007  1
  Te  Te14  1  0.273247  0.910481  0.669260  1
  Te  Te15  1  0.773190  0.089479  0.830691  1
  Te  Te16  1  0.773189  0.410505  0.830684  1
  Te  Te17  1  0.226811  0.910514  0.169311  1
  Te  Te18  1  0.727041  0.089626  0.330777  1
  Te  Te19  1  0.286254  0.250367  0.453682  1
  Mo  Mo20  1  0.741494  0.749639  0.319574  1
  Mo  Mo21  1  0.258535  0.250032  0.680664  1
  Mo  Mo22  1  0.758539  0.749988  0.819281  1
  Mo  Mo23  1  0.241510  0.250028  0.180729  1
  O  O24  1  0.514422  0.250186  0.534189  1
  O  O25  1  0.951906  0.878793  0.828517  1
  O  O26  1  0.606600  0.617991  0.010213  1
  O  O27  1  0.356560  0.250100  0.270333  1
  O  O28  1  0.985648  0.250003  0.034259  1
  O  O29  1  0.969389  0.983918  0.659413  1
  O  O30  1  0.048154  0.121214  0.171497  1
  O  O31  1  0.393426  0.117992  0.989789  1
  O  O32  1  0.548607  0.878665  0.328727  1
  O  O33  1  0.414228  0.932188  0.573940  1
  O  O34  1  0.516771  0.249999  0.122387  1
  O  O35  1  0.606582  0.882007  0.010213  1
  O  O36  1  0.017342  0.749139  0.377787  1
  O  O37  1  0.585630  0.067548  0.425956  1
  O  O38  1  0.469318  0.483909  0.840543  1
  O  O39  1  0.147412  0.749997  0.644319  1
  O  O40  1  0.393414  0.382005  0.989789  1
  O  O41  1  0.414087  0.567496  0.573611  1
  O  O42  1  0.547136  0.621095  0.328840  1
  O  O43  1  0.048144  0.378853  0.171533  1
  O  O44  1  0.031234  0.484600  0.341587  1
  O  O45  1  0.643538  0.749986  0.729663  1
  O  O46  1  0.914259  0.432390  0.925965  1
  O  O47  1  0.892552  0.881829  0.509943  1
  O  O48  1  0.143532  0.250015  0.770298  1
  O  O49  1  0.030767  0.016025  0.340633  1
  O  O50  1  0.530709  0.516104  0.159465  1
  O  O51  1  0.085751  0.567609  0.074042  1
  O  O52  1  0.451891  0.378824  0.671447  1
  O  O53  1  0.106516  0.118266  0.489777  1
  O  O54  1  0.469315  0.016075  0.840539  1
  O  O55  1  0.107133  0.382856  0.489571  1
  O  O56  1  0.530674  0.983914  0.159472  1
  O  O57  1  0.856202  0.749708  0.229898  1
  O  O58  1  0.451915  0.121215  0.671445  1
  O  O59  1  0.951876  0.621185  0.828508  1
  O  O60  1  0.983298  0.250103  0.622318  1
  O  O61  1  0.914245  0.067615  0.925971  1
  O  O62  1  0.895981  0.617962  0.509740  1
  O  O63  1  0.852251  0.250370  0.355854  1
  O  O64  1  0.647487  0.249992  0.855667  1
  O  O65  1  0.483227  0.749996  0.877608  1
  O  O66  1  0.352497  0.750006  0.144326  1
  O  O67  1  0.014367  0.749999  0.965747  1
  O  O68  1  0.969249  0.516182  0.659339  1
  O  O69  1  0.085768  0.932384  0.074035  1
  O  O70  1  0.583528  0.433342  0.425997  1
  O  O71  1  0.484397  0.748555  0.465611  1
