# generated using pymatgen
data_Tm7Lu3Rh4
_symmetry_space_group_name_H-M   'P 1'
_cell_length_a   6.37201476
_cell_length_b   7.07169069
_cell_length_c   8.42133558
_cell_angle_alpha   96.72800701
_cell_angle_beta   112.18966032
_cell_angle_gamma   89.96415742
_symmetry_Int_Tables_number   1
_chemical_formula_structural   Tm7Lu3Rh4
_chemical_formula_sum   'Tm7 Lu3 Rh4'
_cell_volume   348.55632031
_cell_formula_units_Z   1
loop_
 _symmetry_equiv_pos_site_id
 _symmetry_equiv_pos_as_xyz
  1  'x, y, z'
loop_
 _atom_site_type_symbol
 _atom_site_label
 _atom_site_symmetry_multiplicity
 _atom_site_fract_x
 _atom_site_fract_y
 _atom_site_fract_z
 _atom_site_occupancy
  Tm  Tm0  1  0.523762  0.081677  0.813844  1
  Tm  Tm1  1  0.475997  0.918091  0.186095  1
  Tm  Tm2  1  0.709983  0.418014  0.186052  1
  Tm  Tm3  1  0.290155  0.582171  0.813890  1
  Tm  Tm4  1  0.289762  0.312531  0.439804  1
  Tm  Tm5  1  0.710193  0.687603  0.560107  1
  Tm  Tm6  1  0.850291  0.187335  0.560325  1
  Lu  Lu7  1  0.149618  0.812604  0.439320  1
  Lu  Lu8  1  0.073903  0.250018  0.999997  1
  Lu  Lu9  1  0.926211  0.750142  0.000275  1
  Rh  Rh10  1  0.322586  0.571383  0.219650  1
  Rh  Rh11  1  0.677216  0.428871  0.780658  1
  Rh  Rh12  1  0.103596  0.928832  0.780502  1
  Rh  Rh13  1  0.896729  0.070730  0.219483  1
