# generated using pymatgen
data_LiTiB4Ru5
_symmetry_space_group_name_H-M   'P 1'
_cell_length_a   2.95279400
_cell_length_b   8.25623542
_cell_length_c   10.02176169
_cell_angle_alpha   91.34888025
_cell_angle_beta   90.00000000
_cell_angle_gamma   90.00000000
_symmetry_Int_Tables_number   1
_chemical_formula_structural   LiTiB4Ru5
_chemical_formula_sum   'Li2 Ti2 B8 Ru10'
_cell_volume   244.25244816
_cell_formula_units_Z   2
loop_
 _symmetry_equiv_pos_site_id
 _symmetry_equiv_pos_as_xyz
  1  'x, y, z'
loop_
 _atom_site_type_symbol
 _atom_site_label
 _atom_site_symmetry_multiplicity
 _atom_site_fract_x
 _atom_site_fract_y
 _atom_site_fract_z
 _atom_site_occupancy
  Li  Li0  1  0.500000  0.149297  0.679429  1
  Li  Li1  1  0.500000  0.850703  0.320571  1
  Ti  Ti2  1  0.500000  0.650647  0.812685  1
  Ti  Ti3  1  0.500000  0.349353  0.187315  1
  B  B4  1  0.500000  0.857676  0.598939  1
  B  B5  1  0.500000  0.142324  0.401061  1
  B  B6  1  0.500000  0.346453  0.893880  1
  B  B7  1  0.500000  0.653547  0.106120  1
  B  B8  1  0.500000  0.963696  0.908710  1
  B  B9  1  0.500000  0.036304  0.091290  1
  B  B10  1  0.500000  0.456647  0.588345  1
  B  B11  1  0.500000  0.543353  0.411655  1
  Ru  Ru12  1  0.000000  0.397551  0.738601  1
  Ru  Ru13  1  0.000000  0.602449  0.261399  1
  Ru  Ru14  1  0.000000  0.895786  0.761589  1
  Ru  Ru15  1  0.000000  0.104214  0.238411  1
  Ru  Ru16  1  0.000000  0.000000  0.500000  1
  Ru  Ru17  1  0.000000  0.500000  0.000000  1
  Ru  Ru18  1  0.000000  0.656030  0.552855  1
  Ru  Ru19  1  0.000000  0.343970  0.447145  1
  Ru  Ru20  1  0.000000  0.159683  0.957227  1
  Ru  Ru21  1  0.000000  0.840317  0.042773  1
