# generated using pymatgen
data_Sr4In3Pd4Pb
_symmetry_space_group_name_H-M   'P 1'
_cell_length_a   4.57595700
_cell_length_b   7.74289424
_cell_length_c   8.74847183
_cell_angle_alpha   90.55746947
_cell_angle_beta   90.00000000
_cell_angle_gamma   90.00000000
_symmetry_Int_Tables_number   1
_chemical_formula_structural   Sr4In3Pd4Pb
_chemical_formula_sum   'Sr4 In3 Pd4 Pb1'
_cell_volume   309.95375556
_cell_formula_units_Z   1
loop_
 _symmetry_equiv_pos_site_id
 _symmetry_equiv_pos_as_xyz
  1  'x, y, z'
loop_
 _atom_site_type_symbol
 _atom_site_label
 _atom_site_symmetry_multiplicity
 _atom_site_fract_x
 _atom_site_fract_y
 _atom_site_fract_z
 _atom_site_occupancy
  Sr  Sr0  1  0.250000  0.030355  0.321941  1
  Sr  Sr1  1  0.250000  0.530090  0.181510  1
  Sr  Sr2  1  0.750000  0.967876  0.678402  1
  Sr  Sr3  1  0.750000  0.472010  0.818751  1
  In  In4  1  0.250000  0.644659  0.564452  1
  In  In5  1  0.750000  0.849605  0.066247  1
  In  In6  1  0.750000  0.354230  0.436406  1
  Pd  Pd7  1  0.250000  0.279362  0.618166  1
  Pd  Pd8  1  0.250000  0.777317  0.876498  1
  Pd  Pd9  1  0.750000  0.722430  0.376679  1
  Pd  Pd10  1  0.750000  0.222928  0.125992  1
  Pb  Pb11  1  0.250000  0.149138  0.934956  1
