# generated using pymatgen
data_Er6Tm4Si5P
_symmetry_space_group_name_H-M   'P 1'
_cell_length_a   8.30071300
_cell_length_b   8.30860531
_cell_length_c   6.21527700
_cell_angle_alpha   90.00000000
_cell_angle_beta   90.00000000
_cell_angle_gamma   119.96857074
_symmetry_Int_Tables_number   1
_chemical_formula_structural   Er6Tm4Si5P
_chemical_formula_sum   'Er6 Tm4 Si5 P1'
_cell_volume   371.34031568
_cell_formula_units_Z   1
loop_
 _symmetry_equiv_pos_site_id
 _symmetry_equiv_pos_as_xyz
  1  'x, y, z'
loop_
 _atom_site_type_symbol
 _atom_site_label
 _atom_site_symmetry_multiplicity
 _atom_site_fract_x
 _atom_site_fract_y
 _atom_site_fract_z
 _atom_site_occupancy
  Er  Er0  1  0.001108  0.757379  0.750000  1
  Er  Er1  1  0.000632  0.243665  0.250000  1
  Er  Er2  1  0.756967  0.756335  0.250000  1
  Er  Er3  1  0.755912  0.000000  0.750000  1
  Er  Er4  1  0.243728  0.242621  0.750000  1
  Er  Er5  1  0.243044  0.000000  0.250000  1
  Tm  Tm6  1  0.333640  0.667316  0.500444  1
  Tm  Tm7  1  0.666325  0.332684  0.999556  1
  Tm  Tm8  1  0.666325  0.332684  0.500444  1
  Tm  Tm9  1  0.333640  0.667316  0.999556  1
  Si  Si10  1  0.394660  0.394135  0.250000  1
  Si  Si11  1  0.000525  0.605865  0.250000  1
  Si  Si12  1  0.000043  0.394195  0.750000  1
  Si  Si13  1  0.605849  0.605805  0.750000  1
  Si  Si14  1  0.606353  0.000000  0.250000  1
  P  P15  1  0.391248  0.000000  0.750000  1
