# generated using pymatgen
data_Sm11In(Hg2Rh)4
_symmetry_space_group_name_H-M   'P 1'
_cell_length_a   13.12187300
_cell_length_b   13.11897212
_cell_length_c   3.77191400
_cell_angle_alpha   90.00000000
_cell_angle_beta   90.00000000
_cell_angle_gamma   113.79792604
_symmetry_Int_Tables_number   1
_chemical_formula_structural   Sm11In(Hg2Rh)4
_chemical_formula_sum   'Sm11 In1 Hg8 Rh4'
_cell_volume   594.10923760
_cell_formula_units_Z   1
loop_
 _symmetry_equiv_pos_site_id
 _symmetry_equiv_pos_as_xyz
  1  'x, y, z'
loop_
 _atom_site_type_symbol
 _atom_site_label
 _atom_site_symmetry_multiplicity
 _atom_site_fract_x
 _atom_site_fract_y
 _atom_site_fract_z
 _atom_site_occupancy
  Sm  Sm0  1  0.500000  0.500000  0.500000  1
  Sm  Sm1  1  0.800597  0.800591  0.500000  1
  Sm  Sm2  1  0.199403  0.199409  0.500000  1
  Sm  Sm3  1  0.582558  0.918743  0.500000  1
  Sm  Sm4  1  0.417442  0.081257  0.500000  1
  Sm  Sm5  1  0.918747  0.582521  0.500000  1
  Sm  Sm6  1  0.081253  0.417479  0.500000  1
  Sm  Sm7  1  0.129982  0.870014  0.500000  1
  Sm  Sm8  1  0.870018  0.129986  0.500000  1
  Sm  Sm9  1  0.333720  0.666291  0.500000  1
  Sm  Sm10  1  0.666280  0.333709  0.500000  1
  In  In11  1  0.000000  0.000000  0.000000  1
  Hg  Hg12  1  0.348151  0.867381  0.000000  1
  Hg  Hg13  1  0.651849  0.132619  0.000000  1
  Hg  Hg14  1  0.867389  0.348140  0.000000  1
  Hg  Hg15  1  0.132611  0.651860  0.000000  1
  Hg  Hg16  1  0.561157  0.713919  0.000000  1
  Hg  Hg17  1  0.438843  0.286081  0.000000  1
  Hg  Hg18  1  0.713929  0.561143  0.000000  1
  Hg  Hg19  1  0.286071  0.438857  0.000000  1
  Rh  Rh20  1  0.755910  0.951274  0.000000  1
  Rh  Rh21  1  0.244090  0.048726  0.000000  1
  Rh  Rh22  1  0.951286  0.755891  0.000000  1
  Rh  Rh23  1  0.048714  0.244109  0.000000  1
