# generated using pymatgen
data_Tb4NdSmRh18
_symmetry_space_group_name_H-M   'P 1'
_cell_length_a   5.30298000
_cell_length_b   5.30318389
_cell_length_c   17.55448800
_cell_angle_alpha   90.00000000
_cell_angle_beta   90.00000000
_cell_angle_gamma   120.00410438
_symmetry_Int_Tables_number   1
_chemical_formula_structural   Tb4NdSmRh18
_chemical_formula_sum   'Tb4 Nd1 Sm1 Rh18'
_cell_volume   427.52105825
_cell_formula_units_Z   1
loop_
 _symmetry_equiv_pos_site_id
 _symmetry_equiv_pos_as_xyz
  1  'x, y, z'
loop_
 _atom_site_type_symbol
 _atom_site_label
 _atom_site_symmetry_multiplicity
 _atom_site_fract_x
 _atom_site_fract_y
 _atom_site_fract_z
 _atom_site_occupancy
  Tb  Tb0  1  0.333339  0.666667  0.542358  1
  Tb  Tb1  1  0.666662  0.333335  0.041592  1
  Tb  Tb2  1  0.666662  0.333335  0.458408  1
  Tb  Tb3  1  0.333339  0.666667  0.957642  1
  Nd  Nd4  1  0.666668  0.333334  0.250000  1
  Sm  Sm5  1  0.333336  0.666665  0.750000  1
  Rh  Rh6  1  0.167291  0.334583  0.125361  1
  Rh  Rh7  1  0.832691  0.665372  0.626145  1
  Rh  Rh8  1  0.665413  0.832709  0.125362  1
  Rh  Rh9  1  0.167289  0.832712  0.125365  1
  Rh  Rh10  1  0.832685  0.167312  0.626146  1
  Rh  Rh11  1  0.334630  0.167315  0.626143  1
  Rh  Rh12  1  0.832691  0.665372  0.873855  1
  Rh  Rh13  1  0.832685  0.167312  0.873854  1
  Rh  Rh14  1  0.334630  0.167315  0.873857  1
  Rh  Rh15  1  0.665413  0.832709  0.374638  1
  Rh  Rh16  1  0.167289  0.832712  0.374635  1
  Rh  Rh17  1  0.167291  0.334583  0.374639  1
  Rh  Rh18  1  0.999998  0.000003  0.250000  1
  Rh  Rh19  1  0.000001  0.999997  0.750000  1
  Rh  Rh20  1  0.333325  0.666659  0.250000  1
  Rh  Rh21  1  0.666659  0.333330  0.750000  1
  Rh  Rh22  1  0.000006  0.000001  0.999665  1
  Rh  Rh23  1  0.000006  0.000001  0.500335  1
