# generated using pymatgen
data_Ho10In7SnRh4
_symmetry_space_group_name_H-M   'P 1'
_cell_length_a   7.97341230
_cell_length_b   18.22060928
_cell_length_c   3.62804900
_cell_angle_alpha   90.00000000
_cell_angle_beta   90.00000000
_cell_angle_gamma   90.14378942
_symmetry_Int_Tables_number   1
_chemical_formula_structural   Ho10In7SnRh4
_chemical_formula_sum   'Ho10 In7 Sn1 Rh4'
_cell_volume   527.08285986
_cell_formula_units_Z   1
loop_
 _symmetry_equiv_pos_site_id
 _symmetry_equiv_pos_as_xyz
  1  'x, y, z'
loop_
 _atom_site_type_symbol
 _atom_site_label
 _atom_site_symmetry_multiplicity
 _atom_site_fract_x
 _atom_site_fract_y
 _atom_site_fract_z
 _atom_site_occupancy
  Ho  Ho0  1  0.499746  0.500145  0.000000  1
  Ho  Ho1  1  0.995364  0.998366  0.000000  1
  Ho  Ho2  1  0.755988  0.278052  0.000000  1
  Ho  Ho3  1  0.242993  0.722029  0.000000  1
  Ho  Ho4  1  0.745086  0.779870  0.000000  1
  Ho  Ho5  1  0.257993  0.221780  0.000000  1
  Ho  Ho6  1  0.622507  0.087099  0.000000  1
  Ho  Ho7  1  0.379250  0.912457  0.000000  1
  Ho  Ho8  1  0.877319  0.588811  0.000000  1
  Ho  Ho9  1  0.122413  0.411288  0.000000  1
  In  In10  1  0.295901  0.067918  0.500000  1
  In  In11  1  0.797220  0.431918  0.500000  1
  In  In12  1  0.202750  0.567932  0.500000  1
  In  In13  1  0.561959  0.650282  0.500000  1
  In  In14  1  0.438772  0.349956  0.500000  1
  In  In15  1  0.938078  0.150219  0.500000  1
  In  In16  1  0.065540  0.849659  0.500000  1
  Sn  Sn17  1  0.702602  0.932402  0.500000  1
  Rh  Rh18  1  0.533606  0.194339  0.500000  1
  Rh  Rh19  1  0.466715  0.805065  0.500000  1
  Rh  Rh20  1  0.966512  0.695543  0.500000  1
  Rh  Rh21  1  0.031686  0.304872  0.500000  1
