# generated using pymatgen
data_Zr8Mn7Si16Ru5
_symmetry_space_group_name_H-M   'P 1'
_cell_length_a   9.82542531
_cell_length_b   9.81875584
_cell_length_c   13.18181137
_cell_angle_alpha   53.74291074
_cell_angle_beta   53.72141976
_cell_angle_gamma   30.87478300
_symmetry_Int_Tables_number   1
_chemical_formula_structural   Zr8Mn7Si16Ru5
_chemical_formula_sum   'Zr8 Mn7 Si16 Ru5'
_cell_volume   515.24237177
_cell_formula_units_Z   1
loop_
 _symmetry_equiv_pos_site_id
 _symmetry_equiv_pos_as_xyz
  1  'x, y, z'
loop_
 _atom_site_type_symbol
 _atom_site_label
 _atom_site_symmetry_multiplicity
 _atom_site_fract_x
 _atom_site_fract_y
 _atom_site_fract_z
 _atom_site_occupancy
  Zr  Zr0  1  0.036420  0.296236  0.641020  1
  Zr  Zr1  1  0.703401  0.963746  0.859434  1
  Zr  Zr2  1  0.968114  0.701540  0.359606  1
  Zr  Zr3  1  0.294690  0.039244  0.139741  1
  Zr  Zr4  1  0.291608  0.565869  0.642487  1
  Zr  Zr5  1  0.434903  0.708843  0.856788  1
  Zr  Zr6  1  0.711417  0.429121  0.358452  1
  Zr  Zr7  1  0.565391  0.293322  0.141508  1
  Mn  Mn8  1  0.890325  0.150774  0.583826  1
  Mn  Mn9  1  0.849486  0.108413  0.917229  1
  Mn  Mn10  1  0.105620  0.851971  0.416504  1
  Mn  Mn11  1  0.149495  0.891720  0.083310  1
  Mn  Mn12  1  0.831202  0.650764  0.772825  1
  Mn  Mn13  1  0.349718  0.167821  0.727804  1
  Mn  Mn14  1  0.174734  0.345895  0.222941  1
  Si  Si15  1  0.966481  0.256510  0.895461  1
  Si  Si16  1  0.743008  0.033381  0.604895  1
  Si  Si17  1  0.039262  0.740373  0.101461  1
  Si  Si18  1  0.251121  0.966898  0.398566  1
  Si  Si19  1  0.138505  0.391279  0.892156  1
  Si  Si20  1  0.609674  0.860899  0.607233  1
  Si  Si21  1  0.863476  0.606602  0.105672  1
  Si  Si22  1  0.387600  0.143814  0.394418  1
  Si  Si23  1  0.080217  0.580043  0.565517  1
  Si  Si24  1  0.419415  0.919805  0.935528  1
  Si  Si25  1  0.924566  0.415608  0.434951  1
  Si  Si26  1  0.576443  0.085329  0.062887  1
  Si  Si27  1  0.623341  0.376508  0.750134  1
  Si  Si28  1  0.376632  0.624522  0.249685  1
  Si  Si29  1  0.106240  0.893785  0.750038  1
  Si  Si30  1  0.892076  0.107852  0.249581  1
  Ru  Ru31  1  0.650897  0.827734  0.277391  1
  Ru  Ru32  1  0.237305  0.520113  0.933480  1
  Ru  Ru33  1  0.480936  0.760086  0.567497  1
  Ru  Ru34  1  0.759914  0.483221  0.063149  1
  Ru  Ru35  1  0.516367  0.240360  0.436822  1
