# generated using pymatgen
data_MgTi5(AsRu)6
_symmetry_space_group_name_H-M   'P 1'
_cell_length_a   7.46733503
_cell_length_b   7.52293284
_cell_length_c   7.46733497
_cell_angle_alpha   127.54970598
_cell_angle_beta   120.89278430
_cell_angle_gamma   82.73385192
_symmetry_Int_Tables_number   1
_chemical_formula_structural   MgTi5(AsRu)6
_chemical_formula_sum   'Mg1 Ti5 As6 Ru6'
_cell_volume   274.47210999
_cell_formula_units_Z   1
loop_
 _symmetry_equiv_pos_site_id
 _symmetry_equiv_pos_as_xyz
  1  'x, y, z'
loop_
 _atom_site_type_symbol
 _atom_site_label
 _atom_site_symmetry_multiplicity
 _atom_site_fract_x
 _atom_site_fract_y
 _atom_site_fract_z
 _atom_site_occupancy
  Mg  Mg0  1  0.476043  0.237332  0.261289  1
  Ti  Ti1  1  0.537660  0.809317  0.771657  1
  Ti  Ti2  1  0.747918  0.674214  0.426296  1
  Ti  Ti3  1  0.255206  0.669619  0.914413  1
  Ti  Ti4  1  0.053162  0.851325  0.298163  1
  Ti  Ti5  1  0.939203  0.226271  0.787068  1
  As  As6  1  0.839217  0.579448  0.753229  1
  As  As7  1  0.160244  0.906451  0.735372  1
  As  As8  1  0.671078  0.906451  0.246207  1
  As  As9  1  0.326220  0.579448  0.240231  1
  As  As10  1  0.288083  0.310026  0.521943  1
  As  As11  1  0.715771  0.212889  0.997119  1
  Ru  Ru12  1  0.665796  0.495493  0.916545  1
  Ru  Ru13  1  0.332342  0.244523  0.830188  1
  Ru  Ru14  1  0.914336  0.244523  0.412180  1
  Ru  Ru15  1  0.078949  0.495493  0.329699  1
  Ru  Ru16  1  0.022884  0.998788  0.022898  1
  Ru  Ru17  1  0.475890  0.998788  0.475904  1
