# generated using pymatgen
data_Tb8Be3Si12Ni
_symmetry_space_group_name_H-M   'P 1'
_cell_length_a   7.87194800
_cell_length_b   7.87194768
_cell_length_c   8.15585500
_cell_angle_alpha   90.00000000
_cell_angle_beta   90.00000000
_cell_angle_gamma   120.00000974
_symmetry_Int_Tables_number   1
_chemical_formula_structural   Tb8Be3Si12Ni
_chemical_formula_sum   'Tb8 Be3 Si12 Ni1'
_cell_volume   437.68785978
_cell_formula_units_Z   1
loop_
 _symmetry_equiv_pos_site_id
 _symmetry_equiv_pos_as_xyz
  1  'x, y, z'
loop_
 _atom_site_type_symbol
 _atom_site_label
 _atom_site_symmetry_multiplicity
 _atom_site_fract_x
 _atom_site_fract_y
 _atom_site_fract_z
 _atom_site_occupancy
  Tb  Tb0  1  0.499646  0.999292  0.249552  1
  Tb  Tb1  1  0.500146  0.000295  0.750346  1
  Tb  Tb2  1  0.000708  0.500354  0.249552  1
  Tb  Tb3  1  0.999705  0.499854  0.750346  1
  Tb  Tb4  1  0.499646  0.500354  0.249552  1
  Tb  Tb5  1  0.500146  0.499854  0.750346  1
  Tb  Tb6  1  0.000000  0.000000  0.249760  1
  Tb  Tb7  1  0.000000  0.000000  0.749943  1
  Be  Be8  1  0.333333  0.666667  0.001206  1
  Be  Be9  1  0.666667  0.333333  0.001033  1
  Be  Be10  1  0.666667  0.333333  0.497964  1
  Si  Si11  1  0.172239  0.344477  0.999391  1
  Si  Si12  1  0.826889  0.653779  0.000245  1
  Si  Si13  1  0.655523  0.827761  0.999391  1
  Si  Si14  1  0.828990  0.657981  0.500074  1
  Si  Si15  1  0.346221  0.173111  0.000245  1
  Si  Si16  1  0.172710  0.345419  0.499737  1
  Si  Si17  1  0.172239  0.827761  0.999391  1
  Si  Si18  1  0.342019  0.171010  0.500074  1
  Si  Si19  1  0.826889  0.173111  0.000245  1
  Si  Si20  1  0.654581  0.827290  0.499737  1
  Si  Si21  1  0.828990  0.171010  0.500074  1
  Si  Si22  1  0.172710  0.827290  0.499737  1
  Ni  Ni23  1  0.333333  0.666667  0.502061  1
