# generated using pymatgen
data_Y20IrRu4Pt7
_symmetry_space_group_name_H-M   'P 1'
_cell_length_a   11.00788905
_cell_length_b   11.00788905
_cell_length_c   6.45651429
_cell_angle_alpha   89.97598134
_cell_angle_beta   89.97598134
_cell_angle_gamma   90.30817399
_symmetry_Int_Tables_number   1
_chemical_formula_structural   Y20IrRu4Pt7
_chemical_formula_sum   'Y20 Ir1 Ru4 Pt7'
_cell_volume   782.34776211
_cell_formula_units_Z   1
loop_
 _symmetry_equiv_pos_site_id
 _symmetry_equiv_pos_as_xyz
  1  'x, y, z'
loop_
 _atom_site_type_symbol
 _atom_site_label
 _atom_site_symmetry_multiplicity
 _atom_site_fract_x
 _atom_site_fract_y
 _atom_site_fract_z
 _atom_site_occupancy
  Y  Y0  1  0.296922  0.085668  0.375240  1
  Y  Y1  1  0.296670  0.910344  0.874991  1
  Y  Y2  1  0.703259  0.086110  0.875043  1
  Y  Y3  1  0.703156  0.913747  0.374671  1
  Y  Y4  1  0.583482  0.795253  0.874102  1
  Y  Y5  1  0.586366  0.203826  0.375862  1
  Y  Y6  1  0.412161  0.794317  0.379057  1
  Y  Y7  1  0.413579  0.202748  0.875389  1
  Y  Y8  1  0.204747  0.416518  0.625898  1
  Y  Y9  1  0.205683  0.587839  0.120943  1
  Y  Y10  1  0.796174  0.413634  0.124138  1
  Y  Y11  1  0.797252  0.586421  0.624611  1
  Y  Y12  1  0.914332  0.703078  0.124760  1
  Y  Y13  1  0.913890  0.296741  0.624957  1
  Y  Y14  1  0.089656  0.703330  0.625009  1
  Y  Y15  1  0.086253  0.296844  0.125329  1
  Y  Y16  1  0.999878  0.999844  0.500348  1
  Y  Y17  1  0.000156  0.000122  0.999652  1
  Y  Y18  1  0.498146  0.501432  0.999100  1
  Y  Y19  1  0.498568  0.501854  0.500900  1
  Ir  Ir20  1  0.347377  0.652623  0.750000  1
  Ru  Ru21  1  0.500415  0.000483  0.127419  1
  Ru  Ru22  1  0.500171  0.000430  0.626559  1
  Ru  Ru23  1  0.999570  0.499829  0.873441  1
  Ru  Ru24  1  0.999517  0.499585  0.372581  1
  Pt  Pt25  1  0.846646  0.153354  0.250000  1
  Pt  Pt26  1  0.846010  0.846555  0.750409  1
  Pt  Pt27  1  0.153445  0.153990  0.749591  1
  Pt  Pt28  1  0.152835  0.847165  0.250000  1
  Pt  Pt29  1  0.653223  0.346777  0.750000  1
  Pt  Pt30  1  0.654333  0.653872  0.250086  1
  Pt  Pt31  1  0.346128  0.345667  0.249914  1
