# generated using pymatgen
data_HoTm9AlSb5
_symmetry_space_group_name_H-M   'P 1'
_cell_length_a   8.81664000
_cell_length_b   8.82955557
_cell_length_c   6.29125000
_cell_angle_alpha   90.00000000
_cell_angle_beta   90.00000000
_cell_angle_gamma   119.94812371
_symmetry_Int_Tables_number   1
_chemical_formula_structural   HoTm9AlSb5
_chemical_formula_sum   'Ho1 Tm9 Al1 Sb5'
_cell_volume   424.36182999
_cell_formula_units_Z   1
loop_
 _symmetry_equiv_pos_site_id
 _symmetry_equiv_pos_as_xyz
  1  'x, y, z'
loop_
 _atom_site_type_symbol
 _atom_site_label
 _atom_site_symmetry_multiplicity
 _atom_site_fract_x
 _atom_site_fract_y
 _atom_site_fract_z
 _atom_site_occupancy
  Ho  Ho0  1  0.246961  0.236933  0.750000  1
  Tm  Tm1  1  0.334629  0.673865  0.999001  1
  Tm  Tm2  1  0.660874  0.325997  0.500771  1
  Tm  Tm3  1  0.660874  0.325997  0.999229  1
  Tm  Tm4  1  0.334629  0.673865  0.500999  1
  Tm  Tm5  1  0.752711  0.000179  0.750000  1
  Tm  Tm6  1  0.755232  0.756918  0.250000  1
  Tm  Tm7  1  0.997988  0.243015  0.250000  1
  Tm  Tm8  1  0.011023  0.764461  0.750000  1
  Tm  Tm9  1  0.241281  0.999162  0.250000  1
  Al  Al10  1  0.396343  0.998673  0.750000  1
  Sb  Sb11  1  0.388792  0.391804  0.250000  1
  Sb  Sb12  1  0.996317  0.607227  0.250000  1
  Sb  Sb13  1  0.001184  0.390613  0.750000  1
  Sb  Sb14  1  0.613801  0.611451  0.750000  1
  Sb  Sb15  1  0.607359  0.999839  0.250000  1
