# generated using pymatgen
data_Y8Si(PdPt7)3
_symmetry_space_group_name_H-M   'P 1'
_cell_length_a   8.39810104
_cell_length_b   8.39552704
_cell_length_c   8.36265900
_cell_angle_alpha   90.00000000
_cell_angle_beta   90.00000000
_cell_angle_gamma   90.01057644
_symmetry_Int_Tables_number   1
_chemical_formula_structural   Y8Si(PdPt7)3
_chemical_formula_sum   'Y8 Si1 Pd3 Pt21'
_cell_volume   589.62167540
_cell_formula_units_Z   1
loop_
 _symmetry_equiv_pos_site_id
 _symmetry_equiv_pos_as_xyz
  1  'x, y, z'
loop_
 _atom_site_type_symbol
 _atom_site_label
 _atom_site_symmetry_multiplicity
 _atom_site_fract_x
 _atom_site_fract_y
 _atom_site_fract_z
 _atom_site_occupancy
  Y  Y0  1  0.251877  0.251483  0.748660  1
  Y  Y1  1  0.252710  0.747284  0.252011  1
  Y  Y2  1  0.746927  0.252655  0.252256  1
  Y  Y3  1  0.746308  0.746347  0.747084  1
  Y  Y4  1  0.746308  0.746347  0.252916  1
  Y  Y5  1  0.746927  0.252655  0.747744  1
  Y  Y6  1  0.252710  0.747284  0.747989  1
  Y  Y7  1  0.251877  0.251483  0.251340  1
  Si  Si8  1  0.007563  0.007359  0.000000  1
  Pd  Pd9  1  0.747448  0.499395  0.500000  1
  Pd  Pd10  1  0.998381  0.722892  0.000000  1
  Pd  Pd11  1  0.723521  0.998708  0.000000  1
  Pt  Pt12  1  0.498849  0.499383  0.747971  1
  Pt  Pt13  1  0.498687  0.252138  0.500000  1
  Pt  Pt14  1  0.251860  0.499236  0.500000  1
  Pt  Pt15  1  0.498849  0.499383  0.252029  1
  Pt  Pt16  1  0.498804  0.747648  0.500000  1
  Pt  Pt17  1  0.997759  0.998171  0.716744  1
  Pt  Pt18  1  0.998048  0.287208  0.000000  1
  Pt  Pt19  1  0.287116  0.998316  0.000000  1
  Pt  Pt20  1  0.997759  0.998171  0.283256  1
  Pt  Pt21  1  0.000369  0.500189  0.742367  1
  Pt  Pt22  1  0.500447  0.257022  0.000000  1
  Pt  Pt23  1  0.257841  0.999904  0.500000  1
  Pt  Pt24  1  0.000622  0.258203  0.500000  1
  Pt  Pt25  1  0.500422  0.999721  0.742669  1
  Pt  Pt26  1  0.257019  0.500087  0.000000  1
  Pt  Pt27  1  0.000369  0.500189  0.257633  1
  Pt  Pt28  1  0.500698  0.741400  0.000000  1
  Pt  Pt29  1  0.000659  0.739572  0.500000  1
  Pt  Pt30  1  0.500422  0.999721  0.257331  1
  Pt  Pt31  1  0.739625  0.000047  0.500000  1
  Pt  Pt32  1  0.741217  0.500396  0.000000  1
