# generated using pymatgen
data_Nd5Si2HgH
_symmetry_space_group_name_H-M   'P 1'
_cell_length_a   9.08914164
_cell_length_b   9.08914198
_cell_length_c   9.08914160
_cell_angle_alpha   128.43288906
_cell_angle_beta   128.43288371
_cell_angle_gamma   75.92480943
_symmetry_Int_Tables_number   1
_chemical_formula_structural   Nd5Si2HgH
_chemical_formula_sum   'Nd10 Si4 Hg2 H2'
_cell_volume   448.03016623
_cell_formula_units_Z   2
loop_
 _symmetry_equiv_pos_site_id
 _symmetry_equiv_pos_as_xyz
  1  'x, y, z'
loop_
 _atom_site_type_symbol
 _atom_site_label
 _atom_site_symmetry_multiplicity
 _atom_site_fract_x
 _atom_site_fract_y
 _atom_site_fract_z
 _atom_site_occupancy
  Nd  Nd0  1  0.500000  0.500000  0.000000  1
  Nd  Nd1  1  0.000000  0.000000  0.000000  1
  Nd  Nd2  1  0.526193  0.026193  0.840076  1
  Nd  Nd3  1  0.186118  0.686118  0.159924  1
  Nd  Nd4  1  0.026193  0.186118  0.500000  1
  Nd  Nd5  1  0.686118  0.526193  0.500000  1
  Nd  Nd6  1  0.473807  0.973807  0.159924  1
  Nd  Nd7  1  0.813882  0.313882  0.840076  1
  Nd  Nd8  1  0.973807  0.813882  0.500000  1
  Nd  Nd9  1  0.313882  0.473807  0.500000  1
  Si  Si10  1  0.884840  0.384840  0.269679  1
  Si  Si11  1  0.115160  0.615160  0.730321  1
  Si  Si12  1  0.384840  0.115160  0.500000  1
  Si  Si13  1  0.615160  0.884840  0.500000  1
  Hg  Hg14  1  0.250000  0.250000  0.000000  1
  Hg  Hg15  1  0.750000  0.750000  0.000000  1
  H  H16  1  0.250000  0.750000  0.500000  1
  H  H17  1  0.750000  0.250000  0.500000  1
