# generated using pymatgen
data_Pr2MnOsI
_symmetry_space_group_name_H-M   'P 1'
_cell_length_a   4.12386400
_cell_length_b   4.12386401
_cell_length_c   18.31270700
_cell_angle_alpha   90.00000000
_cell_angle_beta   90.00000000
_cell_angle_gamma   119.99999990
_symmetry_Int_Tables_number   1
_chemical_formula_structural   Pr2MnOsI
_chemical_formula_sum   'Pr4 Mn2 Os2 I2'
_cell_volume   269.70677061
_cell_formula_units_Z   2
loop_
 _symmetry_equiv_pos_site_id
 _symmetry_equiv_pos_as_xyz
  1  'x, y, z'
loop_
 _atom_site_type_symbol
 _atom_site_label
 _atom_site_symmetry_multiplicity
 _atom_site_fract_x
 _atom_site_fract_y
 _atom_site_fract_z
 _atom_site_occupancy
  Pr  Pr0  1  0.000000  0.000000  0.108900  1
  Pr  Pr1  1  0.000000  0.000000  0.608900  1
  Pr  Pr2  1  0.000000  0.000000  0.891023  1
  Pr  Pr3  1  0.000000  0.000000  0.391023  1
  Mn  Mn4  1  0.333333  0.666667  0.010629  1
  Mn  Mn5  1  0.666667  0.333333  0.510629  1
  Os  Os6  1  0.666667  0.333333  0.990290  1
  Os  Os7  1  0.333333  0.666667  0.490290  1
  I  I8  1  0.666667  0.333333  0.249159  1
  I  I9  1  0.333333  0.666667  0.749159  1
