# generated using pymatgen
data_TbHoTm8(CoSb2)2
_symmetry_space_group_name_H-M   'P 1'
_cell_length_a   7.79384700
_cell_length_b   8.73622600
_cell_length_c   12.07797400
_cell_angle_alpha   90.00000000
_cell_angle_beta   90.00000000
_cell_angle_gamma   90.00000000
_symmetry_Int_Tables_number   1
_chemical_formula_structural   TbHoTm8(CoSb2)2
_chemical_formula_sum   'Tb2 Ho2 Tm16 Co4 Sb8'
_cell_volume   822.37486239
_cell_formula_units_Z   2
loop_
 _symmetry_equiv_pos_site_id
 _symmetry_equiv_pos_as_xyz
  1  'x, y, z'
loop_
 _atom_site_type_symbol
 _atom_site_label
 _atom_site_symmetry_multiplicity
 _atom_site_fract_x
 _atom_site_fract_y
 _atom_site_fract_z
 _atom_site_occupancy
  Tb  Tb0  1  0.623323  0.750000  0.307284  1
  Tb  Tb1  1  0.123323  0.250000  0.192716  1
  Ho  Ho2  1  0.377521  0.250000  0.691998  1
  Ho  Ho3  1  0.877521  0.750000  0.808002  1
  Tm  Tm4  1  0.156281  0.750000  0.203898  1
  Tm  Tm5  1  0.656281  0.250000  0.296102  1
  Tm  Tm6  1  0.843547  0.250000  0.796097  1
  Tm  Tm7  1  0.343547  0.750000  0.703903  1
  Tm  Tm8  1  0.449618  0.750000  0.997739  1
  Tm  Tm9  1  0.949618  0.250000  0.502261  1
  Tm  Tm10  1  0.550710  0.250000  0.001972  1
  Tm  Tm11  1  0.050710  0.750000  0.498028  1
  Tm  Tm12  1  0.823375  0.962738  0.065357  1
  Tm  Tm13  1  0.323375  0.037262  0.434643  1
  Tm  Tm14  1  0.176249  0.463991  0.933983  1
  Tm  Tm15  1  0.676249  0.536009  0.566017  1
  Tm  Tm16  1  0.176249  0.036009  0.933983  1
  Tm  Tm17  1  0.676249  0.963991  0.566017  1
  Tm  Tm18  1  0.823375  0.537262  0.065357  1
  Tm  Tm19  1  0.323375  0.462738  0.434643  1
  Co  Co20  1  0.432183  0.750000  0.491730  1
  Co  Co21  1  0.932183  0.250000  0.008270  1
  Co  Co22  1  0.567495  0.250000  0.508751  1
  Co  Co23  1  0.067495  0.750000  0.991249  1
  Sb  Sb24  1  0.931208  0.991569  0.328329  1
  Sb  Sb25  1  0.431208  0.008431  0.171671  1
  Sb  Sb26  1  0.068829  0.491618  0.672044  1
  Sb  Sb27  1  0.568829  0.508382  0.827956  1
  Sb  Sb28  1  0.068829  0.008382  0.672044  1
  Sb  Sb29  1  0.568829  0.991618  0.827956  1
  Sb  Sb30  1  0.931208  0.508431  0.328329  1
  Sb  Sb31  1  0.431208  0.491569  0.171671  1
