# generated using pymatgen
data_La3DyZn4Si3Ge
_symmetry_space_group_name_H-M   'P 1'
_cell_length_a   4.27404000
_cell_length_b   4.27404031
_cell_length_c   16.72595000
_cell_angle_alpha   90.00000000
_cell_angle_beta   90.00000000
_cell_angle_gamma   120.00001306
_symmetry_Int_Tables_number   1
_chemical_formula_structural   La3DyZn4Si3Ge
_chemical_formula_sum   'La3 Dy1 Zn4 Si3 Ge1'
_cell_volume   264.60531604
_cell_formula_units_Z   1
loop_
 _symmetry_equiv_pos_site_id
 _symmetry_equiv_pos_as_xyz
  1  'x, y, z'
loop_
 _atom_site_type_symbol
 _atom_site_label
 _atom_site_symmetry_multiplicity
 _atom_site_fract_x
 _atom_site_fract_y
 _atom_site_fract_z
 _atom_site_occupancy
  La  La0  1  0.000000  0.000000  0.748886  1
  La  La1  1  0.000000  0.000000  0.010434  1
  La  La2  1  0.000000  0.000000  0.490438  1
  Dy  Dy3  1  0.000000  0.000000  0.250402  1
  Zn  Zn4  1  0.333333  0.666667  0.154215  1
  Zn  Zn5  1  0.666667  0.333333  0.865084  1
  Zn  Zn6  1  0.666667  0.333333  0.630676  1
  Zn  Zn7  1  0.333333  0.666667  0.346828  1
  Si  Si8  1  0.333333  0.666667  0.615447  1
  Si  Si9  1  0.666667  0.333333  0.373320  1
  Si  Si10  1  0.666667  0.333333  0.127234  1
  Ge  Ge11  1  0.333333  0.666667  0.887035  1
