# generated using pymatgen
data_Tb4DyOs2
_symmetry_space_group_name_H-M   'P 1'
_cell_length_a   8.48238370
_cell_length_b   8.48238415
_cell_length_c   7.36234304
_cell_angle_alpha   83.20721219
_cell_angle_beta   83.20721272
_cell_angle_gamma   44.40170947
_symmetry_Int_Tables_number   1
_chemical_formula_structural   Tb4DyOs2
_chemical_formula_sum   'Tb8 Dy2 Os4'
_cell_volume   367.60480043
_cell_formula_units_Z   2
loop_
 _symmetry_equiv_pos_site_id
 _symmetry_equiv_pos_as_xyz
  1  'x, y, z'
loop_
 _atom_site_type_symbol
 _atom_site_label
 _atom_site_symmetry_multiplicity
 _atom_site_fract_x
 _atom_site_fract_y
 _atom_site_fract_z
 _atom_site_occupancy
  Tb  Tb0  1  0.206310  0.976878  0.584208  1
  Tb  Tb1  1  0.023122  0.793690  0.915792  1
  Tb  Tb2  1  0.204253  0.360118  0.315905  1
  Tb  Tb3  1  0.639882  0.795747  0.184095  1
  Tb  Tb4  1  0.795747  0.639882  0.684095  1
  Tb  Tb5  1  0.360118  0.204253  0.815905  1
  Tb  Tb6  1  0.976878  0.206310  0.084208  1
  Tb  Tb7  1  0.793690  0.023122  0.415792  1
  Dy  Dy8  1  0.575908  0.424092  0.750000  1
  Dy  Dy9  1  0.424092  0.575908  0.250000  1
  Os  Os10  1  0.176785  0.603432  0.576251  1
  Os  Os11  1  0.396568  0.823215  0.923749  1
  Os  Os12  1  0.823215  0.396568  0.423749  1
  Os  Os13  1  0.603432  0.176785  0.076251  1
