# generated using pymatgen
data_Na(EuB8)3
_symmetry_space_group_name_H-M   'P 1'
_cell_length_a   4.16900300
_cell_length_b   4.16900300
_cell_length_c   16.67499000
_cell_angle_alpha   90.00000000
_cell_angle_beta   90.00000000
_cell_angle_gamma   90.00000000
_symmetry_Int_Tables_number   1
_chemical_formula_structural   Na(EuB8)3
_chemical_formula_sum   'Na1 Eu3 B24'
_cell_volume   289.82109798
_cell_formula_units_Z   1
loop_
 _symmetry_equiv_pos_site_id
 _symmetry_equiv_pos_as_xyz
  1  'x, y, z'
loop_
 _atom_site_type_symbol
 _atom_site_label
 _atom_site_symmetry_multiplicity
 _atom_site_fract_x
 _atom_site_fract_y
 _atom_site_fract_z
 _atom_site_occupancy
  Na  Na0  1  0.000000  0.000000  0.000000  1
  Eu  Eu1  1  0.000000  0.000000  0.242959  1
  Eu  Eu2  1  0.000000  0.000000  0.500000  1
  Eu  Eu3  1  0.000000  0.000000  0.757041  1
  B  B4  1  0.201136  0.500000  0.124875  1
  B  B5  1  0.201242  0.500000  0.374839  1
  B  B6  1  0.201242  0.500000  0.625161  1
  B  B7  1  0.201136  0.500000  0.875125  1
  B  B8  1  0.500000  0.500000  0.199718  1
  B  B9  1  0.500000  0.500000  0.449608  1
  B  B10  1  0.500000  0.500000  0.699879  1
  B  B11  1  0.500000  0.500000  0.949721  1
  B  B12  1  0.500000  0.201136  0.124875  1
  B  B13  1  0.500000  0.201242  0.374839  1
  B  B14  1  0.500000  0.201242  0.625161  1
  B  B15  1  0.500000  0.201136  0.875125  1
  B  B16  1  0.500000  0.500000  0.050279  1
  B  B17  1  0.500000  0.500000  0.300121  1
  B  B18  1  0.500000  0.500000  0.550392  1
  B  B19  1  0.500000  0.500000  0.800282  1
  B  B20  1  0.500000  0.798864  0.124875  1
  B  B21  1  0.500000  0.798758  0.374839  1
  B  B22  1  0.500000  0.798758  0.625161  1
  B  B23  1  0.500000  0.798864  0.875125  1
  B  B24  1  0.798864  0.500000  0.124875  1
  B  B25  1  0.798758  0.500000  0.374839  1
  B  B26  1  0.798758  0.500000  0.625161  1
  B  B27  1  0.798864  0.500000  0.875125  1
