# generated using pymatgen
data_Li2Tm8Sc10Si15P
_symmetry_space_group_name_H-M   'P 1'
_cell_length_a   6.93391418
_cell_length_b   7.33714674
_cell_length_c   13.88956900
_cell_angle_alpha   90.00000000
_cell_angle_beta   90.00000000
_cell_angle_gamma   89.84265711
_symmetry_Int_Tables_number   1
_chemical_formula_structural   Li2Tm8Sc10Si15P
_chemical_formula_sum   'Li2 Tm8 Sc10 Si15 P1'
_cell_volume   706.63118360
_cell_formula_units_Z   1
loop_
 _symmetry_equiv_pos_site_id
 _symmetry_equiv_pos_as_xyz
  1  'x, y, z'
loop_
 _atom_site_type_symbol
 _atom_site_label
 _atom_site_symmetry_multiplicity
 _atom_site_fract_x
 _atom_site_fract_y
 _atom_site_fract_z
 _atom_site_occupancy
  Li  Li0  1  0.162160  0.514847  0.750000  1
  Li  Li1  1  0.839334  0.492655  0.250000  1
  Tm  Tm2  1  0.009607  0.184888  0.097634  1
  Tm  Tm3  1  0.991081  0.817747  0.900409  1
  Tm  Tm4  1  0.486814  0.674883  0.903573  1
  Tm  Tm5  1  0.991081  0.817747  0.599591  1
  Tm  Tm6  1  0.514115  0.325605  0.096106  1
  Tm  Tm7  1  0.009607  0.184888  0.402366  1
  Tm  Tm8  1  0.514115  0.325605  0.403894  1
  Tm  Tm9  1  0.486814  0.674883  0.596427  1
  Sc  Sc10  1  0.341249  0.004905  0.250000  1
  Sc  Sc11  1  0.660259  0.995894  0.750000  1
  Sc  Sc12  1  0.322172  0.179593  0.627829  1
  Sc  Sc13  1  0.673248  0.818864  0.374271  1
  Sc  Sc14  1  0.165079  0.675520  0.373921  1
  Sc  Sc15  1  0.673248  0.818864  0.125729  1
  Sc  Sc16  1  0.837747  0.321991  0.628479  1
  Sc  Sc17  1  0.322172  0.179593  0.872171  1
  Sc  Sc18  1  0.837747  0.321991  0.871521  1
  Sc  Sc19  1  0.165079  0.675520  0.126079  1
  Si  Si20  1  0.970216  0.900442  0.250000  1
  Si  Si21  1  0.466170  0.611418  0.250000  1
  Si  Si22  1  0.532809  0.387412  0.750000  1
  Si  Si23  1  0.292247  0.871356  0.750000  1
  Si  Si24  1  0.712557  0.124216  0.250000  1
  Si  Si25  1  0.220492  0.371559  0.250000  1
  Si  Si26  1  0.779770  0.626493  0.750000  1
  Si  Si27  1  0.160884  0.461754  0.534643  1
  Si  Si28  1  0.837929  0.538860  0.468275  1
  Si  Si29  1  0.340453  0.967419  0.461576  1
  Si  Si30  1  0.837929  0.538860  0.031725  1
  Si  Si31  1  0.658520  0.034146  0.539821  1
  Si  Si32  1  0.160884  0.461754  0.965357  1
  Si  Si33  1  0.658520  0.034146  0.960179  1
  Si  Si34  1  0.340453  0.967419  0.038424  1
  P  P35  1  0.027441  0.096262  0.750000  1
