# generated using pymatgen
data_Eu4Nb3MoO14
_symmetry_space_group_name_H-M   'P 1'
_cell_length_a   7.52105189
_cell_length_b   7.58902483
_cell_length_c   7.58902400
_cell_angle_alpha   60.00000363
_cell_angle_beta   59.70058622
_cell_angle_gamma   59.70058253
_symmetry_Int_Tables_number   1
_chemical_formula_structural   Eu4Nb3MoO14
_chemical_formula_sum   'Eu4 Nb3 Mo1 O14'
_cell_volume   304.89838953
_cell_formula_units_Z   1
loop_
 _symmetry_equiv_pos_site_id
 _symmetry_equiv_pos_as_xyz
  1  'x, y, z'
loop_
 _atom_site_type_symbol
 _atom_site_label
 _atom_site_symmetry_multiplicity
 _atom_site_fract_x
 _atom_site_fract_y
 _atom_site_fract_z
 _atom_site_occupancy
  Eu  Eu0  1  0.625000  0.125000  0.125000  1
  Eu  Eu1  1  0.125000  0.625000  0.125000  1
  Eu  Eu2  1  0.125000  0.125000  0.625000  1
  Eu  Eu3  1  0.125000  0.125000  0.125000  1
  Nb  Nb4  1  0.625000  0.125000  0.625000  1
  Nb  Nb5  1  0.625000  0.625000  0.125000  1
  Nb  Nb6  1  0.625000  0.625000  0.625000  1
  Mo  Mo7  1  0.125000  0.625000  0.625000  1
  O  O8  1  0.252557  0.249148  0.249148  1
  O  O9  1  0.997443  0.000852  0.000852  1
  O  O10  1  0.684862  0.698989  0.308075  1
  O  O11  1  0.304458  0.282811  0.706366  1
  O  O12  1  0.684862  0.308075  0.698989  1
  O  O13  1  0.304458  0.706366  0.282811  1
  O  O14  1  0.304458  0.706366  0.706366  1
  O  O15  1  0.684862  0.308075  0.308075  1
  O  O16  1  0.565138  0.551011  0.941925  1
  O  O17  1  0.945542  0.967189  0.543634  1
  O  O18  1  0.565138  0.941925  0.551011  1
  O  O19  1  0.945542  0.543634  0.967189  1
  O  O20  1  0.945542  0.543634  0.543634  1
  O  O21  1  0.565138  0.941925  0.941925  1
