# generated using pymatgen
data_Li2Ti(BrO3)6
_symmetry_space_group_name_H-M   'P 1'
_cell_length_a   5.53111100
_cell_length_b   9.27224177
_cell_length_c   9.27223200
_cell_angle_alpha   59.99993298
_cell_angle_beta   90.00005853
_cell_angle_gamma   89.99984497
_symmetry_Int_Tables_number   1
_chemical_formula_structural   Li2Ti(BrO3)6
_chemical_formula_sum   'Li2 Ti1 Br6 O18'
_cell_volume   411.82409169
_cell_formula_units_Z   1
loop_
 _symmetry_equiv_pos_site_id
 _symmetry_equiv_pos_as_xyz
  1  'x, y, z'
loop_
 _atom_site_type_symbol
 _atom_site_label
 _atom_site_symmetry_multiplicity
 _atom_site_fract_x
 _atom_site_fract_y
 _atom_site_fract_z
 _atom_site_occupancy
  Li  Li0  1  0.732130  0.333332  0.333336  1
  Li  Li1  1  0.218318  0.666674  0.666664  1
  Ti  Ti2  1  0.669612  0.999998  0.000001  1
  Br  Br3  1  0.812125  0.970920  0.669395  1
  Br  Br4  1  0.812123  0.359686  0.970918  1
  Br  Br5  1  0.812123  0.669395  0.359687  1
  Br  Br6  1  0.336307  0.019386  0.314294  1
  Br  Br7  1  0.336309  0.666320  0.019385  1
  Br  Br8  1  0.336308  0.314296  0.666318  1
  O  O9  1  0.485258  0.251701  0.552370  1
  O  O10  1  0.485257  0.195927  0.251700  1
  O  O11  1  0.485258  0.552372  0.195929  1
  O  O12  1  0.985773  0.746214  0.450504  1
  O  O13  1  0.985776  0.803284  0.746214  1
  O  O14  1  0.985777  0.450502  0.803284  1
  O  O15  1  0.875391  0.046202  0.810110  1
  O  O16  1  0.875389  0.143687  0.046204  1
  O  O17  1  0.875391  0.810109  0.143689  1
  O  O18  1  0.455870  0.933414  0.196710  1
  O  O19  1  0.455874  0.869875  0.933413  1
  O  O20  1  0.455872  0.196710  0.869874  1
  O  O21  1  0.942642  0.116656  0.495871  1
  O  O22  1  0.942637  0.387475  0.116654  1
  O  O23  1  0.942640  0.495870  0.387477  1
  O  O24  1  0.436146  0.883454  0.504301  1
  O  O25  1  0.436146  0.612243  0.883456  1
  O  O26  1  0.436147  0.504301  0.612244  1
