# generated using pymatgen
data_Ac2Zn7Ga
_symmetry_space_group_name_H-M   'P 1'
_cell_length_a   6.21019028
_cell_length_b   6.21018928
_cell_length_c   6.19674700
_cell_angle_alpha   90.00000000
_cell_angle_beta   90.00000000
_cell_angle_gamma   117.61031779
_symmetry_Int_Tables_number   1
_chemical_formula_structural   Ac2Zn7Ga
_chemical_formula_sum   'Ac2 Zn7 Ga1'
_cell_volume   211.77081796
_cell_formula_units_Z   1
loop_
 _symmetry_equiv_pos_site_id
 _symmetry_equiv_pos_as_xyz
  1  'x, y, z'
loop_
 _atom_site_type_symbol
 _atom_site_label
 _atom_site_symmetry_multiplicity
 _atom_site_fract_x
 _atom_site_fract_y
 _atom_site_fract_z
 _atom_site_occupancy
  Ac  Ac0  1  0.267333  0.732667  0.750000  1
  Ac  Ac1  1  0.732030  0.267970  0.250000  1
  Zn  Zn2  1  0.148325  0.851675  0.250000  1
  Zn  Zn3  1  0.607762  0.392238  0.750000  1
  Zn  Zn4  1  0.389556  0.610444  0.250000  1
  Zn  Zn5  1  0.783265  0.781880  0.002338  1
  Zn  Zn6  1  0.783265  0.781880  0.497662  1
  Zn  Zn7  1  0.218120  0.216735  0.002338  1
  Zn  Zn8  1  0.218120  0.216735  0.497662  1
  Ga  Ga9  1  0.852225  0.147775  0.750000  1
