# generated using pymatgen
data_ZnIrRh3Pb3O14
_symmetry_space_group_name_H-M   'P 1'
_cell_length_a   7.29606343
_cell_length_b   7.19426055
_cell_length_c   7.31947900
_cell_angle_alpha   59.42256050
_cell_angle_beta   59.89379248
_cell_angle_gamma   59.48033670
_symmetry_Int_Tables_number   1
_chemical_formula_structural   ZnIrRh3Pb3O14
_chemical_formula_sum   'Zn1 Ir1 Rh3 Pb3 O14'
_cell_volume   269.18119120
_cell_formula_units_Z   1
loop_
 _symmetry_equiv_pos_site_id
 _symmetry_equiv_pos_as_xyz
  1  'x, y, z'
loop_
 _atom_site_type_symbol
 _atom_site_label
 _atom_site_symmetry_multiplicity
 _atom_site_fract_x
 _atom_site_fract_y
 _atom_site_fract_z
 _atom_site_occupancy
  Zn  Zn0  1  0.125000  0.625000  0.125000  1
  Ir  Ir1  1  0.125000  0.625000  0.625000  1
  Rh  Rh2  1  0.625000  0.125000  0.625000  1
  Rh  Rh3  1  0.625000  0.625000  0.125000  1
  Rh  Rh4  1  0.625000  0.625000  0.625000  1
  Pb  Pb5  1  0.625000  0.125000  0.125000  1
  Pb  Pb6  1  0.125000  0.125000  0.625000  1
  Pb  Pb7  1  0.125000  0.125000  0.125000  1
  O  O8  1  0.708294  0.706195  0.292755  1
  O  O9  1  0.292168  0.290981  0.708425  1
  O  O10  1  0.712201  0.288503  0.707331  1
  O  O11  1  0.298765  0.708331  0.306144  1
  O  O12  1  0.298765  0.708331  0.686759  1
  O  O13  1  0.712201  0.288503  0.291966  1
  O  O14  1  0.541706  0.543805  0.957245  1
  O  O15  1  0.957832  0.959019  0.541575  1
  O  O16  1  0.537799  0.961497  0.542669  1
  O  O17  1  0.951235  0.541669  0.943856  1
  O  O18  1  0.951235  0.541669  0.563241  1
  O  O19  1  0.537799  0.961497  0.958034  1
  O  O20  1  0.230593  0.297236  0.236085  1
  O  O21  1  0.019407  0.952764  0.013915  1
