# generated using pymatgen
data_Pu7Th(OsC2)4
_symmetry_space_group_name_H-M   'P 1'
_cell_length_a   5.21204700
_cell_length_b   6.38542762
_cell_length_c   9.82848314
_cell_angle_alpha   89.55689732
_cell_angle_beta   90.00000000
_cell_angle_gamma   90.00000000
_symmetry_Int_Tables_number   1
_chemical_formula_structural   Pu7Th(OsC2)4
_chemical_formula_sum   'Pu7 Th1 Os4 C8'
_cell_volume   327.09342858
_cell_formula_units_Z   1
loop_
 _symmetry_equiv_pos_site_id
 _symmetry_equiv_pos_as_xyz
  1  'x, y, z'
loop_
 _atom_site_type_symbol
 _atom_site_label
 _atom_site_symmetry_multiplicity
 _atom_site_fract_x
 _atom_site_fract_y
 _atom_site_fract_z
 _atom_site_occupancy
  Pu  Pu0  1  0.750000  0.302740  0.452527  1
  Pu  Pu1  1  0.750000  0.806025  0.044749  1
  Pu  Pu2  1  0.250000  0.191812  0.954552  1
  Pu  Pu3  1  0.250000  0.525400  0.215156  1
  Pu  Pu4  1  0.750000  0.472902  0.780111  1
  Pu  Pu5  1  0.750000  0.972714  0.725187  1
  Pu  Pu6  1  0.250000  0.035784  0.270457  1
  Th  Th7  1  0.250000  0.702358  0.544562  1
  Os  Os8  1  0.250000  0.722981  0.867544  1
  Os  Os9  1  0.750000  0.276063  0.132747  1
  Os  Os10  1  0.750000  0.774651  0.363965  1
  Os  Os11  1  0.250000  0.225219  0.634989  1
  C  C12  1  0.250000  0.459853  0.761830  1
  C  C13  1  0.750000  0.533549  0.244935  1
  C  C14  1  0.750000  0.034146  0.254073  1
  C  C15  1  0.250000  0.972440  0.752666  1
  C  C16  1  0.250000  0.832145  0.056480  1
  C  C17  1  0.750000  0.168754  0.944048  1
  C  C18  1  0.750000  0.665363  0.556589  1
  C  C19  1  0.250000  0.325104  0.442835  1
