# generated using pymatgen
data_Sc4Cu(SiIr)6
_symmetry_space_group_name_H-M   'P 1'
_cell_length_a   6.95843308
_cell_length_b   6.95843360
_cell_length_c   6.95843313
_cell_angle_alpha   109.46032706
_cell_angle_beta   109.46032417
_cell_angle_gamma   109.49301410
_symmetry_Int_Tables_number   1
_chemical_formula_structural   Sc4Cu(SiIr)6
_chemical_formula_sum   'Sc4 Cu1 Si6 Ir6'
_cell_volume   259.36564863
_cell_formula_units_Z   1
loop_
 _symmetry_equiv_pos_site_id
 _symmetry_equiv_pos_as_xyz
  1  'x, y, z'
loop_
 _atom_site_type_symbol
 _atom_site_label
 _atom_site_symmetry_multiplicity
 _atom_site_fract_x
 _atom_site_fract_y
 _atom_site_fract_z
 _atom_site_occupancy
  Sc  Sc0  1  0.002099  0.997901  0.500000  1
  Sc  Sc1  1  0.002099  0.502099  0.004198  1
  Sc  Sc2  1  0.497901  0.997901  0.995802  1
  Sc  Sc3  1  0.497901  0.502099  0.500000  1
  Cu  Cu4  1  0.750000  0.250000  0.500000  1
  Si  Si5  1  0.682864  0.682864  0.000000  1
  Si  Si6  1  0.313865  0.997559  0.316306  1
  Si  Si7  1  0.002441  0.318747  0.316306  1
  Si  Si8  1  0.317136  0.317136  0.000000  1
  Si  Si9  1  0.681253  0.997559  0.683694  1
  Si  Si10  1  0.002441  0.686135  0.683694  1
  Ir  Ir11  1  0.747382  0.494262  0.253120  1
  Ir  Ir12  1  0.505738  0.252618  0.746880  1
  Ir  Ir13  1  0.241142  0.494262  0.746880  1
  Ir  Ir14  1  0.250000  0.750000  0.500000  1
  Ir  Ir15  1  0.505738  0.758858  0.253120  1
  Ir  Ir16  1  0.000000  0.000000  0.000000  1
