# generated using pymatgen
data_Cs7RbNa4(VSe4)4
_symmetry_space_group_name_H-M   'P 1'
_cell_length_a   7.73746316
_cell_length_b   7.74558626
_cell_length_c   20.17848285
_cell_angle_alpha   85.94679810
_cell_angle_beta   85.96151462
_cell_angle_gamma   77.97922516
_symmetry_Int_Tables_number   1
_chemical_formula_structural   Cs7RbNa4(VSe4)4
_chemical_formula_sum   'Cs7 Rb1 Na4 V4 Se16'
_cell_volume   1177.91950692
_cell_formula_units_Z   1
loop_
 _symmetry_equiv_pos_site_id
 _symmetry_equiv_pos_as_xyz
  1  'x, y, z'
loop_
 _atom_site_type_symbol
 _atom_site_label
 _atom_site_symmetry_multiplicity
 _atom_site_fract_x
 _atom_site_fract_y
 _atom_site_fract_z
 _atom_site_occupancy
  Cs  Cs0  1  0.840000  0.892419  0.926912  1
  Cs  Cs1  1  0.892273  0.839776  0.426738  1
  Cs  Cs2  1  0.319877  0.680801  0.750025  1
  Cs  Cs3  1  0.499158  0.474262  0.501132  1
  Cs  Cs4  1  0.680712  0.319989  0.249651  1
  Cs  Cs5  1  0.474375  0.499148  0.001390  1
  Cs  Cs6  1  0.102928  0.151916  0.574076  1
  Rb  Rb7  1  0.154564  0.099568  0.074258  1
  Na  Na8  1  0.882901  0.401280  0.786593  1
  Na  Na9  1  0.400840  0.883028  0.286378  1
  Na  Na10  1  0.599817  0.116880  0.714349  1
  Na  Na11  1  0.116782  0.599969  0.214117  1
  V  V12  1  0.812406  0.700446  0.644680  1
  V  V13  1  0.700422  0.812958  0.144365  1
  V  V14  1  0.298996  0.188310  0.855995  1
  V  V15  1  0.188196  0.299179  0.354745  1
  Se  Se16  1  0.832581  0.782487  0.750906  1
  Se  Se17  1  0.614034  0.912533  0.588932  1
  Se  Se18  1  0.782163  0.832300  0.250797  1
  Se  Se19  1  0.911506  0.612533  0.089072  1
  Se  Se20  1  0.333385  0.917509  0.912001  1
  Se  Se21  1  0.917005  0.334138  0.410544  1
  Se  Se22  1  0.719689  0.433975  0.652143  1
  Se  Se23  1  0.431057  0.724572  0.151283  1
  Se  Se24  1  0.565671  0.280503  0.849099  1
  Se  Se25  1  0.280603  0.565567  0.348785  1
  Se  Se26  1  0.084002  0.663830  0.589224  1
  Se  Se27  1  0.668460  0.084374  0.088855  1
  Se  Se28  1  0.087842  0.386411  0.912005  1
  Se  Se29  1  0.217996  0.169057  0.749444  1
  Se  Se30  1  0.386652  0.088388  0.410982  1
  Se  Se31  1  0.169208  0.217995  0.248209  1
