# generated using pymatgen
data_Be2Nb5Si2W
_symmetry_space_group_name_H-M   'P 1'
_cell_length_a   6.60790932
_cell_length_b   6.60783732
_cell_length_c   3.41593100
_cell_angle_alpha   90.00000000
_cell_angle_beta   90.00000000
_cell_angle_gamma   89.96436287
_symmetry_Int_Tables_number   1
_chemical_formula_structural   Be2Nb5Si2W
_chemical_formula_sum   'Be2 Nb5 Si2 W1'
_cell_volume   149.15314751
_cell_formula_units_Z   1
loop_
 _symmetry_equiv_pos_site_id
 _symmetry_equiv_pos_as_xyz
  1  'x, y, z'
loop_
 _atom_site_type_symbol
 _atom_site_label
 _atom_site_symmetry_multiplicity
 _atom_site_fract_x
 _atom_site_fract_y
 _atom_site_fract_z
 _atom_site_occupancy
  Be  Be0  1  0.622873  0.878093  0.000000  1
  Be  Be1  1  0.119236  0.625028  0.000000  1
  Nb  Nb2  1  0.496584  0.505226  0.000000  1
  Nb  Nb3  1  0.680718  0.168812  0.500000  1
  Nb  Nb4  1  0.176299  0.326378  0.500000  1
  Nb  Nb5  1  0.826251  0.687030  0.500000  1
  Nb  Nb6  1  0.319562  0.818016  0.500000  1
  Si  Si7  1  0.881656  0.384773  0.000000  1
  Si  Si8  1  0.380178  0.113143  0.000000  1
  W  W9  1  0.996643  0.993500  0.000000  1
