# generated using pymatgen
data_Ac4(LaPt)3
_symmetry_space_group_name_H-M   'P 1'
_cell_length_a   10.66008200
_cell_length_b   10.65904332
_cell_length_c   6.73925500
_cell_angle_alpha   90.00000000
_cell_angle_beta   90.00000000
_cell_angle_gamma   120.00056228
_symmetry_Int_Tables_number   1
_chemical_formula_structural   Ac4(LaPt)3
_chemical_formula_sum   'Ac8 La6 Pt6'
_cell_volume   663.16077938
_cell_formula_units_Z   2
loop_
 _symmetry_equiv_pos_site_id
 _symmetry_equiv_pos_as_xyz
  1  'x, y, z'
loop_
 _atom_site_type_symbol
 _atom_site_label
 _atom_site_symmetry_multiplicity
 _atom_site_fract_x
 _atom_site_fract_y
 _atom_site_fract_z
 _atom_site_occupancy
  Ac  Ac0  1  0.666665  0.333329  0.539299  1
  Ac  Ac1  1  0.333335  0.666671  0.039299  1
  Ac  Ac2  1  0.871228  0.742453  0.751523  1
  Ac  Ac3  1  0.257554  0.128787  0.751563  1
  Ac  Ac4  1  0.871225  0.128789  0.751554  1
  Ac  Ac5  1  0.128772  0.257547  0.251523  1
  Ac  Ac6  1  0.742446  0.871213  0.251563  1
  Ac  Ac7  1  0.128775  0.871211  0.251554  1
  La  La8  1  0.460979  0.921952  0.568558  1
  La  La9  1  0.078096  0.539060  0.568653  1
  La  La10  1  0.460956  0.539057  0.568645  1
  La  La11  1  0.539021  0.078048  0.068558  1
  La  La12  1  0.921904  0.460940  0.068653  1
  La  La13  1  0.539044  0.460943  0.068645  1
  Pt  Pt14  1  0.189875  0.379769  0.802482  1
  Pt  Pt15  1  0.620226  0.810157  0.802493  1
  Pt  Pt16  1  0.189931  0.810165  0.802491  1
  Pt  Pt17  1  0.810125  0.620231  0.302482  1
  Pt  Pt18  1  0.379774  0.189843  0.302493  1
  Pt  Pt19  1  0.810069  0.189835  0.302491  1
