# generated using pymatgen
data_Nd6Pd3RhAu4
_symmetry_space_group_name_H-M   'P 1'
_cell_length_a   8.21687161
_cell_length_b   8.26128941
_cell_length_c   8.30259296
_cell_angle_alpha   114.99335705
_cell_angle_beta   114.30468903
_cell_angle_gamma   114.03504551
_symmetry_Int_Tables_number   1
_chemical_formula_structural   Nd6Pd3RhAu4
_chemical_formula_sum   'Nd6 Pd3 Rh1 Au4'
_cell_volume   330.81174181
_cell_formula_units_Z   1
loop_
 _symmetry_equiv_pos_site_id
 _symmetry_equiv_pos_as_xyz
  1  'x, y, z'
loop_
 _atom_site_type_symbol
 _atom_site_label
 _atom_site_symmetry_multiplicity
 _atom_site_fract_x
 _atom_site_fract_y
 _atom_site_fract_z
 _atom_site_occupancy
  Nd  Nd0  1  0.977005  0.600347  0.723482  1
  Nd  Nd1  1  0.718522  0.970030  0.602895  1
  Nd  Nd2  1  0.608517  0.730343  0.980414  1
  Nd  Nd3  1  0.029350  0.388479  0.267362  1
  Nd  Nd4  1  0.273556  0.026689  0.381382  1
  Nd  Nd5  1  0.386840  0.274680  0.033741  1
  Pd  Pd6  1  0.507290  0.505559  0.507874  1
  Pd  Pd7  1  0.561089  0.061648  0.227123  1
  Pd  Pd8  1  0.229478  0.565452  0.065172  1
  Rh  Rh9  1  0.991886  0.990540  0.991101  1
  Au  Au10  1  0.941457  0.776910  0.441931  1
  Au  Au11  1  0.438826  0.938011  0.778763  1
  Au  Au12  1  0.776036  0.440210  0.935659  1
  Au  Au13  1  0.060149  0.231103  0.563103  1
