# generated using pymatgen
data_ZrSc(ReW)2
_symmetry_space_group_name_H-M   'P 1'
_cell_length_a   5.35886267
_cell_length_b   5.34003968
_cell_length_c   8.76338226
_cell_angle_alpha   89.88624466
_cell_angle_beta   90.05667097
_cell_angle_gamma   119.88386120
_symmetry_Int_Tables_number   1
_chemical_formula_structural   ZrSc(ReW)2
_chemical_formula_sum   'Zr2 Sc2 Re4 W4'
_cell_volume   217.43312428
_cell_formula_units_Z   2
loop_
 _symmetry_equiv_pos_site_id
 _symmetry_equiv_pos_as_xyz
  1  'x, y, z'
loop_
 _atom_site_type_symbol
 _atom_site_label
 _atom_site_symmetry_multiplicity
 _atom_site_fract_x
 _atom_site_fract_y
 _atom_site_fract_z
 _atom_site_occupancy
  Zr  Zr0  1  0.333270  0.666979  0.439899  1
  Zr  Zr1  1  0.666730  0.333708  0.939899  1
  Sc  Sc2  1  0.666749  0.333717  0.560912  1
  Sc  Sc3  1  0.333251  0.666970  0.060912  1
  Re  Re4  1  0.171061  0.830255  0.749728  1
  Re  Re5  1  0.828939  0.659193  0.249728  1
  Re  Re6  1  0.000618  0.996728  0.499785  1
  Re  Re7  1  0.999382  0.996110  0.999785  1
  W  W8  1  0.660958  0.832567  0.749791  1
  W  W9  1  0.339042  0.171607  0.249791  1
  W  W10  1  0.831232  0.171699  0.249885  1
  W  W11  1  0.168768  0.340468  0.749885  1
