# generated using pymatgen
data_Ti6BeBiTe
_symmetry_space_group_name_H-M   'P 1'
_cell_length_a   7.15169200
_cell_length_b   7.15169341
_cell_length_c   3.63152600
_cell_angle_alpha   90.00000000
_cell_angle_beta   90.00000000
_cell_angle_gamma   120.00000274
_symmetry_Int_Tables_number   1
_chemical_formula_structural   Ti6BeBiTe
_chemical_formula_sum   'Ti6 Be1 Bi1 Te1'
_cell_volume   160.85607526
_cell_formula_units_Z   1
loop_
 _symmetry_equiv_pos_site_id
 _symmetry_equiv_pos_as_xyz
  1  'x, y, z'
loop_
 _atom_site_type_symbol
 _atom_site_label
 _atom_site_symmetry_multiplicity
 _atom_site_fract_x
 _atom_site_fract_y
 _atom_site_fract_z
 _atom_site_occupancy
  Ti  Ti0  1  0.373657  0.992377  0.000000  1
  Ti  Ti1  1  0.007623  0.381280  0.000000  1
  Ti  Ti2  1  0.618720  0.626343  0.000000  1
  Ti  Ti3  1  0.775351  0.999754  0.500000  1
  Ti  Ti4  1  0.224403  0.224649  0.500000  1
  Ti  Ti5  1  0.000246  0.775597  0.500000  1
  Be  Be6  1  0.000000  0.000000  0.000000  1
  Bi  Bi7  1  0.666667  0.333334  0.500000  1
  Te  Te8  1  0.333333  0.666666  0.500000  1
