# generated using pymatgen
data_Ti4Nb2Re6Si5B
_symmetry_space_group_name_H-M   'P 1'
_cell_length_a   7.48982324
_cell_length_b   7.48991093
_cell_length_c   7.48982581
_cell_angle_alpha   126.11781921
_cell_angle_beta   128.59685016
_cell_angle_gamma   77.68484465
_symmetry_Int_Tables_number   1
_chemical_formula_structural   Ti4Nb2Re6Si5B
_chemical_formula_sum   'Ti4 Nb2 Re6 Si5 B1'
_cell_volume   257.21102112
_cell_formula_units_Z   1
loop_
 _symmetry_equiv_pos_site_id
 _symmetry_equiv_pos_as_xyz
  1  'x, y, z'
loop_
 _atom_site_type_symbol
 _atom_site_label
 _atom_site_symmetry_multiplicity
 _atom_site_fract_x
 _atom_site_fract_y
 _atom_site_fract_z
 _atom_site_occupancy
  Ti  Ti0  1  0.554006  0.101237  0.047232  1
  Ti  Ti1  1  0.449334  0.492183  0.542849  1
  Ti  Ti2  1  0.946189  0.493253  0.047065  1
  Ti  Ti3  1  0.050694  0.093717  0.543023  1
  Nb  Nb4  1  0.749835  0.895080  0.645245  1
  Nb  Nb5  1  0.249850  0.902013  0.152163  1
  Re  Re6  1  0.510563  0.246162  0.756710  1
  Re  Re7  1  0.989451  0.246162  0.235600  1
  Re  Re8  1  0.113700  0.748441  0.610513  1
  Re  Re9  1  0.862219  0.496663  0.610412  1
  Re  Re10  1  0.637928  0.748441  0.134740  1
  Re  Re11  1  0.386252  0.496663  0.134445  1
  Si  Si12  1  0.250043  0.497267  0.747224  1
  Si  Si13  1  0.330557  0.827038  0.497686  1
  Si  Si14  1  0.670632  0.167082  0.497691  1
  Si  Si15  1  0.829351  0.827038  0.996481  1
  Si  Si16  1  0.169392  0.167082  0.996449  1
  B  B17  1  0.750003  0.496677  0.246673  1
