# generated using pymatgen
data_Dy6Al24NiOs7
_symmetry_space_group_name_H-M   'P 1'
_cell_length_a   8.82280100
_cell_length_b   8.82280179
_cell_length_c   9.55165000
_cell_angle_alpha   90.00000000
_cell_angle_beta   90.00000000
_cell_angle_gamma   119.99999329
_symmetry_Int_Tables_number   1
_chemical_formula_structural   Dy6Al24NiOs7
_chemical_formula_sum   'Dy6 Al24 Ni1 Os7'
_cell_volume   643.90540074
_cell_formula_units_Z   1
loop_
 _symmetry_equiv_pos_site_id
 _symmetry_equiv_pos_as_xyz
  1  'x, y, z'
loop_
 _atom_site_type_symbol
 _atom_site_label
 _atom_site_symmetry_multiplicity
 _atom_site_fract_x
 _atom_site_fract_y
 _atom_site_fract_z
 _atom_site_occupancy
  Dy  Dy0  1  0.193745  0.387490  0.249298  1
  Dy  Dy1  1  0.806255  0.612510  0.750702  1
  Dy  Dy2  1  0.612510  0.806255  0.249298  1
  Dy  Dy3  1  0.387490  0.193745  0.750702  1
  Dy  Dy4  1  0.193745  0.806255  0.249298  1
  Dy  Dy5  1  0.806255  0.193745  0.750702  1
  Al  Al6  1  0.333333  0.666667  0.016793  1
  Al  Al7  1  0.666667  0.333333  0.983207  1
  Al  Al8  1  0.666667  0.333333  0.515279  1
  Al  Al9  1  0.333333  0.666667  0.484721  1
  Al  Al10  1  0.161909  0.323817  0.577080  1
  Al  Al11  1  0.838091  0.676183  0.422920  1
  Al  Al12  1  0.676183  0.838091  0.577080  1
  Al  Al13  1  0.837920  0.675843  0.076280  1
  Al  Al14  1  0.323817  0.161909  0.422920  1
  Al  Al15  1  0.162080  0.324157  0.923720  1
  Al  Al16  1  0.161909  0.838091  0.577080  1
  Al  Al17  1  0.324157  0.162080  0.076280  1
  Al  Al18  1  0.838091  0.161909  0.422920  1
  Al  Al19  1  0.675843  0.837920  0.923720  1
  Al  Al20  1  0.837920  0.162080  0.076280  1
  Al  Al21  1  0.162080  0.837920  0.923720  1
  Al  Al22  1  0.560624  0.121249  0.249758  1
  Al  Al23  1  0.439376  0.878751  0.750242  1
  Al  Al24  1  0.878751  0.439376  0.249758  1
  Al  Al25  1  0.121249  0.560624  0.750242  1
  Al  Al26  1  0.560624  0.439376  0.249758  1
  Al  Al27  1  0.439376  0.560624  0.750242  1
  Al  Al28  1  0.000000  0.000000  0.243162  1
  Al  Al29  1  0.000000  0.000000  0.756838  1
  Ni  Ni30  1  0.000000  0.000000  0.000000  1
  Os  Os31  1  0.500000  0.000000  0.000000  1
  Os  Os32  1  0.000000  0.500000  0.000000  1
  Os  Os33  1  0.500000  0.000000  0.500000  1
  Os  Os34  1  0.500000  0.500000  0.000000  1
  Os  Os35  1  0.000000  0.500000  0.500000  1
  Os  Os36  1  0.500000  0.500000  0.500000  1
  Os  Os37  1  0.000000  0.000000  0.500000  1
