# generated using pymatgen
data_Ce5Ga2Ir3
_symmetry_space_group_name_H-M   'P 1'
_cell_length_a   8.41079024
_cell_length_b   8.41078968
_cell_length_c   8.41079000
_cell_angle_alpha   109.47122381
_cell_angle_beta   109.47122245
_cell_angle_gamma   109.47121676
_symmetry_Int_Tables_number   1
_chemical_formula_structural   Ce5Ga2Ir3
_chemical_formula_sum   'Ce10 Ga4 Ir6'
_cell_volume   458.02424598
_cell_formula_units_Z   2
loop_
 _symmetry_equiv_pos_site_id
 _symmetry_equiv_pos_as_xyz
  1  'x, y, z'
loop_
 _atom_site_type_symbol
 _atom_site_label
 _atom_site_symmetry_multiplicity
 _atom_site_fract_x
 _atom_site_fract_y
 _atom_site_fract_z
 _atom_site_occupancy
  Ce  Ce0  1  0.768140  0.768140  0.768140  1
  Ce  Ce1  1  0.313282  0.563282  0.750000  1
  Ce  Ce2  1  0.750000  0.313282  0.563282  1
  Ce  Ce3  1  0.563282  0.750000  0.313282  1
  Ce  Ce4  1  0.731860  0.500000  0.000000  1
  Ce  Ce5  1  0.000000  0.731860  0.500000  1
  Ce  Ce6  1  0.500000  0.000000  0.731860  1
  Ce  Ce7  1  0.250000  0.186718  0.936718  1
  Ce  Ce8  1  0.936718  0.250000  0.186718  1
  Ce  Ce9  1  0.186718  0.936718  0.250000  1
  Ga  Ga10  1  0.383017  0.383017  0.383017  1
  Ga  Ga11  1  0.116983  0.500000  0.000000  1
  Ga  Ga12  1  0.000000  0.116983  0.500000  1
  Ga  Ga13  1  0.500000  0.000000  0.116983  1
  Ir  Ir14  1  0.867284  0.117284  0.750000  1
  Ir  Ir15  1  0.750000  0.867284  0.117284  1
  Ir  Ir16  1  0.117284  0.750000  0.867284  1
  Ir  Ir17  1  0.250000  0.632716  0.382716  1
  Ir  Ir18  1  0.382716  0.250000  0.632716  1
  Ir  Ir19  1  0.632716  0.382716  0.250000  1
