# generated using pymatgen
data_Rb3(RuO4)2
_symmetry_space_group_name_H-M   'P 1'
_cell_length_a   8.45148941
_cell_length_b   8.45148949
_cell_length_c   8.45148940
_cell_angle_alpha   43.53937300
_cell_angle_beta   43.53937351
_cell_angle_gamma   43.53937568
_symmetry_Int_Tables_number   1
_chemical_formula_structural   Rb3(RuO4)2
_chemical_formula_sum   'Rb3 Ru2 O8'
_cell_volume   259.92858435
_cell_formula_units_Z   1
loop_
 _symmetry_equiv_pos_site_id
 _symmetry_equiv_pos_as_xyz
  1  'x, y, z'
loop_
 _atom_site_type_symbol
 _atom_site_label
 _atom_site_symmetry_multiplicity
 _atom_site_fract_x
 _atom_site_fract_y
 _atom_site_fract_z
 _atom_site_occupancy
  Rb  Rb0  1  0.000000  0.000000  0.000000  1
  Rb  Rb1  1  0.796607  0.796607  0.796607  1
  Rb  Rb2  1  0.203393  0.203393  0.203393  1
  Ru  Ru3  1  0.592536  0.592536  0.592536  1
  Ru  Ru4  1  0.407464  0.407464  0.407464  1
  O  O5  1  0.279897  0.741922  0.279897  1
  O  O6  1  0.279897  0.279897  0.741922  1
  O  O7  1  0.741922  0.279897  0.279897  1
  O  O8  1  0.720103  0.258078  0.720103  1
  O  O9  1  0.720103  0.720103  0.258078  1
  O  O10  1  0.258078  0.720103  0.720103  1
  O  O11  1  0.669731  0.669731  0.669731  1
  O  O12  1  0.330269  0.330269  0.330269  1
