# generated using pymatgen
data_PrNd5Al24Os5Pt3
_symmetry_space_group_name_H-M   'P 1'
_cell_length_a   8.91550940
_cell_length_b   8.95108496
_cell_length_c   9.68841600
_cell_angle_alpha   90.01365522
_cell_angle_beta   90.04955754
_cell_angle_gamma   119.79539956
_symmetry_Int_Tables_number   1
_chemical_formula_structural   PrNd5Al24Os5Pt3
_chemical_formula_sum   'Pr1 Nd5 Al24 Os5 Pt3'
_cell_volume   670.96003692
_cell_formula_units_Z   1
loop_
 _symmetry_equiv_pos_site_id
 _symmetry_equiv_pos_as_xyz
  1  'x, y, z'
loop_
 _atom_site_type_symbol
 _atom_site_label
 _atom_site_symmetry_multiplicity
 _atom_site_fract_x
 _atom_site_fract_y
 _atom_site_fract_z
 _atom_site_occupancy
  Pr  Pr0  1  0.805665  0.187142  0.748858  1
  Nd  Nd1  1  0.192405  0.380673  0.249947  1
  Nd  Nd2  1  0.807589  0.619506  0.750049  1
  Nd  Nd3  1  0.615882  0.809820  0.250124  1
  Nd  Nd4  1  0.383834  0.190266  0.749899  1
  Nd  Nd5  1  0.194997  0.812941  0.251126  1
  Al  Al6  1  0.334803  0.671171  0.022902  1
  Al  Al7  1  0.664879  0.329039  0.977745  1
  Al  Al8  1  0.661551  0.331268  0.521683  1
  Al  Al9  1  0.338141  0.668913  0.477693  1
  Al  Al10  1  0.168163  0.326103  0.572810  1
  Al  Al11  1  0.832344  0.674100  0.426899  1
  Al  Al12  1  0.670561  0.834659  0.573260  1
  Al  Al13  1  0.837962  0.675401  0.076156  1
  Al  Al14  1  0.329211  0.164853  0.426416  1
  Al  Al15  1  0.162569  0.324816  0.924152  1
  Al  Al16  1  0.167226  0.841336  0.576003  1
  Al  Al17  1  0.326743  0.158305  0.076208  1
  Al  Al18  1  0.832802  0.158637  0.423371  1
  Al  Al19  1  0.673016  0.841186  0.924164  1
  Al  Al20  1  0.832492  0.158155  0.077122  1
  Al  Al21  1  0.167510  0.841799  0.923450  1
  Al  Al22  1  0.562273  0.124923  0.249786  1
  Al  Al23  1  0.436933  0.874492  0.750224  1
  Al  Al24  1  0.872962  0.436346  0.249249  1
  Al  Al25  1  0.127634  0.564419  0.750774  1
  Al  Al26  1  0.562958  0.436627  0.253257  1
  Al  Al27  1  0.437048  0.563366  0.746699  1
  Al  Al28  1  0.002602  0.003144  0.250270  1
  Al  Al29  1  0.997801  0.996455  0.749733  1
  Os  Os30  1  0.499563  0.999730  0.000376  1
  Os  Os31  1  0.499526  0.999746  0.499630  1
  Os  Os32  1  0.499949  0.500095  0.499947  1
  Os  Os33  1  0.000069  0.999943  0.000100  1
  Os  Os34  1  0.000069  0.999950  0.499899  1
  Pt  Pt35  1  0.000149  0.500283  0.000184  1
  Pt  Pt36  1  0.499965  0.500083  0.000029  1
  Pt  Pt37  1  0.000152  0.500306  0.499809  1
