# generated using pymatgen
data_Sr3Sn4Te
_symmetry_space_group_name_H-M   'P 1'
_cell_length_a   9.06005171
_cell_length_b   9.06005124
_cell_length_c   9.06005202
_cell_angle_alpha   120.39167756
_cell_angle_beta   120.39167699
_cell_angle_gamma   89.32292781
_symmetry_Int_Tables_number   1
_chemical_formula_structural   Sr3Sn4Te
_chemical_formula_sum   'Sr6 Sn8 Te2'
_cell_volume   522.71550729
_cell_formula_units_Z   2
loop_
 _symmetry_equiv_pos_site_id
 _symmetry_equiv_pos_as_xyz
  1  'x, y, z'
loop_
 _atom_site_type_symbol
 _atom_site_label
 _atom_site_symmetry_multiplicity
 _atom_site_fract_x
 _atom_site_fract_y
 _atom_site_fract_z
 _atom_site_occupancy
  Sr  Sr0  1  0.250000  0.250000  0.000000  1
  Sr  Sr1  1  0.750000  0.750000  0.000000  1
  Sr  Sr2  1  0.163138  0.663138  0.826276  1
  Sr  Sr3  1  0.836862  0.336862  0.173724  1
  Sr  Sr4  1  0.663138  0.836862  0.500000  1
  Sr  Sr5  1  0.336862  0.163138  0.500000  1
  Sn  Sn6  1  0.831408  0.331408  0.783676  1
  Sn  Sn7  1  0.168592  0.668592  0.216324  1
  Sn  Sn8  1  0.547732  0.047732  0.216324  1
  Sn  Sn9  1  0.331408  0.547732  0.500000  1
  Sn  Sn10  1  0.952268  0.168592  0.500000  1
  Sn  Sn11  1  0.452268  0.952268  0.783676  1
  Sn  Sn12  1  0.668592  0.452268  0.500000  1
  Sn  Sn13  1  0.047732  0.831408  0.500000  1
  Te  Te14  1  0.000000  0.000000  0.000000  1
  Te  Te15  1  0.500000  0.500000  0.000000  1
