# generated using pymatgen
data_Tb2CoNiRu2
_symmetry_space_group_name_H-M   'P 1'
_cell_length_a   5.22539313
_cell_length_b   5.29617788
_cell_length_c   5.29617700
_cell_angle_alpha   58.14844165
_cell_angle_beta   59.11215115
_cell_angle_gamma   59.11214979
_symmetry_Int_Tables_number   1
_chemical_formula_structural   Tb2CoNiRu2
_chemical_formula_sum   'Tb2 Co1 Ni1 Ru2'
_cell_volume   100.75894695
_cell_formula_units_Z   1
loop_
 _symmetry_equiv_pos_site_id
 _symmetry_equiv_pos_as_xyz
  1  'x, y, z'
loop_
 _atom_site_type_symbol
 _atom_site_label
 _atom_site_symmetry_multiplicity
 _atom_site_fract_x
 _atom_site_fract_y
 _atom_site_fract_z
 _atom_site_occupancy
  Tb  Tb0  1  0.125017  0.121923  0.121923  1
  Tb  Tb1  1  0.874983  0.878077  0.878077  1
  Co  Co2  1  0.000000  0.500000  0.500000  1
  Ni  Ni3  1  0.500000  0.500000  0.500000  1
  Ru  Ru4  1  0.500000  0.000000  0.500000  1
  Ru  Ru5  1  0.500000  0.500000  0.000000  1
