# generated using pymatgen
data_ScTa2Pb4WO13
_symmetry_space_group_name_H-M   'P 1'
_cell_length_a   7.52757033
_cell_length_b   7.56877865
_cell_length_c   7.56877692
_cell_angle_alpha   60.30465329
_cell_angle_beta   60.36920886
_cell_angle_gamma   60.36920197
_symmetry_Int_Tables_number   1
_chemical_formula_structural   ScTa2Pb4WO13
_chemical_formula_sum   'Sc1 Ta2 Pb4 W1 O13'
_cell_volume   307.32192502
_cell_formula_units_Z   1
loop_
 _symmetry_equiv_pos_site_id
 _symmetry_equiv_pos_as_xyz
  1  'x, y, z'
loop_
 _atom_site_type_symbol
 _atom_site_label
 _atom_site_symmetry_multiplicity
 _atom_site_fract_x
 _atom_site_fract_y
 _atom_site_fract_z
 _atom_site_occupancy
  Sc  Sc0  1  0.499602  0.500989  0.500989  1
  Ta  Ta1  1  0.500937  0.501263  0.002082  1
  Ta  Ta2  1  0.500937  0.002082  0.501263  1
  Pb  Pb3  1  0.995578  0.001314  0.001314  1
  Pb  Pb4  1  0.501193  0.006064  0.006064  1
  Pb  Pb5  1  0.008542  0.998841  0.499635  1
  Pb  Pb6  1  0.008542  0.499635  0.998841  1
  W  W7  1  0.000491  0.499735  0.499735  1
  O  O8  1  0.839311  0.424618  0.424618  1
  O  O9  1  0.433433  0.810387  0.810387  1
  O  O10  1  0.418675  0.421078  0.839262  1
  O  O11  1  0.815050  0.818936  0.423269  1
  O  O12  1  0.815050  0.423269  0.818936  1
  O  O13  1  0.418675  0.839262  0.421078  1
  O  O14  1  0.164675  0.571266  0.571266  1
  O  O15  1  0.567918  0.186224  0.186224  1
  O  O16  1  0.571023  0.568830  0.171533  1
  O  O17  1  0.185633  0.181747  0.574017  1
  O  O18  1  0.185633  0.574017  0.181747  1
  O  O19  1  0.571023  0.171533  0.568830  1
  O  O20  1  0.123077  0.123909  0.123909  1
