# generated using pymatgen
data_Ho13Th3Mg2(InNi2)2
_symmetry_space_group_name_H-M   'P 1'
_cell_length_a   9.61419000
_cell_length_b   9.65622087
_cell_length_c   9.65534650
_cell_angle_alpha   59.84989581
_cell_angle_beta   59.77138766
_cell_angle_gamma   59.84765413
_symmetry_Int_Tables_number   1
_chemical_formula_structural   Ho13Th3Mg2(InNi2)2
_chemical_formula_sum   'Ho13 Th3 Mg2 In2 Ni4'
_cell_volume   631.28248148
_cell_formula_units_Z   1
loop_
 _symmetry_equiv_pos_site_id
 _symmetry_equiv_pos_as_xyz
  1  'x, y, z'
loop_
 _atom_site_type_symbol
 _atom_site_label
 _atom_site_symmetry_multiplicity
 _atom_site_fract_x
 _atom_site_fract_y
 _atom_site_fract_z
 _atom_site_occupancy
  Ho  Ho0  1  0.952378  0.350107  0.349368  1
  Ho  Ho1  1  0.813305  0.188033  0.187476  1
  Ho  Ho2  1  0.185799  0.813357  0.811734  1
  Ho  Ho3  1  0.190192  0.811100  0.188229  1
  Ho  Ho4  1  0.813318  0.187328  0.810902  1
  Ho  Ho5  1  0.187811  0.185171  0.814580  1
  Ho  Ho6  1  0.811561  0.810980  0.189071  1
  Ho  Ho7  1  0.934448  0.567689  0.567068  1
  Ho  Ho8  1  0.564877  0.935254  0.934224  1
  Ho  Ho9  1  0.565885  0.935668  0.565348  1
  Ho  Ho10  1  0.935303  0.564411  0.934144  1
  Ho  Ho11  1  0.563650  0.564694  0.935978  1
  Ho  Ho12  1  0.935161  0.933029  0.565024  1
  Th  Th13  1  0.341324  0.345739  0.348224  1
  Th  Th14  1  0.341937  0.347770  0.961915  1
  Th  Th15  1  0.340443  0.958348  0.349350  1
  Mg  Mg16  1  0.581673  0.262779  0.577196  1
  Mg  Mg17  1  0.264027  0.579697  0.577600  1
  In  In18  1  0.585298  0.581585  0.582378  1
  In  In19  1  0.585664  0.580485  0.252113  1
  Ni  Ni20  1  0.146329  0.141183  0.139494  1
  Ni  Ni21  1  0.144892  0.141932  0.572985  1
  Ni  Ni22  1  0.145898  0.572110  0.141324  1
  Ni  Ni23  1  0.568827  0.141553  0.144273  1
