# generated using pymatgen
data_Dy9YPt18
_symmetry_space_group_name_H-M   'P 1'
_cell_length_a   9.79461311
_cell_length_b   9.78713111
_cell_length_c   5.77930400
_cell_angle_alpha   90.00000000
_cell_angle_beta   90.00000000
_cell_angle_gamma   90.01719306
_symmetry_Int_Tables_number   1
_chemical_formula_structural   Dy9YPt18
_chemical_formula_sum   'Dy9 Y1 Pt18'
_cell_volume   554.01077600
_cell_formula_units_Z   1
loop_
 _symmetry_equiv_pos_site_id
 _symmetry_equiv_pos_as_xyz
  1  'x, y, z'
loop_
 _atom_site_type_symbol
 _atom_site_label
 _atom_site_symmetry_multiplicity
 _atom_site_fract_x
 _atom_site_fract_y
 _atom_site_fract_z
 _atom_site_occupancy
  Dy  Dy0  1  0.547124  0.191205  0.000000  1
  Dy  Dy1  1  0.191087  0.547057  0.000000  1
  Dy  Dy2  1  0.808803  0.452894  0.000000  1
  Dy  Dy3  1  0.499999  0.499980  0.500000  1
  Dy  Dy4  1  0.308808  0.047172  0.500000  1
  Dy  Dy5  1  0.691206  0.952889  0.500000  1
  Dy  Dy6  1  0.952884  0.691141  0.500000  1
  Dy  Dy7  1  0.047127  0.308834  0.500000  1
  Dy  Dy8  1  0.000036  0.000010  0.000000  1
  Y  Y9  1  0.452865  0.808935  0.000000  1
  Pt  Pt10  1  0.191702  0.808069  0.250873  1
  Pt  Pt11  1  0.808045  0.191976  0.749407  1
  Pt  Pt12  1  0.808045  0.191976  0.250593  1
  Pt  Pt13  1  0.191702  0.808069  0.749127  1
  Pt  Pt14  1  0.440275  0.781573  0.500000  1
  Pt  Pt15  1  0.559644  0.218328  0.500000  1
  Pt  Pt16  1  0.218312  0.559685  0.500000  1
  Pt  Pt17  1  0.781690  0.440399  0.500000  1
  Pt  Pt18  1  0.308028  0.308039  0.249371  1
  Pt  Pt19  1  0.692151  0.691826  0.750429  1
  Pt  Pt20  1  0.692151  0.691826  0.249571  1
  Pt  Pt21  1  0.308028  0.308039  0.750629  1
  Pt  Pt22  1  0.281451  0.059895  0.000000  1
  Pt  Pt23  1  0.718752  0.940557  0.000000  1
  Pt  Pt24  1  0.940375  0.718315  0.000000  1
  Pt  Pt25  1  0.059619  0.281673  0.000000  1
  Pt  Pt26  1  0.000002  0.999952  0.500000  1
  Pt  Pt27  1  0.500087  0.499688  0.000000  1
