# generated using pymatgen
data_Cd4Ir3AuO14
_symmetry_space_group_name_H-M   'P 1'
_cell_length_a   7.29054256
_cell_length_b   7.29054255
_cell_length_c   7.28285413
_cell_angle_alpha   59.96506223
_cell_angle_beta   59.96506324
_cell_angle_gamma   60.00000399
_symmetry_Int_Tables_number   1
_chemical_formula_structural   Cd4Ir3AuO14
_chemical_formula_sum   'Cd4 Ir3 Au1 O14'
_cell_volume   273.57523584
_cell_formula_units_Z   1
loop_
 _symmetry_equiv_pos_site_id
 _symmetry_equiv_pos_as_xyz
  1  'x, y, z'
loop_
 _atom_site_type_symbol
 _atom_site_label
 _atom_site_symmetry_multiplicity
 _atom_site_fract_x
 _atom_site_fract_y
 _atom_site_fract_z
 _atom_site_occupancy
  Cd  Cd0  1  0.125000  0.125000  0.125000  1
  Cd  Cd1  1  0.625000  0.125000  0.125000  1
  Cd  Cd2  1  0.125000  0.625000  0.125000  1
  Cd  Cd3  1  0.125000  0.125000  0.625000  1
  Ir  Ir4  1  0.625000  0.625000  0.625000  1
  Ir  Ir5  1  0.125000  0.625000  0.625000  1
  Ir  Ir6  1  0.625000  0.125000  0.625000  1
  Au  Au7  1  0.625000  0.625000  0.125000  1
  O  O8  1  0.248872  0.248872  0.253385  1
  O  O9  1  0.001128  0.001128  0.996615  1
  O  O10  1  0.541065  0.943427  0.572080  1
  O  O11  1  0.280406  0.710146  0.299300  1
  O  O12  1  0.539854  0.539854  0.950700  1
  O  O13  1  0.943427  0.541065  0.572080  1
  O  O14  1  0.539854  0.969594  0.950700  1
  O  O15  1  0.943427  0.943427  0.572080  1
  O  O16  1  0.969594  0.539854  0.950700  1
  O  O17  1  0.710146  0.280406  0.299300  1
  O  O18  1  0.306573  0.708935  0.677920  1
  O  O19  1  0.708935  0.306573  0.677920  1
  O  O20  1  0.306573  0.306573  0.677920  1
  O  O21  1  0.710146  0.710146  0.299300  1
