# generated using pymatgen
data_Ti5Cr(SiRu2)6
_symmetry_space_group_name_H-M   'P 1'
_cell_length_a   4.24175000
_cell_length_b   5.99341900
_cell_length_c   12.70239400
_cell_angle_alpha   90.00000000
_cell_angle_beta   90.00015773
_cell_angle_gamma   90.00000000
_symmetry_Int_Tables_number   1
_chemical_formula_structural   Ti5Cr(SiRu2)6
_chemical_formula_sum   'Ti5 Cr1 Si6 Ru12'
_cell_volume   322.92769172
_cell_formula_units_Z   1
loop_
 _symmetry_equiv_pos_site_id
 _symmetry_equiv_pos_as_xyz
  1  'x, y, z'
loop_
 _atom_site_type_symbol
 _atom_site_label
 _atom_site_symmetry_multiplicity
 _atom_site_fract_x
 _atom_site_fract_y
 _atom_site_fract_z
 _atom_site_occupancy
  Ti  Ti0  1  0.999978  0.500001  0.998872  1
  Ti  Ti1  1  0.499762  0.000000  0.165846  1
  Ti  Ti2  1  0.999774  0.500001  0.333335  1
  Ti  Ti3  1  0.499990  0.000000  0.500820  1
  Ti  Ti4  1  0.000236  0.500001  0.667790  1
  Cr  Cr5  1  0.500093  0.000000  0.833332  1
  Si  Si6  1  0.999962  0.000000  0.999209  1
  Si  Si7  1  0.499699  0.500001  0.166387  1
  Si  Si8  1  0.999691  0.000000  0.333336  1
  Si  Si9  1  0.499989  0.500001  0.500275  1
  Si  Si10  1  0.000289  0.000000  0.667452  1
  Si  Si11  1  0.500300  0.500001  0.833333  1
  Ru  Ru12  1  0.499990  0.248435  0.998529  1
  Ru  Ru13  1  0.499990  0.751565  0.998529  1
  Ru  Ru14  1  0.999874  0.250109  0.166477  1
  Ru  Ru15  1  0.999874  0.749891  0.166477  1
  Ru  Ru16  1  0.499872  0.249995  0.333336  1
  Ru  Ru17  1  0.499872  0.750005  0.333336  1
  Ru  Ru18  1  0.000001  0.250105  0.500202  1
  Ru  Ru19  1  0.000001  0.749895  0.500202  1
  Ru  Ru20  1  0.500207  0.248432  0.668132  1
  Ru  Ru21  1  0.500207  0.751568  0.668132  1
  Ru  Ru22  1  0.000176  0.245404  0.833331  1
  Ru  Ru23  1  0.000176  0.754596  0.833331  1
