# generated using pymatgen
data_PrTm3(OsO4)4
_symmetry_space_group_name_H-M   'P 1'
_cell_length_a   5.36529306
_cell_length_b   7.43278518
_cell_length_c   7.68163093
_cell_angle_alpha   79.79088172
_cell_angle_beta   86.14635012
_cell_angle_gamma   89.08185665
_symmetry_Int_Tables_number   1
_chemical_formula_structural   PrTm3(OsO4)4
_chemical_formula_sum   'Pr1 Tm3 Os4 O16'
_cell_volume   300.80190196
_cell_formula_units_Z   1
loop_
 _symmetry_equiv_pos_site_id
 _symmetry_equiv_pos_as_xyz
  1  'x, y, z'
loop_
 _atom_site_type_symbol
 _atom_site_label
 _atom_site_symmetry_multiplicity
 _atom_site_fract_x
 _atom_site_fract_y
 _atom_site_fract_z
 _atom_site_occupancy
  Pr  Pr0  1  0.255844  0.390278  0.372088  1
  Tm  Tm1  1  0.186675  0.895582  0.334111  1
  Tm  Tm2  1  0.800867  0.105766  0.673404  1
  Tm  Tm3  1  0.734419  0.614039  0.616255  1
  Os  Os4  1  0.755520  0.200569  0.161559  1
  Os  Os5  1  0.713082  0.702792  0.163128  1
  Os  Os6  1  0.284870  0.297912  0.834461  1
  Os  Os7  1  0.244772  0.792596  0.835584  1
  O  O8  1  0.066775  0.295886  0.042256  1
  O  O9  1  0.400058  0.798624  0.063037  1
  O  O10  1  0.635550  0.447247  0.173893  1
  O  O11  1  0.855926  0.947313  0.166840  1
  O  O12  1  0.448870  0.117831  0.291651  1
  O  O13  1  0.936763  0.160636  0.392976  1
  O  O14  1  0.965720  0.630322  0.343629  1
  O  O15  1  0.493330  0.689394  0.389897  1
  O  O16  1  0.515845  0.324531  0.609241  1
  O  O17  1  0.013523  0.383247  0.671047  1
  O  O18  1  0.051125  0.819349  0.614793  1
  O  O19  1  0.554750  0.870083  0.703197  1
  O  O20  1  0.155282  0.054970  0.818708  1
  O  O21  1  0.387075  0.550537  0.826295  1
  O  O22  1  0.599580  0.199815  0.935967  1
  O  O23  1  0.943775  0.710681  0.965983  1
