# generated using pymatgen
data_CaLa(MgPt)2
_symmetry_space_group_name_H-M   'P 1'
_cell_length_a   4.27647000
_cell_length_b   7.35471600
_cell_length_c   8.85640800
_cell_angle_alpha   90.00000000
_cell_angle_beta   90.00000000
_cell_angle_gamma   90.00000000
_symmetry_Int_Tables_number   1
_chemical_formula_structural   CaLa(MgPt)2
_chemical_formula_sum   'Ca2 La2 Mg4 Pt4'
_cell_volume   278.55371348
_cell_formula_units_Z   2
loop_
 _symmetry_equiv_pos_site_id
 _symmetry_equiv_pos_as_xyz
  1  'x, y, z'
loop_
 _atom_site_type_symbol
 _atom_site_label
 _atom_site_symmetry_multiplicity
 _atom_site_fract_x
 _atom_site_fract_y
 _atom_site_fract_z
 _atom_site_occupancy
  Ca  Ca0  1  0.750000  0.962329  0.681597  1
  Ca  Ca1  1  0.750000  0.462329  0.818403  1
  La  La2  1  0.250000  0.035145  0.326868  1
  La  La3  1  0.250000  0.535145  0.173132  1
  Mg  Mg4  1  0.250000  0.137265  0.931711  1
  Mg  Mg5  1  0.250000  0.637265  0.568289  1
  Mg  Mg6  1  0.750000  0.866300  0.052693  1
  Mg  Mg7  1  0.750000  0.366300  0.447307  1
  Pt  Pt8  1  0.250000  0.260908  0.620640  1
  Pt  Pt9  1  0.250000  0.760908  0.879360  1
  Pt  Pt10  1  0.750000  0.738054  0.370720  1
  Pt  Pt11  1  0.750000  0.238054  0.129280  1
