# generated using pymatgen
data_Nd8Sc11Si16Tc
_symmetry_space_group_name_H-M   'P 1'
_cell_length_a   7.17847443
_cell_length_b   7.51530168
_cell_length_c   14.11323000
_cell_angle_alpha   90.00000000
_cell_angle_beta   90.00000000
_cell_angle_gamma   90.04018675
_symmetry_Int_Tables_number   1
_chemical_formula_structural   Nd8Sc11Si16Tc
_chemical_formula_sum   'Nd8 Sc11 Si16 Tc1'
_cell_volume   761.38600367
_cell_formula_units_Z   1
loop_
 _symmetry_equiv_pos_site_id
 _symmetry_equiv_pos_as_xyz
  1  'x, y, z'
loop_
 _atom_site_type_symbol
 _atom_site_label
 _atom_site_symmetry_multiplicity
 _atom_site_fract_x
 _atom_site_fract_y
 _atom_site_fract_z
 _atom_site_occupancy
  Nd  Nd0  1  0.012029  0.173308  0.403578  1
  Nd  Nd1  1  0.512693  0.326319  0.404807  1
  Nd  Nd2  1  0.492788  0.677820  0.898938  1
  Nd  Nd3  1  0.492788  0.677820  0.601062  1
  Nd  Nd4  1  0.984999  0.830004  0.601251  1
  Nd  Nd5  1  0.984999  0.830004  0.898749  1
  Nd  Nd6  1  0.512693  0.326319  0.095193  1
  Nd  Nd7  1  0.012029  0.173308  0.096422  1
  Sc  Sc8  1  0.328312  0.170213  0.627525  1
  Sc  Sc9  1  0.672907  0.825164  0.376928  1
  Sc  Sc10  1  0.172861  0.675842  0.375342  1
  Sc  Sc11  1  0.825682  0.320886  0.873317  1
  Sc  Sc12  1  0.825682  0.320886  0.626683  1
  Sc  Sc13  1  0.842029  0.500153  0.250000  1
  Sc  Sc14  1  0.342139  0.999834  0.250000  1
  Sc  Sc15  1  0.328312  0.170213  0.872475  1
  Sc  Sc16  1  0.172861  0.675842  0.124658  1
  Sc  Sc17  1  0.672907  0.825164  0.123072  1
  Sc  Sc18  1  0.158618  0.496956  0.750000  1
  Si  Si19  1  0.296643  0.882669  0.750000  1
  Si  Si20  1  0.470234  0.623648  0.250000  1
  Si  Si21  1  0.022665  0.117345  0.750000  1
  Si  Si22  1  0.531971  0.368108  0.750000  1
  Si  Si23  1  0.152695  0.465155  0.540606  1
  Si  Si24  1  0.968245  0.875339  0.250000  1
  Si  Si25  1  0.711947  0.118799  0.250000  1
  Si  Si26  1  0.850586  0.536860  0.037350  1
  Si  Si27  1  0.348101  0.963251  0.037413  1
  Si  Si28  1  0.152695  0.465155  0.959394  1
  Si  Si29  1  0.649984  0.036317  0.548577  1
  Si  Si30  1  0.348101  0.963251  0.462587  1
  Si  Si31  1  0.850586  0.536860  0.462650  1
  Si  Si32  1  0.790306  0.613207  0.750000  1
  Si  Si33  1  0.213743  0.381013  0.250000  1
  Si  Si34  1  0.649984  0.036317  0.951423  1
  Tc  Tc35  1  0.644187  0.020652  0.750000  1
