# generated using pymatgen
data_TbDy(TmSn)3
_symmetry_space_group_name_H-M   'P 1'
_cell_length_a   6.49231001
_cell_length_b   8.87982420
_cell_length_c   8.90528900
_cell_angle_alpha   119.90544479
_cell_angle_beta   90.00359185
_cell_angle_gamma   89.99278923
_symmetry_Int_Tables_number   1
_chemical_formula_structural   TbDy(TmSn)3
_chemical_formula_sum   'Tb2 Dy2 Tm6 Sn6'
_cell_volume   445.03613135
_cell_formula_units_Z   2
loop_
 _symmetry_equiv_pos_site_id
 _symmetry_equiv_pos_as_xyz
  1  'x, y, z'
loop_
 _atom_site_type_symbol
 _atom_site_label
 _atom_site_symmetry_multiplicity
 _atom_site_fract_x
 _atom_site_fract_y
 _atom_site_fract_z
 _atom_site_occupancy
  Tb  Tb0  1  0.750006  0.236496  0.000000  1
  Tb  Tb1  1  0.250003  0.763254  0.000000  1
  Dy  Dy2  1  0.749991  0.761101  0.760289  1
  Dy  Dy3  1  0.749991  0.000811  0.239711  1
  Tm  Tm4  1  0.499815  0.333662  0.667360  1
  Tm  Tm5  1  0.499815  0.666304  0.332640  1
  Tm  Tm6  1  0.000188  0.666315  0.332667  1
  Tm  Tm7  1  0.000188  0.333648  0.667333  1
  Tm  Tm8  1  0.250001  0.238449  0.238750  1
  Tm  Tm9  1  0.250001  0.999699  0.761250  1
  Sn  Sn10  1  0.750006  0.603551  0.000000  1
  Sn  Sn11  1  0.749923  0.396875  0.397034  1
  Sn  Sn12  1  0.749923  0.999841  0.602966  1
  Sn  Sn13  1  0.250040  0.394649  0.000000  1
  Sn  Sn14  1  0.250054  0.603974  0.602604  1
  Sn  Sn15  1  0.250054  0.001372  0.397396  1
