# generated using pymatgen
data_ScTa7(NbN6)2
_symmetry_space_group_name_H-M   'P 1'
_cell_length_a   5.25070900
_cell_length_b   5.25953286
_cell_length_c   10.40943694
_cell_angle_alpha   89.95611488
_cell_angle_beta   90.00385501
_cell_angle_gamma   120.08578688
_symmetry_Int_Tables_number   1
_chemical_formula_structural   ScTa7(NbN6)2
_chemical_formula_sum   'Sc1 Ta7 Nb2 N12'
_cell_volume   248.74064924
_cell_formula_units_Z   1
loop_
 _symmetry_equiv_pos_site_id
 _symmetry_equiv_pos_as_xyz
  1  'x, y, z'
loop_
 _atom_site_type_symbol
 _atom_site_label
 _atom_site_symmetry_multiplicity
 _atom_site_fract_x
 _atom_site_fract_y
 _atom_site_fract_z
 _atom_site_occupancy
  Sc  Sc0  1  0.665400  0.333541  0.000307  1
  Ta  Ta1  1  0.997974  0.321616  0.749215  1
  Ta  Ta2  1  0.323771  0.321911  0.251736  1
  Ta  Ta3  1  0.677912  0.001643  0.251667  1
  Ta  Ta4  1  0.998218  0.675671  0.251574  1
  Ta  Ta5  1  0.334698  0.668018  0.999405  1
  Ta  Ta6  1  0.334904  0.667894  0.499277  1
  Ta  Ta7  1  0.665105  0.333096  0.499394  1
  Nb  Nb8  1  0.677101  0.675561  0.748230  1
  Nb  Nb9  1  0.324461  0.001792  0.748252  1
  N  N10  1  0.660498  0.660758  0.380365  1
  N  N11  1  0.339107  0.999660  0.380385  1
  N  N12  1  0.000229  0.340866  0.380370  1
  N  N13  1  0.337083  0.340985  0.618342  1
  N  N14  1  0.662531  0.003309  0.618250  1
  N  N15  1  0.000119  0.653846  0.619017  1
  N  N16  1  0.336801  0.348668  0.876026  1
  N  N17  1  0.655385  0.995861  0.876053  1
  N  N18  1  0.008290  0.654466  0.875408  1
  N  N19  1  0.651393  0.658895  0.125525  1
  N  N20  1  0.341014  0.992185  0.125496  1
  N  N21  1  0.008007  0.349758  0.125707  1
