# generated using pymatgen
data_Tb3Er17(FeBi2)4
_symmetry_space_group_name_H-M   'P 1'
_cell_length_a   7.97209112
_cell_length_b   8.88525500
_cell_length_c   12.40187600
_cell_angle_alpha   90.00000000
_cell_angle_beta   90.01013373
_cell_angle_gamma   90.00000000
_symmetry_Int_Tables_number   1
_chemical_formula_structural   Tb3Er17(FeBi2)4
_chemical_formula_sum   'Tb3 Er17 Fe4 Bi8'
_cell_volume   878.47524628
_cell_formula_units_Z   1
loop_
 _symmetry_equiv_pos_site_id
 _symmetry_equiv_pos_as_xyz
  1  'x, y, z'
loop_
 _atom_site_type_symbol
 _atom_site_label
 _atom_site_symmetry_multiplicity
 _atom_site_fract_x
 _atom_site_fract_y
 _atom_site_fract_z
 _atom_site_occupancy
  Tb  Tb0  1  0.882242  0.250000  0.185866  1
  Tb  Tb1  1  0.618773  0.250000  0.686853  1
  Tb  Tb2  1  0.381833  0.750000  0.313290  1
  Er  Er3  1  0.654051  0.750000  0.699909  1
  Er  Er4  1  0.346794  0.250000  0.300605  1
  Er  Er5  1  0.153257  0.250000  0.800234  1
  Er  Er6  1  0.845689  0.750000  0.200237  1
  Er  Er7  1  0.117146  0.750000  0.814874  1
  Er  Er8  1  0.557687  0.750000  0.994970  1
  Er  Er9  1  0.440203  0.250000  0.005207  1
  Er  Er10  1  0.058917  0.250000  0.505807  1
  Er  Er11  1  0.941831  0.750000  0.494435  1
  Er  Er12  1  0.828535  0.465283  0.936224  1
  Er  Er13  1  0.172179  0.538002  0.062940  1
  Er  Er14  1  0.328120  0.536795  0.563510  1
  Er  Er15  1  0.172179  0.961998  0.062940  1
  Er  Er16  1  0.672352  0.463467  0.436565  1
  Er  Er17  1  0.828535  0.034717  0.936224  1
  Er  Er18  1  0.672352  0.036533  0.436565  1
  Er  Er19  1  0.328120  0.963205  0.563510  1
  Fe  Fe20  1  0.929994  0.750000  0.991660  1
  Fe  Fe21  1  0.068305  0.250000  0.007251  1
  Fe  Fe22  1  0.431260  0.250000  0.508289  1
  Fe  Fe23  1  0.569291  0.750000  0.491963  1
  Bi  Bi24  1  0.933641  0.005655  0.672748  1
  Bi  Bi25  1  0.067743  0.993628  0.327406  1
  Bi  Bi26  1  0.431129  0.992634  0.827507  1
  Bi  Bi27  1  0.067743  0.506372  0.327406  1
  Bi  Bi28  1  0.567664  0.007080  0.172375  1
  Bi  Bi29  1  0.933641  0.494345  0.672748  1
  Bi  Bi30  1  0.567664  0.492920  0.172375  1
  Bi  Bi31  1  0.431129  0.507366  0.827507  1
