# generated using pymatgen
data_YbDy3Ga15(SiIr2)3
_symmetry_space_group_name_H-M   'P 1'
_cell_length_a   7.56268475
_cell_length_b   7.49280286
_cell_length_c   9.48746107
_cell_angle_alpha   89.94330213
_cell_angle_beta   89.91400279
_cell_angle_gamma   119.88888849
_symmetry_Int_Tables_number   1
_chemical_formula_structural   YbDy3Ga15(SiIr2)3
_chemical_formula_sum   'Yb1 Dy3 Ga15 Si3 Ir6'
_cell_volume   466.10605295
_cell_formula_units_Z   1
loop_
 _symmetry_equiv_pos_site_id
 _symmetry_equiv_pos_as_xyz
  1  'x, y, z'
loop_
 _atom_site_type_symbol
 _atom_site_label
 _atom_site_symmetry_multiplicity
 _atom_site_fract_x
 _atom_site_fract_y
 _atom_site_fract_z
 _atom_site_occupancy
  Yb  Yb0  1  0.324233  0.994013  0.749913  1
  Dy  Dy1  1  0.996636  0.666364  0.248217  1
  Dy  Dy2  1  0.004752  0.339899  0.750441  1
  Dy  Dy3  1  0.673007  0.003396  0.247583  1
  Ga  Ga4  1  0.130138  0.128082  0.250927  1
  Ga  Ga5  1  0.872231  0.869277  0.750936  1
  Ga  Ga6  1  0.340405  0.004614  0.421387  1
  Ga  Ga7  1  0.000216  0.328048  0.421021  1
  Ga  Ga8  1  0.664781  0.002216  0.580951  1
  Ga  Ga9  1  0.660171  0.998422  0.916945  1
  Ga  Ga10  1  0.339101  0.003308  0.079627  1
  Ga  Ga11  1  0.332872  0.327677  0.569704  1
  Ga  Ga12  1  0.660683  0.668697  0.431966  1
  Ga  Ga13  1  0.660770  0.668254  0.070316  1
  Ga  Ga14  1  0.337463  0.328714  0.929191  1
  Ga  Ga15  1  0.335808  0.546153  0.251188  1
  Ga  Ga16  1  0.662376  0.454965  0.751596  1
  Ga  Ga17  1  0.548813  0.341291  0.250804  1
  Ga  Ga18  1  0.452685  0.661819  0.750722  1
  Si  Si19  1  0.000837  0.328935  0.071962  1
  Si  Si20  1  0.999089  0.670980  0.930165  1
  Si  Si21  1  0.000919  0.666407  0.566994  1
  Ir  Ir22  1  0.696919  0.343206  0.003047  1
  Ir  Ir23  1  0.303723  0.656065  0.999348  1
  Ir  Ir24  1  0.315851  0.668538  0.502594  1
  Ir  Ir25  1  0.686591  0.343672  0.500828  1
  Ir  Ir26  1  0.999144  0.000237  0.001312  1
  Ir  Ir27  1  0.999788  0.986751  0.500315  1
