# generated using pymatgen
data_Sc5Tc4P12IrRh14
_symmetry_space_group_name_H-M   'P 1'
_cell_length_a   12.59477306
_cell_length_b   12.48769574
_cell_length_c   3.87579000
_cell_angle_alpha   90.00000000
_cell_angle_beta   90.00000000
_cell_angle_gamma   119.79610567
_symmetry_Int_Tables_number   1
_chemical_formula_structural   Sc5Tc4P12IrRh14
_chemical_formula_sum   'Sc5 Tc4 P12 Ir1 Rh14'
_cell_volume   528.99571449
_cell_formula_units_Z   1
loop_
 _symmetry_equiv_pos_site_id
 _symmetry_equiv_pos_as_xyz
  1  'x, y, z'
loop_
 _atom_site_type_symbol
 _atom_site_label
 _atom_site_symmetry_multiplicity
 _atom_site_fract_x
 _atom_site_fract_y
 _atom_site_fract_z
 _atom_site_occupancy
  Sc  Sc0  1  0.332283  0.663957  0.000000  1
  Sc  Sc1  1  0.667178  0.334048  0.000000  1
  Sc  Sc2  1  0.820447  0.001834  0.500000  1
  Sc  Sc3  1  0.000516  0.818691  0.500000  1
  Sc  Sc4  1  0.184328  0.187137  0.500000  1
  Tc  Tc5  1  0.451342  0.997993  0.000000  1
  Tc  Tc6  1  0.991655  0.448408  0.000000  1
  Tc  Tc7  1  0.550660  0.545235  0.000000  1
  Tc  Tc8  1  0.177770  0.378495  0.000000  1
  P  P9  1  0.177263  0.002272  0.000000  1
  P  P10  1  0.005084  0.181632  0.000000  1
  P  P11  1  0.823668  0.825695  0.000000  1
  P  P12  1  0.169818  0.481431  0.500000  1
  P  P13  1  0.517494  0.682423  0.500000  1
  P  P14  1  0.316227  0.831135  0.500000  1
  P  P15  1  0.682032  0.516172  0.500000  1
  P  P16  1  0.832383  0.317838  0.500000  1
  P  P17  1  0.483680  0.164546  0.500000  1
  P  P18  1  0.637750  0.998952  0.000000  1
  P  P19  1  0.000390  0.638981  0.000000  1
  P  P20  1  0.357950  0.362091  0.000000  1
  Ir  Ir21  1  0.000357  0.000363  0.000000  1
  Rh  Rh22  1  0.362022  0.489639  0.500000  1
  Rh  Rh23  1  0.510517  0.866237  0.500000  1
  Rh  Rh24  1  0.130980  0.640979  0.500000  1
  Rh  Rh25  1  0.866625  0.513291  0.500000  1
  Rh  Rh26  1  0.643132  0.131474  0.500000  1
  Rh  Rh27  1  0.491165  0.354053  0.500000  1
  Rh  Rh28  1  0.626812  0.805685  0.000000  1
  Rh  Rh29  1  0.193627  0.820389  0.000000  1
  Rh  Rh30  1  0.808993  0.630583  0.000000  1
  Rh  Rh31  1  0.817074  0.190000  0.000000  1
  Rh  Rh32  1  0.373670  0.179745  0.000000  1
  Rh  Rh33  1  0.283543  0.999912  0.500000  1
  Rh  Rh34  1  0.994203  0.280991  0.500000  1
  Rh  Rh35  1  0.717361  0.717694  0.500000  1
