# generated using pymatgen
data_Y6Er3TmPb6
_symmetry_space_group_name_H-M   'P 1'
_cell_length_a   6.58466900
_cell_length_b   9.05570995
_cell_length_c   9.05718900
_cell_angle_alpha   119.99421430
_cell_angle_beta   89.99991854
_cell_angle_gamma   89.99996509
_symmetry_Int_Tables_number   1
_chemical_formula_structural   Y6Er3TmPb6
_chemical_formula_sum   'Y6 Er3 Tm1 Pb6'
_cell_volume   467.74142160
_cell_formula_units_Z   1
loop_
 _symmetry_equiv_pos_site_id
 _symmetry_equiv_pos_as_xyz
  1  'x, y, z'
loop_
 _atom_site_type_symbol
 _atom_site_label
 _atom_site_symmetry_multiplicity
 _atom_site_fract_x
 _atom_site_fract_y
 _atom_site_fract_z
 _atom_site_occupancy
  Y  Y0  1  0.750014  0.238810  0.999992  1
  Y  Y1  1  0.750010  0.760997  0.761089  1
  Y  Y2  1  0.750008  0.999921  0.238918  1
  Y  Y3  1  0.249994  0.761181  0.999992  1
  Y  Y4  1  0.249989  0.238995  0.238918  1
  Y  Y5  1  0.249989  0.000093  0.761090  1
  Er  Er6  1  0.499997  0.333285  0.666609  1
  Er  Er7  1  0.499997  0.666677  0.333391  1
  Er  Er8  1  0.999996  0.666715  0.333391  1
  Tm  Tm9  1  0.000000  0.333327  0.666611  1
  Pb  Pb10  1  0.750020  0.605102  0.999970  1
  Pb  Pb11  1  0.750030  0.394955  0.395036  1
  Pb  Pb12  1  0.750030  0.999977  0.604993  1
  Pb  Pb13  1  0.249968  0.394869  0.999971  1
  Pb  Pb14  1  0.249978  0.605016  0.604993  1
  Pb  Pb15  1  0.249979  0.000080  0.395035  1
