# generated using pymatgen
data_Pm4Cu3AgO12
_symmetry_space_group_name_H-M   'P 1'
_cell_length_a   5.42046324
_cell_length_b   6.53299955
_cell_length_c   7.20532368
_cell_angle_alpha   90.62460796
_cell_angle_beta   90.53110173
_cell_angle_gamma   90.26824452
_symmetry_Int_Tables_number   1
_chemical_formula_structural   Pm4Cu3AgO12
_chemical_formula_sum   'Pm4 Cu3 Ag1 O12'
_cell_volume   255.12504497
_cell_formula_units_Z   1
loop_
 _symmetry_equiv_pos_site_id
 _symmetry_equiv_pos_as_xyz
  1  'x, y, z'
loop_
 _atom_site_type_symbol
 _atom_site_label
 _atom_site_symmetry_multiplicity
 _atom_site_fract_x
 _atom_site_fract_y
 _atom_site_fract_z
 _atom_site_occupancy
  Pm  Pm0  1  0.974898  0.107707  0.253185  1
  Pm  Pm1  1  0.525116  0.601399  0.252317  1
  Pm  Pm2  1  0.474886  0.398601  0.747683  1
  Pm  Pm3  1  0.025103  0.892292  0.746815  1
  Cu  Cu4  1  0.000000  0.500000  0.000000  1
  Cu  Cu5  1  0.500001  0.000000  0.500000  1
  Cu  Cu6  1  0.000000  0.500000  0.500000  1
  Ag  Ag7  1  0.500001  0.000000  0.000000  1
  O  O8  1  0.712273  0.353181  0.045970  1
  O  O9  1  0.809581  0.833062  0.050071  1
  O  O10  1  0.114188  0.458913  0.252468  1
  O  O11  1  0.370256  0.947400  0.263207  1
  O  O12  1  0.714040  0.349873  0.449274  1
  O  O13  1  0.783335  0.849621  0.450386  1
  O  O14  1  0.216664  0.150378  0.549614  1
  O  O15  1  0.285960  0.650125  0.550726  1
  O  O16  1  0.629746  0.052600  0.736793  1
  O  O17  1  0.885812  0.541086  0.747532  1
  O  O18  1  0.190418  0.166937  0.949929  1
  O  O19  1  0.287727  0.646817  0.954030  1
