# generated using pymatgen
data_YTa5Fe2(BRu2)4
_symmetry_space_group_name_H-M   'P 1'
_cell_length_a   9.35717648
_cell_length_b   9.35717648
_cell_length_c   3.06381300
_cell_angle_alpha   90.00000000
_cell_angle_beta   90.00000000
_cell_angle_gamma   90.32863212
_symmetry_Int_Tables_number   1
_chemical_formula_structural   YTa5Fe2(BRu2)4
_chemical_formula_sum   'Y1 Ta5 Fe2 B4 Ru8'
_cell_volume   268.25310139
_cell_formula_units_Z   1
loop_
 _symmetry_equiv_pos_site_id
 _symmetry_equiv_pos_as_xyz
  1  'x, y, z'
loop_
 _atom_site_type_symbol
 _atom_site_label
 _atom_site_symmetry_multiplicity
 _atom_site_fract_x
 _atom_site_fract_y
 _atom_site_fract_z
 _atom_site_occupancy
  Y  Y0  1  0.824784  0.675216  0.000000  1
  Ta  Ta1  1  0.171626  0.328374  0.000000  1
  Ta  Ta2  1  0.326671  0.829587  0.000000  1
  Ta  Ta3  1  0.670413  0.173329  0.000000  1
  Ta  Ta4  1  0.501311  0.499779  0.000000  1
  Ta  Ta5  1  0.000221  0.998689  0.000000  1
  Fe  Fe6  1  0.495954  0.004046  0.500000  1
  Fe  Fe7  1  0.010787  0.489213  0.500000  1
  B  B8  1  0.609428  0.890572  0.000000  1
  B  B9  1  0.387504  0.112496  0.000000  1
  B  B10  1  0.116339  0.609603  0.000000  1
  B  B11  1  0.890397  0.383661  0.000000  1
  Ru  Ru12  1  0.554067  0.729243  0.500000  1
  Ru  Ru13  1  0.429899  0.278525  0.500000  1
  Ru  Ru14  1  0.080147  0.778102  0.500000  1
  Ru  Ru15  1  0.935684  0.219362  0.500000  1
  Ru  Ru16  1  0.280638  0.564316  0.500000  1
  Ru  Ru17  1  0.721898  0.419853  0.500000  1
  Ru  Ru18  1  0.221475  0.070101  0.500000  1
  Ru  Ru19  1  0.770757  0.945933  0.500000  1
