# generated using pymatgen
data_HoEr2In3Cu2Ir
_symmetry_space_group_name_H-M   'P 1'
_cell_length_a   7.53461712
_cell_length_b   7.53461744
_cell_length_c   3.87675400
_cell_angle_alpha   90.00000000
_cell_angle_beta   90.00000000
_cell_angle_gamma   119.97997800
_symmetry_Int_Tables_number   1
_chemical_formula_structural   HoEr2In3Cu2Ir
_chemical_formula_sum   'Ho1 Er2 In3 Cu2 Ir1'
_cell_volume   190.63772890
_cell_formula_units_Z   1
loop_
 _symmetry_equiv_pos_site_id
 _symmetry_equiv_pos_as_xyz
  1  'x, y, z'
loop_
 _atom_site_type_symbol
 _atom_site_label
 _atom_site_symmetry_multiplicity
 _atom_site_fract_x
 _atom_site_fract_y
 _atom_site_fract_z
 _atom_site_occupancy
  Ho  Ho0  1  0.580777  0.981869  0.500000  1
  Er  Er1  1  0.018387  0.598988  0.500000  1
  Er  Er2  1  0.400890  0.419335  0.500000  1
  In  In3  1  0.751266  0.742703  0.000000  1
  In  In4  1  0.991743  0.248879  0.000000  1
  In  In5  1  0.257048  0.008418  0.000000  1
  Cu  Cu6  1  0.000108  0.000019  0.500000  1
  Cu  Cu7  1  0.666726  0.333519  0.000000  1
  Ir  Ir8  1  0.333055  0.666271  0.000000  1
