# generated using pymatgen
data_Rb2SmYSe8
_symmetry_space_group_name_H-M   'P 1'
_cell_length_a   6.32523500
_cell_length_b   6.32523500
_cell_length_c   8.76089100
_cell_angle_alpha   90.00000000
_cell_angle_beta   90.00000000
_cell_angle_gamma   90.00000000
_symmetry_Int_Tables_number   1
_chemical_formula_structural   Rb2SmYSe8
_chemical_formula_sum   'Rb2 Sm1 Y1 Se8'
_cell_volume   350.51096443
_cell_formula_units_Z   1
loop_
 _symmetry_equiv_pos_site_id
 _symmetry_equiv_pos_as_xyz
  1  'x, y, z'
loop_
 _atom_site_type_symbol
 _atom_site_label
 _atom_site_symmetry_multiplicity
 _atom_site_fract_x
 _atom_site_fract_y
 _atom_site_fract_z
 _atom_site_occupancy
  Rb  Rb0  1  0.000000  0.000000  0.000000  1
  Rb  Rb1  1  0.500000  0.500000  0.000000  1
  Sm  Sm2  1  0.500000  0.500000  0.500000  1
  Y  Y3  1  0.000000  0.000000  0.500000  1
  Se  Se4  1  0.641050  0.131343  0.300124  1
  Se  Se5  1  0.131343  0.358951  0.300124  1
  Se  Se6  1  0.868656  0.641050  0.300124  1
  Se  Se7  1  0.358951  0.868656  0.300124  1
  Se  Se8  1  0.358951  0.131343  0.699876  1
  Se  Se9  1  0.868656  0.358951  0.699876  1
  Se  Se10  1  0.131343  0.641050  0.699876  1
  Se  Se11  1  0.641050  0.868656  0.699876  1
