# generated using pymatgen
data_Hf5Zr3(NiAs)12
_symmetry_space_group_name_H-M   'P 1'
_cell_length_a   3.76597100
_cell_length_b   10.42236970
_cell_length_c   12.65476529
_cell_angle_alpha   90.08253735
_cell_angle_beta   90.00000000
_cell_angle_gamma   90.00000000
_symmetry_Int_Tables_number   1
_chemical_formula_structural   Hf5Zr3(NiAs)12
_chemical_formula_sum   'Hf5 Zr3 Ni12 As12'
_cell_volume   496.70335059
_cell_formula_units_Z   1
loop_
 _symmetry_equiv_pos_site_id
 _symmetry_equiv_pos_as_xyz
  1  'x, y, z'
loop_
 _atom_site_type_symbol
 _atom_site_label
 _atom_site_symmetry_multiplicity
 _atom_site_fract_x
 _atom_site_fract_y
 _atom_site_fract_z
 _atom_site_occupancy
  Hf  Hf0  1  0.250000  0.330863  0.993489  1
  Hf  Hf1  1  0.250000  0.169101  0.493746  1
  Hf  Hf2  1  0.750000  0.668683  0.005811  1
  Hf  Hf3  1  0.750000  0.831282  0.506557  1
  Hf  Hf4  1  0.250000  0.427298  0.711391  1
  Zr  Zr5  1  0.250000  0.073862  0.211016  1
  Zr  Zr6  1  0.750000  0.573491  0.288807  1
  Zr  Zr7  1  0.750000  0.926118  0.789149  1
  Ni  Ni8  1  0.250000  0.900828  0.985911  1
  Ni  Ni9  1  0.250000  0.598716  0.485451  1
  Ni  Ni10  1  0.750000  0.098840  0.014189  1
  Ni  Ni11  1  0.750000  0.401281  0.515593  1
  Ni  Ni12  1  0.250000  0.139632  0.716249  1
  Ni  Ni13  1  0.250000  0.362360  0.216236  1
  Ni  Ni14  1  0.750000  0.862356  0.283789  1
  Ni  Ni15  1  0.750000  0.635806  0.782765  1
  Ni  Ni16  1  0.250000  0.775045  0.165659  1
  Ni  Ni17  1  0.250000  0.724077  0.665859  1
  Ni  Ni18  1  0.750000  0.224476  0.834416  1
  Ni  Ni19  1  0.750000  0.275412  0.334409  1
  As  As20  1  0.250000  0.098538  0.897887  1
  As  As21  1  0.250000  0.400635  0.397996  1
  As  As22  1  0.750000  0.900833  0.102133  1
  As  As23  1  0.750000  0.599155  0.601656  1
  As  As24  1  0.250000  0.737640  0.856692  1
  As  As25  1  0.250000  0.762143  0.356903  1
  As  As26  1  0.750000  0.262123  0.143076  1
  As  As27  1  0.750000  0.239689  0.643829  1
  As  As28  1  0.250000  0.552790  0.122770  1
  As  As29  1  0.250000  0.947381  0.623599  1
  As  As30  1  0.750000  0.446486  0.875844  1
  As  As31  1  0.750000  0.053061  0.377122  1
