# generated using pymatgen
data_Nd3(EuRu)2
_symmetry_space_group_name_H-M   'P 1'
_cell_length_a   8.90749531
_cell_length_b   8.90749607
_cell_length_c   7.43299118
_cell_angle_alpha   83.80864774
_cell_angle_beta   83.80864225
_cell_angle_gamma   43.73041265
_symmetry_Int_Tables_number   1
_chemical_formula_structural   Nd3(EuRu)2
_chemical_formula_sum   'Nd6 Eu4 Ru4'
_cell_volume   404.91851624
_cell_formula_units_Z   2
loop_
 _symmetry_equiv_pos_site_id
 _symmetry_equiv_pos_as_xyz
  1  'x, y, z'
loop_
 _atom_site_type_symbol
 _atom_site_label
 _atom_site_symmetry_multiplicity
 _atom_site_fract_x
 _atom_site_fract_y
 _atom_site_fract_z
 _atom_site_occupancy
  Nd  Nd0  1  0.362305  0.205859  0.816394  1
  Nd  Nd1  1  0.794141  0.637695  0.683606  1
  Nd  Nd2  1  0.637695  0.794141  0.183606  1
  Nd  Nd3  1  0.205859  0.362305  0.316394  1
  Nd  Nd4  1  0.570345  0.429655  0.750000  1
  Nd  Nd5  1  0.429655  0.570345  0.250000  1
  Eu  Eu6  1  0.015307  0.799102  0.916163  1
  Eu  Eu7  1  0.200898  0.984693  0.583837  1
  Eu  Eu8  1  0.984693  0.200898  0.083837  1
  Eu  Eu9  1  0.799102  0.015307  0.416163  1
  Ru  Ru10  1  0.185483  0.585472  0.572168  1
  Ru  Ru11  1  0.414528  0.814517  0.927832  1
  Ru  Ru12  1  0.814517  0.414528  0.427832  1
  Ru  Ru13  1  0.585472  0.185483  0.072168  1
