# generated using pymatgen
data_SrSmCo17Si8Ni
_symmetry_space_group_name_H-M   'P 1'
_cell_length_a   7.94431006
_cell_length_b   7.94504758
_cell_length_c   7.96741867
_cell_angle_alpha   121.69280148
_cell_angle_beta   121.65534095
_cell_angle_gamma   87.18346871
_symmetry_Int_Tables_number   1
_chemical_formula_structural   SrSmCo17Si8Ni
_chemical_formula_sum   'Sr1 Sm1 Co17 Si8 Ni1'
_cell_volume   345.95175250
_cell_formula_units_Z   1
loop_
 _symmetry_equiv_pos_site_id
 _symmetry_equiv_pos_as_xyz
  1  'x, y, z'
loop_
 _atom_site_type_symbol
 _atom_site_label
 _atom_site_symmetry_multiplicity
 _atom_site_fract_x
 _atom_site_fract_y
 _atom_site_fract_z
 _atom_site_occupancy
  Sr  Sr0  1  0.250631  0.250186  0.000316  1
  Sm  Sm1  1  0.749832  0.751138  0.999984  1
  Co  Co2  1  0.691690  0.188934  0.239637  1
  Co  Co3  1  0.000239  0.500198  0.499921  1
  Co  Co4  1  0.930351  0.198501  0.128909  1
  Co  Co5  1  0.800305  0.930613  0.732322  1
  Co  Co6  1  0.450406  0.691213  0.502484  1
  Co  Co7  1  0.068320  0.800989  0.871031  1
  Co  Co8  1  0.808010  0.048703  0.496965  1
  Co  Co9  1  0.551242  0.310621  0.502083  1
  Co  Co10  1  0.947896  0.450564  0.756342  1
  Co  Co11  1  0.188327  0.947491  0.497062  1
  Co  Co12  1  0.301958  0.569397  0.870981  1
  Co  Co13  1  0.569605  0.698186  0.267874  1
  Co  Co14  1  0.431757  0.301428  0.732534  1
  Co  Co15  1  0.197173  0.068533  0.268022  1
  Co  Co16  1  0.699945  0.431559  0.128972  1
  Co  Co17  1  0.498982  0.999036  0.499388  1
  Co  Co18  1  0.311942  0.809270  0.762309  1
  Si  Si19  1  0.045343  0.208678  0.498115  1
  Si  Si20  1  0.209280  0.710752  0.161695  1
  Si  Si21  1  0.788279  0.289636  0.833358  1
  Si  Si22  1  0.454922  0.953568  0.164647  1
  Si  Si23  1  0.546383  0.045085  0.835674  1
  Si  Si24  1  0.953523  0.791568  0.502693  1
  Si  Si25  1  0.293044  0.454975  0.505440  1
  Si  Si26  1  0.710031  0.546762  0.500772  1
  Ni  Ni27  1  0.050584  0.552415  0.240472  1
