# generated using pymatgen
data_LuScSi(PRu2)6
_symmetry_space_group_name_H-M   'P 1'
_cell_length_a   9.39173900
_cell_length_b   9.39173863
_cell_length_c   3.93649700
_cell_angle_alpha   90.00000000
_cell_angle_beta   90.00000000
_cell_angle_gamma   119.99999073
_symmetry_Int_Tables_number   1
_chemical_formula_structural   LuScSi(PRu2)6
_chemical_formula_sum   'Lu1 Sc1 Si1 P6 Ru12'
_cell_volume   300.69943337
_cell_formula_units_Z   1
loop_
 _symmetry_equiv_pos_site_id
 _symmetry_equiv_pos_as_xyz
  1  'x, y, z'
loop_
 _atom_site_type_symbol
 _atom_site_label
 _atom_site_symmetry_multiplicity
 _atom_site_fract_x
 _atom_site_fract_y
 _atom_site_fract_z
 _atom_site_occupancy
  Lu  Lu0  1  0.333333  0.666667  0.000000  1
  Sc  Sc1  1  0.666667  0.333333  0.500000  1
  Si  Si2  1  0.000000  0.000000  0.000000  1
  P  P3  1  0.600572  0.719964  0.500000  1
  P  P4  1  0.280036  0.880608  0.500000  1
  P  P5  1  0.119392  0.399428  0.500000  1
  P  P6  1  0.884003  0.573429  0.000000  1
  P  P7  1  0.426571  0.310573  0.000000  1
  P  P8  1  0.689427  0.115997  0.000000  1
  Ru  Ru9  1  0.553396  0.949661  0.500000  1
  Ru  Ru10  1  0.396267  0.446604  0.500000  1
  Ru  Ru11  1  0.912289  0.120889  0.500000  1
  Ru  Ru12  1  0.208599  0.087711  0.500000  1
  Ru  Ru13  1  0.879111  0.791401  0.500000  1
  Ru  Ru14  1  0.719308  0.886488  0.000000  1
  Ru  Ru15  1  0.113512  0.832819  0.000000  1
  Ru  Ru16  1  0.167181  0.280692  0.000000  1
  Ru  Ru17  1  0.427272  0.070390  0.000000  1
  Ru  Ru18  1  0.929610  0.356882  0.000000  1
  Ru  Ru19  1  0.643118  0.572728  0.000000  1
  Ru  Ru20  1  0.050339  0.603733  0.500000  1
