# generated using pymatgen
data_Er4Ta2B4(IrRu)5
_symmetry_space_group_name_H-M   'P 1'
_cell_length_a   9.71902101
_cell_length_b   9.70967601
_cell_length_c   3.11134100
_cell_angle_alpha   90.00000000
_cell_angle_beta   90.00000000
_cell_angle_gamma   90.00510773
_symmetry_Int_Tables_number   1
_chemical_formula_structural   Er4Ta2B4(IrRu)5
_chemical_formula_sum   'Er4 Ta2 B4 Ir5 Ru5'
_cell_volume   293.61272242
_cell_formula_units_Z   1
loop_
 _symmetry_equiv_pos_site_id
 _symmetry_equiv_pos_as_xyz
  1  'x, y, z'
loop_
 _atom_site_type_symbol
 _atom_site_label
 _atom_site_symmetry_multiplicity
 _atom_site_fract_x
 _atom_site_fract_y
 _atom_site_fract_z
 _atom_site_occupancy
  Er  Er0  1  0.824515  0.674750  0.000000  1
  Er  Er1  1  0.173655  0.322617  0.000000  1
  Er  Er2  1  0.325586  0.829211  0.000000  1
  Er  Er3  1  0.675154  0.173523  0.000000  1
  Ta  Ta4  1  0.505086  0.498319  0.000000  1
  Ta  Ta5  1  0.999324  0.000152  0.000000  1
  B  B6  1  0.623812  0.886171  0.000000  1
  B  B7  1  0.375678  0.114362  0.000000  1
  B  B8  1  0.118212  0.616800  0.000000  1
  B  B9  1  0.877225  0.383637  0.000000  1
  Ir  Ir10  1  0.569693  0.720008  0.500000  1
  Ir  Ir11  1  0.428939  0.280569  0.500000  1
  Ir  Ir12  1  0.072052  0.779690  0.500000  1
  Ir  Ir13  1  0.928961  0.219993  0.500000  1
  Ir  Ir14  1  0.281996  0.570344  0.500000  1
  Ru  Ru15  1  0.719068  0.429752  0.500000  1
  Ru  Ru16  1  0.217906  0.070713  0.500000  1
  Ru  Ru17  1  0.781910  0.928667  0.500000  1
  Ru  Ru18  1  0.500263  0.000619  0.500000  1
  Ru  Ru19  1  0.000965  0.500102  0.500000  1
