# generated using pymatgen
data_Dy2AlIr3
_symmetry_space_group_name_H-M   'P 1'
_cell_length_a   5.13177178
_cell_length_b   5.13177104
_cell_length_c   5.13177009
_cell_angle_alpha   66.26285975
_cell_angle_beta   66.26285895
_cell_angle_gamma   66.26286288
_symmetry_Int_Tables_number   1
_chemical_formula_structural   Dy2AlIr3
_chemical_formula_sum   'Dy2 Al1 Ir3'
_cell_volume   108.48214409
_cell_formula_units_Z   1
loop_
 _symmetry_equiv_pos_site_id
 _symmetry_equiv_pos_as_xyz
  1  'x, y, z'
loop_
 _atom_site_type_symbol
 _atom_site_label
 _atom_site_symmetry_multiplicity
 _atom_site_fract_x
 _atom_site_fract_y
 _atom_site_fract_z
 _atom_site_occupancy
  Dy  Dy0  1  0.628027  0.628027  0.628027  1
  Dy  Dy1  1  0.371973  0.371973  0.371973  1
  Al  Al2  1  0.000000  0.000000  0.000000  1
  Ir  Ir3  1  0.000000  0.500000  0.000000  1
  Ir  Ir4  1  0.500000  0.000000  0.000000  1
  Ir  Ir5  1  0.000000  0.000000  0.500000  1
