# generated using pymatgen
data_Hf5SiSn2Sb
_symmetry_space_group_name_H-M   'P 1'
_cell_length_a   8.60288621
_cell_length_b   8.60288434
_cell_length_c   5.81184900
_cell_angle_alpha   90.00000000
_cell_angle_beta   90.00000000
_cell_angle_gamma   119.97332189
_symmetry_Int_Tables_number   1
_chemical_formula_structural   Hf5SiSn2Sb
_chemical_formula_sum   'Hf10 Si2 Sn4 Sb2'
_cell_volume   372.60605103
_cell_formula_units_Z   2
loop_
 _symmetry_equiv_pos_site_id
 _symmetry_equiv_pos_as_xyz
  1  'x, y, z'
loop_
 _atom_site_type_symbol
 _atom_site_label
 _atom_site_symmetry_multiplicity
 _atom_site_fract_x
 _atom_site_fract_y
 _atom_site_fract_z
 _atom_site_occupancy
  Hf  Hf0  1  0.666823  0.332533  0.998843  1
  Hf  Hf1  1  0.332533  0.666823  0.998843  1
  Hf  Hf2  1  0.332533  0.666823  0.501157  1
  Hf  Hf3  1  0.666823  0.332533  0.501157  1
  Hf  Hf4  1  0.738584  0.738584  0.750000  1
  Hf  Hf5  1  0.261958  0.000050  0.750000  1
  Hf  Hf6  1  0.000050  0.261958  0.750000  1
  Hf  Hf7  1  0.257409  0.257409  0.250000  1
  Hf  Hf8  1  0.741934  0.000225  0.250000  1
  Hf  Hf9  1  0.000225  0.741934  0.250000  1
  Si  Si10  1  0.999615  0.999615  0.996766  1
  Si  Si11  1  0.999615  0.999615  0.503234  1
  Sn  Sn12  1  0.393934  0.393934  0.750000  1
  Sn  Sn13  1  0.607440  0.999466  0.750000  1
  Sn  Sn14  1  0.999466  0.607440  0.750000  1
  Sn  Sn15  1  0.604202  0.604202  0.250000  1
  Sb  Sb16  1  0.397127  0.999727  0.250000  1
  Sb  Sb17  1  0.999727  0.397127  0.250000  1
