# generated using pymatgen
data_Pr5Er2Tm(Si3Rh)4
_symmetry_space_group_name_H-M   'P 1'
_cell_length_a   8.24735015
_cell_length_b   8.24735044
_cell_length_c   8.18570600
_cell_angle_alpha   90.00000000
_cell_angle_beta   90.00000000
_cell_angle_gamma   119.97779494
_symmetry_Int_Tables_number   1
_chemical_formula_structural   Pr5Er2Tm(Si3Rh)4
_chemical_formula_sum   'Pr5 Er2 Tm1 Si12 Rh4'
_cell_volume   482.29503125
_cell_formula_units_Z   1
loop_
 _symmetry_equiv_pos_site_id
 _symmetry_equiv_pos_as_xyz
  1  'x, y, z'
loop_
 _atom_site_type_symbol
 _atom_site_label
 _atom_site_symmetry_multiplicity
 _atom_site_fract_x
 _atom_site_fract_y
 _atom_site_fract_z
 _atom_site_occupancy
  Pr  Pr0  1  0.999997  0.000003  0.250000  1
  Pr  Pr1  1  0.000002  0.999998  0.750000  1
  Pr  Pr2  1  0.499242  0.500758  0.250000  1
  Pr  Pr3  1  0.499208  0.998431  0.250000  1
  Pr  Pr4  1  0.001569  0.500792  0.250000  1
  Er  Er5  1  0.990552  0.495341  0.750000  1
  Er  Er6  1  0.504659  0.009448  0.750000  1
  Tm  Tm7  1  0.504702  0.495298  0.750000  1
  Si  Si8  1  0.833399  0.166601  0.505816  1
  Si  Si9  1  0.833294  0.666826  0.505979  1
  Si  Si10  1  0.333174  0.166706  0.505979  1
  Si  Si11  1  0.833399  0.166601  0.994184  1
  Si  Si12  1  0.833294  0.666826  0.994021  1
  Si  Si13  1  0.333174  0.166706  0.994021  1
  Si  Si14  1  0.168625  0.831375  0.993512  1
  Si  Si15  1  0.662802  0.831294  0.993433  1
  Si  Si16  1  0.168706  0.337198  0.993433  1
  Si  Si17  1  0.168625  0.831375  0.506488  1
  Si  Si18  1  0.662802  0.831294  0.506567  1
  Si  Si19  1  0.168706  0.337198  0.506567  1
  Rh  Rh20  1  0.666492  0.333508  0.519098  1
  Rh  Rh21  1  0.666492  0.333508  0.980902  1
  Rh  Rh22  1  0.333541  0.666459  0.953577  1
  Rh  Rh23  1  0.333541  0.666459  0.546423  1
