# generated using pymatgen
data_Ho10Cd7In(NiPd)2
_symmetry_space_group_name_H-M   'P 1'
_cell_length_a   3.59209800
_cell_length_b   7.92408924
_cell_length_c   18.29435116
_cell_angle_alpha   89.89117830
_cell_angle_beta   90.00000000
_cell_angle_gamma   90.00000000
_symmetry_Int_Tables_number   1
_chemical_formula_structural   Ho10Cd7In(NiPd)2
_chemical_formula_sum   'Ho10 Cd7 In1 Ni2 Pd2'
_cell_volume   520.73139490
_cell_formula_units_Z   1
loop_
 _symmetry_equiv_pos_site_id
 _symmetry_equiv_pos_as_xyz
  1  'x, y, z'
loop_
 _atom_site_type_symbol
 _atom_site_label
 _atom_site_symmetry_multiplicity
 _atom_site_fract_x
 _atom_site_fract_y
 _atom_site_fract_z
 _atom_site_occupancy
  Ho  Ho0  1  0.000000  0.497794  0.500160  1
  Ho  Ho1  1  0.000000  0.002309  0.999636  1
  Ho  Ho2  1  0.000000  0.739566  0.276429  1
  Ho  Ho3  1  0.000000  0.260559  0.722886  1
  Ho  Ho4  1  0.000000  0.740005  0.782095  1
  Ho  Ho5  1  0.000000  0.259352  0.218396  1
  Ho  Ho6  1  0.000000  0.615342  0.087313  1
  Ho  Ho7  1  0.000000  0.387573  0.912994  1
  Ho  Ho8  1  0.000000  0.881853  0.584318  1
  Ho  Ho9  1  0.000000  0.116151  0.415446  1
  Cd  Cd10  1  0.500000  0.710476  0.932055  1
  Cd  Cd11  1  0.500000  0.292087  0.068739  1
  Cd  Cd12  1  0.500000  0.785059  0.430158  1
  Cd  Cd13  1  0.500000  0.211456  0.570081  1
  Cd  Cd14  1  0.500000  0.568415  0.651007  1
  Cd  Cd15  1  0.500000  0.432205  0.348877  1
  Cd  Cd16  1  0.500000  0.931864  0.147890  1
  In  In17  1  0.500000  0.069587  0.851241  1
  Ni  Ni18  1  0.500000  0.530014  0.194270  1
  Ni  Ni19  1  0.500000  0.468728  0.805451  1
  Pd  Pd20  1  0.500000  0.966992  0.697386  1
  Pd  Pd21  1  0.500000  0.032612  0.303174  1
