# generated using pymatgen
data_Dy2MnRu3
_symmetry_space_group_name_H-M   'P 1'
_cell_length_a   5.40125918
_cell_length_b   5.24996047
_cell_length_c   5.40125800
_cell_angle_alpha   59.04201357
_cell_angle_beta   60.00000721
_cell_angle_gamma   59.04201475
_symmetry_Int_Tables_number   1
_chemical_formula_structural   Dy2MnRu3
_chemical_formula_sum   'Dy2 Mn1 Ru3'
_cell_volume   106.70585957
_cell_formula_units_Z   1
loop_
 _symmetry_equiv_pos_site_id
 _symmetry_equiv_pos_as_xyz
  1  'x, y, z'
loop_
 _atom_site_type_symbol
 _atom_site_label
 _atom_site_symmetry_multiplicity
 _atom_site_fract_x
 _atom_site_fract_y
 _atom_site_fract_z
 _atom_site_occupancy
  Dy  Dy0  1  0.000204  0.999388  0.000204  1
  Dy  Dy1  1  0.249796  0.250612  0.249796  1
  Mn  Mn2  1  0.625000  0.125000  0.625000  1
  Ru  Ru3  1  0.625000  0.625000  0.625000  1
  Ru  Ru4  1  0.125000  0.625000  0.625000  1
  Ru  Ru5  1  0.625000  0.625000  0.125000  1
