# generated using pymatgen
data_La8MgZnOs2
_symmetry_space_group_name_H-M   'P 1'
_cell_length_a   10.05806696
_cell_length_b   10.08465818
_cell_length_c   10.05806582
_cell_angle_alpha   59.91250715
_cell_angle_beta   60.13469994
_cell_angle_gamma   59.91250754
_symmetry_Int_Tables_number   1
_chemical_formula_structural   La8MgZnOs2
_chemical_formula_sum   'La16 Mg2 Zn2 Os4'
_cell_volume   721.17151268
_cell_formula_units_Z   2
loop_
 _symmetry_equiv_pos_site_id
 _symmetry_equiv_pos_as_xyz
  1  'x, y, z'
loop_
 _atom_site_type_symbol
 _atom_site_label
 _atom_site_symmetry_multiplicity
 _atom_site_fract_x
 _atom_site_fract_y
 _atom_site_fract_z
 _atom_site_occupancy
  La  La0  1  0.558792  0.941208  0.558792  1
  La  La1  1  0.190756  0.188537  0.810211  1
  La  La2  1  0.558908  0.558030  0.936225  1
  La  La3  1  0.961840  0.346062  0.346037  1
  La  La4  1  0.807873  0.192127  0.807873  1
  La  La5  1  0.188211  0.811789  0.188211  1
  La  La6  1  0.346037  0.346062  0.961840  1
  La  La7  1  0.344929  0.965343  0.344929  1
  La  La8  1  0.936225  0.946836  0.558908  1
  La  La9  1  0.936225  0.558030  0.558908  1
  La  La10  1  0.344929  0.344800  0.344929  1
  La  La11  1  0.810211  0.810496  0.190756  1
  La  La12  1  0.810211  0.188537  0.190756  1
  La  La13  1  0.558908  0.946836  0.936225  1
  La  La14  1  0.942165  0.557835  0.942165  1
  La  La15  1  0.190756  0.810496  0.810211  1
  Mg  Mg16  1  0.578646  0.572337  0.276681  1
  Mg  Mg17  1  0.276681  0.572337  0.578646  1
  Zn  Zn18  1  0.580454  0.579956  0.580454  1
  Zn  Zn19  1  0.580454  0.259139  0.580454  1
  Os  Os20  1  0.136953  0.586765  0.136953  1
  Os  Os21  1  0.586418  0.138558  0.136469  1
  Os  Os22  1  0.136469  0.138558  0.586418  1
  Os  Os23  1  0.136953  0.139331  0.136953  1
