# generated using pymatgen
data_HfZnCu3Pt
_symmetry_space_group_name_H-M   'P 1'
_cell_length_a   4.91287290
_cell_length_b   4.91287377
_cell_length_c   4.89494545
_cell_angle_alpha   59.87877616
_cell_angle_beta   59.87876664
_cell_angle_gamma   60.00000212
_symmetry_Int_Tables_number   1
_chemical_formula_structural   HfZnCu3Pt
_chemical_formula_sum   'Hf1 Zn1 Cu3 Pt1'
_cell_volume   83.38842607
_cell_formula_units_Z   1
loop_
 _symmetry_equiv_pos_site_id
 _symmetry_equiv_pos_as_xyz
  1  'x, y, z'
loop_
 _atom_site_type_symbol
 _atom_site_label
 _atom_site_symmetry_multiplicity
 _atom_site_fract_x
 _atom_site_fract_y
 _atom_site_fract_z
 _atom_site_occupancy
  Hf  Hf0  1  0.248025  0.248025  0.255925  1
  Zn  Zn1  1  0.626683  0.626683  0.119947  1
  Cu  Cu2  1  0.625603  0.125291  0.623499  1
  Cu  Cu3  1  0.125291  0.625603  0.623499  1
  Cu  Cu4  1  0.625603  0.625603  0.623499  1
  Pt  Pt5  1  0.998791  0.998791  0.003627  1
