# generated using pymatgen
data_Y10Tl2InBi3
_symmetry_space_group_name_H-M   'P 1'
_cell_length_a   9.00352000
_cell_length_b   9.00266234
_cell_length_c   6.50531600
_cell_angle_alpha   89.99992999
_cell_angle_beta   89.99994909
_cell_angle_gamma   119.92336484
_symmetry_Int_Tables_number   1
_chemical_formula_structural   Y10Tl2InBi3
_chemical_formula_sum   'Y10 Tl2 In1 Bi3'
_cell_volume   457.00103141
_cell_formula_units_Z   1
loop_
 _symmetry_equiv_pos_site_id
 _symmetry_equiv_pos_as_xyz
  1  'x, y, z'
loop_
 _atom_site_type_symbol
 _atom_site_label
 _atom_site_symmetry_multiplicity
 _atom_site_fract_x
 _atom_site_fract_y
 _atom_site_fract_z
 _atom_site_occupancy
  Y  Y0  1  0.673284  0.333368  0.501285  1
  Y  Y1  1  0.324104  0.667705  0.501566  1
  Y  Y2  1  0.324106  0.667704  0.998432  1
  Y  Y3  1  0.673285  0.333369  0.998714  1
  Y  Y4  1  0.766342  0.759418  0.249999  1
  Y  Y5  1  0.230352  0.991087  0.250002  1
  Y  Y6  1  0.998248  0.239633  0.250000  1
  Y  Y7  1  0.235426  0.235043  0.750000  1
  Y  Y8  1  0.765971  0.007840  0.750001  1
  Y  Y9  1  0.007843  0.765169  0.750000  1
  Tl  Tl10  1  0.397601  0.003592  0.749999  1
  Tl  Tl11  1  0.001245  0.395627  0.750000  1
  In  In12  1  0.996728  0.601557  0.250000  1
  Bi  Bi13  1  0.393512  0.392516  0.250002  1
  Bi  Bi14  1  0.604655  0.996867  0.249998  1
  Bi  Bi15  1  0.607299  0.609508  0.750000  1
