# generated using pymatgen
data_GdPd2Au3
_symmetry_space_group_name_H-M   'P 1'
_cell_length_a   5.45868919
_cell_length_b   5.45868927
_cell_length_c   5.45868980
_cell_angle_alpha   120.10607272
_cell_angle_beta   119.42083379
_cell_angle_gamma   90.41121951
_symmetry_Int_Tables_number   1
_chemical_formula_structural   GdPd2Au3
_chemical_formula_sum   'Gd1 Pd2 Au3'
_cell_volume   115.41674110
_cell_formula_units_Z   1
loop_
 _symmetry_equiv_pos_site_id
 _symmetry_equiv_pos_as_xyz
  1  'x, y, z'
loop_
 _atom_site_type_symbol
 _atom_site_label
 _atom_site_symmetry_multiplicity
 _atom_site_fract_x
 _atom_site_fract_y
 _atom_site_fract_z
 _atom_site_occupancy
  Gd  Gd0  1  0.003799  0.003799  0.000000  1
  Pd  Pd1  1  0.623697  0.374399  0.249297  1
  Pd  Pd2  1  0.125103  0.374399  0.750703  1
  Au  Au3  1  0.623781  0.374390  0.750610  1
  Au  Au4  1  0.623781  0.873172  0.249390  1
  Au  Au5  1  0.249841  0.749841  0.500000  1
