# generated using pymatgen
data_Lu8Sc2GaBi5
_symmetry_space_group_name_H-M   'P 1'
_cell_length_a   7.97642391
_cell_length_b   9.25749500
_cell_length_c   11.66245200
_cell_angle_alpha   90.00000000
_cell_angle_beta   89.44894401
_cell_angle_gamma   90.00000000
_symmetry_Int_Tables_number   1
_chemical_formula_structural   Lu8Sc2GaBi5
_chemical_formula_sum   'Lu16 Sc4 Ga2 Bi10'
_cell_volume   861.13550452
_cell_formula_units_Z   2
loop_
 _symmetry_equiv_pos_site_id
 _symmetry_equiv_pos_as_xyz
  1  'x, y, z'
loop_
 _atom_site_type_symbol
 _atom_site_label
 _atom_site_symmetry_multiplicity
 _atom_site_fract_x
 _atom_site_fract_y
 _atom_site_fract_z
 _atom_site_occupancy
  Lu  Lu0  1  0.351777  0.250000  0.294824  1
  Lu  Lu1  1  0.648223  0.750000  0.705176  1
  Lu  Lu2  1  0.148885  0.750000  0.783122  1
  Lu  Lu3  1  0.851115  0.250000  0.216878  1
  Lu  Lu4  1  0.195914  0.250000  0.775528  1
  Lu  Lu5  1  0.804086  0.750000  0.224472  1
  Lu  Lu6  1  0.323930  0.750000  0.287814  1
  Lu  Lu7  1  0.676070  0.250000  0.712186  1
  Lu  Lu8  1  0.196448  0.067668  0.060118  1
  Lu  Lu9  1  0.803552  0.932332  0.939882  1
  Lu  Lu10  1  0.314203  0.939111  0.553318  1
  Lu  Lu11  1  0.803552  0.567668  0.939882  1
  Lu  Lu12  1  0.685797  0.060889  0.446682  1
  Lu  Lu13  1  0.196448  0.432332  0.060118  1
  Lu  Lu14  1  0.685797  0.439111  0.446682  1
  Lu  Lu15  1  0.314203  0.560889  0.553318  1
  Sc  Sc16  1  0.034342  0.250000  0.510495  1
  Sc  Sc17  1  0.965658  0.750000  0.489505  1
  Sc  Sc18  1  0.475156  0.750000  0.012296  1
  Sc  Sc19  1  0.524844  0.250000  0.987704  1
  Ga  Ga20  1  0.401483  0.250000  0.541772  1
  Ga  Ga21  1  0.598517  0.750000  0.458228  1
  Bi  Bi22  1  0.097658  0.750000  0.045801  1
  Bi  Bi23  1  0.902342  0.250000  0.954199  1
  Bi  Bi24  1  0.060386  0.001994  0.327428  1
  Bi  Bi25  1  0.939614  0.998006  0.672572  1
  Bi  Bi26  1  0.437613  0.995304  0.827760  1
  Bi  Bi27  1  0.939614  0.501994  0.672572  1
  Bi  Bi28  1  0.562387  0.004696  0.172240  1
  Bi  Bi29  1  0.060386  0.498006  0.327428  1
  Bi  Bi30  1  0.562387  0.495304  0.172240  1
  Bi  Bi31  1  0.437613  0.504696  0.827760  1
