# generated using pymatgen
data_Ho7Th7(RuRh2)2
_symmetry_space_group_name_H-M   'P 1'
_cell_length_a   9.85907600
_cell_length_b   9.75806784
_cell_length_c   6.35253455
_cell_angle_alpha   89.82553843
_cell_angle_beta   90.00000000
_cell_angle_gamma   120.34301810
_symmetry_Int_Tables_number   1
_chemical_formula_structural   Ho7Th7(RuRh2)2
_chemical_formula_sum   'Ho7 Th7 Ru2 Rh4'
_cell_volume   527.42836406
_cell_formula_units_Z   1
loop_
 _symmetry_equiv_pos_site_id
 _symmetry_equiv_pos_as_xyz
  1  'x, y, z'
loop_
 _atom_site_type_symbol
 _atom_site_label
 _atom_site_symmetry_multiplicity
 _atom_site_fract_x
 _atom_site_fract_y
 _atom_site_fract_z
 _atom_site_occupancy
  Ho  Ho0  1  0.872739  0.745479  0.740809  1
  Ho  Ho1  1  0.539478  0.462072  0.446534  1
  Ho  Ho2  1  0.922595  0.462072  0.446534  1
  Ho  Ho3  1  0.539479  0.078958  0.445272  1
  Ho  Ho4  1  0.463128  0.538115  0.944630  1
  Ho  Ho5  1  0.074986  0.538115  0.944630  1
  Ho  Ho6  1  0.462286  0.924574  0.945383  1
  Th  Th7  1  0.333166  0.666334  0.467688  1
  Th  Th8  1  0.665954  0.331906  0.972852  1
  Th  Th9  1  0.128647  0.875171  0.237641  1
  Th  Th10  1  0.746524  0.875171  0.237641  1
  Th  Th11  1  0.125463  0.250926  0.233547  1
  Th  Th12  1  0.868792  0.125808  0.739143  1
  Th  Th13  1  0.257017  0.125808  0.739143  1
  Ru  Ru14  1  0.817512  0.183531  0.193819  1
  Ru  Ru15  1  0.366017  0.183531  0.193819  1
  Rh  Rh16  1  0.815169  0.630340  0.196928  1
  Rh  Rh17  1  0.192090  0.814836  0.690366  1
  Rh  Rh18  1  0.622747  0.814836  0.690366  1
  Rh  Rh19  1  0.186210  0.372421  0.696795  1
