# generated using pymatgen
data_Dy9Lu(RuRh)2
_symmetry_space_group_name_H-M   'P 1'
_cell_length_a   6.39404864
_cell_length_b   7.23145139
_cell_length_c   8.52724433
_cell_angle_alpha   96.58867358
_cell_angle_beta   112.39682854
_cell_angle_gamma   90.08370155
_symmetry_Int_Tables_number   1
_chemical_formula_structural   Dy9Lu(RuRh)2
_chemical_formula_sum   'Dy9 Lu1 Ru2 Rh2'
_cell_volume   361.69680391
_cell_formula_units_Z   1
loop_
 _symmetry_equiv_pos_site_id
 _symmetry_equiv_pos_as_xyz
  1  'x, y, z'
loop_
 _atom_site_type_symbol
 _atom_site_label
 _atom_site_symmetry_multiplicity
 _atom_site_fract_x
 _atom_site_fract_y
 _atom_site_fract_z
 _atom_site_occupancy
  Dy  Dy0  1  0.523948  0.080944  0.816118  1
  Dy  Dy1  1  0.476777  0.917250  0.183663  1
  Dy  Dy2  1  0.711523  0.416134  0.187913  1
  Dy  Dy3  1  0.289463  0.585510  0.812459  1
  Dy  Dy4  1  0.289109  0.312545  0.434731  1
  Dy  Dy5  1  0.710597  0.687921  0.566325  1
  Dy  Dy6  1  0.857664  0.183240  0.563127  1
  Dy  Dy7  1  0.141291  0.816079  0.435686  1
  Dy  Dy8  1  0.077859  0.247524  0.999118  1
  Lu  Lu9  1  0.923726  0.752503  0.000910  1
  Ru  Ru10  1  0.104486  0.922562  0.783065  1
  Ru  Ru11  1  0.894458  0.075268  0.216616  1
  Rh  Rh12  1  0.321814  0.575817  0.222269  1
  Rh  Rh13  1  0.677285  0.426703  0.778001  1
