# generated using pymatgen
data_ScTa2Nb3Si7Ni16
_symmetry_space_group_name_H-M   'P 1'
_cell_length_a   7.97397188
_cell_length_b   7.96413507
_cell_length_c   7.98101704
_cell_angle_alpha   60.01146758
_cell_angle_beta   59.88921838
_cell_angle_gamma   60.09932005
_symmetry_Int_Tables_number   1
_chemical_formula_structural   ScTa2Nb3Si7Ni16
_chemical_formula_sum   'Sc1 Ta2 Nb3 Si7 Ni16'
_cell_volume   358.38814205
_cell_formula_units_Z   1
loop_
 _symmetry_equiv_pos_site_id
 _symmetry_equiv_pos_as_xyz
  1  'x, y, z'
loop_
 _atom_site_type_symbol
 _atom_site_label
 _atom_site_symmetry_multiplicity
 _atom_site_fract_x
 _atom_site_fract_y
 _atom_site_fract_z
 _atom_site_occupancy
  Sc  Sc0  1  0.796466  0.796466  0.203534  1
  Ta  Ta1  1  0.796347  0.206302  0.793698  1
  Ta  Ta2  1  0.206302  0.796347  0.203653  1
  Nb  Nb3  1  0.798492  0.204127  0.201508  1
  Nb  Nb4  1  0.204127  0.798492  0.795873  1
  Nb  Nb5  1  0.199726  0.199726  0.800274  1
  Si  Si6  1  0.502243  0.502243  0.497757  1
  Si  Si7  1  0.498722  0.001739  0.501278  1
  Si  Si8  1  0.001739  0.498722  0.998261  1
  Si  Si9  1  0.999429  0.999429  0.500571  1
  Si  Si10  1  0.498750  0.001858  0.998142  1
  Si  Si11  1  0.001858  0.498750  0.501250  1
  Si  Si12  1  0.499429  0.499429  0.000571  1
  Ni  Ni13  1  0.167332  0.168838  0.495447  1
  Ni  Ni14  1  0.497385  0.167112  0.167005  1
  Ni  Ni15  1  0.168838  0.167332  0.168384  1
  Ni  Ni16  1  0.504553  0.831616  0.832668  1
  Ni  Ni17  1  0.831501  0.832995  0.832888  1
  Ni  Ni18  1  0.832995  0.831501  0.502615  1
  Ni  Ni19  1  0.167112  0.497385  0.168499  1
  Ni  Ni20  1  0.616489  0.150415  0.617048  1
  Ni  Ni21  1  0.383952  0.382952  0.849585  1
  Ni  Ni22  1  0.852205  0.378410  0.385222  1
  Ni  Ni23  1  0.382952  0.383952  0.383511  1
  Ni  Ni24  1  0.150415  0.616489  0.616048  1
  Ni  Ni25  1  0.615836  0.614778  0.621590  1
  Ni  Ni26  1  0.614778  0.615836  0.147795  1
  Ni  Ni27  1  0.378410  0.852205  0.384164  1
  Ni  Ni28  1  0.831616  0.504553  0.831162  1
