# generated using pymatgen
data_KP4RuO12
_symmetry_space_group_name_H-M   'P 1'
_cell_length_a   10.60209868
_cell_length_b   10.60209849
_cell_length_c   5.28232793
_cell_angle_alpha   80.75858418
_cell_angle_beta   80.75858443
_cell_angle_gamma   71.96257489
_symmetry_Int_Tables_number   1
_chemical_formula_structural   KP4RuO12
_chemical_formula_sum   'K2 P8 Ru2 O24'
_cell_volume   553.34700038
_cell_formula_units_Z   2
loop_
 _symmetry_equiv_pos_site_id
 _symmetry_equiv_pos_as_xyz
  1  'x, y, z'
loop_
 _atom_site_type_symbol
 _atom_site_label
 _atom_site_symmetry_multiplicity
 _atom_site_fract_x
 _atom_site_fract_y
 _atom_site_fract_z
 _atom_site_occupancy
  K  K0  1  0.406046  0.406046  0.731065  1
  K  K1  1  0.593954  0.593954  0.268935  1
  P  P2  1  0.797896  0.354848  0.835491  1
  P  P3  1  0.068888  0.307462  0.531850  1
  P  P4  1  0.307462  0.068888  0.531850  1
  P  P5  1  0.645152  0.202104  0.164509  1
  P  P6  1  0.354848  0.797896  0.835491  1
  P  P7  1  0.692538  0.931112  0.468150  1
  P  P8  1  0.931112  0.692538  0.468150  1
  P  P9  1  0.202104  0.645152  0.164509  1
  Ru  Ru10  1  0.500000  0.000000  0.000000  1
  Ru  Ru11  1  0.000000  0.500000  0.000000  1
  O  O12  1  0.428370  0.841789  0.016615  1
  O  O13  1  0.398953  0.104838  0.681265  1
  O  O14  1  0.428687  0.676676  0.710614  1
  O  O15  1  0.158211  0.571630  0.983385  1
  O  O16  1  0.571630  0.158211  0.983385  1
  O  O17  1  0.912042  0.664978  0.760229  1
  O  O18  1  0.215451  0.784549  0.000000  1
  O  O19  1  0.571313  0.323324  0.289386  1
  O  O20  1  0.601047  0.895162  0.318735  1
  O  O21  1  0.706474  0.077087  0.373601  1
  O  O22  1  0.323324  0.571313  0.289386  1
  O  O23  1  0.895162  0.601047  0.318735  1
  O  O24  1  0.841789  0.428370  0.016615  1
  O  O25  1  0.077087  0.706474  0.373601  1
  O  O26  1  0.155244  0.155244  0.603153  1
  O  O27  1  0.104838  0.398953  0.681265  1
  O  O28  1  0.676676  0.428687  0.710614  1
  O  O29  1  0.293526  0.922913  0.626399  1
  O  O30  1  0.784549  0.215451  0.000000  1
  O  O31  1  0.335022  0.087958  0.239771  1
  O  O32  1  0.664978  0.912042  0.760229  1
  O  O33  1  0.844756  0.844756  0.396847  1
  O  O34  1  0.922913  0.293526  0.626399  1
  O  O35  1  0.087958  0.335022  0.239771  1
