# generated using pymatgen
data_LaYEr2(NiAs)4
_symmetry_space_group_name_H-M   'P 1'
_cell_length_a   4.06099200
_cell_length_b   4.06099093
_cell_length_c   15.69512000
_cell_angle_alpha   90.00000000
_cell_angle_beta   90.00000000
_cell_angle_gamma   120.00000872
_symmetry_Int_Tables_number   1
_chemical_formula_structural   LaYEr2(NiAs)4
_chemical_formula_sum   'La1 Y1 Er2 Ni4 As4'
_cell_volume   224.16065524
_cell_formula_units_Z   1
loop_
 _symmetry_equiv_pos_site_id
 _symmetry_equiv_pos_as_xyz
  1  'x, y, z'
loop_
 _atom_site_type_symbol
 _atom_site_label
 _atom_site_symmetry_multiplicity
 _atom_site_fract_x
 _atom_site_fract_y
 _atom_site_fract_z
 _atom_site_occupancy
  La  La0  1  0.000000  0.000000  0.000000  1
  Y  Y1  1  0.000000  0.000000  0.500000  1
  Er  Er2  1  0.000000  0.000000  0.255307  1
  Er  Er3  1  0.000000  0.000000  0.744693  1
  Ni  Ni4  1  0.333333  0.666667  0.145692  1
  Ni  Ni5  1  0.666667  0.333333  0.854308  1
  Ni  Ni6  1  0.666667  0.333333  0.632698  1
  Ni  Ni7  1  0.333333  0.666667  0.367302  1
  As  As8  1  0.333333  0.666667  0.619185  1
  As  As9  1  0.666667  0.333333  0.380815  1
  As  As10  1  0.666667  0.333333  0.130595  1
  As  As11  1  0.333333  0.666667  0.869405  1
