# generated using pymatgen
data_Ca21Mg(Ga6Bi)2
_symmetry_space_group_name_H-M   'P 1'
_cell_length_a   11.35901384
_cell_length_b   11.35901501
_cell_length_c   11.42851500
_cell_angle_alpha   59.79739190
_cell_angle_beta   59.79738847
_cell_angle_gamma   59.99081887
_symmetry_Int_Tables_number   1
_chemical_formula_structural   Ca21Mg(Ga6Bi)2
_chemical_formula_sum   'Ca21 Mg1 Ga12 Bi2'
_cell_volume   1039.41585061
_cell_formula_units_Z   1
loop_
 _symmetry_equiv_pos_site_id
 _symmetry_equiv_pos_as_xyz
  1  'x, y, z'
loop_
 _atom_site_type_symbol
 _atom_site_label
 _atom_site_symmetry_multiplicity
 _atom_site_fract_x
 _atom_site_fract_y
 _atom_site_fract_z
 _atom_site_occupancy
  Ca  Ca0  1  0.994481  0.005519  0.000000  1
  Ca  Ca1  1  0.126594  0.137411  0.125818  1
  Ca  Ca2  1  0.393044  0.878007  0.864474  1
  Ca  Ca3  1  0.870430  0.388293  0.870639  1
  Ca  Ca4  1  0.862589  0.873406  0.389823  1
  Ca  Ca5  1  0.121993  0.606956  0.135526  1
  Ca  Ca6  1  0.126594  0.137411  0.610177  1
  Ca  Ca7  1  0.611707  0.129570  0.129361  1
  Ca  Ca8  1  0.862589  0.873406  0.874182  1
  Ca  Ca9  1  0.508197  0.827597  0.491459  1
  Ca  Ca10  1  0.827770  0.499607  0.500774  1
  Ca  Ca11  1  0.508197  0.827597  0.172747  1
  Ca  Ca12  1  0.172403  0.491803  0.827253  1
  Ca  Ca13  1  0.827770  0.499607  0.171848  1
  Ca  Ca14  1  0.509119  0.490881  0.827952  1
  Ca  Ca15  1  0.171248  0.828752  0.500000  1
  Ca  Ca16  1  0.500393  0.172230  0.828152  1
  Ca  Ca17  1  0.509119  0.490881  0.172048  1
  Ca  Ca18  1  0.828154  0.171846  0.500000  1
  Ca  Ca19  1  0.172403  0.491803  0.508541  1
  Ca  Ca20  1  0.500393  0.172230  0.499226  1
  Mg  Mg21  1  0.502302  0.497698  0.500000  1
  Ga  Ga22  1  0.783818  0.216182  0.216236  1
  Ga  Ga23  1  0.784708  0.784710  0.215291  1
  Ga  Ga24  1  0.215290  0.215292  0.784709  1
  Ga  Ga25  1  0.783818  0.216182  0.783764  1
  Ga  Ga26  1  0.309137  0.310282  0.308854  1
  Ga  Ga27  1  0.926953  0.692307  0.690370  1
  Ga  Ga28  1  0.690681  0.930570  0.689375  1
  Ga  Ga29  1  0.689718  0.690864  0.928272  1
  Ga  Ga30  1  0.307693  0.073047  0.309630  1
  Ga  Ga31  1  0.309136  0.310282  0.071728  1
  Ga  Ga32  1  0.069430  0.309319  0.310625  1
  Ga  Ga33  1  0.689718  0.690864  0.691145  1
  Bi  Bi34  1  0.216206  0.783794  0.213086  1
  Bi  Bi35  1  0.216206  0.783794  0.786914  1
