# generated using pymatgen
data_Er7Tm9(LuPb4)4
_symmetry_space_group_name_H-M   'P 1'
_cell_length_a   8.14105874
_cell_length_b   15.49093202
_cell_length_c   8.20562900
_cell_angle_alpha   90.01450247
_cell_angle_beta   89.87381778
_cell_angle_gamma   90.12614144
_symmetry_Int_Tables_number   1
_chemical_formula_structural   Er7Tm9(LuPb4)4
_chemical_formula_sum   'Er7 Tm9 Lu4 Pb16'
_cell_volume   1034.82805632
_cell_formula_units_Z   1
loop_
 _symmetry_equiv_pos_site_id
 _symmetry_equiv_pos_as_xyz
  1  'x, y, z'
loop_
 _atom_site_type_symbol
 _atom_site_label
 _atom_site_symmetry_multiplicity
 _atom_site_fract_x
 _atom_site_fract_y
 _atom_site_fract_z
 _atom_site_occupancy
  Er  Er0  1  0.962558  0.901086  0.823864  1
  Er  Er1  1  0.537644  0.099397  0.323869  1
  Er  Er2  1  0.038803  0.400421  0.175823  1
  Er  Er3  1  0.538422  0.400370  0.324888  1
  Er  Er4  1  0.037211  0.099046  0.175975  1
  Er  Er5  1  0.462738  0.901191  0.676007  1
  Er  Er6  1  0.961940  0.598909  0.824215  1
  Tm  Tm7  1  0.623933  0.622062  0.157640  1
  Tm  Tm8  1  0.124829  0.878006  0.343024  1
  Tm  Tm9  1  0.375543  0.122107  0.842782  1
  Tm  Tm10  1  0.875797  0.378403  0.657451  1
  Tm  Tm11  1  0.376969  0.378357  0.842279  1
  Tm  Tm12  1  0.875502  0.121764  0.656833  1
  Tm  Tm13  1  0.624533  0.877569  0.156874  1
  Tm  Tm14  1  0.123899  0.621793  0.342776  1
  Tm  Tm15  1  0.459565  0.600174  0.674707  1
  Lu  Lu16  1  0.792604  0.749746  0.495059  1
  Lu  Lu17  1  0.292833  0.749773  0.005092  1
  Lu  Lu18  1  0.207514  0.250259  0.505294  1
  Lu  Lu19  1  0.707539  0.250045  0.994830  1
  Pb  Pb20  1  0.718799  0.456456  0.967550  1
  Pb  Pb21  1  0.218044  0.043297  0.534520  1
  Pb  Pb22  1  0.282428  0.956469  0.034042  1
  Pb  Pb23  1  0.780261  0.543407  0.467294  1
  Pb  Pb24  1  0.282203  0.543512  0.033449  1
  Pb  Pb25  1  0.782088  0.956628  0.464967  1
  Pb  Pb26  1  0.717419  0.043185  0.965470  1
  Pb  Pb27  1  0.217973  0.457002  0.534399  1
  Pb  Pb28  1  0.430126  0.750073  0.374748  1
  Pb  Pb29  1  0.930823  0.749940  0.125691  1
  Pb  Pb30  1  0.570133  0.249991  0.625324  1
  Pb  Pb31  1  0.069575  0.250120  0.874000  1
  Pb  Pb32  1  0.649819  0.749589  0.842561  1
  Pb  Pb33  1  0.149921  0.749949  0.657276  1
  Pb  Pb34  1  0.349785  0.250018  0.156786  1
  Pb  Pb35  1  0.850223  0.249884  0.342642  1
