# generated using pymatgen
data_Dy2HoZr2Sn3O
_symmetry_space_group_name_H-M   'P 1'
_cell_length_a   8.76036200
_cell_length_b   8.76023111
_cell_length_c   6.03563700
_cell_angle_alpha   90.00000000
_cell_angle_beta   90.00000000
_cell_angle_gamma   119.99949876
_symmetry_Int_Tables_number   1
_chemical_formula_structural   Dy2HoZr2Sn3O
_chemical_formula_sum   'Dy4 Ho2 Zr4 Sn6 O2'
_cell_volume   401.13776800
_cell_formula_units_Z   2
loop_
 _symmetry_equiv_pos_site_id
 _symmetry_equiv_pos_as_xyz
  1  'x, y, z'
loop_
 _atom_site_type_symbol
 _atom_site_label
 _atom_site_symmetry_multiplicity
 _atom_site_fract_x
 _atom_site_fract_y
 _atom_site_fract_z
 _atom_site_occupancy
  Dy  Dy0  1  0.999925  0.772869  0.750000  1
  Dy  Dy1  1  0.999925  0.227056  0.250000  1
  Dy  Dy2  1  0.227136  0.227162  0.750000  1
  Dy  Dy3  1  0.227136  0.999974  0.250000  1
  Ho  Ho4  1  0.773188  0.773232  0.250000  1
  Ho  Ho5  1  0.773188  0.999956  0.750000  1
  Zr  Zr6  1  0.333385  0.666693  0.000000  1
  Zr  Zr7  1  0.333385  0.666693  0.500000  1
  Zr  Zr8  1  0.666697  0.333348  0.000000  1
  Zr  Zr9  1  0.666697  0.333348  0.500000  1
  Sn  Sn10  1  0.999868  0.594838  0.250000  1
  Sn  Sn11  1  0.999868  0.405030  0.750000  1
  Sn  Sn12  1  0.405434  0.405419  0.250000  1
  Sn  Sn13  1  0.594905  0.595011  0.750000  1
  Sn  Sn14  1  0.405434  0.000015  0.750000  1
  Sn  Sn15  1  0.594905  0.999894  0.250000  1
  O  O16  1  0.999463  0.999731  0.000000  1
  O  O17  1  0.999463  0.999731  0.500000  1
