# generated using pymatgen
data_TbY5(Co3P2)6
_symmetry_space_group_name_H-M   'P 1'
_cell_length_a   3.69890100
_cell_length_b   10.52789200
_cell_length_c   12.18909600
_cell_angle_alpha   90.00000000
_cell_angle_beta   90.00000000
_cell_angle_gamma   90.00000000
_symmetry_Int_Tables_number   1
_chemical_formula_structural   TbY5(Co3P2)6
_chemical_formula_sum   'Tb1 Y5 Co18 P12'
_cell_volume   474.66326947
_cell_formula_units_Z   1
loop_
 _symmetry_equiv_pos_site_id
 _symmetry_equiv_pos_as_xyz
  1  'x, y, z'
loop_
 _atom_site_type_symbol
 _atom_site_label
 _atom_site_symmetry_multiplicity
 _atom_site_fract_x
 _atom_site_fract_y
 _atom_site_fract_z
 _atom_site_occupancy
  Tb  Tb0  1  0.500000  0.000000  0.477346  1
  Y  Y1  1  0.000000  0.500000  0.522593  1
  Y  Y2  1  0.500000  0.816751  0.205741  1
  Y  Y3  1  0.500000  0.183249  0.205741  1
  Y  Y4  1  0.000000  0.683242  0.794251  1
  Y  Y5  1  0.000000  0.316758  0.794251  1
  Co  Co6  1  0.500000  0.500000  0.158969  1
  Co  Co7  1  0.000000  0.000000  0.841038  1
  Co  Co8  1  0.500000  0.500000  0.703502  1
  Co  Co9  1  0.000000  0.000000  0.296490  1
  Co  Co10  1  0.000000  0.500000  0.985908  1
  Co  Co11  1  0.500000  0.000000  0.014093  1
  Co  Co12  1  0.500000  0.333224  0.994654  1
  Co  Co13  1  0.500000  0.666776  0.994654  1
  Co  Co14  1  0.000000  0.166766  0.005345  1
  Co  Co15  1  0.000000  0.833234  0.005345  1
  Co  Co16  1  0.500000  0.297089  0.430751  1
  Co  Co17  1  0.500000  0.702911  0.430751  1
  Co  Co18  1  0.000000  0.202941  0.569247  1
  Co  Co19  1  0.000000  0.797059  0.569247  1
  Co  Co20  1  0.500000  0.879727  0.709442  1
  Co  Co21  1  0.500000  0.120273  0.709442  1
  Co  Co22  1  0.000000  0.620269  0.290577  1
  Co  Co23  1  0.000000  0.379731  0.290577  1
  P  P24  1  0.500000  0.500000  0.882825  1
  P  P25  1  0.000000  0.000000  0.117165  1
  P  P26  1  0.500000  0.500000  0.343734  1
  P  P27  1  0.000000  0.000000  0.656309  1
  P  P28  1  0.500000  0.310172  0.616130  1
  P  P29  1  0.500000  0.689828  0.616130  1
  P  P30  1  0.000000  0.189864  0.383874  1
  P  P31  1  0.000000  0.810136  0.383874  1
  P  P32  1  0.500000  0.848083  0.893260  1
  P  P33  1  0.500000  0.151917  0.893260  1
  P  P34  1  0.000000  0.651918  0.106741  1
  P  P35  1  0.000000  0.348082  0.106741  1
