# generated using pymatgen
data_Ba2MnFeN4
_symmetry_space_group_name_H-M   'P 1'
_cell_length_a   6.40674609
_cell_length_b   6.40674509
_cell_length_c   7.79464204
_cell_angle_alpha   90.32724245
_cell_angle_beta   89.67275676
_cell_angle_gamma   125.83736752
_symmetry_Int_Tables_number   1
_chemical_formula_structural   Ba2MnFeN4
_chemical_formula_sum   'Ba4 Mn2 Fe2 N8'
_cell_volume   259.36585725
_cell_formula_units_Z   2
loop_
 _symmetry_equiv_pos_site_id
 _symmetry_equiv_pos_as_xyz
  1  'x, y, z'
loop_
 _atom_site_type_symbol
 _atom_site_label
 _atom_site_symmetry_multiplicity
 _atom_site_fract_x
 _atom_site_fract_y
 _atom_site_fract_z
 _atom_site_occupancy
  Ba  Ba0  1  0.843401  0.156599  0.559401  1
  Ba  Ba1  1  0.156599  0.843401  0.440599  1
  Ba  Ba2  1  0.656431  0.343569  0.059966  1
  Ba  Ba3  1  0.343569  0.656431  0.940034  1
  Mn  Mn4  1  0.950602  0.049398  0.135688  1
  Mn  Mn5  1  0.049398  0.950602  0.864312  1
  Fe  Fe6  1  0.548691  0.451309  0.630830  1
  Fe  Fe7  1  0.451309  0.548691  0.369170  1
  N  N8  1  0.889070  0.110930  0.915173  1
  N  N9  1  0.110930  0.889070  0.084827  1
  N  N10  1  0.612558  0.387442  0.413001  1
  N  N11  1  0.387442  0.612558  0.586999  1
  N  N12  1  0.330438  0.157930  0.753202  1
  N  N13  1  0.157930  0.330438  0.246798  1
  N  N14  1  0.669562  0.842070  0.246798  1
  N  N15  1  0.842070  0.669562  0.753202  1
