# generated using pymatgen
data_DyLu(Si7Rh3)2
_symmetry_space_group_name_H-M   'P 1'
_cell_length_a   7.98033731
_cell_length_b   7.98033712
_cell_length_c   7.98033843
_cell_angle_alpha   57.09325505
_cell_angle_beta   57.09325713
_cell_angle_gamma   57.09325631
_symmetry_Int_Tables_number   1
_chemical_formula_structural   DyLu(Si7Rh3)2
_chemical_formula_sum   'Dy1 Lu1 Si14 Rh6'
_cell_volume   335.30054745
_cell_formula_units_Z   1
loop_
 _symmetry_equiv_pos_site_id
 _symmetry_equiv_pos_as_xyz
  1  'x, y, z'
loop_
 _atom_site_type_symbol
 _atom_site_label
 _atom_site_symmetry_multiplicity
 _atom_site_fract_x
 _atom_site_fract_y
 _atom_site_fract_z
 _atom_site_occupancy
  Dy  Dy0  1  0.500000  0.500000  0.500000  1
  Lu  Lu1  1  0.000000  0.000000  0.000000  1
  Si  Si2  1  0.750062  0.750062  0.750062  1
  Si  Si3  1  0.249938  0.249938  0.249938  1
  Si  Si4  1  0.851803  0.065385  0.672270  1
  Si  Si5  1  0.672270  0.851803  0.065385  1
  Si  Si6  1  0.065385  0.672270  0.851803  1
  Si  Si7  1  0.648476  0.828111  0.434351  1
  Si  Si8  1  0.434351  0.648476  0.828111  1
  Si  Si9  1  0.828111  0.434351  0.648476  1
  Si  Si10  1  0.171889  0.565649  0.351524  1
  Si  Si11  1  0.565649  0.351524  0.171889  1
  Si  Si12  1  0.351524  0.171889  0.565649  1
  Si  Si13  1  0.934615  0.327730  0.148197  1
  Si  Si14  1  0.327730  0.148197  0.934615  1
  Si  Si15  1  0.148197  0.934615  0.327730  1
  Rh  Rh16  1  0.069886  0.428583  0.750744  1
  Rh  Rh17  1  0.249256  0.930114  0.571417  1
  Rh  Rh18  1  0.571417  0.249256  0.930114  1
  Rh  Rh19  1  0.930114  0.571417  0.249256  1
  Rh  Rh20  1  0.428583  0.750744  0.069886  1
  Rh  Rh21  1  0.750744  0.069886  0.428583  1
