# generated using pymatgen
data_La4CdNiHgAu3
_symmetry_space_group_name_H-M   'P 1'
_cell_length_a   8.15480524
_cell_length_b   8.13110567
_cell_length_c   3.90121100
_cell_angle_alpha   90.00000000
_cell_angle_beta   90.00000000
_cell_angle_gamma   90.87951571
_symmetry_Int_Tables_number   1
_chemical_formula_structural   La4CdNiHgAu3
_chemical_formula_sum   'La4 Cd1 Ni1 Hg1 Au3'
_cell_volume   258.64939630
_cell_formula_units_Z   1
loop_
 _symmetry_equiv_pos_site_id
 _symmetry_equiv_pos_as_xyz
  1  'x, y, z'
loop_
 _atom_site_type_symbol
 _atom_site_label
 _atom_site_symmetry_multiplicity
 _atom_site_fract_x
 _atom_site_fract_y
 _atom_site_fract_z
 _atom_site_occupancy
  La  La0  1  0.672829  0.170285  0.500000  1
  La  La1  1  0.307892  0.811057  0.500000  1
  La  La2  1  0.178106  0.343335  0.500000  1
  La  La3  1  0.845822  0.681595  0.500000  1
  Cd  Cd4  1  0.499133  0.502726  0.000000  1
  Ni  Ni5  1  0.123805  0.620907  0.000000  1
  Hg  Hg6  1  0.002369  0.996272  0.000000  1
  Au  Au7  1  0.878791  0.382818  0.000000  1
  Au  Au8  1  0.619227  0.866789  0.000000  1
  Au  Au9  1  0.372024  0.124216  0.000000  1
