# generated using pymatgen
data_Tm4Lu4Tc(B8Os)3
_symmetry_space_group_name_H-M   'P 1'
_cell_length_a   3.61128500
_cell_length_b   9.04975558
_cell_length_c   11.42796401
_cell_angle_alpha   89.95157315
_cell_angle_beta   90.00000000
_cell_angle_gamma   90.00000000
_symmetry_Int_Tables_number   1
_chemical_formula_structural   Tm4Lu4Tc(B8Os)3
_chemical_formula_sum   'Tm4 Lu4 Tc1 B24 Os3'
_cell_volume   373.47997644
_cell_formula_units_Z   1
loop_
 _symmetry_equiv_pos_site_id
 _symmetry_equiv_pos_as_xyz
  1  'x, y, z'
loop_
 _atom_site_type_symbol
 _atom_site_label
 _atom_site_symmetry_multiplicity
 _atom_site_fract_x
 _atom_site_fract_y
 _atom_site_fract_z
 _atom_site_occupancy
  Tm  Tm0  1  0.000000  0.323298  0.413000  1
  Tm  Tm1  1  0.000000  0.678000  0.583342  1
  Tm  Tm2  1  0.000000  0.819297  0.088193  1
  Tm  Tm3  1  0.000000  0.178523  0.914918  1
  Lu  Lu4  1  0.000000  0.942935  0.372716  1
  Lu  Lu5  1  0.000000  0.056626  0.627184  1
  Lu  Lu6  1  0.000000  0.444821  0.128036  1
  Lu  Lu7  1  0.000000  0.556403  0.872547  1
  Tc  Tc8  1  0.000000  0.637808  0.320908  1
  B  B9  1  0.500000  0.552827  0.433568  1
  B  B10  1  0.500000  0.446523  0.566907  1
  B  B11  1  0.500000  0.053587  0.066532  1
  B  B12  1  0.500000  0.946395  0.933652  1
  B  B13  1  0.500000  0.749338  0.419791  1
  B  B14  1  0.500000  0.250842  0.580080  1
  B  B15  1  0.500000  0.249563  0.079976  1
  B  B16  1  0.500000  0.750588  0.919979  1
  B  B17  1  0.500000  0.792251  0.265693  1
  B  B18  1  0.500000  0.208003  0.734336  1
  B  B19  1  0.500000  0.291826  0.233683  1
  B  B20  1  0.500000  0.708427  0.765652  1
  B  B21  1  0.500000  0.630847  0.184874  1
  B  B22  1  0.500000  0.368907  0.815667  1
  B  B23  1  0.500000  0.130844  0.314931  1
  B  B24  1  0.500000  0.869414  0.684529  1
  B  B25  1  0.500000  0.981763  0.212923  1
  B  B26  1  0.500000  0.018200  0.787312  1
  B  B27  1  0.500000  0.481243  0.287026  1
  B  B28  1  0.500000  0.517972  0.713155  1
  B  B29  1  0.500000  0.604741  0.028552  1
  B  B30  1  0.500000  0.395125  0.970916  1
  B  B31  1  0.500000  0.105281  0.470970  1
  B  B32  1  0.500000  0.895947  0.529218  1
  Os  Os33  1  0.000000  0.361765  0.679786  1
  Os  Os34  1  0.000000  0.137660  0.178464  1
  Os  Os35  1  0.000000  0.862406  0.820980  1
