# generated using pymatgen
data_Cs16HfTi3Se16
_symmetry_space_group_name_H-M   'P 1'
_cell_length_a   8.95541210
_cell_length_b   10.61815200
_cell_length_c   15.59715100
_cell_angle_alpha   90.00000000
_cell_angle_beta   90.03923189
_cell_angle_gamma   90.00000000
_symmetry_Int_Tables_number   1
_chemical_formula_structural   Cs16HfTi3Se16
_chemical_formula_sum   'Cs16 Hf1 Ti3 Se16'
_cell_volume   1483.13160066
_cell_formula_units_Z   1
loop_
 _symmetry_equiv_pos_site_id
 _symmetry_equiv_pos_as_xyz
  1  'x, y, z'
loop_
 _atom_site_type_symbol
 _atom_site_label
 _atom_site_symmetry_multiplicity
 _atom_site_fract_x
 _atom_site_fract_y
 _atom_site_fract_z
 _atom_site_occupancy
  Cs  Cs0  1  0.998331  0.997451  0.001411  1
  Cs  Cs1  1  0.500104  0.000043  0.499323  1
  Cs  Cs2  1  0.998331  0.502549  0.001411  1
  Cs  Cs3  1  0.500104  0.499957  0.499323  1
  Cs  Cs4  1  0.997389  0.750000  0.420419  1
  Cs  Cs5  1  0.499952  0.250000  0.081594  1
  Cs  Cs6  1  0.999995  0.250000  0.576953  1
  Cs  Cs7  1  0.508404  0.750000  0.921705  1
  Cs  Cs8  1  0.831174  0.056778  0.282112  1
  Cs  Cs9  1  0.330545  0.942883  0.217787  1
  Cs  Cs10  1  0.168800  0.560375  0.716895  1
  Cs  Cs11  1  0.668527  0.446037  0.780651  1
  Cs  Cs12  1  0.168800  0.939625  0.716895  1
  Cs  Cs13  1  0.668527  0.053963  0.780651  1
  Cs  Cs14  1  0.831174  0.443222  0.282112  1
  Cs  Cs15  1  0.330545  0.557117  0.217787  1
  Hf  Hf16  1  0.262928  0.250000  0.834892  1
  Ti  Ti17  1  0.763837  0.750000  0.664430  1
  Ti  Ti18  1  0.236687  0.250000  0.334452  1
  Ti  Ti19  1  0.736453  0.750000  0.166926  1
  Se  Se20  1  0.982061  0.250000  0.826743  1
  Se  Se21  1  0.505933  0.250000  0.326760  1
  Se  Se22  1  0.494775  0.750000  0.672481  1
  Se  Se23  1  0.005955  0.750000  0.174428  1
  Se  Se24  1  0.654587  0.566424  0.091707  1
  Se  Se25  1  0.154508  0.433999  0.409484  1
  Se  Se26  1  0.347574  0.057142  0.913493  1
  Se  Se27  1  0.846212  0.933568  0.589236  1
  Se  Se28  1  0.347574  0.442858  0.913493  1
  Se  Se29  1  0.846212  0.566432  0.589236  1
  Se  Se30  1  0.654587  0.933576  0.091707  1
  Se  Se31  1  0.154508  0.066001  0.409484  1
  Se  Se32  1  0.631684  0.750000  0.310724  1
  Se  Se33  1  0.132237  0.250000  0.190386  1
  Se  Se34  1  0.371904  0.250000  0.684420  1
  Se  Se35  1  0.869081  0.750000  0.808491  1
