# generated using pymatgen
data_Li2Nd2Sm(AgSn2)2
_symmetry_space_group_name_H-M   'P 1'
_cell_length_a   8.84912127
_cell_length_b   8.87556160
_cell_length_c   8.87556204
_cell_angle_alpha   149.34334016
_cell_angle_beta   131.92119296
_cell_angle_gamma   58.13441012
_symmetry_Int_Tables_number   1
_chemical_formula_structural   Li2Nd2Sm(AgSn2)2
_chemical_formula_sum   'Li2 Nd2 Sm1 Ag2 Sn4'
_cell_volume   262.45255855
_cell_formula_units_Z   1
loop_
 _symmetry_equiv_pos_site_id
 _symmetry_equiv_pos_as_xyz
  1  'x, y, z'
loop_
 _atom_site_type_symbol
 _atom_site_label
 _atom_site_symmetry_multiplicity
 _atom_site_fract_x
 _atom_site_fract_y
 _atom_site_fract_z
 _atom_site_occupancy
  Li  Li0  1  0.641225  0.329608  0.311617  1
  Li  Li1  1  0.358775  0.670392  0.688383  1
  Nd  Nd2  1  0.366883  0.870196  0.496687  1
  Nd  Nd3  1  0.633117  0.129804  0.503313  1
  Sm  Sm4  1  0.000000  0.000000  0.000000  1
  Ag  Ag5  1  0.018248  0.330143  0.688105  1
  Ag  Ag6  1  0.981752  0.669857  0.311895  1
  Sn  Sn7  1  0.223682  0.214257  0.009427  1
  Sn  Sn8  1  0.776318  0.785743  0.990573  1
  Sn  Sn9  1  0.695161  0.497306  0.197855  1
  Sn  Sn10  1  0.304839  0.502694  0.802145  1
