# generated using pymatgen
data_DyHo2RuI3
_symmetry_space_group_name_H-M   'P 1'
_cell_length_a   4.20825000
_cell_length_b   8.88729155
_cell_length_c   12.30409777
_cell_angle_alpha   94.64792101
_cell_angle_beta   90.00000000
_cell_angle_gamma   90.00000000
_symmetry_Int_Tables_number   1
_chemical_formula_structural   DyHo2RuI3
_chemical_formula_sum   'Dy2 Ho4 Ru2 I6'
_cell_volume   458.65927675
_cell_formula_units_Z   2
loop_
 _symmetry_equiv_pos_site_id
 _symmetry_equiv_pos_as_xyz
  1  'x, y, z'
loop_
 _atom_site_type_symbol
 _atom_site_label
 _atom_site_symmetry_multiplicity
 _atom_site_fract_x
 _atom_site_fract_y
 _atom_site_fract_z
 _atom_site_occupancy
  Dy  Dy0  1  0.750000  0.266861  0.604175  1
  Dy  Dy1  1  0.250000  0.733139  0.395825  1
  Ho  Ho2  1  0.750000  0.875502  0.625502  1
  Ho  Ho3  1  0.250000  0.124498  0.374498  1
  Ho  Ho4  1  0.750000  0.892993  0.185229  1
  Ho  Ho5  1  0.250000  0.107007  0.814771  1
  Ru  Ru6  1  0.750000  0.940773  0.406615  1
  Ru  Ru7  1  0.250000  0.059227  0.593385  1
  I  I8  1  0.750000  0.419999  0.365885  1
  I  I9  1  0.250000  0.580001  0.634115  1
  I  I10  1  0.750000  0.865999  0.889497  1
  I  I11  1  0.250000  0.134001  0.110503  1
  I  I12  1  0.750000  0.359823  0.867795  1
  I  I13  1  0.250000  0.640177  0.132205  1
