# generated using pymatgen
data_Er8Ag2PdRh
_symmetry_space_group_name_H-M   'P 1'
_cell_length_a   9.46582713
_cell_length_b   9.48286773
_cell_length_c   9.48286900
_cell_angle_alpha   60.09974423
_cell_angle_beta   60.05942315
_cell_angle_gamma   60.05942902
_symmetry_Int_Tables_number   1
_chemical_formula_structural   Er8Ag2PdRh
_chemical_formula_sum   'Er16 Ag4 Pd2 Rh2'
_cell_volume   602.89186439
_cell_formula_units_Z   2
loop_
 _symmetry_equiv_pos_site_id
 _symmetry_equiv_pos_as_xyz
  1  'x, y, z'
loop_
 _atom_site_type_symbol
 _atom_site_label
 _atom_site_symmetry_multiplicity
 _atom_site_fract_x
 _atom_site_fract_y
 _atom_site_fract_z
 _atom_site_occupancy
  Er  Er0  1  0.191493  0.185123  0.812067  1
  Er  Er1  1  0.434795  0.065181  0.065181  1
  Er  Er2  1  0.433233  0.065635  0.435932  1
  Er  Er3  1  0.065179  0.435908  0.065655  1
  Er  Er4  1  0.644979  0.062388  0.647581  1
  Er  Er5  1  0.187042  0.812927  0.812927  1
  Er  Er6  1  0.065179  0.065655  0.435908  1
  Er  Er7  1  0.809925  0.190043  0.190043  1
  Er  Er8  1  0.811328  0.812113  0.185076  1
  Er  Er9  1  0.644979  0.647581  0.062388  1
  Er  Er10  1  0.643393  0.645367  0.645367  1
  Er  Er11  1  0.065544  0.434507  0.434507  1
  Er  Er12  1  0.065850  0.645360  0.645360  1
  Er  Er13  1  0.811328  0.185076  0.812113  1
  Er  Er14  1  0.433233  0.435932  0.065635  1
  Er  Er15  1  0.191493  0.812067  0.185123  1
  Ag  Ag16  1  0.417255  0.749108  0.416414  1
  Ag  Ag17  1  0.417255  0.416414  0.749108  1
  Ag  Ag18  1  0.747786  0.417292  0.417292  1
  Ag  Ag19  1  0.417766  0.417333  0.417333  1
  Pd  Pd20  1  0.855941  0.433383  0.854723  1
  Pd  Pd21  1  0.855941  0.854723  0.433383  1
  Rh  Rh22  1  0.432617  0.855426  0.855426  1
  Rh  Rh23  1  0.856467  0.855461  0.855461  1
