# generated using pymatgen
data_Th10AlSn4Sb3
_symmetry_space_group_name_H-M   'P 1'
_cell_length_a   9.62417513
_cell_length_b   9.63649077
_cell_length_c   6.54784684
_cell_angle_alpha   90.06964545
_cell_angle_beta   89.86053670
_cell_angle_gamma   119.95773241
_symmetry_Int_Tables_number   1
_chemical_formula_structural   Th10AlSn4Sb3
_chemical_formula_sum   'Th10 Al1 Sn4 Sb3'
_cell_volume   526.13246469
_cell_formula_units_Z   1
loop_
 _symmetry_equiv_pos_site_id
 _symmetry_equiv_pos_as_xyz
  1  'x, y, z'
loop_
 _atom_site_type_symbol
 _atom_site_label
 _atom_site_symmetry_multiplicity
 _atom_site_fract_x
 _atom_site_fract_y
 _atom_site_fract_z
 _atom_site_occupancy
  Th  Th0  1  0.999373  0.722705  0.755800  1
  Th  Th1  1  0.276668  0.277295  0.755800  1
  Th  Th2  1  0.332892  0.666242  0.499831  1
  Th  Th3  1  0.666651  0.333758  0.499831  1
  Th  Th4  1  0.722930  0.722438  0.243620  1
  Th  Th5  1  0.724629  0.000000  0.756483  1
  Th  Th6  1  0.000492  0.277562  0.243620  1
  Th  Th7  1  0.277188  0.000000  0.243923  1
  Th  Th8  1  0.333146  0.666239  0.000109  1
  Th  Th9  1  0.666908  0.333761  0.000109  1
  Al  Al10  1  0.000283  0.000000  0.000967  1
  Sn  Sn11  1  0.380140  0.000000  0.749080  1
  Sn  Sn12  1  0.619241  0.000000  0.251018  1
  Sn  Sn13  1  0.380315  0.379877  0.250908  1
  Sn  Sn14  1  0.000439  0.620123  0.250908  1
  Sb  Sb15  1  0.618502  0.618441  0.749130  1
  Sb  Sb16  1  0.000062  0.381559  0.749130  1
  Sb  Sb17  1  0.000140  0.000000  0.499733  1
