# generated using pymatgen
data_Tb4FeCo(SiI)2
_symmetry_space_group_name_H-M   'P 1'
_cell_length_a   4.07531100
_cell_length_b   4.07531174
_cell_length_c   16.76922200
_cell_angle_alpha   90.00000000
_cell_angle_beta   90.00000000
_cell_angle_gamma   119.99998586
_symmetry_Int_Tables_number   1
_chemical_formula_structural   Tb4FeCo(SiI)2
_chemical_formula_sum   'Tb4 Fe1 Co1 Si2 I2'
_cell_volume   241.19327822
_cell_formula_units_Z   1
loop_
 _symmetry_equiv_pos_site_id
 _symmetry_equiv_pos_as_xyz
  1  'x, y, z'
loop_
 _atom_site_type_symbol
 _atom_site_label
 _atom_site_symmetry_multiplicity
 _atom_site_fract_x
 _atom_site_fract_y
 _atom_site_fract_z
 _atom_site_occupancy
  Tb  Tb0  1  0.000000  0.000000  0.103664  1
  Tb  Tb1  1  0.000000  0.000000  0.602602  1
  Tb  Tb2  1  0.000000  0.000000  0.399217  1
  Tb  Tb3  1  0.000000  0.000000  0.897401  1
  Fe  Fe4  1  0.666667  0.333333  0.998460  1
  Co  Co5  1  0.333333  0.666667  0.496981  1
  Si  Si6  1  0.333333  0.666667  0.001111  1
  Si  Si7  1  0.666667  0.333333  0.502417  1
  I  I8  1  0.666667  0.333333  0.250934  1
  I  I9  1  0.333333  0.666667  0.747212  1
