# generated using pymatgen
data_TaGa2Ni9
_symmetry_space_group_name_H-M   'P 1'
_cell_length_a   3.62701600
_cell_length_b   3.62701600
_cell_length_c   10.69329000
_cell_angle_alpha   90.00000000
_cell_angle_beta   90.00000000
_cell_angle_gamma   90.00000000
_symmetry_Int_Tables_number   1
_chemical_formula_structural   TaGa2Ni9
_chemical_formula_sum   'Ta1 Ga2 Ni9'
_cell_volume   140.67285049
_cell_formula_units_Z   1
loop_
 _symmetry_equiv_pos_site_id
 _symmetry_equiv_pos_as_xyz
  1  'x, y, z'
loop_
 _atom_site_type_symbol
 _atom_site_label
 _atom_site_symmetry_multiplicity
 _atom_site_fract_x
 _atom_site_fract_y
 _atom_site_fract_z
 _atom_site_occupancy
  Ta  Ta0  1  0.000000  0.000000  0.000000  1
  Ga  Ga1  1  0.000000  0.000000  0.338720  1
  Ga  Ga2  1  0.000000  0.000000  0.661280  1
  Ni  Ni3  1  0.500000  0.500000  0.000000  1
  Ni  Ni4  1  0.500000  0.500000  0.335990  1
  Ni  Ni5  1  0.500000  0.500000  0.664010  1
  Ni  Ni6  1  0.500000  0.000000  0.170074  1
  Ni  Ni7  1  0.500000  0.000000  0.500000  1
  Ni  Ni8  1  0.500000  0.000000  0.829926  1
  Ni  Ni9  1  0.000000  0.500000  0.170074  1
  Ni  Ni10  1  0.000000  0.500000  0.500000  1
  Ni  Ni11  1  0.000000  0.500000  0.829926  1
