# generated using pymatgen
data_Tb3Dy2P12Ru10Rh9
_symmetry_space_group_name_H-M   'P 1'
_cell_length_a   12.63922920
_cell_length_b   12.61093159
_cell_length_c   3.93987600
_cell_angle_alpha   90.00000000
_cell_angle_beta   90.00000000
_cell_angle_gamma   119.86321463
_symmetry_Int_Tables_number   1
_chemical_formula_structural   Tb3Dy2P12Ru10Rh9
_chemical_formula_sum   'Tb3 Dy2 P12 Ru10 Rh9'
_cell_volume   544.60033138
_cell_formula_units_Z   1
loop_
 _symmetry_equiv_pos_site_id
 _symmetry_equiv_pos_as_xyz
  1  'x, y, z'
loop_
 _atom_site_type_symbol
 _atom_site_label
 _atom_site_symmetry_multiplicity
 _atom_site_fract_x
 _atom_site_fract_y
 _atom_site_fract_z
 _atom_site_occupancy
  Tb  Tb0  1  0.666521  0.332437  0.000000  1
  Tb  Tb1  1  0.333388  0.666902  0.000000  1
  Tb  Tb2  1  0.812405  0.000706  0.500000  1
  Dy  Dy3  1  0.185334  0.187317  0.500000  1
  Dy  Dy4  1  0.000149  0.813368  0.500000  1
  P  P5  1  0.630726  0.997537  0.000000  1
  P  P6  1  0.366170  0.371871  0.000000  1
  P  P7  1  0.006164  0.633718  0.000000  1
  P  P8  1  0.687043  0.519779  0.500000  1
  P  P9  1  0.831363  0.308365  0.500000  1
  P  P10  1  0.314886  0.832877  0.500000  1
  P  P11  1  0.518183  0.685749  0.500000  1
  P  P12  1  0.180478  0.001380  0.000000  1
  P  P13  1  0.819649  0.818940  0.000000  1
  P  P14  1  0.996281  0.180667  0.000000  1
  P  P15  1  0.478798  0.164993  0.500000  1
  P  P16  1  0.167808  0.482699  0.500000  1
  Ru  Ru17  1  0.126617  0.641512  0.500000  1
  Ru  Ru18  1  0.360459  0.486671  0.500000  1
  Ru  Ru19  1  0.512936  0.872081  0.500000  1
  Ru  Ru20  1  0.716684  0.715024  0.500000  1
  Ru  Ru21  1  0.001188  0.285567  0.500000  1
  Ru  Ru22  1  0.450642  0.002716  0.000000  1
  Ru  Ru23  1  0.552911  0.547387  0.000000  1
  Ru  Ru24  1  0.000432  0.449694  0.000000  1
  Ru  Ru25  1  0.817408  0.195581  0.000000  1
  Ru  Ru26  1  0.283881  0.001334  0.500000  1
  Rh  Rh27  1  0.624172  0.803103  0.000000  1
  Rh  Rh28  1  0.180670  0.375651  0.000000  1
  Rh  Rh29  1  0.374910  0.183775  0.000000  1
  Rh  Rh30  1  0.196133  0.821709  0.000000  1
  Rh  Rh31  1  0.808641  0.624148  0.000000  1
  Rh  Rh32  1  0.870462  0.507917  0.500000  1
  Rh  Rh33  1  0.489870  0.359570  0.500000  1
  Rh  Rh34  1  0.636936  0.127085  0.500000  1
  Rh  Rh35  1  0.999703  0.000168  0.000000  1
