# generated using pymatgen
data_TbCe(Si2Ni9)2
_symmetry_space_group_name_H-M   'P 1'
_cell_length_a   7.56533135
_cell_length_b   7.56533210
_cell_length_c   7.56533149
_cell_angle_alpha   99.58756583
_cell_angle_beta   99.58757297
_cell_angle_gamma   131.82751947
_symmetry_Int_Tables_number   1
_chemical_formula_structural   TbCe(Si2Ni9)2
_chemical_formula_sum   'Tb1 Ce1 Si4 Ni18'
_cell_volume   294.55709625
_cell_formula_units_Z   1
loop_
 _symmetry_equiv_pos_site_id
 _symmetry_equiv_pos_as_xyz
  1  'x, y, z'
loop_
 _atom_site_type_symbol
 _atom_site_label
 _atom_site_symmetry_multiplicity
 _atom_site_fract_x
 _atom_site_fract_y
 _atom_site_fract_z
 _atom_site_occupancy
  Tb  Tb0  1  0.500000  0.500000  0.000000  1
  Ce  Ce1  1  0.750000  0.250000  0.500000  1
  Si  Si2  1  0.625420  0.874328  0.751092  1
  Si  Si3  1  0.125672  0.374580  0.248908  1
  Si  Si4  1  0.125672  0.876764  0.751092  1
  Si  Si5  1  0.123236  0.874328  0.248908  1
  Ni  Ni6  1  0.250000  0.750000  0.500000  1
  Ni  Ni7  1  0.000000  0.000000  0.000000  1
  Ni  Ni8  1  0.687268  0.014022  0.078975  1
  Ni  Ni9  1  0.687268  0.608293  0.673246  1
  Ni  Ni10  1  0.262870  0.436495  0.578729  1
  Ni  Ni11  1  0.262870  0.684141  0.826375  1
  Ni  Ni12  1  0.935047  0.014022  0.326754  1
  Ni  Ni13  1  0.935047  0.608293  0.921025  1
  Ni  Ni14  1  0.857766  0.436495  0.173625  1
  Ni  Ni15  1  0.857766  0.684141  0.421271  1
  Ni  Ni16  1  0.563505  0.737130  0.421271  1
  Ni  Ni17  1  0.563505  0.142234  0.826375  1
  Ni  Ni18  1  0.985978  0.312732  0.921025  1
  Ni  Ni19  1  0.985978  0.064953  0.673246  1
  Ni  Ni20  1  0.315859  0.737130  0.173625  1
  Ni  Ni21  1  0.315859  0.142234  0.578729  1
  Ni  Ni22  1  0.391707  0.312732  0.326754  1
  Ni  Ni23  1  0.391707  0.064953  0.078975  1
