# generated using pymatgen
data_Tb2Er10Tc3Ru
_symmetry_space_group_name_H-M   'P 1'
_cell_length_a   6.24353306
_cell_length_b   7.34931806
_cell_length_c   9.06078600
_cell_angle_alpha   90.00000000
_cell_angle_beta   90.00000000
_cell_angle_gamma   89.98476079
_symmetry_Int_Tables_number   1
_chemical_formula_structural   Tb2Er10Tc3Ru
_chemical_formula_sum   'Tb2 Er10 Tc3 Ru1'
_cell_volume   415.76058654
_cell_formula_units_Z   1
loop_
 _symmetry_equiv_pos_site_id
 _symmetry_equiv_pos_as_xyz
  1  'x, y, z'
loop_
 _atom_site_type_symbol
 _atom_site_label
 _atom_site_symmetry_multiplicity
 _atom_site_fract_x
 _atom_site_fract_y
 _atom_site_fract_z
 _atom_site_occupancy
  Tb  Tb0  1  0.873793  0.540364  0.250000  1
  Tb  Tb1  1  0.129392  0.458760  0.750000  1
  Er  Er2  1  0.336687  0.676912  0.062814  1
  Er  Er3  1  0.161279  0.175584  0.437908  1
  Er  Er4  1  0.661043  0.323784  0.562751  1
  Er  Er5  1  0.837889  0.824172  0.937505  1
  Er  Er6  1  0.661043  0.323784  0.937249  1
  Er  Er7  1  0.837889  0.824172  0.562495  1
  Er  Er8  1  0.336687  0.676912  0.437186  1
  Er  Er9  1  0.161279  0.175584  0.062092  1
  Er  Er10  1  0.626925  0.039477  0.250000  1
  Er  Er11  1  0.374127  0.957762  0.750000  1
  Tc  Tc12  1  0.040912  0.884644  0.250000  1
  Tc  Tc13  1  0.460065  0.386041  0.250000  1
  Tc  Tc14  1  0.960351  0.115426  0.750000  1
  Ru  Ru15  1  0.540638  0.616620  0.750000  1
