# generated using pymatgen
data_DyTh5(SiIr)4
_symmetry_space_group_name_H-M   'P 1'
_cell_length_a   5.76853100
_cell_length_b   5.76853133
_cell_length_c   13.60550000
_cell_angle_alpha   90.00000000
_cell_angle_beta   90.00000000
_cell_angle_gamma   138.56960687
_symmetry_Int_Tables_number   1
_chemical_formula_structural   DyTh5(SiIr)4
_chemical_formula_sum   'Dy1 Th5 Si4 Ir4'
_cell_volume   299.57976709
_cell_formula_units_Z   1
loop_
 _symmetry_equiv_pos_site_id
 _symmetry_equiv_pos_as_xyz
  1  'x, y, z'
loop_
 _atom_site_type_symbol
 _atom_site_label
 _atom_site_symmetry_multiplicity
 _atom_site_fract_x
 _atom_site_fract_y
 _atom_site_fract_z
 _atom_site_occupancy
  Dy  Dy0  1  0.488852  0.511148  0.750000  1
  Th  Th1  1  0.776054  0.223946  0.603555  1
  Th  Th2  1  0.513775  0.486225  0.250000  1
  Th  Th3  1  0.224249  0.775751  0.401398  1
  Th  Th4  1  0.776054  0.223946  0.896445  1
  Th  Th5  1  0.224249  0.775751  0.098602  1
  Si  Si6  1  0.061139  0.938861  0.594675  1
  Si  Si7  1  0.061139  0.938861  0.905325  1
  Si  Si8  1  0.938966  0.061034  0.409608  1
  Si  Si9  1  0.938966  0.061034  0.090392  1
  Ir  Ir10  1  0.797962  0.202038  0.250000  1
  Ir  Ir11  1  0.199697  0.800303  0.750000  1
  Ir  Ir12  1  0.499449  0.500551  0.997718  1
  Ir  Ir13  1  0.499449  0.500551  0.502282  1
