# generated using pymatgen
data_Yb2(PPd)3
_symmetry_space_group_name_H-M   'P 1'
_cell_length_a   4.14203500
_cell_length_b   4.05657600
_cell_length_c   33.98979400
_cell_angle_alpha   90.00000000
_cell_angle_beta   90.00000000
_cell_angle_gamma   90.00000000
_symmetry_Int_Tables_number   1
_chemical_formula_structural   Yb2(PPd)3
_chemical_formula_sum   'Yb8 P12 Pd12'
_cell_volume   571.11282614
_cell_formula_units_Z   4
loop_
 _symmetry_equiv_pos_site_id
 _symmetry_equiv_pos_as_xyz
  1  'x, y, z'
loop_
 _atom_site_type_symbol
 _atom_site_label
 _atom_site_symmetry_multiplicity
 _atom_site_fract_x
 _atom_site_fract_y
 _atom_site_fract_z
 _atom_site_occupancy
  Yb  Yb0  1  0.000000  0.000000  0.427981  1
  Yb  Yb1  1  0.500000  0.000000  0.678680  1
  Yb  Yb2  1  0.500000  0.000000  0.321320  1
  Yb  Yb3  1  0.000000  0.500000  0.176990  1
  Yb  Yb4  1  0.500000  0.500000  0.928719  1
  Yb  Yb5  1  0.500000  0.500000  0.071281  1
  Yb  Yb6  1  0.000000  0.500000  0.823010  1
  Yb  Yb7  1  0.000000  0.000000  0.572019  1
  P  P8  1  0.000000  0.000000  0.958416  1
  P  P9  1  0.500000  0.500000  0.542095  1
  P  P10  1  0.500000  0.500000  0.457905  1
  P  P11  1  0.500000  0.000000  0.208935  1
  P  P12  1  0.000000  0.500000  0.289359  1
  P  P13  1  0.000000  0.500000  0.710641  1
  P  P14  1  0.500000  0.000000  0.855671  1
  P  P15  1  0.500000  0.000000  0.791065  1
  P  P16  1  0.000000  0.500000  0.645906  1
  P  P17  1  0.000000  0.500000  0.354094  1
  P  P18  1  0.500000  0.000000  0.144329  1
  P  P19  1  0.000000  0.000000  0.041584  1
  Pd  Pd20  1  0.000000  0.000000  0.889257  1
  Pd  Pd21  1  0.000000  0.000000  0.110743  1
  Pd  Pd22  1  0.000000  0.000000  0.752369  1
  Pd  Pd23  1  0.500000  0.500000  0.388412  1
  Pd  Pd24  1  0.500000  0.500000  0.611588  1
  Pd  Pd25  1  0.000000  0.000000  0.247631  1
  Pd  Pd26  1  0.000000  0.500000  0.500000  1
  Pd  Pd27  1  0.500000  0.500000  0.250404  1
  Pd  Pd28  1  0.500000  0.000000  0.000000  1
  Pd  Pd29  1  0.500000  0.500000  0.749596  1
  Pd  Pd30  1  0.500000  0.000000  0.500000  1
  Pd  Pd31  1  0.000000  0.500000  0.000000  1
