# generated using pymatgen
data_Cd2Ir3Rh(PbO7)2
_symmetry_space_group_name_H-M   'P 1'
_cell_length_a   7.26864541
_cell_length_b   7.32780048
_cell_length_c   7.29460629
_cell_angle_alpha   59.84935651
_cell_angle_beta   59.62754898
_cell_angle_gamma   59.73041113
_symmetry_Int_Tables_number   1
_chemical_formula_structural   Cd2Ir3Rh(PbO7)2
_chemical_formula_sum   'Cd2 Ir3 Rh1 Pb2 O14'
_cell_volume   273.08435536
_cell_formula_units_Z   1
loop_
 _symmetry_equiv_pos_site_id
 _symmetry_equiv_pos_as_xyz
  1  'x, y, z'
loop_
 _atom_site_type_symbol
 _atom_site_label
 _atom_site_symmetry_multiplicity
 _atom_site_fract_x
 _atom_site_fract_y
 _atom_site_fract_z
 _atom_site_occupancy
  Cd  Cd0  1  0.625000  0.125000  0.125000  1
  Cd  Cd1  1  0.125000  0.125000  0.625000  1
  Ir  Ir2  1  0.125000  0.625000  0.625000  1
  Ir  Ir3  1  0.625000  0.125000  0.625000  1
  Ir  Ir4  1  0.625000  0.625000  0.625000  1
  Rh  Rh5  1  0.625000  0.625000  0.125000  1
  Pb  Pb6  1  0.125000  0.625000  0.125000  1
  Pb  Pb7  1  0.125000  0.125000  0.125000  1
  O  O8  1  0.708468  0.702347  0.296935  1
  O  O9  1  0.298693  0.304069  0.708424  1
  O  O10  1  0.712273  0.307234  0.673257  1
  O  O11  1  0.291870  0.707158  0.293814  1
  O  O12  1  0.298693  0.688813  0.708424  1
  O  O13  1  0.708468  0.292250  0.296935  1
  O  O14  1  0.541532  0.547653  0.953065  1
  O  O15  1  0.951307  0.945931  0.541576  1
  O  O16  1  0.537727  0.942766  0.576743  1
  O  O17  1  0.958130  0.542842  0.956186  1
  O  O18  1  0.951307  0.561187  0.541576  1
  O  O19  1  0.541532  0.957750  0.953065  1
  O  O20  1  0.258084  0.239223  0.263469  1
  O  O21  1  0.991916  0.010777  0.986531  1
