# generated using pymatgen
data_Ac2SiGeRu2C
_symmetry_space_group_name_H-M   'P 1'
_cell_length_a   6.18547794
_cell_length_b   6.18547730
_cell_length_c   7.44375315
_cell_angle_alpha   124.16659684
_cell_angle_beta   124.16659500
_cell_angle_gamma   40.05408408
_symmetry_Int_Tables_number   1
_chemical_formula_structural   Ac2SiGeRu2C
_chemical_formula_sum   'Ac2 Si1 Ge1 Ru2 C1'
_cell_volume   146.92578822
_cell_formula_units_Z   1
loop_
 _symmetry_equiv_pos_site_id
 _symmetry_equiv_pos_as_xyz
  1  'x, y, z'
loop_
 _atom_site_type_symbol
 _atom_site_label
 _atom_site_symmetry_multiplicity
 _atom_site_fract_x
 _atom_site_fract_y
 _atom_site_fract_z
 _atom_site_occupancy
  Ac  Ac0  1  0.558622  0.558622  0.307202  1
  Ac  Ac1  1  0.441445  0.441445  0.692971  1
  Si  Si2  1  0.188850  0.188850  0.751823  1
  Ge  Ge3  1  0.818524  0.818524  0.262241  1
  Ru  Ru4  1  0.187259  0.187259  0.074886  1
  Ru  Ru5  1  0.807121  0.807121  0.913457  1
  C  C6  1  0.998178  0.998178  0.997420  1
