# generated using pymatgen
data_Er4LuSiSn3
_symmetry_space_group_name_H-M   'P 1'
_cell_length_a   9.11832300
_cell_length_b   9.11832344
_cell_length_c   6.38520800
_cell_angle_alpha   90.00000000
_cell_angle_beta   90.00000000
_cell_angle_gamma   120.00000929
_symmetry_Int_Tables_number   1
_chemical_formula_structural   Er4LuSiSn3
_chemical_formula_sum   'Er8 Lu2 Si2 Sn6'
_cell_volume   459.76468073
_cell_formula_units_Z   2
loop_
 _symmetry_equiv_pos_site_id
 _symmetry_equiv_pos_as_xyz
  1  'x, y, z'
loop_
 _atom_site_type_symbol
 _atom_site_label
 _atom_site_symmetry_multiplicity
 _atom_site_fract_x
 _atom_site_fract_y
 _atom_site_fract_z
 _atom_site_occupancy
  Er  Er0  1  0.666667  0.333333  0.000000  1
  Er  Er1  1  0.333333  0.666667  0.000000  1
  Er  Er2  1  0.746473  0.746473  0.750506  1
  Er  Er3  1  0.253527  0.000000  0.750506  1
  Er  Er4  1  0.000000  0.253527  0.750506  1
  Er  Er5  1  0.253527  0.253527  0.249494  1
  Er  Er6  1  0.746473  0.000000  0.249494  1
  Er  Er7  1  0.000000  0.746473  0.249494  1
  Lu  Lu8  1  0.333333  0.666667  0.500000  1
  Lu  Lu9  1  0.666667  0.333333  0.500000  1
  Si  Si10  1  0.000000  0.000000  0.000000  1
  Si  Si11  1  0.000000  0.000000  0.500000  1
  Sn  Sn12  1  0.392573  0.392573  0.749426  1
  Sn  Sn13  1  0.607427  0.000000  0.749426  1
  Sn  Sn14  1  0.000000  0.607427  0.749426  1
  Sn  Sn15  1  0.607427  0.607427  0.250574  1
  Sn  Sn16  1  0.392573  0.000000  0.250574  1
  Sn  Sn17  1  0.000000  0.392573  0.250574  1
