# generated using pymatgen
data_Er3Tm4CoSn23Os5
_symmetry_space_group_name_H-M   'P 1'
_cell_length_a   9.80188570
_cell_length_b   9.84321010
_cell_length_c   10.03855209
_cell_angle_alpha   90.00000033
_cell_angle_beta   89.95762473
_cell_angle_gamma   120.13956155
_symmetry_Int_Tables_number   1
_chemical_formula_structural   Er3Tm4CoSn23Os5
_chemical_formula_sum   'Er3 Tm4 Co1 Sn23 Os5'
_cell_volume   837.59767789
_cell_formula_units_Z   1
loop_
 _symmetry_equiv_pos_site_id
 _symmetry_equiv_pos_as_xyz
  1  'x, y, z'
loop_
 _atom_site_type_symbol
 _atom_site_label
 _atom_site_symmetry_multiplicity
 _atom_site_fract_x
 _atom_site_fract_y
 _atom_site_fract_z
 _atom_site_occupancy
  Er  Er0  1  0.027398  0.513699  0.301962  1
  Er  Er1  1  0.968727  0.484363  0.696919  1
  Er  Er2  1  0.014000  0.007000  0.007567  1
  Tm  Tm3  1  0.486001  0.513543  0.302393  1
  Tm  Tm4  1  0.513290  0.484468  0.695786  1
  Tm  Tm5  1  0.486001  0.972460  0.302393  1
  Tm  Tm6  1  0.513290  0.028821  0.695786  1
  Co  Co7  1  0.657030  0.828515  0.798289  1
  Sn  Sn8  1  0.115852  0.882337  0.282267  1
  Sn  Sn9  1  0.877680  0.109656  0.724807  1
  Sn  Sn10  1  0.115852  0.233516  0.282267  1
  Sn  Sn11  1  0.877680  0.768025  0.724807  1
  Sn  Sn12  1  0.760718  0.880359  0.275038  1
  Sn  Sn13  1  0.237769  0.118885  0.723396  1
  Sn  Sn14  1  0.778901  0.221384  0.464132  1
  Sn  Sn15  1  0.220648  0.777186  0.535895  1
  Sn  Sn16  1  0.778901  0.557517  0.464132  1
  Sn  Sn17  1  0.220648  0.443461  0.535895  1
  Sn  Sn18  1  0.443664  0.221832  0.463129  1
  Sn  Sn19  1  0.560611  0.780306  0.541244  1
  Sn  Sn20  1  0.352160  0.998845  0.999870  1
  Sn  Sn21  1  0.653477  0.996766  0.993968  1
  Sn  Sn22  1  0.000615  0.349813  0.000087  1
  Sn  Sn23  1  0.000615  0.650803  0.000087  1
  Sn  Sn24  1  0.653477  0.656711  0.993968  1
  Sn  Sn25  1  0.352160  0.353315  0.999870  1
  Sn  Sn26  1  0.334632  0.667317  0.130661  1
  Sn  Sn27  1  0.664943  0.332472  0.867940  1
  Sn  Sn28  1  0.335586  0.667794  0.823208  1
  Sn  Sn29  1  0.666025  0.333012  0.172746  1
  Sn  Sn30  1  0.997630  0.998816  0.502339  1
  Os  Os31  1  0.828051  0.168631  0.201435  1
  Os  Os32  1  0.169849  0.830056  0.796955  1
  Os  Os33  1  0.828051  0.659422  0.201435  1
  Os  Os34  1  0.169849  0.339792  0.796955  1
  Os  Os35  1  0.338214  0.169108  0.200375  1
