# generated using pymatgen
data_Ce2Dy8OsRu3
_symmetry_space_group_name_H-M   'P 1'
_cell_length_a   8.63593404
_cell_length_b   8.66003802
_cell_length_c   7.18939672
_cell_angle_alpha   83.67943042
_cell_angle_beta   83.71357063
_cell_angle_gamma   43.38945343
_symmetry_Int_Tables_number   1
_chemical_formula_structural   Ce2Dy8OsRu3
_chemical_formula_sum   'Ce2 Dy8 Os1 Ru3'
_cell_volume   366.77146218
_cell_formula_units_Z   1
loop_
 _symmetry_equiv_pos_site_id
 _symmetry_equiv_pos_as_xyz
  1  'x, y, z'
loop_
 _atom_site_type_symbol
 _atom_site_label
 _atom_site_symmetry_multiplicity
 _atom_site_fract_x
 _atom_site_fract_y
 _atom_site_fract_z
 _atom_site_occupancy
  Ce  Ce0  1  0.199438  0.992929  0.600043  1
  Ce  Ce1  1  0.001666  0.804891  0.906140  1
  Dy  Dy2  1  0.214810  0.351891  0.314106  1
  Dy  Dy3  1  0.646743  0.784839  0.188002  1
  Dy  Dy4  1  0.795881  0.640240  0.680714  1
  Dy  Dy5  1  0.358502  0.209492  0.817432  1
  Dy  Dy6  1  0.972265  0.211138  0.084389  1
  Dy  Dy7  1  0.791016  0.026923  0.417954  1
  Dy  Dy8  1  0.569416  0.430244  0.750269  1
  Dy  Dy9  1  0.414317  0.585046  0.253217  1
  Os  Os10  1  0.168505  0.609815  0.585214  1
  Ru  Ru11  1  0.380231  0.839886  0.903364  1
  Ru  Ru12  1  0.851444  0.367140  0.433192  1
  Ru  Ru13  1  0.635768  0.145527  0.065963  1
