# generated using pymatgen
data_Ho8Ta12Si15Ge
_symmetry_space_group_name_H-M   'P 1'
_cell_length_a   6.84956920
_cell_length_b   7.03579112
_cell_length_c   13.37250604
_cell_angle_alpha   90.04633729
_cell_angle_beta   89.91940287
_cell_angle_gamma   90.01810467
_symmetry_Int_Tables_number   1
_chemical_formula_structural   Ho8Ta12Si15Ge
_chemical_formula_sum   'Ho8 Ta12 Si15 Ge1'
_cell_volume   644.44877876
_cell_formula_units_Z   1
loop_
 _symmetry_equiv_pos_site_id
 _symmetry_equiv_pos_as_xyz
  1  'x, y, z'
loop_
 _atom_site_type_symbol
 _atom_site_label
 _atom_site_symmetry_multiplicity
 _atom_site_fract_x
 _atom_site_fract_y
 _atom_site_fract_z
 _atom_site_occupancy
  Ho  Ho0  1  0.503698  0.328823  0.095564  1
  Ho  Ho1  1  0.002811  0.170889  0.403886  1
  Ho  Ho2  1  0.499613  0.673523  0.596379  1
  Ho  Ho3  1  0.996096  0.828435  0.904970  1
  Ho  Ho4  1  0.495975  0.671052  0.904763  1
  Ho  Ho5  1  0.996027  0.829441  0.595878  1
  Ho  Ho6  1  0.504310  0.327308  0.403433  1
  Ho  Ho7  1  0.003740  0.171772  0.095325  1
  Ta  Ta8  1  0.662711  0.008818  0.750227  1
  Ta  Ta9  1  0.162610  0.489981  0.752032  1
  Ta  Ta10  1  0.337018  0.991174  0.249711  1
  Ta  Ta11  1  0.837234  0.509449  0.249849  1
  Ta  Ta12  1  0.834884  0.324198  0.625528  1
  Ta  Ta13  1  0.336396  0.175268  0.875167  1
  Ta  Ta14  1  0.163505  0.675448  0.124851  1
  Ta  Ta15  1  0.663322  0.825188  0.374484  1
  Ta  Ta16  1  0.161551  0.678093  0.373151  1
  Ta  Ta17  1  0.662571  0.824374  0.124891  1
  Ta  Ta18  1  0.836417  0.324337  0.875172  1
  Ta  Ta19  1  0.339051  0.171442  0.626386  1
  Si  Si20  1  0.795479  0.627033  0.750323  1
  Si  Si21  1  0.294283  0.871547  0.750693  1
  Si  Si22  1  0.204934  0.372960  0.249617  1
  Si  Si23  1  0.705176  0.127327  0.249486  1
  Si  Si24  1  0.540809  0.377152  0.750374  1
  Si  Si25  1  0.040659  0.122749  0.750123  1
  Si  Si26  1  0.458830  0.623022  0.249913  1
  Si  Si27  1  0.958220  0.877948  0.248885  1
  Si  Si28  1  0.664613  0.036686  0.540105  1
  Si  Si29  1  0.163499  0.463827  0.959528  1
  Si  Si30  1  0.335880  0.964135  0.040599  1
  Si  Si31  1  0.832257  0.536910  0.458784  1
  Si  Si32  1  0.335767  0.963382  0.459489  1
  Si  Si33  1  0.836380  0.536110  0.040813  1
  Si  Si34  1  0.663576  0.035972  0.959472  1
  Ge  Ge35  1  0.170097  0.464231  0.540150  1
