# generated using pymatgen
data_TbYbDy5CoI12
_symmetry_space_group_name_H-M   'P 1'
_cell_length_a   9.68283479
_cell_length_b   9.77702257
_cell_length_c   9.78516697
_cell_angle_alpha   106.92818809
_cell_angle_beta   107.08580872
_cell_angle_gamma   106.73170073
_symmetry_Int_Tables_number   1
_chemical_formula_structural   TbYbDy5CoI12
_chemical_formula_sum   'Tb1 Yb1 Dy5 Co1 I12'
_cell_volume   773.24844341
_cell_formula_units_Z   1
loop_
 _symmetry_equiv_pos_site_id
 _symmetry_equiv_pos_as_xyz
  1  'x, y, z'
loop_
 _atom_site_type_symbol
 _atom_site_label
 _atom_site_symmetry_multiplicity
 _atom_site_fract_x
 _atom_site_fract_y
 _atom_site_fract_z
 _atom_site_occupancy
  Tb  Tb0  1  0.716540  0.976520  0.907687  1
  Yb  Yb1  1  0.500077  0.499965  0.500013  1
  Dy  Dy2  1  0.023934  0.096418  0.295692  1
  Dy  Dy3  1  0.096273  0.295698  0.024945  1
  Dy  Dy4  1  0.282086  0.023445  0.091958  1
  Dy  Dy5  1  0.976066  0.903616  0.704397  1
  Dy  Dy6  1  0.904199  0.704430  0.975197  1
  Co  Co7  1  0.999707  0.000078  0.999937  1
  I  I8  1  0.149614  0.457760  0.379054  1
  I  I9  1  0.457722  0.377889  0.151026  1
  I  I10  1  0.379480  0.150278  0.455984  1
  I  I11  1  0.850577  0.542304  0.620965  1
  I  I12  1  0.542246  0.620909  0.848814  1
  I  I13  1  0.620472  0.849041  0.542711  1
  I  I14  1  0.679332  0.071339  0.222293  1
  I  I15  1  0.071954  0.223373  0.679197  1
  I  I16  1  0.225157  0.680831  0.072564  1
  I  I17  1  0.320574  0.928962  0.779034  1
  I  I18  1  0.928200  0.776650  0.320814  1
  I  I19  1  0.775791  0.320496  0.927717  1
