# generated using pymatgen
data_Rb4Na2TiCdAs4
_symmetry_space_group_name_H-M   'P 1'
_cell_length_a   9.35977861
_cell_length_b   9.35977777
_cell_length_c   9.35977849
_cell_angle_alpha   138.30817277
_cell_angle_beta   136.46124789
_cell_angle_gamma   61.85908767
_symmetry_Int_Tables_number   1
_chemical_formula_structural   Rb4Na2TiCdAs4
_chemical_formula_sum   'Rb4 Na2 Ti1 Cd1 As4'
_cell_volume   371.31324783
_cell_formula_units_Z   1
loop_
 _symmetry_equiv_pos_site_id
 _symmetry_equiv_pos_as_xyz
  1  'x, y, z'
loop_
 _atom_site_type_symbol
 _atom_site_label
 _atom_site_symmetry_multiplicity
 _atom_site_fract_x
 _atom_site_fract_y
 _atom_site_fract_z
 _atom_site_occupancy
  Rb  Rb0  1  0.090615  0.310908  0.752396  1
  Rb  Rb1  1  0.441487  0.189092  0.279707  1
  Rb  Rb2  1  0.909385  0.661779  0.220293  1
  Rb  Rb3  1  0.558513  0.838221  0.747604  1
  Na  Na4  1  0.500000  0.750000  0.250000  1
  Na  Na5  1  0.500000  0.250000  0.750000  1
  Ti  Ti6  1  0.000000  0.750000  0.750000  1
  Cd  Cd7  1  0.000000  0.250000  0.250000  1
  As  As8  1  0.115135  0.881971  0.183571  1
  As  As9  1  0.884865  0.068437  0.766836  1
  As  As10  1  0.301601  0.618029  0.733164  1
  As  As11  1  0.698399  0.431563  0.316429  1
