# generated using pymatgen
data_TbU5S12
_symmetry_space_group_name_H-M   'P 1'
_cell_length_a   7.88320939
_cell_length_b   7.91029265
_cell_length_c   7.89265257
_cell_angle_alpha   80.24218606
_cell_angle_beta   80.65892561
_cell_angle_gamma   119.46851185
_symmetry_Int_Tables_number   1
_chemical_formula_structural   TbU5S12
_chemical_formula_sum   'Tb1 U5 S12'
_cell_volume   404.61792711
_cell_formula_units_Z   1
loop_
 _symmetry_equiv_pos_site_id
 _symmetry_equiv_pos_as_xyz
  1  'x, y, z'
loop_
 _atom_site_type_symbol
 _atom_site_label
 _atom_site_symmetry_multiplicity
 _atom_site_fract_x
 _atom_site_fract_y
 _atom_site_fract_z
 _atom_site_occupancy
  Tb  Tb0  1  0.500000  0.500000  0.500000  1
  U  U1  1  0.833372  0.166423  0.500583  1
  U  U2  1  0.166628  0.833577  0.499417  1
  U  U3  1  0.665785  0.334440  0.999926  1
  U  U4  1  0.000000  0.000000  0.000000  1
  U  U5  1  0.334215  0.665560  0.000074  1
  S  S6  1  0.121277  0.120637  0.627672  1
  S  S7  1  0.705484  0.040249  0.876336  1
  S  S8  1  0.959867  0.293431  0.123524  1
  S  S9  1  0.370353  0.370979  0.880602  1
  S  S10  1  0.040133  0.706569  0.876476  1
  S  S11  1  0.540742  0.204053  0.371992  1
  S  S12  1  0.878723  0.879363  0.372328  1
  S  S13  1  0.459258  0.795947  0.628008  1
  S  S14  1  0.629647  0.629021  0.119398  1
  S  S15  1  0.294516  0.959751  0.123664  1
  S  S16  1  0.797794  0.459171  0.628653  1
  S  S17  1  0.202206  0.540829  0.371347  1
