# generated using pymatgen
data_La10Nd6Cd4OsPd3
_symmetry_space_group_name_H-M   'P 1'
_cell_length_a   10.16913716
_cell_length_b   10.16913695
_cell_length_c   10.16913760
_cell_angle_alpha   59.57169002
_cell_angle_beta   59.57169339
_cell_angle_gamma   59.57169059
_symmetry_Int_Tables_number   1
_chemical_formula_structural   La10Nd6Cd4OsPd3
_chemical_formula_sum   'La10 Nd6 Cd4 Os1 Pd3'
_cell_volume   736.35635239
_cell_formula_units_Z   1
loop_
 _symmetry_equiv_pos_site_id
 _symmetry_equiv_pos_as_xyz
  1  'x, y, z'
loop_
 _atom_site_type_symbol
 _atom_site_label
 _atom_site_symmetry_multiplicity
 _atom_site_fract_x
 _atom_site_fract_y
 _atom_site_fract_z
 _atom_site_occupancy
  La  La0  1  0.351389  0.351389  0.351389  1
  La  La1  1  0.346376  0.346376  0.953659  1
  La  La2  1  0.346376  0.953659  0.346376  1
  La  La3  1  0.953659  0.346376  0.346376  1
  La  La4  1  0.816758  0.189847  0.189847  1
  La  La5  1  0.192249  0.804608  0.804608  1
  La  La6  1  0.189847  0.816758  0.189847  1
  La  La7  1  0.804608  0.192249  0.804608  1
  La  La8  1  0.189847  0.189847  0.816758  1
  La  La9  1  0.804608  0.804608  0.192249  1
  Nd  Nd10  1  0.934805  0.567451  0.567451  1
  Nd  Nd11  1  0.559218  0.935408  0.935408  1
  Nd  Nd12  1  0.567451  0.934805  0.567451  1
  Nd  Nd13  1  0.935408  0.559218  0.935408  1
  Nd  Nd14  1  0.567451  0.567451  0.934805  1
  Nd  Nd15  1  0.935408  0.935408  0.559218  1
  Cd  Cd16  1  0.580616  0.580616  0.580616  1
  Cd  Cd17  1  0.580828  0.580828  0.256455  1
  Cd  Cd18  1  0.580828  0.256455  0.580828  1
  Cd  Cd19  1  0.256455  0.580828  0.580828  1
  Os  Os20  1  0.142432  0.142432  0.142432  1
  Pd  Pd21  1  0.144672  0.144672  0.574042  1
  Pd  Pd22  1  0.144672  0.574042  0.144672  1
  Pd  Pd23  1  0.574042  0.144672  0.144672  1
