# generated using pymatgen
data_Pr7Dy3(In3Cl)2
_symmetry_space_group_name_H-M   'P 1'
_cell_length_a   9.50305100
_cell_length_b   9.50305125
_cell_length_c   6.70333400
_cell_angle_alpha   90.00000000
_cell_angle_beta   90.00000000
_cell_angle_gamma   120.00000958
_symmetry_Int_Tables_number   1
_chemical_formula_structural   Pr7Dy3(In3Cl)2
_chemical_formula_sum   'Pr7 Dy3 In6 Cl2'
_cell_volume   524.26103455
_cell_formula_units_Z   1
loop_
 _symmetry_equiv_pos_site_id
 _symmetry_equiv_pos_as_xyz
  1  'x, y, z'
loop_
 _atom_site_type_symbol
 _atom_site_label
 _atom_site_symmetry_multiplicity
 _atom_site_fract_x
 _atom_site_fract_y
 _atom_site_fract_z
 _atom_site_occupancy
  Pr  Pr0  1  0.739056  0.740626  0.251015  1
  Pr  Pr1  1  0.001570  0.740626  0.748985  1
  Pr  Pr2  1  0.739056  0.998430  0.748985  1
  Pr  Pr3  1  0.259374  0.260944  0.748985  1
  Pr  Pr4  1  0.001570  0.260944  0.251015  1
  Pr  Pr5  1  0.259374  0.998430  0.251015  1
  Pr  Pr6  1  0.666667  0.333333  0.000000  1
  Dy  Dy7  1  0.333333  0.666667  0.500000  1
  Dy  Dy8  1  0.666667  0.333333  0.500000  1
  Dy  Dy9  1  0.333333  0.666667  0.000000  1
  In  In10  1  0.395294  0.996881  0.748748  1
  In  In11  1  0.003119  0.604706  0.251252  1
  In  In12  1  0.601587  0.996881  0.251252  1
  In  In13  1  0.003119  0.398413  0.748748  1
  In  In14  1  0.395294  0.398413  0.251252  1
  In  In15  1  0.601587  0.604706  0.748748  1
  Cl  Cl16  1  0.000000  0.000000  0.500000  1
  Cl  Cl17  1  0.000000  0.000000  0.000000  1
