# generated using pymatgen
data_Y2PaFeCo
_symmetry_space_group_name_H-M   'P 1'
_cell_length_a   3.62514029
_cell_length_b   5.93065871
_cell_length_c   5.96022051
_cell_angle_alpha   119.83604443
_cell_angle_beta   107.70470723
_cell_angle_gamma   90.00000536
_symmetry_Int_Tables_number   1
_chemical_formula_structural   Y2PaFeCo
_chemical_formula_sum   'Y2 Pa1 Fe1 Co1'
_cell_volume   104.10195175
_cell_formula_units_Z   1
loop_
 _symmetry_equiv_pos_site_id
 _symmetry_equiv_pos_as_xyz
  1  'x, y, z'
loop_
 _atom_site_type_symbol
 _atom_site_label
 _atom_site_symmetry_multiplicity
 _atom_site_fract_x
 _atom_site_fract_y
 _atom_site_fract_z
 _atom_site_occupancy
  Y  Y0  1  0.805731  0.309306  0.611462  1
  Y  Y1  1  0.194269  0.697845  0.388538  1
  Pa  Pa2  1  0.000000  0.009850  0.000000  1
  Fe  Fe3  1  0.500000  0.279388  0.000000  1
  Co  Co4  1  0.500000  0.703611  0.000000  1
