# generated using pymatgen
data_Y8Tc3B24Ir
_symmetry_space_group_name_H-M   'P 1'
_cell_length_a   3.68515600
_cell_length_b   9.18452239
_cell_length_c   11.57312343
_cell_angle_alpha   89.88660083
_cell_angle_beta   90.00000000
_cell_angle_gamma   90.00000000
_symmetry_Int_Tables_number   1
_chemical_formula_structural   Y8Tc3B24Ir
_chemical_formula_sum   'Y8 Tc3 B24 Ir1'
_cell_volume   391.70777194
_cell_formula_units_Z   1
loop_
 _symmetry_equiv_pos_site_id
 _symmetry_equiv_pos_as_xyz
  1  'x, y, z'
loop_
 _atom_site_type_symbol
 _atom_site_label
 _atom_site_symmetry_multiplicity
 _atom_site_fract_x
 _atom_site_fract_y
 _atom_site_fract_z
 _atom_site_occupancy
  Y  Y0  1  0.000000  0.323350  0.413116  1
  Y  Y1  1  0.000000  0.673369  0.581239  1
  Y  Y2  1  0.000000  0.821968  0.090579  1
  Y  Y3  1  0.000000  0.181202  0.915933  1
  Y  Y4  1  0.000000  0.942872  0.370810  1
  Y  Y5  1  0.000000  0.060055  0.628472  1
  Y  Y6  1  0.000000  0.443592  0.129722  1
  Y  Y7  1  0.000000  0.555353  0.869944  1
  Tc  Tc8  1  0.000000  0.638193  0.321069  1
  Tc  Tc9  1  0.000000  0.361798  0.680164  1
  Tc  Tc10  1  0.000000  0.136987  0.177386  1
  B  B11  1  0.500000  0.552983  0.432599  1
  B  B12  1  0.500000  0.446532  0.566909  1
  B  B13  1  0.500000  0.053420  0.066790  1
  B  B14  1  0.500000  0.946106  0.933649  1
  B  B15  1  0.500000  0.747801  0.418586  1
  B  B16  1  0.500000  0.251840  0.581672  1
  B  B17  1  0.500000  0.248866  0.081389  1
  B  B18  1  0.500000  0.751077  0.919657  1
  B  B19  1  0.500000  0.791157  0.265608  1
  B  B20  1  0.500000  0.208995  0.735207  1
  B  B21  1  0.500000  0.290850  0.234488  1
  B  B22  1  0.500000  0.709265  0.764930  1
  B  B23  1  0.500000  0.631293  0.185827  1
  B  B24  1  0.500000  0.369033  0.814710  1
  B  B25  1  0.500000  0.130545  0.313823  1
  B  B26  1  0.500000  0.868734  0.684529  1
  B  B27  1  0.500000  0.982061  0.211998  1
  B  B28  1  0.500000  0.017209  0.788089  1
  B  B29  1  0.500000  0.482640  0.287532  1
  B  B30  1  0.500000  0.516937  0.711734  1
  B  B31  1  0.500000  0.604629  0.028233  1
  B  B32  1  0.500000  0.397364  0.971136  1
  B  B33  1  0.500000  0.103421  0.471627  1
  B  B34  1  0.500000  0.896065  0.529555  1
  Ir  Ir35  1  0.000000  0.862436  0.821289  1
