# generated using pymatgen
data_LiTa4(TiB4)5
_symmetry_space_group_name_H-M   'P 1'
_cell_length_a   6.10500840
_cell_length_b   6.91915448
_cell_length_c   7.22589676
_cell_angle_alpha   93.14525339
_cell_angle_beta   102.20550430
_cell_angle_gamma   116.13430239
_symmetry_Int_Tables_number   1
_chemical_formula_structural   LiTa4(TiB4)5
_chemical_formula_sum   'Li1 Ta4 Ti5 B20'
_cell_volume   263.99590793
_cell_formula_units_Z   1
loop_
 _symmetry_equiv_pos_site_id
 _symmetry_equiv_pos_as_xyz
  1  'x, y, z'
loop_
 _atom_site_type_symbol
 _atom_site_label
 _atom_site_symmetry_multiplicity
 _atom_site_fract_x
 _atom_site_fract_y
 _atom_site_fract_z
 _atom_site_occupancy
  Li  Li0  1  0.998651  0.999218  0.001110  1
  Ta  Ta1  1  0.499634  0.999690  0.000185  1
  Ta  Ta2  1  0.499116  0.398853  0.199672  1
  Ta  Ta3  1  0.001136  0.201899  0.600746  1
  Ta  Ta4  1  0.000029  0.601849  0.799785  1
  Ti  Ti5  1  0.500044  0.800144  0.399200  1
  Ti  Ti6  1  0.000597  0.398043  0.200092  1
  Ti  Ti7  1  0.500253  0.200223  0.600059  1
  Ti  Ti8  1  0.998158  0.798179  0.399289  1
  Ti  Ti9  1  0.501501  0.601212  0.800547  1
  B  B10  1  0.332176  0.233187  0.866279  1
  B  B11  1  0.333314  0.632642  0.069453  1
  B  B12  1  0.165575  0.363597  0.936630  1
  B  B13  1  0.329893  0.030234  0.268855  1
  B  B14  1  0.165104  0.766121  0.135608  1
  B  B15  1  0.833993  0.230743  0.870531  1
  B  B16  1  0.165161  0.164783  0.331337  1
  B  B17  1  0.834669  0.636353  0.065976  1
  B  B18  1  0.333615  0.433891  0.466848  1
  B  B19  1  0.667512  0.368334  0.931121  1
  B  B20  1  0.834913  0.032460  0.265026  1
  B  B21  1  0.669499  0.768108  0.132169  1
  B  B22  1  0.334980  0.836539  0.661865  1
  B  B23  1  0.169267  0.570268  0.529189  1
  B  B24  1  0.665458  0.163437  0.335418  1
  B  B25  1  0.833389  0.434574  0.464454  1
  B  B26  1  0.165824  0.967515  0.732876  1
  B  B27  1  0.832452  0.833759  0.667892  1
  B  B28  1  0.666512  0.568216  0.533667  1
  B  B29  1  0.667576  0.965926  0.734119  1
