# generated using pymatgen
data_Ce2Np6TiS17
_symmetry_space_group_name_H-M   'P 1'
_cell_length_a   7.86611569
_cell_length_b   7.86611660
_cell_length_c   10.41151100
_cell_angle_alpha   80.55325548
_cell_angle_beta   80.55325437
_cell_angle_gamma   65.17021648
_symmetry_Int_Tables_number   1
_chemical_formula_structural   Ce2Np6TiS17
_chemical_formula_sum   'Ce2 Np6 Ti1 S17'
_cell_volume   573.46857847
_cell_formula_units_Z   1
loop_
 _symmetry_equiv_pos_site_id
 _symmetry_equiv_pos_as_xyz
  1  'x, y, z'
loop_
 _atom_site_type_symbol
 _atom_site_label
 _atom_site_symmetry_multiplicity
 _atom_site_fract_x
 _atom_site_fract_y
 _atom_site_fract_z
 _atom_site_occupancy
  Ce  Ce0  1  0.184674  0.698192  0.701792  1
  Ce  Ce1  1  0.698192  0.184674  0.701792  1
  Np  Np2  1  0.817355  0.300488  0.297666  1
  Np  Np3  1  0.300488  0.817355  0.297666  1
  Np  Np4  1  0.208727  0.208727  0.540590  1
  Np  Np5  1  0.793511  0.793511  0.457013  1
  Np  Np6  1  0.681289  0.681289  0.981353  1
  Np  Np7  1  0.319974  0.319974  0.021035  1
  Ti  Ti8  1  0.999880  0.999880  0.001114  1
  S  S9  1  0.829414  0.430305  0.528756  1
  S  S10  1  0.430305  0.829414  0.528756  1
  S  S11  1  0.176377  0.569866  0.460973  1
  S  S12  1  0.569866  0.176377  0.460973  1
  S  S13  1  0.057147  0.675939  0.975365  1
  S  S14  1  0.675939  0.057147  0.975365  1
  S  S15  1  0.939891  0.323253  0.029366  1
  S  S16  1  0.323253  0.939891  0.029366  1
  S  S17  1  0.063215  0.063215  0.772231  1
  S  S18  1  0.939640  0.939640  0.229712  1
  S  S19  1  0.208358  0.208358  0.278116  1
  S  S20  1  0.786797  0.786797  0.722301  1
  S  S21  1  0.300385  0.300385  0.756717  1
  S  S22  1  0.695535  0.695535  0.245330  1
  S  S23  1  0.519040  0.519040  0.838517  1
  S  S24  1  0.480084  0.480084  0.169843  1
  S  S25  1  0.000664  0.000664  0.498287  1
