# generated using pymatgen
data_Li2YHo17(Cd3Ru)2
_symmetry_space_group_name_H-M   'P 1'
_cell_length_a   9.42593000
_cell_length_b   9.42617418
_cell_length_c   9.69245000
_cell_angle_alpha   90.00003068
_cell_angle_beta   89.99991016
_cell_angle_gamma   120.00100659
_symmetry_Int_Tables_number   1
_chemical_formula_structural   Li2YHo17(Cd3Ru)2
_chemical_formula_sum   'Li2 Y1 Ho17 Cd6 Ru2'
_cell_volume   745.79499857
_cell_formula_units_Z   1
loop_
 _symmetry_equiv_pos_site_id
 _symmetry_equiv_pos_as_xyz
  1  'x, y, z'
loop_
 _atom_site_type_symbol
 _atom_site_label
 _atom_site_symmetry_multiplicity
 _atom_site_fract_x
 _atom_site_fract_y
 _atom_site_fract_z
 _atom_site_occupancy
  Li  Li0  1  0.999991  0.999996  0.499991  1
  Li  Li1  1  0.999991  0.999996  0.000011  1
  Y  Y2  1  0.084997  0.542499  0.750000  1
  Ho  Ho3  1  0.208431  0.791849  0.441366  1
  Ho  Ho4  1  0.208428  0.416580  0.441366  1
  Ho  Ho5  1  0.583325  0.791663  0.441529  1
  Ho  Ho6  1  0.791437  0.208148  0.558436  1
  Ho  Ho7  1  0.791437  0.583288  0.558436  1
  Ho  Ho8  1  0.416690  0.208345  0.558523  1
  Ho  Ho9  1  0.791439  0.208145  0.941563  1
  Ho  Ho10  1  0.791439  0.583293  0.941564  1
  Ho  Ho11  1  0.416687  0.208343  0.941477  1
  Ho  Ho12  1  0.208428  0.791852  0.058635  1
  Ho  Ho13  1  0.208426  0.416574  0.058633  1
  Ho  Ho14  1  0.583329  0.791665  0.058471  1
  Ho  Ho15  1  0.542440  0.457593  0.250002  1
  Ho  Ho16  1  0.542441  0.084848  0.250002  1
  Ho  Ho17  1  0.915164  0.457583  0.250002  1
  Ho  Ho18  1  0.457840  0.542360  0.749998  1
  Ho  Ho19  1  0.457841  0.915479  0.749997  1
  Cd  Cd20  1  0.891529  0.108425  0.249998  1
  Cd  Cd21  1  0.891529  0.783104  0.249998  1
  Cd  Cd22  1  0.216892  0.108447  0.249998  1
  Cd  Cd23  1  0.108481  0.891731  0.750001  1
  Cd  Cd24  1  0.108481  0.216749  0.750002  1
  Cd  Cd25  1  0.783052  0.891525  0.750002  1
  Ru  Ru26  1  0.333321  0.666661  0.250001  1
  Ru  Ru27  1  0.666513  0.333257  0.749999  1
