# generated using pymatgen
data_Hf2Mn12AsP6
_symmetry_space_group_name_H-M   'P 1'
_cell_length_a   9.24466800
_cell_length_b   9.24466784
_cell_length_c   3.53495100
_cell_angle_alpha   90.00000000
_cell_angle_beta   90.00000000
_cell_angle_gamma   120.00000868
_symmetry_Int_Tables_number   1
_chemical_formula_structural   Hf2Mn12AsP6
_chemical_formula_sum   'Hf2 Mn12 As1 P6'
_cell_volume   261.63547098
_cell_formula_units_Z   1
loop_
 _symmetry_equiv_pos_site_id
 _symmetry_equiv_pos_as_xyz
  1  'x, y, z'
loop_
 _atom_site_type_symbol
 _atom_site_label
 _atom_site_symmetry_multiplicity
 _atom_site_fract_x
 _atom_site_fract_y
 _atom_site_fract_z
 _atom_site_occupancy
  Hf  Hf0  1  0.333333  0.666667  0.000000  1
  Hf  Hf1  1  0.666667  0.333333  0.500000  1
  Mn  Mn2  1  0.429667  0.052617  0.000000  1
  Mn  Mn3  1  0.947383  0.377051  0.000000  1
  Mn  Mn4  1  0.622949  0.570333  0.000000  1
  Mn  Mn5  1  0.393529  0.438918  0.500000  1
  Mn  Mn6  1  0.561082  0.954609  0.500000  1
  Mn  Mn7  1  0.045391  0.606471  0.500000  1
  Mn  Mn8  1  0.165651  0.287369  0.000000  1
  Mn  Mn9  1  0.712631  0.878282  0.000000  1
  Mn  Mn10  1  0.121718  0.834349  0.000000  1
  Mn  Mn11  1  0.245528  0.108900  0.500000  1
  Mn  Mn12  1  0.891100  0.136627  0.500000  1
  Mn  Mn13  1  0.863373  0.754472  0.500000  1
  As  As14  1  0.000000  0.000000  0.000000  1
  P  P15  1  0.131689  0.415571  0.500000  1
  P  P16  1  0.584429  0.716118  0.500000  1
  P  P17  1  0.283882  0.868311  0.500000  1
  P  P18  1  0.418669  0.292531  0.000000  1
  P  P19  1  0.707469  0.126138  0.000000  1
  P  P20  1  0.873862  0.581331  0.000000  1
