# generated using pymatgen
data_Tb5HoErFeI12
_symmetry_space_group_name_H-M   'P 1'
_cell_length_a   9.77799676
_cell_length_b   9.78862395
_cell_length_c   9.73492574
_cell_angle_alpha   107.01847572
_cell_angle_beta   106.94441795
_cell_angle_gamma   107.11796513
_symmetry_Int_Tables_number   1
_chemical_formula_structural   Tb5HoErFeI12
_chemical_formula_sum   'Tb5 Ho1 Er1 Fe1 I12'
_cell_volume   775.40622161
_cell_formula_units_Z   1
loop_
 _symmetry_equiv_pos_site_id
 _symmetry_equiv_pos_as_xyz
  1  'x, y, z'
loop_
 _atom_site_type_symbol
 _atom_site_label
 _atom_site_symmetry_multiplicity
 _atom_site_fract_x
 _atom_site_fract_y
 _atom_site_fract_z
 _atom_site_occupancy
  Tb  Tb0  1  0.021751  0.089784  0.279910  1
  Tb  Tb1  1  0.293679  0.022505  0.093614  1
  Tb  Tb2  1  0.905345  0.705644  0.978201  1
  Tb  Tb3  1  0.978701  0.910997  0.720058  1
  Tb  Tb4  1  0.706794  0.977264  0.906644  1
  Ho  Ho5  1  0.093604  0.290770  0.021632  1
  Er  Er6  1  0.499873  0.500504  0.499676  1
  Fe  Fe7  1  0.000155  0.999510  0.999978  1
  I  I8  1  0.464437  0.388473  0.162551  1
  I  I9  1  0.162514  0.462529  0.385258  1
  I  I10  1  0.386132  0.164048  0.464490  1
  I  I11  1  0.533526  0.611511  0.836193  1
  I  I12  1  0.837014  0.537618  0.612672  1
  I  I13  1  0.614045  0.837002  0.535890  1
  I  I14  1  0.775954  0.321477  0.928977  1
  I  I15  1  0.929451  0.776857  0.320654  1
  I  I16  1  0.318761  0.927327  0.772716  1
  I  I17  1  0.225630  0.677541  0.071430  1
  I  I18  1  0.071024  0.225282  0.681917  1
  I  I19  1  0.681611  0.073359  0.227537  1
