# generated using pymatgen
data_Dy4Y16Ir11Os
_symmetry_space_group_name_H-M   'P 1'
_cell_length_a   10.90011500
_cell_length_b   10.90011500
_cell_length_c   6.40950200
_cell_angle_alpha   90.00000000
_cell_angle_beta   90.00000000
_cell_angle_gamma   90.00000000
_symmetry_Int_Tables_number   1
_chemical_formula_structural   Dy4Y16Ir11Os
_chemical_formula_sum   'Dy4 Y16 Ir11 Os1'
_cell_volume   761.52900133
_cell_formula_units_Z   1
loop_
 _symmetry_equiv_pos_site_id
 _symmetry_equiv_pos_as_xyz
  1  'x, y, z'
loop_
 _atom_site_type_symbol
 _atom_site_label
 _atom_site_symmetry_multiplicity
 _atom_site_fract_x
 _atom_site_fract_y
 _atom_site_fract_z
 _atom_site_occupancy
  Dy  Dy0  1  0.000000  0.000000  0.499369  1
  Dy  Dy1  1  0.000000  0.000000  0.999239  1
  Dy  Dy2  1  0.500000  0.500000  0.999239  1
  Dy  Dy3  1  0.500000  0.500000  0.499369  1
  Y  Y4  1  0.292595  0.087311  0.376595  1
  Y  Y5  1  0.293124  0.912743  0.880411  1
  Y  Y6  1  0.706876  0.087257  0.880411  1
  Y  Y7  1  0.707405  0.912689  0.376595  1
  Y  Y8  1  0.587257  0.793124  0.880411  1
  Y  Y9  1  0.587311  0.207405  0.376595  1
  Y  Y10  1  0.412689  0.792595  0.376595  1
  Y  Y11  1  0.412743  0.206876  0.880411  1
  Y  Y12  1  0.208898  0.411599  0.621476  1
  Y  Y13  1  0.208817  0.588152  0.121161  1
  Y  Y14  1  0.791183  0.411848  0.121161  1
  Y  Y15  1  0.791102  0.588401  0.621476  1
  Y  Y16  1  0.911848  0.708817  0.121161  1
  Y  Y17  1  0.911599  0.291102  0.621476  1
  Y  Y18  1  0.088401  0.708898  0.621476  1
  Y  Y19  1  0.088152  0.291183  0.121161  1
  Ir  Ir20  1  0.848233  0.153220  0.250239  1
  Ir  Ir21  1  0.848202  0.847083  0.749837  1
  Ir  Ir22  1  0.151798  0.152917  0.749837  1
  Ir  Ir23  1  0.151767  0.846780  0.250239  1
  Ir  Ir24  1  0.652917  0.348202  0.749837  1
  Ir  Ir25  1  0.653220  0.651767  0.250239  1
  Ir  Ir26  1  0.346780  0.348233  0.250239  1
  Ir  Ir27  1  0.347083  0.651798  0.749837  1
  Ir  Ir28  1  0.500000  0.000000  0.624558  1
  Ir  Ir29  1  0.000000  0.500000  0.876318  1
  Ir  Ir30  1  0.000000  0.500000  0.376623  1
  Os  Os31  1  0.500000  0.000000  0.126402  1
