# generated using pymatgen
data_V12Ga2SiSe24
_symmetry_space_group_name_H-M   'P 1'
_cell_length_a   12.50060379
_cell_length_b   12.50060342
_cell_length_c   12.50060330
_cell_angle_alpha   146.33057028
_cell_angle_beta   131.76539814
_cell_angle_gamma   60.11028387
_symmetry_Int_Tables_number   1
_chemical_formula_structural   V12Ga2SiSe24
_chemical_formula_sum   'V12 Ga2 Si1 Se24'
_cell_volume   800.31879816
_cell_formula_units_Z   1
loop_
 _symmetry_equiv_pos_site_id
 _symmetry_equiv_pos_as_xyz
  1  'x, y, z'
loop_
 _atom_site_type_symbol
 _atom_site_label
 _atom_site_symmetry_multiplicity
 _atom_site_fract_x
 _atom_site_fract_y
 _atom_site_fract_z
 _atom_site_occupancy
  V  V0  1  0.936032  0.127380  0.397113  1
  V  V1  1  0.269733  0.461081  0.397113  1
  V  V2  1  0.603381  0.794033  0.397413  1
  V  V3  1  0.799420  0.401281  0.398139  1
  V  V4  1  0.131986  0.736031  0.395955  1
  V  V5  1  0.465682  0.068594  0.397087  1
  V  V6  1  0.659923  0.263969  0.395955  1
  V  V7  1  0.996858  0.598719  0.398139  1
  V  V8  1  0.328493  0.931406  0.397087  1
  V  V9  1  0.936032  0.538919  0.808651  1
  V  V10  1  0.269733  0.872620  0.808651  1
  V  V11  1  0.603381  0.205967  0.809348  1
  Ga  Ga12  1  0.333659  0.333675  0.999983  1
  Ga  Ga13  1  0.666308  0.666325  0.999983  1
  Si  Si14  1  0.000118  0.000000  0.000118  1
  Se  Se15  1  0.700871  0.595331  0.630824  1
  Se  Se16  1  0.035493  0.929953  0.630824  1
  Se  Se17  1  0.369902  0.264119  0.634021  1
  Se  Se18  1  0.875814  0.245199  0.630615  1
  Se  Se19  1  0.211122  0.579121  0.632001  1
  Se  Se20  1  0.542595  0.911923  0.630672  1
  Se  Se21  1  0.052879  0.420879  0.632001  1
  Se  Se22  1  0.385415  0.754801  0.630615  1
  Se  Se23  1  0.718749  0.088077  0.630672  1
  Se  Se24  1  0.700871  0.070047  0.105540  1
  Se  Se25  1  0.035493  0.404669  0.105540  1
  Se  Se26  1  0.369902  0.735881  0.105783  1
  Se  Se27  1  0.194931  0.609537  0.136620  1
  Se  Se28  1  0.527083  0.941689  0.136620  1
  Se  Se29  1  0.866978  0.266642  0.133619  1
  Se  Se30  1  0.044170  0.911191  0.132979  1
  Se  Se31  1  0.378078  0.240790  0.137288  1
  Se  Se32  1  0.715087  0.574256  0.140831  1
  Se  Se33  1  0.896497  0.759210  0.137288  1
  Se  Se34  1  0.221788  0.088809  0.132979  1
  Se  Se35  1  0.566575  0.425744  0.140831  1
  Se  Se36  1  0.194931  0.058311  0.585395  1
  Se  Se37  1  0.527083  0.390463  0.585395  1
  Se  Se38  1  0.866978  0.733358  0.600336  1
