# generated using pymatgen
data_Ho2Mn3Co9Si5P2
_symmetry_space_group_name_H-M   'P 1'
_cell_length_a   9.18178023
_cell_length_b   9.16716961
_cell_length_c   3.61835400
_cell_angle_alpha   90.00000000
_cell_angle_beta   90.00000000
_cell_angle_gamma   119.90998008
_symmetry_Int_Tables_number   1
_chemical_formula_structural   Ho2Mn3Co9Si5P2
_chemical_formula_sum   'Ho2 Mn3 Co9 Si5 P2'
_cell_volume   263.99583777
_cell_formula_units_Z   1
loop_
 _symmetry_equiv_pos_site_id
 _symmetry_equiv_pos_as_xyz
  1  'x, y, z'
loop_
 _atom_site_type_symbol
 _atom_site_label
 _atom_site_symmetry_multiplicity
 _atom_site_fract_x
 _atom_site_fract_y
 _atom_site_fract_z
 _atom_site_occupancy
  Ho  Ho0  1  0.669383  0.335028  0.000000  1
  Ho  Ho1  1  0.333996  0.669104  0.500000  1
  Mn  Mn2  1  0.104498  0.223643  0.500000  1
  Mn  Mn3  1  0.777574  0.878374  0.500000  1
  Mn  Mn4  1  0.114598  0.893624  0.500000  1
  Co  Co5  1  0.053904  0.428836  0.000000  1
  Co  Co6  1  0.571193  0.625984  0.000000  1
  Co  Co7  1  0.373385  0.943354  0.000000  1
  Co  Co8  1  0.276781  0.154942  0.000000  1
  Co  Co9  1  0.846918  0.125993  0.000000  1
  Co  Co10  1  0.873519  0.717844  0.000000  1
  Co  Co11  1  0.439687  0.387839  0.500000  1
  Co  Co12  1  0.621819  0.056265  0.500000  1
  Co  Co13  1  0.943074  0.559584  0.500000  1
  Si  Si14  1  0.296974  0.409285  0.000000  1
  Si  Si15  1  0.593026  0.889417  0.000000  1
  Si  Si16  1  0.110997  0.702946  0.000000  1
  Si  Si17  1  0.405574  0.115301  0.500000  1
  Si  Si18  1  0.999032  0.998378  0.000000  1
  P  P19  1  0.885158  0.290008  0.500000  1
  P  P20  1  0.708910  0.594252  0.500000  1
