# generated using pymatgen
data_Y10SnPb5Cl2
_symmetry_space_group_name_H-M   'P 1'
_cell_length_a   9.20351127
_cell_length_b   9.20351055
_cell_length_c   6.63479900
_cell_angle_alpha   90.00000000
_cell_angle_beta   90.00000000
_cell_angle_gamma   119.97207529
_symmetry_Int_Tables_number   1
_chemical_formula_structural   Y10SnPb5Cl2
_chemical_formula_sum   'Y10 Sn1 Pb5 Cl2'
_cell_volume   486.84151121
_cell_formula_units_Z   1
loop_
 _symmetry_equiv_pos_site_id
 _symmetry_equiv_pos_as_xyz
  1  'x, y, z'
loop_
 _atom_site_type_symbol
 _atom_site_label
 _atom_site_symmetry_multiplicity
 _atom_site_fract_x
 _atom_site_fract_y
 _atom_site_fract_z
 _atom_site_occupancy
  Y  Y0  1  0.262041  0.262041  0.750000  1
  Y  Y1  1  0.000160  0.739080  0.750000  1
  Y  Y2  1  0.739080  0.000160  0.750000  1
  Y  Y3  1  0.002726  0.261704  0.250000  1
  Y  Y4  1  0.333690  0.665072  0.498612  1
  Y  Y5  1  0.736907  0.736907  0.250000  1
  Y  Y6  1  0.665072  0.333690  0.498612  1
  Y  Y7  1  0.261704  0.002726  0.250000  1
  Y  Y8  1  0.333690  0.665072  0.001388  1
  Y  Y9  1  0.665072  0.333690  0.001388  1
  Sn  Sn10  1  0.389224  0.389224  0.250000  1
  Pb  Pb11  1  0.611222  0.000063  0.250000  1
  Pb  Pb12  1  0.999741  0.388809  0.750000  1
  Pb  Pb13  1  0.388809  0.999741  0.750000  1
  Pb  Pb14  1  0.611058  0.611058  0.750000  1
  Pb  Pb15  1  0.000063  0.611222  0.250000  1
  Cl  Cl16  1  0.999871  0.999871  0.999868  1
  Cl  Cl17  1  0.999871  0.999871  0.500132  1
