# generated using pymatgen
data_Dy8HoTh3(Si2Ni)4
_symmetry_space_group_name_H-M   'P 1'
_cell_length_a   4.18207900
_cell_length_b   11.50945539
_cell_length_c   11.32141542
_cell_angle_alpha   89.56157448
_cell_angle_beta   90.00000000
_cell_angle_gamma   90.00000000
_symmetry_Int_Tables_number   1
_chemical_formula_structural   Dy8HoTh3(Si2Ni)4
_chemical_formula_sum   'Dy8 Ho1 Th3 Si8 Ni4'
_cell_volume   544.92284841
_cell_formula_units_Z   1
loop_
 _symmetry_equiv_pos_site_id
 _symmetry_equiv_pos_as_xyz
  1  'x, y, z'
loop_
 _atom_site_type_symbol
 _atom_site_label
 _atom_site_symmetry_multiplicity
 _atom_site_fract_x
 _atom_site_fract_y
 _atom_site_fract_z
 _atom_site_occupancy
  Dy  Dy0  1  0.250000  0.120522  0.562823  1
  Dy  Dy1  1  0.250000  0.379680  0.060448  1
  Dy  Dy2  1  0.750000  0.874682  0.438500  1
  Dy  Dy3  1  0.750000  0.622103  0.935773  1
  Dy  Dy4  1  0.250000  0.801554  0.709445  1
  Dy  Dy5  1  0.250000  0.691895  0.210370  1
  Dy  Dy6  1  0.750000  0.197256  0.291615  1
  Dy  Dy7  1  0.750000  0.311909  0.790843  1
  Ho  Ho8  1  0.750000  0.558511  0.615273  1
  Th  Th9  1  0.250000  0.061584  0.883096  1
  Th  Th10  1  0.250000  0.439128  0.386140  1
  Th  Th11  1  0.750000  0.940031  0.116461  1
  Si  Si12  1  0.250000  0.805907  0.970501  1
  Si  Si13  1  0.250000  0.689220  0.472180  1
  Si  Si14  1  0.750000  0.195093  0.029067  1
  Si  Si15  1  0.750000  0.308248  0.532656  1
  Si  Si16  1  0.250000  0.495909  0.799867  1
  Si  Si17  1  0.250000  0.014573  0.308370  1
  Si  Si18  1  0.750000  0.508591  0.193951  1
  Si  Si19  1  0.750000  0.984361  0.692452  1
  Ni  Ni20  1  0.250000  0.363069  0.630338  1
  Ni  Ni21  1  0.250000  0.136335  0.129733  1
  Ni  Ni22  1  0.750000  0.633419  0.368416  1
  Ni  Ni23  1  0.750000  0.866418  0.871683  1
