# generated using pymatgen
data_Pr12Os3Ru
_symmetry_space_group_name_H-M   'P 1'
_cell_length_a   6.58658412
_cell_length_b   7.53271580
_cell_length_c   9.79573600
_cell_angle_alpha   90.00000000
_cell_angle_beta   90.00000000
_cell_angle_gamma   90.03737172
_symmetry_Int_Tables_number   1
_chemical_formula_structural   Pr12Os3Ru
_chemical_formula_sum   'Pr12 Os3 Ru1'
_cell_volume   486.01402814
_cell_formula_units_Z   1
loop_
 _symmetry_equiv_pos_site_id
 _symmetry_equiv_pos_as_xyz
  1  'x, y, z'
loop_
 _atom_site_type_symbol
 _atom_site_label
 _atom_site_symmetry_multiplicity
 _atom_site_fract_x
 _atom_site_fract_y
 _atom_site_fract_z
 _atom_site_occupancy
  Pr  Pr0  1  0.329073  0.674554  0.067035  1
  Pr  Pr1  1  0.172008  0.175485  0.432845  1
  Pr  Pr2  1  0.672706  0.324590  0.567751  1
  Pr  Pr3  1  0.826574  0.824650  0.931585  1
  Pr  Pr4  1  0.672706  0.324590  0.932249  1
  Pr  Pr5  1  0.826574  0.824650  0.568415  1
  Pr  Pr6  1  0.329073  0.674554  0.432965  1
  Pr  Pr7  1  0.172008  0.175485  0.067155  1
  Pr  Pr8  1  0.857125  0.540672  0.250000  1
  Pr  Pr9  1  0.643251  0.041820  0.250000  1
  Pr  Pr10  1  0.142688  0.459802  0.750000  1
  Pr  Pr11  1  0.356171  0.959346  0.750000  1
  Os  Os12  1  0.446906  0.385053  0.250000  1
  Os  Os13  1  0.948660  0.114541  0.750000  1
  Os  Os14  1  0.551792  0.614990  0.750000  1
  Ru  Ru15  1  0.052683  0.885219  0.250000  1
