# generated using pymatgen
data_Lu4Sb6Ru4Rh3
_symmetry_space_group_name_H-M   'P 1'
_cell_length_a   7.51218164
_cell_length_b   7.51218157
_cell_length_c   7.51820900
_cell_angle_alpha   109.48747752
_cell_angle_beta   109.48747735
_cell_angle_gamma   109.45495920
_symmetry_Int_Tables_number   1
_chemical_formula_structural   Lu4Sb6Ru4Rh3
_chemical_formula_sum   'Lu4 Sb6 Ru4 Rh3'
_cell_volume   326.54082610
_cell_formula_units_Z   1
loop_
 _symmetry_equiv_pos_site_id
 _symmetry_equiv_pos_as_xyz
  1  'x, y, z'
loop_
 _atom_site_type_symbol
 _atom_site_label
 _atom_site_symmetry_multiplicity
 _atom_site_fract_x
 _atom_site_fract_y
 _atom_site_fract_z
 _atom_site_occupancy
  Lu  Lu0  1  0.000000  0.000000  0.500000  1
  Lu  Lu1  1  0.003165  0.501583  0.001583  1
  Lu  Lu2  1  0.498417  0.996835  0.998417  1
  Lu  Lu3  1  0.498417  0.501583  0.500000  1
  Sb  Sb4  1  0.684754  0.686977  0.999916  1
  Sb  Sb5  1  0.313023  0.997777  0.312940  1
  Sb  Sb6  1  0.002223  0.315246  0.315162  1
  Sb  Sb7  1  0.313023  0.315246  0.000084  1
  Sb  Sb8  1  0.684754  0.997777  0.684838  1
  Sb  Sb9  1  0.002223  0.686977  0.687060  1
  Ru  Ru10  1  0.250225  0.500449  0.750225  1
  Ru  Ru11  1  0.250225  0.749775  0.500000  1
  Ru  Ru12  1  0.499551  0.749775  0.249775  1
  Ru  Ru13  1  0.000000  0.000000  0.000000  1
  Rh  Rh14  1  0.750308  0.249692  0.500000  1
  Rh  Rh15  1  0.750308  0.500617  0.250308  1
  Rh  Rh16  1  0.499383  0.249692  0.749692  1
