# generated using pymatgen
data_ZrTaNb5Cl18
_symmetry_space_group_name_H-M   'P 1'
_cell_length_a   10.09911801
_cell_length_b   10.10438919
_cell_length_c   10.10252602
_cell_angle_alpha   56.02883417
_cell_angle_beta   56.00372563
_cell_angle_gamma   56.02326776
_symmetry_Int_Tables_number   1
_chemical_formula_structural   ZrTaNb5Cl18
_chemical_formula_sum   'Zr1 Ta1 Nb5 Cl18'
_cell_volume   661.73569795
_cell_formula_units_Z   1
loop_
 _symmetry_equiv_pos_site_id
 _symmetry_equiv_pos_as_xyz
  1  'x, y, z'
loop_
 _atom_site_type_symbol
 _atom_site_label
 _atom_site_symmetry_multiplicity
 _atom_site_fract_x
 _atom_site_fract_y
 _atom_site_fract_z
 _atom_site_occupancy
  Zr  Zr0  1  0.999569  0.999908  0.000193  1
  Ta  Ta1  1  0.408498  0.303399  0.648338  1
  Nb  Nb2  1  0.351482  0.591745  0.696956  1
  Nb  Nb3  1  0.697260  0.351546  0.591391  1
  Nb  Nb4  1  0.302993  0.648826  0.408284  1
  Nb  Nb5  1  0.648760  0.408648  0.302703  1
  Nb  Nb6  1  0.591781  0.697418  0.351110  1
  Cl  Cl7  1  0.566240  0.158022  0.445374  1
  Cl  Cl8  1  0.222245  0.368081  0.910904  1
  Cl  Cl9  1  0.912872  0.220853  0.370007  1
  Cl  Cl10  1  0.370074  0.912650  0.221097  1
  Cl  Cl11  1  0.779076  0.629961  0.087244  1
  Cl  Cl12  1  0.087064  0.779004  0.630107  1
  Cl  Cl13  1  0.718167  0.963672  0.149878  1
  Cl  Cl14  1  0.963101  0.149618  0.718617  1
  Cl  Cl15  1  0.150251  0.718608  0.963117  1
  Cl  Cl16  1  0.283158  0.039500  0.847819  1
  Cl  Cl17  1  0.037033  0.849831  0.281428  1
  Cl  Cl18  1  0.849874  0.281160  0.037228  1
  Cl  Cl19  1  0.557646  0.431496  0.842326  1
  Cl  Cl20  1  0.159790  0.439572  0.570188  1
  Cl  Cl21  1  0.442288  0.568418  0.157745  1
  Cl  Cl22  1  0.431605  0.842114  0.557657  1
  Cl  Cl23  1  0.842246  0.557663  0.431557  1
  Cl  Cl24  1  0.626929  0.088287  0.778732  1
