# generated using pymatgen
data_Pr4Al3RuI2
_symmetry_space_group_name_H-M   'P 1'
_cell_length_a   4.34697500
_cell_length_b   4.34697581
_cell_length_c   17.56674800
_cell_angle_alpha   90.00000000
_cell_angle_beta   90.00000000
_cell_angle_gamma   119.99998625
_symmetry_Int_Tables_number   1
_chemical_formula_structural   Pr4Al3RuI2
_chemical_formula_sum   'Pr4 Al3 Ru1 I2'
_cell_volume   287.47258138
_cell_formula_units_Z   1
loop_
 _symmetry_equiv_pos_site_id
 _symmetry_equiv_pos_as_xyz
  1  'x, y, z'
loop_
 _atom_site_type_symbol
 _atom_site_label
 _atom_site_symmetry_multiplicity
 _atom_site_fract_x
 _atom_site_fract_y
 _atom_site_fract_z
 _atom_site_occupancy
  Pr  Pr0  1  0.000000  0.000000  0.606795  1
  Pr  Pr1  1  0.000000  0.000000  0.394519  1
  Pr  Pr2  1  0.000000  0.000000  0.118069  1
  Pr  Pr3  1  0.000000  0.000000  0.881027  1
  Al  Al4  1  0.666667  0.333333  0.500644  1
  Al  Al5  1  0.333333  0.666667  0.006770  1
  Al  Al6  1  0.666667  0.333333  0.992507  1
  Ru  Ru7  1  0.333333  0.666667  0.500023  1
  I  I8  1  0.666667  0.333333  0.248063  1
  I  I9  1  0.333333  0.666667  0.751583  1
