# generated using pymatgen
data_Dy7Y9Cd4OsPt3
_symmetry_space_group_name_H-M   'P 1'
_cell_length_a   9.72759653
_cell_length_b   9.72889298
_cell_length_c   9.73893498
_cell_angle_alpha   59.42983877
_cell_angle_beta   59.50162100
_cell_angle_gamma   59.54421723
_symmetry_Int_Tables_number   1
_chemical_formula_structural   Dy7Y9Cd4OsPt3
_chemical_formula_sum   'Dy7 Y9 Cd4 Os1 Pt3'
_cell_volume   644.19371635
_cell_formula_units_Z   1
loop_
 _symmetry_equiv_pos_site_id
 _symmetry_equiv_pos_as_xyz
  1  'x, y, z'
loop_
 _atom_site_type_symbol
 _atom_site_label
 _atom_site_symmetry_multiplicity
 _atom_site_fract_x
 _atom_site_fract_y
 _atom_site_fract_z
 _atom_site_occupancy
  Dy  Dy0  1  0.351689  0.351877  0.351668  1
  Dy  Dy1  1  0.349200  0.349279  0.949528  1
  Dy  Dy2  1  0.349663  0.948759  0.349462  1
  Dy  Dy3  1  0.949263  0.349448  0.349193  1
  Dy  Dy4  1  0.814567  0.189000  0.189032  1
  Dy  Dy5  1  0.189030  0.809770  0.809532  1
  Dy  Dy6  1  0.189029  0.814621  0.189136  1
  Y  Y7  1  0.809387  0.189048  0.809367  1
  Y  Y8  1  0.189275  0.189337  0.813896  1
  Y  Y9  1  0.809274  0.809536  0.189068  1
  Y  Y10  1  0.935913  0.564949  0.564690  1
  Y  Y11  1  0.558322  0.937551  0.937771  1
  Y  Y12  1  0.564506  0.936268  0.564711  1
  Y  Y13  1  0.937676  0.558500  0.937740  1
  Y  Y14  1  0.564375  0.564826  0.936374  1
  Y  Y15  1  0.937970  0.937789  0.557925  1
  Cd  Cd16  1  0.580536  0.580164  0.580163  1
  Cd  Cd17  1  0.581250  0.581297  0.254664  1
  Cd  Cd18  1  0.581001  0.254667  0.581378  1
  Cd  Cd19  1  0.254759  0.580885  0.581210  1
  Os  Os20  1  0.142600  0.142695  0.144834  1
  Pt  Pt21  1  0.144503  0.142884  0.571249  1
  Pt  Pt22  1  0.144818  0.572197  0.142985  1
  Pt  Pt23  1  0.571397  0.144656  0.144426  1
