# generated using pymatgen
data_YEr17(TmSn8)2
_symmetry_space_group_name_H-M   'P 1'
_cell_length_a   7.98213105
_cell_length_b   8.10724972
_cell_length_c   15.33832500
_cell_angle_alpha   90.00397885
_cell_angle_beta   89.93557021
_cell_angle_gamma   89.96288035
_symmetry_Int_Tables_number   1
_chemical_formula_structural   YEr17(TmSn8)2
_chemical_formula_sum   'Y1 Er17 Tm2 Sn16'
_cell_volume   992.59017685
_cell_formula_units_Z   1
loop_
 _symmetry_equiv_pos_site_id
 _symmetry_equiv_pos_as_xyz
  1  'x, y, z'
loop_
 _atom_site_type_symbol
 _atom_site_label
 _atom_site_symmetry_multiplicity
 _atom_site_fract_x
 _atom_site_fract_y
 _atom_site_fract_z
 _atom_site_occupancy
  Y  Y0  1  0.021612  0.179738  0.902960  1
  Er  Er1  1  0.368079  0.837056  0.877437  1
  Er  Er2  1  0.868389  0.662982  0.622184  1
  Er  Er3  1  0.631446  0.162795  0.377301  1
  Er  Er4  1  0.132050  0.337302  0.123009  1
  Er  Er5  1  0.632084  0.162870  0.122941  1
  Er  Er6  1  0.131477  0.337197  0.377337  1
  Er  Er7  1  0.368573  0.837037  0.622306  1
  Er  Er8  1  0.868216  0.662908  0.877535  1
  Er  Er9  1  0.522030  0.321060  0.903063  1
  Er  Er10  1  0.022397  0.179189  0.597166  1
  Er  Er11  1  0.477680  0.679003  0.402716  1
  Er  Er12  1  0.978130  0.820647  0.097241  1
  Er  Er13  1  0.478029  0.679087  0.097258  1
  Er  Er14  1  0.977705  0.820990  0.402769  1
  Er  Er15  1  0.522234  0.320986  0.596832  1
  Er  Er16  1  0.199064  0.503705  0.749741  1
  Er  Er17  1  0.698778  0.996315  0.749729  1
  Tm  Tm18  1  0.801196  0.496403  0.250125  1
  Tm  Tm19  1  0.301276  0.003493  0.250145  1
  Sn  Sn20  1  0.293066  0.035920  0.042359  1
  Sn  Sn21  1  0.791896  0.463608  0.458188  1
  Sn  Sn22  1  0.708015  0.963738  0.541319  1
  Sn  Sn23  1  0.208089  0.537183  0.958820  1
  Sn  Sn24  1  0.706300  0.962586  0.958860  1
  Sn  Sn25  1  0.208021  0.536431  0.541299  1
  Sn  Sn26  1  0.291974  0.036319  0.458196  1
  Sn  Sn27  1  0.792266  0.463454  0.041863  1
  Sn  Sn28  1  0.565532  0.618342  0.749919  1
  Sn  Sn29  1  0.065460  0.881292  0.749773  1
  Sn  Sn30  1  0.434952  0.381681  0.250161  1
  Sn  Sn31  1  0.935089  0.118301  0.250179  1
  Sn  Sn32  1  0.332440  0.149073  0.749808  1
  Sn  Sn33  1  0.830988  0.351388  0.749360  1
  Sn  Sn34  1  0.667710  0.850243  0.250022  1
  Sn  Sn35  1  0.167756  0.649679  0.250084  1
