# generated using pymatgen
data_Nd4MnFe6RhO20
_symmetry_space_group_name_H-M   'P 1'
_cell_length_a   5.91864600
_cell_length_b   7.63000685
_cell_length_c   8.75867755
_cell_angle_alpha   89.75196052
_cell_angle_beta   90.00000000
_cell_angle_gamma   90.00000000
_symmetry_Int_Tables_number   1
_chemical_formula_structural   Nd4MnFe6RhO20
_chemical_formula_sum   'Nd4 Mn1 Fe6 Rh1 O20'
_cell_volume   395.53212394
_cell_formula_units_Z   1
loop_
 _symmetry_equiv_pos_site_id
 _symmetry_equiv_pos_as_xyz
  1  'x, y, z'
loop_
 _atom_site_type_symbol
 _atom_site_label
 _atom_site_symmetry_multiplicity
 _atom_site_fract_x
 _atom_site_fract_y
 _atom_site_fract_z
 _atom_site_occupancy
  Nd  Nd0  1  0.999950  0.357981  0.668948  1
  Nd  Nd1  1  0.999950  0.642019  0.331052  1
  Nd  Nd2  1  0.005202  0.866059  0.828042  1
  Nd  Nd3  1  0.005202  0.133941  0.171958  1
  Mn  Mn4  1  0.251511  0.000000  0.500000  1
  Fe  Fe5  1  0.502622  0.106582  0.854675  1
  Fe  Fe6  1  0.502622  0.893418  0.145325  1
  Fe  Fe7  1  0.494681  0.610553  0.641212  1
  Fe  Fe8  1  0.494681  0.389447  0.358788  1
  Fe  Fe9  1  0.250577  0.500000  0.000000  1
  Fe  Fe10  1  0.746227  0.000000  0.500000  1
  Rh  Rh11  1  0.744468  0.500000  0.000000  1
  O  O12  1  0.247946  0.900366  0.294337  1
  O  O13  1  0.247946  0.099634  0.705663  1
  O  O14  1  0.753847  0.398024  0.208960  1
  O  O15  1  0.753847  0.601976  0.791040  1
  O  O16  1  0.754858  0.099166  0.709737  1
  O  O17  1  0.754858  0.900834  0.290263  1
  O  O18  1  0.247581  0.597941  0.792604  1
  O  O19  1  0.247581  0.402059  0.207396  1
  O  O20  1  0.501336  0.342264  0.929510  1
  O  O21  1  0.501336  0.657736  0.070490  1
  O  O22  1  0.490515  0.845272  0.569184  1
  O  O23  1  0.490515  0.154728  0.430816  1
  O  O24  1  0.277785  0.000000  0.000000  1
  O  O25  1  0.720970  0.500000  0.500000  1
  O  O26  1  0.726198  0.000000  0.000000  1
  O  O27  1  0.273029  0.500000  0.500000  1
  O  O28  1  0.010235  0.160085  0.445946  1
  O  O29  1  0.010235  0.839915  0.554054  1
  O  O30  1  0.995844  0.664585  0.055208  1
  O  O31  1  0.995844  0.335415  0.944792  1
