# generated using pymatgen
data_MnTcF6
_symmetry_space_group_name_H-M   'P 1'
_cell_length_a   5.74289566
_cell_length_b   5.74288653
_cell_length_c   5.74289721
_cell_angle_alpha   58.83225494
_cell_angle_beta   58.83210816
_cell_angle_gamma   58.83230054
_symmetry_Int_Tables_number   1
_chemical_formula_structural   MnTcF6
_chemical_formula_sum   'Mn1 Tc1 F6'
_cell_volume   130.35875640
_cell_formula_units_Z   1
loop_
 _symmetry_equiv_pos_site_id
 _symmetry_equiv_pos_as_xyz
  1  'x, y, z'
loop_
 _atom_site_type_symbol
 _atom_site_label
 _atom_site_symmetry_multiplicity
 _atom_site_fract_x
 _atom_site_fract_y
 _atom_site_fract_z
 _atom_site_occupancy
  Mn  Mn0  1  0.000000  0.000000  0.000000  1
  Tc  Tc1  1  0.500000  0.500000  0.500000  1
  F  F2  1  0.807271  0.672685  0.260115  1
  F  F3  1  0.192729  0.327315  0.739885  1
  F  F4  1  0.260114  0.807271  0.672684  1
  F  F5  1  0.672685  0.260113  0.807272  1
  F  F6  1  0.739886  0.192729  0.327316  1
  F  F7  1  0.327315  0.739887  0.192728  1
