# generated using pymatgen
data_Y4BeBr6
_symmetry_space_group_name_H-M   'P 1'
_cell_length_a   3.96495600
_cell_length_b   13.29708900
_cell_length_c   14.01507700
_cell_angle_alpha   90.00000000
_cell_angle_beta   90.00000000
_cell_angle_gamma   90.00000000
_symmetry_Int_Tables_number   1
_chemical_formula_structural   Y4BeBr6
_chemical_formula_sum   'Y8 Be2 Br12'
_cell_volume   738.90811460
_cell_formula_units_Z   2
loop_
 _symmetry_equiv_pos_site_id
 _symmetry_equiv_pos_as_xyz
  1  'x, y, z'
loop_
 _atom_site_type_symbol
 _atom_site_label
 _atom_site_symmetry_multiplicity
 _atom_site_fract_x
 _atom_site_fract_y
 _atom_site_fract_z
 _atom_site_occupancy
  Y  Y0  1  0.500000  0.115951  0.344486  1
  Y  Y1  1  0.500000  0.884049  0.655514  1
  Y  Y2  1  0.500000  0.615951  0.155514  1
  Y  Y3  1  0.500000  0.384049  0.844486  1
  Y  Y4  1  0.000000  0.117680  0.578802  1
  Y  Y5  1  0.000000  0.882320  0.421198  1
  Y  Y6  1  0.000000  0.617680  0.921198  1
  Y  Y7  1  0.000000  0.382320  0.078802  1
  Be  Be8  1  0.500000  0.000000  0.500000  1
  Be  Be9  1  0.500000  0.500000  0.000000  1
  Br  Br10  1  0.500000  0.243827  0.162647  1
  Br  Br11  1  0.500000  0.756173  0.837353  1
  Br  Br12  1  0.500000  0.743827  0.337353  1
  Br  Br13  1  0.500000  0.256173  0.662647  1
  Br  Br14  1  0.000000  0.257593  0.411716  1
  Br  Br15  1  0.000000  0.742407  0.588284  1
  Br  Br16  1  0.000000  0.757593  0.088284  1
  Br  Br17  1  0.000000  0.242407  0.911716  1
  Br  Br18  1  0.000000  0.000807  0.240966  1
  Br  Br19  1  0.000000  0.999193  0.759034  1
  Br  Br20  1  0.000000  0.500807  0.259034  1
  Br  Br21  1  0.000000  0.499193  0.740966  1
