# generated using pymatgen
data_Ho4Er3Tm(WO6)4
_symmetry_space_group_name_H-M   'P 1'
_cell_length_a   5.36896806
_cell_length_b   7.67027284
_cell_length_c   11.40133210
_cell_angle_alpha   75.40694035
_cell_angle_beta   89.99308399
_cell_angle_gamma   89.98257781
_symmetry_Int_Tables_number   1
_chemical_formula_structural   Ho4Er3Tm(WO6)4
_chemical_formula_sum   'Ho4 Er3 Tm1 W4 O24'
_cell_volume   454.37639885
_cell_formula_units_Z   1
loop_
 _symmetry_equiv_pos_site_id
 _symmetry_equiv_pos_as_xyz
  1  'x, y, z'
loop_
 _atom_site_type_symbol
 _atom_site_label
 _atom_site_symmetry_multiplicity
 _atom_site_fract_x
 _atom_site_fract_y
 _atom_site_fract_z
 _atom_site_occupancy
  Ho  Ho0  1  0.740679  0.000097  0.749616  1
  Ho  Ho1  1  0.259391  0.000213  0.250456  1
  Ho  Ho2  1  0.684204  0.499888  0.749860  1
  Ho  Ho3  1  0.316098  0.499755  0.250390  1
  Er  Er4  1  0.183501  0.794461  0.578281  1
  Er  Er5  1  0.816285  0.794211  0.078492  1
  Er  Er6  1  0.183994  0.205638  0.921622  1
  Tm  Tm7  1  0.816539  0.206267  0.421304  1
  W  W8  1  0.255839  0.723316  0.885609  1
  W  W9  1  0.744056  0.723349  0.385501  1
  W  W10  1  0.255960  0.276613  0.613983  1
  W  W11  1  0.744381  0.276435  0.114872  1
  O  O12  1  0.043961  0.940226  0.895988  1
  O  O13  1  0.535483  0.846615  0.931291  1
  O  O14  1  0.954026  0.941382  0.395883  1
  O  O15  1  0.458301  0.791284  0.726352  1
  O  O16  1  0.463357  0.846031  0.431186  1
  O  O17  1  0.980016  0.710647  0.771086  1
  O  O18  1  0.541524  0.790910  0.226599  1
  O  O19  1  0.849916  0.634298  0.549284  1
  O  O20  1  0.361297  0.488779  0.885665  1
  O  O21  1  0.020196  0.711077  0.271296  1
  O  O22  1  0.361061  0.511084  0.613802  1
  O  O23  1  0.850134  0.365686  0.950993  1
  O  O24  1  0.150137  0.633995  0.049361  1
  O  O25  1  0.640308  0.488401  0.385612  1
  O  O26  1  0.980377  0.289261  0.728765  1
  O  O27  1  0.639036  0.510921  0.114602  1
  O  O28  1  0.148950  0.365405  0.450323  1
  O  O29  1  0.458413  0.208587  0.773171  1
  O  O30  1  0.019630  0.289092  0.229667  1
  O  O31  1  0.536524  0.154178  0.567737  1
  O  O32  1  0.542629  0.208551  0.274311  1
  O  O33  1  0.043840  0.060135  0.603394  1
  O  O34  1  0.464019  0.153594  0.069329  1
  O  O35  1  0.955938  0.059617  0.104317  1
