# generated using pymatgen
data_Pm4V(MoO4)3
_symmetry_space_group_name_H-M   'P 1'
_cell_length_a   5.56179614
_cell_length_b   5.90069233
_cell_length_c   8.02932017
_cell_angle_alpha   89.88382576
_cell_angle_beta   89.97309780
_cell_angle_gamma   89.81978891
_symmetry_Int_Tables_number   1
_chemical_formula_structural   Pm4V(MoO4)3
_chemical_formula_sum   'Pm4 V1 Mo3 O12'
_cell_volume   263.50795219
_cell_formula_units_Z   1
loop_
 _symmetry_equiv_pos_site_id
 _symmetry_equiv_pos_as_xyz
  1  'x, y, z'
loop_
 _atom_site_type_symbol
 _atom_site_label
 _atom_site_symmetry_multiplicity
 _atom_site_fract_x
 _atom_site_fract_y
 _atom_site_fract_z
 _atom_site_occupancy
  Pm  Pm0  1  0.981043  0.064394  0.244647  1
  Pm  Pm1  1  0.520651  0.566171  0.245646  1
  Pm  Pm2  1  0.479349  0.433829  0.754354  1
  Pm  Pm3  1  0.018956  0.935606  0.755353  1
  V  V4  1  0.500000  0.000000  0.000000  1
  Mo  Mo5  1  0.000000  0.500001  0.000000  1
  Mo  Mo6  1  0.500000  0.000000  0.500000  1
  Mo  Mo7  1  0.000000  0.500001  0.500000  1
  O  O8  1  0.687720  0.297592  0.059046  1
  O  O9  1  0.801146  0.809125  0.056187  1
  O  O10  1  0.125337  0.448216  0.249645  1
  O  O11  1  0.384484  0.954390  0.242183  1
  O  O12  1  0.686574  0.307192  0.435511  1
  O  O13  1  0.813571  0.807211  0.433019  1
  O  O14  1  0.186430  0.192789  0.566982  1
  O  O15  1  0.313427  0.692808  0.564490  1
  O  O16  1  0.615516  0.045610  0.757817  1
  O  O17  1  0.874664  0.551784  0.750355  1
  O  O18  1  0.198855  0.190875  0.943812  1
  O  O19  1  0.312281  0.702408  0.940953  1
