# generated using pymatgen
data_Nd16Y3ErPb16
_symmetry_space_group_name_H-M   'P 1'
_cell_length_a   8.35978700
_cell_length_b   8.46406801
_cell_length_c   16.12157900
_cell_angle_alpha   90.00000000
_cell_angle_beta   90.00000000
_cell_angle_gamma   89.99800983
_symmetry_Int_Tables_number   1
_chemical_formula_structural   Nd16Y3ErPb16
_chemical_formula_sum   'Nd16 Y3 Er1 Pb16'
_cell_volume   1140.72755339
_cell_formula_units_Z   1
loop_
 _symmetry_equiv_pos_site_id
 _symmetry_equiv_pos_as_xyz
  1  'x, y, z'
loop_
 _atom_site_type_symbol
 _atom_site_label
 _atom_site_symmetry_multiplicity
 _atom_site_fract_x
 _atom_site_fract_y
 _atom_site_fract_z
 _atom_site_occupancy
  Nd  Nd0  1  0.376441  0.841828  0.880547  1
  Nd  Nd1  1  0.876441  0.658188  0.619503  1
  Nd  Nd2  1  0.623414  0.158096  0.380599  1
  Nd  Nd3  1  0.123541  0.341770  0.119374  1
  Nd  Nd4  1  0.623414  0.158096  0.119401  1
  Nd  Nd5  1  0.123541  0.341770  0.380626  1
  Nd  Nd6  1  0.376441  0.841828  0.619453  1
  Nd  Nd7  1  0.876441  0.658188  0.880497  1
  Nd  Nd8  1  0.533625  0.322370  0.899741  1
  Nd  Nd9  1  0.033610  0.177597  0.600241  1
  Nd  Nd10  1  0.466372  0.677687  0.399834  1
  Nd  Nd11  1  0.966453  0.822394  0.100163  1
  Nd  Nd12  1  0.466372  0.677687  0.100166  1
  Nd  Nd13  1  0.966453  0.822394  0.399837  1
  Nd  Nd14  1  0.533625  0.322370  0.600259  1
  Nd  Nd15  1  0.033610  0.177597  0.899759  1
  Y  Y16  1  0.208062  0.503862  0.750000  1
  Y  Y17  1  0.708059  0.996124  0.750000  1
  Y  Y18  1  0.791901  0.496103  0.250000  1
  Er  Er19  1  0.291821  0.004141  0.250000  1
  Pb  Pb20  1  0.281171  0.031081  0.045699  1
  Pb  Pb21  1  0.781141  0.468794  0.454644  1
  Pb  Pb22  1  0.718860  0.968859  0.545652  1
  Pb  Pb23  1  0.218830  0.531109  0.954323  1
  Pb  Pb24  1  0.718860  0.968859  0.954348  1
  Pb  Pb25  1  0.218830  0.531109  0.545677  1
  Pb  Pb26  1  0.281171  0.031081  0.454301  1
  Pb  Pb27  1  0.781141  0.468794  0.045356  1
  Pb  Pb28  1  0.571400  0.624909  0.750000  1
  Pb  Pb29  1  0.071407  0.875092  0.750000  1
  Pb  Pb30  1  0.428274  0.374843  0.250000  1
  Pb  Pb31  1  0.929148  0.124473  0.250000  1
  Pb  Pb32  1  0.342913  0.152496  0.750000  1
  Pb  Pb33  1  0.842942  0.347457  0.750000  1
  Pb  Pb34  1  0.656822  0.847718  0.250000  1
  Pb  Pb35  1  0.157451  0.653233  0.250000  1
