# generated using pymatgen
data_Dy5Er5(InBi)3
_symmetry_space_group_name_H-M   'P 1'
_cell_length_a   9.02728087
_cell_length_b   9.03414742
_cell_length_c   6.53816000
_cell_angle_alpha   90.00000000
_cell_angle_beta   90.00000000
_cell_angle_gamma   120.02516147
_symmetry_Int_Tables_number   1
_chemical_formula_structural   Dy5Er5(InBi)3
_chemical_formula_sum   'Dy5 Er5 In3 Bi3'
_cell_volume   461.65775551
_cell_formula_units_Z   1
loop_
 _symmetry_equiv_pos_site_id
 _symmetry_equiv_pos_as_xyz
  1  'x, y, z'
loop_
 _atom_site_type_symbol
 _atom_site_label
 _atom_site_symmetry_multiplicity
 _atom_site_fract_x
 _atom_site_fract_y
 _atom_site_fract_z
 _atom_site_occupancy
  Dy  Dy0  1  0.763662  0.763504  0.750000  1
  Dy  Dy1  1  0.236338  0.999842  0.750000  1
  Dy  Dy2  1  0.000000  0.236739  0.750000  1
  Dy  Dy3  1  0.238324  0.238196  0.250000  1
  Dy  Dy4  1  0.761676  0.999872  0.250000  1
  Er  Er5  1  0.666774  0.333467  0.007212  1
  Er  Er6  1  0.333226  0.666693  0.007212  1
  Er  Er7  1  0.333226  0.666693  0.492788  1
  Er  Er8  1  0.666774  0.333467  0.492788  1
  Er  Er9  1  0.000000  0.761467  0.250000  1
  In  In10  1  0.606517  0.606225  0.250000  1
  In  In11  1  0.393483  0.999708  0.250000  1
  In  In12  1  0.000000  0.394178  0.250000  1
  Bi  Bi13  1  0.396635  0.396616  0.750000  1
  Bi  Bi14  1  0.603365  0.999981  0.750000  1
  Bi  Bi15  1  0.000000  0.603351  0.750000  1
