# generated using pymatgen
data_YbHo7B24OsRu3
_symmetry_space_group_name_H-M   'P 1'
_cell_length_a   3.64844200
_cell_length_b   9.12607095
_cell_length_c   11.50822750
_cell_angle_alpha   89.87368030
_cell_angle_beta   90.00000000
_cell_angle_gamma   90.00000000
_symmetry_Int_Tables_number   1
_chemical_formula_structural   YbHo7B24OsRu3
_chemical_formula_sum   'Yb1 Ho7 B24 Os1 Ru3'
_cell_volume   383.17632761
_cell_formula_units_Z   1
loop_
 _symmetry_equiv_pos_site_id
 _symmetry_equiv_pos_as_xyz
  1  'x, y, z'
loop_
 _atom_site_type_symbol
 _atom_site_label
 _atom_site_symmetry_multiplicity
 _atom_site_fract_x
 _atom_site_fract_y
 _atom_site_fract_z
 _atom_site_occupancy
  Yb  Yb0  1  0.000000  0.323341  0.413796  1
  Ho  Ho1  1  0.000000  0.676065  0.584843  1
  Ho  Ho2  1  0.000000  0.822064  0.086635  1
  Ho  Ho3  1  0.000000  0.177690  0.914539  1
  Ho  Ho4  1  0.000000  0.944681  0.371457  1
  Ho  Ho5  1  0.000000  0.058178  0.628195  1
  Ho  Ho6  1  0.000000  0.442455  0.128970  1
  Ho  Ho7  1  0.000000  0.556426  0.871950  1
  B  B8  1  0.500000  0.553626  0.432765  1
  B  B9  1  0.500000  0.446049  0.567352  1
  B  B10  1  0.500000  0.053069  0.066523  1
  B  B11  1  0.500000  0.945940  0.932743  1
  B  B12  1  0.500000  0.748322  0.419254  1
  B  B13  1  0.500000  0.252495  0.580927  1
  B  B14  1  0.500000  0.247264  0.080338  1
  B  B15  1  0.500000  0.751842  0.919716  1
  B  B16  1  0.500000  0.791417  0.266091  1
  B  B17  1  0.500000  0.209927  0.734233  1
  B  B18  1  0.500000  0.289742  0.233524  1
  B  B19  1  0.500000  0.709508  0.766162  1
  B  B20  1  0.500000  0.631648  0.185878  1
  B  B21  1  0.500000  0.368608  0.815164  1
  B  B22  1  0.500000  0.131307  0.314020  1
  B  B23  1  0.500000  0.868763  0.685160  1
  B  B24  1  0.500000  0.983199  0.211924  1
  B  B25  1  0.500000  0.016838  0.787414  1
  B  B26  1  0.500000  0.483265  0.287771  1
  B  B27  1  0.500000  0.516749  0.712576  1
  B  B28  1  0.500000  0.607612  0.029931  1
  B  B29  1  0.500000  0.392042  0.970349  1
  B  B30  1  0.500000  0.104845  0.471099  1
  B  B31  1  0.500000  0.894635  0.529294  1
  Os  Os32  1  0.000000  0.638995  0.320685  1
  Ru  Ru33  1  0.000000  0.362524  0.680094  1
  Ru  Ru34  1  0.000000  0.136550  0.177448  1
  Ru  Ru35  1  0.000000  0.862319  0.821182  1
