# generated using pymatgen
data_Gd4MoWC4
_symmetry_space_group_name_H-M   'P 1'
_cell_length_a   5.76341500
_cell_length_b   5.76311900
_cell_length_c   10.03530100
_cell_angle_alpha   90.00000000
_cell_angle_beta   90.00000000
_cell_angle_gamma   90.00000000
_symmetry_Int_Tables_number   1
_chemical_formula_structural   Gd4MoWC4
_chemical_formula_sum   'Gd8 Mo2 W2 C8'
_cell_volume   333.32499633
_cell_formula_units_Z   2
loop_
 _symmetry_equiv_pos_site_id
 _symmetry_equiv_pos_as_xyz
  1  'x, y, z'
loop_
 _atom_site_type_symbol
 _atom_site_label
 _atom_site_symmetry_multiplicity
 _atom_site_fract_x
 _atom_site_fract_y
 _atom_site_fract_z
 _atom_site_occupancy
  Gd  Gd0  1  0.200491  0.801250  0.156676  1
  Gd  Gd1  1  0.801620  0.200111  0.842970  1
  Gd  Gd2  1  0.200491  0.801250  0.843324  1
  Gd  Gd3  1  0.299509  0.301250  0.343324  1
  Gd  Gd4  1  0.698380  0.700111  0.342970  1
  Gd  Gd5  1  0.299509  0.301250  0.656676  1
  Gd  Gd6  1  0.801620  0.200111  0.157030  1
  Gd  Gd7  1  0.698380  0.700111  0.657030  1
  Mo  Mo8  1  0.677191  0.676490  0.000000  1
  Mo  Mo9  1  0.822809  0.176490  0.500000  1
  W  W10  1  0.324237  0.323575  0.000000  1
  W  W11  1  0.175763  0.823575  0.500000  1
  C  C12  1  0.000190  0.501484  0.500000  1
  C  C13  1  0.001208  0.998246  0.348840  1
  C  C14  1  0.499810  0.001484  0.000000  1
  C  C15  1  0.001208  0.998246  0.651160  1
  C  C16  1  0.498792  0.498246  0.848840  1
  C  C17  1  0.498792  0.498246  0.151160  1
  C  C18  1  0.498563  0.999235  0.500000  1
  C  C19  1  0.001437  0.499235  0.000000  1
