# generated using pymatgen
data_Ce2Pr3P12Ru15Rh4
_symmetry_space_group_name_H-M   'P 1'
_cell_length_a   12.66864505
_cell_length_b   12.65094015
_cell_length_c   4.01332100
_cell_angle_alpha   90.00000000
_cell_angle_beta   90.00000000
_cell_angle_gamma   119.81030748
_symmetry_Int_Tables_number   1
_chemical_formula_structural   Ce2Pr3P12Ru15Rh4
_chemical_formula_sum   'Ce2 Pr3 P12 Ru15 Rh4'
_cell_volume   558.10314413
_cell_formula_units_Z   1
loop_
 _symmetry_equiv_pos_site_id
 _symmetry_equiv_pos_as_xyz
  1  'x, y, z'
loop_
 _atom_site_type_symbol
 _atom_site_label
 _atom_site_symmetry_multiplicity
 _atom_site_fract_x
 _atom_site_fract_y
 _atom_site_fract_z
 _atom_site_occupancy
  Ce  Ce0  1  0.331579  0.665804  0.000000  1
  Ce  Ce1  1  0.666646  0.333709  0.000000  1
  Pr  Pr2  1  0.816600  0.000623  0.500000  1
  Pr  Pr3  1  0.001074  0.815523  0.500000  1
  Pr  Pr4  1  0.184670  0.184385  0.500000  1
  P  P5  1  0.189131  0.000622  0.000000  1
  P  P6  1  0.000261  0.188665  0.000000  1
  P  P7  1  0.815118  0.812555  0.000000  1
  P  P8  1  0.519498  0.693046  0.500000  1
  P  P9  1  0.302143  0.823669  0.500000  1
  P  P10  1  0.175101  0.477358  0.500000  1
  P  P11  1  0.478209  0.176439  0.500000  1
  P  P12  1  0.698061  0.522307  0.500000  1
  P  P13  1  0.823569  0.301932  0.500000  1
  P  P14  1  0.628861  0.003890  0.000000  1
  P  P15  1  0.999701  0.627939  0.000000  1
  P  P16  1  0.371766  0.371988  0.000000  1
  Ru  Ru17  1  0.288875  0.000228  0.500000  1
  Ru  Ru18  1  0.999593  0.288199  0.500000  1
  Ru  Ru19  1  0.711212  0.712870  0.500000  1
  Ru  Ru20  1  0.196333  0.814544  0.000000  1
  Ru  Ru21  1  0.184941  0.381121  0.000000  1
  Ru  Ru22  1  0.382461  0.185717  0.000000  1
  Ru  Ru23  1  0.802765  0.618734  0.000000  1
  Ru  Ru24  1  0.814902  0.196635  0.000000  1
  Ru  Ru25  1  0.506721  0.872647  0.500000  1
  Ru  Ru26  1  0.124604  0.630803  0.500000  1
  Ru  Ru27  1  0.367304  0.491906  0.500000  1
  Ru  Ru28  1  0.494297  0.369832  0.500000  1
  Ru  Ru29  1  0.875027  0.506394  0.500000  1
  Ru  Ru30  1  0.630445  0.123522  0.500000  1
  Ru  Ru31  1  0.000434  0.000216  0.000000  1
  Rh  Rh32  1  0.446276  0.997785  0.000000  1
  Rh  Rh33  1  0.999881  0.447230  0.000000  1
  Rh  Rh34  1  0.551086  0.554307  0.000000  1
  Rh  Rh35  1  0.620855  0.806858  0.000000  1
