# generated using pymatgen
data_Y6Sc4SnBi5
_symmetry_space_group_name_H-M   'P 1'
_cell_length_a   8.98503044
_cell_length_b   8.98988580
_cell_length_c   6.22225900
_cell_angle_alpha   90.00000000
_cell_angle_beta   90.00000000
_cell_angle_gamma   120.01787393
_symmetry_Int_Tables_number   1
_chemical_formula_structural   Y6Sc4SnBi5
_chemical_formula_sum   'Y6 Sc4 Sn1 Bi5'
_cell_volume   435.18527791
_cell_formula_units_Z   1
loop_
 _symmetry_equiv_pos_site_id
 _symmetry_equiv_pos_as_xyz
  1  'x, y, z'
loop_
 _atom_site_type_symbol
 _atom_site_label
 _atom_site_symmetry_multiplicity
 _atom_site_fract_x
 _atom_site_fract_y
 _atom_site_fract_z
 _atom_site_occupancy
  Y  Y0  1  0.762157  0.756447  0.250000  1
  Y  Y1  1  0.000000  0.245922  0.250000  1
  Y  Y2  1  0.758617  0.000841  0.750000  1
  Y  Y3  1  0.237843  0.994290  0.250000  1
  Y  Y4  1  0.000000  0.756697  0.750000  1
  Y  Y5  1  0.241383  0.242223  0.750000  1
  Sc  Sc6  1  0.330280  0.665958  0.498381  1
  Sc  Sc7  1  0.669720  0.335677  0.498381  1
  Sc  Sc8  1  0.330280  0.665958  0.001619  1
  Sc  Sc9  1  0.669720  0.335677  0.001619  1
  Sn  Sn10  1  0.000000  0.603000  0.250000  1
  Bi  Bi11  1  0.603685  0.604708  0.750000  1
  Bi  Bi12  1  0.396315  0.001023  0.750000  1
  Bi  Bi13  1  0.604516  0.999303  0.250000  1
  Bi  Bi14  1  0.000000  0.397489  0.750000  1
  Bi  Bi15  1  0.395484  0.394787  0.250000  1
