# generated using pymatgen
data_Ho2Fe5Co3(P3Ru)2
_symmetry_space_group_name_H-M   'P 1'
_cell_length_a   3.71465100
_cell_length_b   10.26153200
_cell_length_c   11.87682400
_cell_angle_alpha   90.00000000
_cell_angle_beta   90.00000000
_cell_angle_gamma   90.00000000
_symmetry_Int_Tables_number   1
_chemical_formula_structural   Ho2Fe5Co3(P3Ru)2
_chemical_formula_sum   'Ho4 Fe10 Co6 P12 Ru4'
_cell_volume   452.72089725
_cell_formula_units_Z   2
loop_
 _symmetry_equiv_pos_site_id
 _symmetry_equiv_pos_as_xyz
  1  'x, y, z'
loop_
 _atom_site_type_symbol
 _atom_site_label
 _atom_site_symmetry_multiplicity
 _atom_site_fract_x
 _atom_site_fract_y
 _atom_site_fract_z
 _atom_site_occupancy
  Ho  Ho0  1  0.250000  0.581601  0.705355  1
  Ho  Ho1  1  0.250000  0.918399  0.205355  1
  Ho  Ho2  1  0.750000  0.419034  0.295084  1
  Ho  Ho3  1  0.750000  0.080966  0.795084  1
  Fe  Fe4  1  0.750000  0.777625  0.828555  1
  Fe  Fe5  1  0.750000  0.722375  0.328555  1
  Fe  Fe6  1  0.250000  0.881425  0.701838  1
  Fe  Fe7  1  0.250000  0.618575  0.201838  1
  Fe  Fe8  1  0.750000  0.120083  0.297451  1
  Fe  Fe9  1  0.750000  0.379917  0.797451  1
  Fe  Fe10  1  0.250000  0.461961  0.934151  1
  Fe  Fe11  1  0.250000  0.038039  0.434151  1
  Fe  Fe12  1  0.750000  0.536512  0.065314  1
  Fe  Fe13  1  0.750000  0.963488  0.565314  1
  Co  Co14  1  0.250000  0.407286  0.486297  1
  Co  Co15  1  0.250000  0.092714  0.986297  1
  Co  Co16  1  0.750000  0.593714  0.513528  1
  Co  Co17  1  0.750000  0.906286  0.013528  1
  Co  Co18  1  0.250000  0.224150  0.171696  1
  Co  Co19  1  0.250000  0.275850  0.671696  1
  P  P20  1  0.250000  0.426457  0.114225  1
  P  P21  1  0.250000  0.073543  0.614225  1
  P  P22  1  0.750000  0.574714  0.885212  1
  P  P23  1  0.750000  0.925286  0.385212  1
  P  P24  1  0.250000  0.270779  0.860153  1
  P  P25  1  0.250000  0.229221  0.360153  1
  P  P26  1  0.750000  0.728770  0.140902  1
  P  P27  1  0.750000  0.771230  0.640902  1
  P  P28  1  0.250000  0.600543  0.388933  1
  P  P29  1  0.250000  0.899457  0.888933  1
  P  P30  1  0.750000  0.402955  0.610009  1
  P  P31  1  0.750000  0.097045  0.110009  1
  Ru  Ru32  1  0.250000  0.708680  0.990527  1
  Ru  Ru33  1  0.250000  0.791320  0.490527  1
  Ru  Ru34  1  0.750000  0.290355  0.010772  1
  Ru  Ru35  1  0.750000  0.209645  0.510772  1
