# generated using pymatgen
data_RbNd6OsBr12
_symmetry_space_group_name_H-M   'P 1'
_cell_length_a   9.59157531
_cell_length_b   9.59010252
_cell_length_c   9.59459732
_cell_angle_alpha   104.64571712
_cell_angle_beta   104.68770080
_cell_angle_gamma   104.61883313
_symmetry_Int_Tables_number   1
_chemical_formula_structural   RbNd6OsBr12
_chemical_formula_sum   'Rb1 Nd6 Os1 Br12'
_cell_volume   777.30871372
_cell_formula_units_Z   1
loop_
 _symmetry_equiv_pos_site_id
 _symmetry_equiv_pos_as_xyz
  1  'x, y, z'
loop_
 _atom_site_type_symbol
 _atom_site_label
 _atom_site_symmetry_multiplicity
 _atom_site_fract_x
 _atom_site_fract_y
 _atom_site_fract_z
 _atom_site_occupancy
  Rb  Rb0  1  0.500000  0.500000  0.500000  1
  Nd  Nd1  1  0.100948  0.306687  0.011982  1
  Nd  Nd2  1  0.306629  0.012029  0.100823  1
  Nd  Nd3  1  0.012239  0.100973  0.306493  1
  Nd  Nd4  1  0.987760  0.899027  0.693507  1
  Nd  Nd5  1  0.693371  0.987970  0.899176  1
  Nd  Nd6  1  0.899052  0.693313  0.988018  1
  Os  Os7  1  0.000000  0.000000  0.000000  1
  Br  Br8  1  0.214879  0.675959  0.074436  1
  Br  Br9  1  0.426176  0.334831  0.113270  1
  Br  Br10  1  0.675991  0.074452  0.214856  1
  Br  Br11  1  0.925834  0.785385  0.324162  1
  Br  Br12  1  0.113465  0.426335  0.334935  1
  Br  Br13  1  0.335255  0.113401  0.426123  1
  Br  Br14  1  0.664745  0.886599  0.573877  1
  Br  Br15  1  0.886534  0.573665  0.665065  1
  Br  Br16  1  0.074167  0.214616  0.675839  1
  Br  Br17  1  0.324010  0.925549  0.785144  1
  Br  Br18  1  0.573823  0.665168  0.886730  1
  Br  Br19  1  0.785121  0.324042  0.925564  1
