# generated using pymatgen
data_FeTcSn4
_symmetry_space_group_name_H-M   'P 1'
_cell_length_a   5.42610130
_cell_length_b   5.42610147
_cell_length_c   5.42610109
_cell_angle_alpha   104.45512906
_cell_angle_beta   104.45512075
_cell_angle_gamma   120.05007144
_symmetry_Int_Tables_number   1
_chemical_formula_structural   FeTcSn4
_chemical_formula_sum   'Fe1 Tc1 Sn4'
_cell_volume   119.78850042
_cell_formula_units_Z   1
loop_
 _symmetry_equiv_pos_site_id
 _symmetry_equiv_pos_as_xyz
  1  'x, y, z'
loop_
 _atom_site_type_symbol
 _atom_site_label
 _atom_site_symmetry_multiplicity
 _atom_site_fract_x
 _atom_site_fract_y
 _atom_site_fract_z
 _atom_site_occupancy
  Fe  Fe0  1  0.000000  0.000000  0.000000  1
  Tc  Tc1  1  0.500000  0.500000  0.000000  1
  Sn  Sn2  1  0.909707  0.409707  0.819414  1
  Sn  Sn3  1  0.590293  0.090293  0.180586  1
  Sn  Sn4  1  0.090293  0.909707  0.500000  1
  Sn  Sn5  1  0.409707  0.590293  0.500000  1
