# generated using pymatgen
data_LiTb(Dy4S5)2
_symmetry_space_group_name_H-M   'P 1'
_cell_length_a   6.73355635
_cell_length_b   7.78955330
_cell_length_c   8.74381322
_cell_angle_alpha   103.17938619
_cell_angle_beta   97.18076860
_cell_angle_gamma   106.80599613
_symmetry_Int_Tables_number   1
_chemical_formula_structural   LiTb(Dy4S5)2
_chemical_formula_sum   'Li1 Tb1 Dy8 S10'
_cell_volume   418.40918142
_cell_formula_units_Z   1
loop_
 _symmetry_equiv_pos_site_id
 _symmetry_equiv_pos_as_xyz
  1  'x, y, z'
loop_
 _atom_site_type_symbol
 _atom_site_label
 _atom_site_symmetry_multiplicity
 _atom_site_fract_x
 _atom_site_fract_y
 _atom_site_fract_z
 _atom_site_occupancy
  Li  Li0  1  0.999986  0.500010  0.000029  1
  Tb  Tb1  1  0.799782  0.600339  0.599452  1
  Dy  Dy2  1  0.601032  0.200846  0.203997  1
  Dy  Dy3  1  0.399000  0.799173  0.796007  1
  Dy  Dy4  1  0.600450  0.702499  0.203713  1
  Dy  Dy5  1  0.200213  0.399724  0.400537  1
  Dy  Dy6  1  0.399598  0.297510  0.796275  1
  Dy  Dy7  1  0.999964  0.999950  0.999931  1
  Dy  Dy8  1  0.201227  0.901093  0.403326  1
  Dy  Dy9  1  0.798743  0.098848  0.596725  1
  S  S10  1  0.704090  0.647235  0.903891  1
  S  S11  1  0.500032  0.250503  0.499612  1
  S  S12  1  0.704999  0.156889  0.903547  1
  S  S13  1  0.295017  0.843106  0.096438  1
  S  S14  1  0.498807  0.749094  0.499978  1
  S  S15  1  0.097361  0.450770  0.707015  1
  S  S16  1  0.295755  0.352887  0.096684  1
  S  S17  1  0.902353  0.050213  0.298762  1
  S  S18  1  0.098230  0.950474  0.701450  1
  S  S19  1  0.903359  0.548838  0.292632  1
