# generated using pymatgen
data_Ca4Ga2NiIr3
_symmetry_space_group_name_H-M   'P 1'
_cell_length_a   5.62087402
_cell_length_b   5.72804096
_cell_length_c   7.63287707
_cell_angle_alpha   79.35843647
_cell_angle_beta   79.67489371
_cell_angle_gamma   60.26645861
_symmetry_Int_Tables_number   1
_chemical_formula_structural   Ca4Ga2NiIr3
_chemical_formula_sum   'Ca4 Ga2 Ni1 Ir3'
_cell_volume   208.61813057
_cell_formula_units_Z   1
loop_
 _symmetry_equiv_pos_site_id
 _symmetry_equiv_pos_as_xyz
  1  'x, y, z'
loop_
 _atom_site_type_symbol
 _atom_site_label
 _atom_site_symmetry_multiplicity
 _atom_site_fract_x
 _atom_site_fract_y
 _atom_site_fract_z
 _atom_site_occupancy
  Ca  Ca0  1  0.786382  0.510448  0.354175  1
  Ca  Ca1  1  0.491820  0.212381  0.143437  1
  Ca  Ca2  1  0.217451  0.489519  0.645690  1
  Ca  Ca3  1  0.503772  0.786131  0.856015  1
  Ga  Ga4  1  0.096454  0.904135  0.250847  1
  Ga  Ga5  1  0.903708  0.094280  0.748536  1
  Ni  Ni6  1  0.719108  0.006038  0.509436  1
  Ir  Ir7  1  0.004119  0.717085  0.009470  1
  Ir  Ir8  1  0.288635  0.994765  0.491063  1
  Ir  Ir9  1  0.988552  0.285219  0.991328  1
