# generated using pymatgen
data_Tb3ErCo8(PRu)12
_symmetry_space_group_name_H-M   'P 1'
_cell_length_a   3.79055200
_cell_length_b   10.62854449
_cell_length_c   12.12205456
_cell_angle_alpha   90.03489629
_cell_angle_beta   90.00000000
_cell_angle_gamma   90.00000000
_symmetry_Int_Tables_number   1
_chemical_formula_structural   Tb3ErCo8(PRu)12
_chemical_formula_sum   'Tb3 Er1 Co8 P12 Ru12'
_cell_volume   488.37385680
_cell_formula_units_Z   1
loop_
 _symmetry_equiv_pos_site_id
 _symmetry_equiv_pos_as_xyz
  1  'x, y, z'
loop_
 _atom_site_type_symbol
 _atom_site_label
 _atom_site_symmetry_multiplicity
 _atom_site_fract_x
 _atom_site_fract_y
 _atom_site_fract_z
 _atom_site_occupancy
  Tb  Tb0  1  0.250000  0.584504  0.706762  1
  Tb  Tb1  1  0.250000  0.915664  0.206718  1
  Tb  Tb2  1  0.750000  0.415418  0.293181  1
  Er  Er3  1  0.750000  0.084478  0.793476  1
  Co  Co4  1  0.250000  0.888261  0.695997  1
  Co  Co5  1  0.250000  0.612375  0.195109  1
  Co  Co6  1  0.750000  0.112436  0.305088  1
  Co  Co7  1  0.750000  0.387204  0.804540  1
  Co  Co8  1  0.250000  0.462524  0.934922  1
  Co  Co9  1  0.250000  0.037153  0.435870  1
  Co  Co10  1  0.750000  0.537145  0.064596  1
  Co  Co11  1  0.750000  0.963180  0.565644  1
  P  P12  1  0.250000  0.425410  0.112163  1
  P  P13  1  0.250000  0.074203  0.613619  1
  P  P14  1  0.750000  0.574406  0.887434  1
  P  P15  1  0.750000  0.925609  0.388061  1
  P  P16  1  0.250000  0.271357  0.871057  1
  P  P17  1  0.250000  0.227673  0.371634  1
  P  P18  1  0.750000  0.728034  0.128188  1
  P  P19  1  0.750000  0.772081  0.628394  1
  P  P20  1  0.250000  0.601563  0.386984  1
  P  P21  1  0.250000  0.899303  0.886450  1
  P  P22  1  0.750000  0.398460  0.612974  1
  P  P23  1  0.750000  0.101631  0.112966  1
  Ru  Ru24  1  0.250000  0.706437  0.985710  1
  Ru  Ru25  1  0.250000  0.794056  0.486204  1
  Ru  Ru26  1  0.750000  0.293756  0.013865  1
  Ru  Ru27  1  0.750000  0.206163  0.514119  1
  Ru  Ru28  1  0.250000  0.405224  0.486197  1
  Ru  Ru29  1  0.250000  0.094717  0.984709  1
  Ru  Ru30  1  0.750000  0.594708  0.513881  1
  Ru  Ru31  1  0.750000  0.905807  0.013641  1
  Ru  Ru32  1  0.250000  0.223056  0.180231  1
  Ru  Ru33  1  0.250000  0.275526  0.680660  1
  Ru  Ru34  1  0.750000  0.776810  0.819447  1
  Ru  Ru35  1  0.750000  0.723666  0.319508  1
