# generated using pymatgen
data_ZrTi5Si6Tc5Os
_symmetry_space_group_name_H-M   'P 1'
_cell_length_a   7.57305547
_cell_length_b   7.57668985
_cell_length_c   7.57307789
_cell_angle_alpha   126.38953431
_cell_angle_beta   128.75835818
_cell_angle_gamma   77.31243082
_symmetry_Int_Tables_number   1
_chemical_formula_structural   ZrTi5Si6Tc5Os
_chemical_formula_sum   'Zr1 Ti5 Si6 Tc5 Os1'
_cell_volume   264.67880288
_cell_formula_units_Z   1
loop_
 _symmetry_equiv_pos_site_id
 _symmetry_equiv_pos_as_xyz
  1  'x, y, z'
loop_
 _atom_site_type_symbol
 _atom_site_label
 _atom_site_symmetry_multiplicity
 _atom_site_fract_x
 _atom_site_fract_y
 _atom_site_fract_z
 _atom_site_occupancy
  Zr  Zr0  1  0.453251  0.410566  0.458531  1
  Ti  Ti1  1  0.549887  0.003610  0.956320  1
  Ti  Ti2  1  0.049800  0.003101  0.451353  1
  Ti  Ti3  1  0.951647  0.410326  0.957351  1
  Ti  Ti4  1  0.252266  0.598945  0.848261  1
  Ti  Ti5  1  0.744165  0.592948  0.346788  1
  Si  Si6  1  0.250645  0.000983  0.252290  1
  Si  Si7  1  0.747911  0.001614  0.751643  1
  Si  Si8  1  0.157779  0.675848  0.502490  1
  Si  Si9  1  0.843317  0.334964  0.507685  1
  Si  Si10  1  0.673896  0.674582  0.016862  1
  Si  Si11  1  0.325815  0.333361  0.991101  1
  Tc  Tc12  1  0.997638  0.261698  0.260226  1
  Tc  Tc13  1  0.500427  0.261368  0.764787  1
  Tc  Tc14  1  0.366837  0.744785  0.370326  1
  Tc  Tc15  1  0.633680  0.001818  0.375494  1
  Tc  Tc16  1  0.875317  0.745818  0.877781  1
  Os  Os17  1  0.125721  0.001665  0.868712  1
