# generated using pymatgen
data_Ca5Pr15Si15Au
_symmetry_space_group_name_H-M   'P 1'
_cell_length_a   7.92269009
_cell_length_b   7.93191873
_cell_length_c   15.17703600
_cell_angle_alpha   89.88615843
_cell_angle_beta   89.91811363
_cell_angle_gamma   90.00773974
_symmetry_Int_Tables_number   1
_chemical_formula_structural   Ca5Pr15Si15Au
_chemical_formula_sum   'Ca5 Pr15 Si15 Au1'
_cell_volume   953.75446345
_cell_formula_units_Z   1
loop_
 _symmetry_equiv_pos_site_id
 _symmetry_equiv_pos_as_xyz
  1  'x, y, z'
loop_
 _atom_site_type_symbol
 _atom_site_label
 _atom_site_symmetry_multiplicity
 _atom_site_fract_x
 _atom_site_fract_y
 _atom_site_fract_z
 _atom_site_occupancy
  Ca  Ca0  1  0.310563  0.309891  0.999695  1
  Ca  Ca1  1  0.192803  0.810397  0.252556  1
  Ca  Ca2  1  0.808017  0.191413  0.749607  1
  Ca  Ca3  1  0.684563  0.691753  0.498349  1
  Ca  Ca4  1  0.373294  0.013032  0.452835  1
  Pr  Pr5  1  0.494091  0.875751  0.698787  1
  Pr  Pr6  1  0.508078  0.122757  0.199796  1
  Pr  Pr7  1  0.876881  0.489789  0.300056  1
  Pr  Pr8  1  0.124525  0.513933  0.800820  1
  Pr  Pr9  1  0.628082  0.990154  0.951868  1
  Pr  Pr10  1  0.999140  0.375992  0.548176  1
  Pr  Pr11  1  0.991967  0.623943  0.050959  1
  Pr  Pr12  1  0.132541  0.990491  0.875411  1
  Pr  Pr13  1  0.513983  0.625872  0.125186  1
  Pr  Pr14  1  0.484498  0.371907  0.627418  1
  Pr  Pr15  1  0.628058  0.514552  0.875435  1
  Pr  Pr16  1  0.372485  0.482700  0.374188  1
  Pr  Pr17  1  0.873047  0.015013  0.375425  1
  Pr  Pr18  1  0.988319  0.124460  0.124783  1
  Pr  Pr19  1  0.012878  0.870700  0.621720  1
  Si  Si20  1  0.335247  0.701703  0.948790  1
  Si  Si21  1  0.662243  0.298019  0.449054  1
  Si  Si22  1  0.705018  0.334975  0.053271  1
  Si  Si23  1  0.296066  0.660979  0.550368  1
  Si  Si24  1  0.800687  0.832983  0.198490  1
  Si  Si25  1  0.163220  0.203231  0.299705  1
  Si  Si26  1  0.834363  0.801869  0.800864  1
  Si  Si27  1  0.287951  0.919224  0.059328  1
  Si  Si28  1  0.583784  0.781642  0.307154  1
  Si  Si29  1  0.433629  0.209177  0.814845  1
  Si  Si30  1  0.785061  0.583832  0.690512  1
  Si  Si31  1  0.211347  0.421212  0.189949  1
  Si  Si32  1  0.712939  0.079985  0.558607  1
  Si  Si33  1  0.921856  0.288213  0.941732  1
  Si  Si34  1  0.076135  0.708007  0.439653  1
  Au  Au35  1  0.192638  0.170445  0.694613  1
