# generated using pymatgen
data_Tb16Ho4(IrRh3)3
_symmetry_space_group_name_H-M   'P 1'
_cell_length_a   10.92326352
_cell_length_b   10.92326352
_cell_length_c   6.38017700
_cell_angle_alpha   90.00266180
_cell_angle_beta   90.00266180
_cell_angle_gamma   89.96474107
_symmetry_Int_Tables_number   1
_chemical_formula_structural   Tb16Ho4(IrRh3)3
_chemical_formula_sum   'Tb16 Ho4 Ir3 Rh9'
_cell_volume   761.26781007
_cell_formula_units_Z   1
loop_
 _symmetry_equiv_pos_site_id
 _symmetry_equiv_pos_as_xyz
  1  'x, y, z'
loop_
 _atom_site_type_symbol
 _atom_site_label
 _atom_site_symmetry_multiplicity
 _atom_site_fract_x
 _atom_site_fract_y
 _atom_site_fract_z
 _atom_site_occupancy
  Tb  Tb0  1  0.290698  0.089579  0.378583  1
  Tb  Tb1  1  0.290783  0.910223  0.878477  1
  Tb  Tb2  1  0.709445  0.088273  0.878606  1
  Tb  Tb3  1  0.709151  0.910368  0.378439  1
  Tb  Tb4  1  0.587477  0.789351  0.879626  1
  Tb  Tb5  1  0.587115  0.209858  0.378558  1
  Tb  Tb6  1  0.412501  0.789524  0.379221  1
  Tb  Tb7  1  0.411183  0.209964  0.879830  1
  Tb  Tb8  1  0.210649  0.412523  0.620374  1
  Tb  Tb9  1  0.210476  0.587499  0.120779  1
  Tb  Tb10  1  0.790142  0.412885  0.121442  1
  Tb  Tb11  1  0.790036  0.588817  0.620170  1
  Tb  Tb12  1  0.910421  0.709302  0.121417  1
  Tb  Tb13  1  0.911727  0.290555  0.621394  1
  Tb  Tb14  1  0.089777  0.709217  0.621523  1
  Tb  Tb15  1  0.089632  0.290849  0.121561  1
  Ho  Ho16  1  0.999915  0.999935  0.499912  1
  Ho  Ho17  1  0.000065  0.000085  0.000088  1
  Ho  Ho18  1  0.499681  0.500139  0.999994  1
  Ho  Ho19  1  0.499861  0.500319  0.500006  1
  Ir  Ir20  1  0.653625  0.653077  0.250020  1
  Ir  Ir21  1  0.346923  0.346375  0.249980  1
  Ir  Ir22  1  0.346347  0.653653  0.750000  1
  Rh  Rh23  1  0.847079  0.152921  0.250000  1
  Rh  Rh24  1  0.847481  0.847716  0.750158  1
  Rh  Rh25  1  0.152284  0.152519  0.749842  1
  Rh  Rh26  1  0.152368  0.847632  0.250000  1
  Rh  Rh27  1  0.653731  0.346269  0.750000  1
  Rh  Rh28  1  0.500218  0.000419  0.122304  1
  Rh  Rh29  1  0.500300  0.000675  0.622776  1
  Rh  Rh30  1  0.999325  0.499700  0.877224  1
  Rh  Rh31  1  0.999581  0.499782  0.377696  1
