# generated using pymatgen
data_Tm2Mn(FeB)4
_symmetry_space_group_name_H-M   'P 1'
_cell_length_a   7.16819286
_cell_length_b   5.98334362
_cell_length_c   5.29124347
_cell_angle_alpha   78.67889799
_cell_angle_beta   54.93073716
_cell_angle_gamma   46.50109187
_symmetry_Int_Tables_number   1
_chemical_formula_structural   Tm2Mn(FeB)4
_chemical_formula_sum   'Tm2 Mn1 Fe4 B4'
_cell_volume   126.92471724
_cell_formula_units_Z   1
loop_
 _symmetry_equiv_pos_site_id
 _symmetry_equiv_pos_as_xyz
  1  'x, y, z'
loop_
 _atom_site_type_symbol
 _atom_site_label
 _atom_site_symmetry_multiplicity
 _atom_site_fract_x
 _atom_site_fract_y
 _atom_site_fract_z
 _atom_site_occupancy
  Tm  Tm0  1  0.854070  0.854029  0.146079  1
  Tm  Tm1  1  0.145929  0.145969  0.853924  1
  Mn  Mn2  1  0.000005  0.000000  0.500000  1
  Fe  Fe3  1  0.500003  0.500004  0.999998  1
  Fe  Fe4  1  0.250261  0.250446  0.249595  1
  Fe  Fe5  1  0.499998  0.499999  0.500002  1
  Fe  Fe6  1  0.749739  0.749554  0.750406  1
  B  B7  1  0.486707  0.785543  0.212177  1
  B  B8  1  0.214468  0.513441  0.484432  1
  B  B9  1  0.785504  0.486584  0.515596  1
  B  B10  1  0.513319  0.214429  0.787797  1
