# generated using pymatgen
data_Tb5Yb5Ru4
_symmetry_space_group_name_H-M   'P 1'
_cell_length_a   6.44991064
_cell_length_b   7.28827029
_cell_length_c   8.56520383
_cell_angle_alpha   96.83411966
_cell_angle_beta   112.74103996
_cell_angle_gamma   90.28876270
_symmetry_Int_Tables_number   1
_chemical_formula_structural   Tb5Yb5Ru4
_chemical_formula_sum   'Tb5 Yb5 Ru4'
_cell_volume   368.12686044
_cell_formula_units_Z   1
loop_
 _symmetry_equiv_pos_site_id
 _symmetry_equiv_pos_as_xyz
  1  'x, y, z'
loop_
 _atom_site_type_symbol
 _atom_site_label
 _atom_site_symmetry_multiplicity
 _atom_site_fract_x
 _atom_site_fract_y
 _atom_site_fract_z
 _atom_site_occupancy
  Tb  Tb0  1  0.203987  0.681206  0.565203  1
  Tb  Tb1  1  0.364889  0.181343  0.564793  1
  Tb  Tb2  1  0.796849  0.317155  0.433049  1
  Tb  Tb3  1  0.433787  0.751671  0.002897  1
  Tb  Tb4  1  0.565801  0.250844  0.000628  1
  Yb  Yb5  1  0.977778  0.918697  0.179615  1
  Yb  Yb6  1  0.796544  0.581255  0.820131  1
  Yb  Yb7  1  0.021962  0.081618  0.821202  1
  Yb  Yb8  1  0.203793  0.418009  0.181701  1
  Yb  Yb9  1  0.640339  0.816425  0.436777  1
  Ru  Ru10  1  0.824700  0.568830  0.225395  1
  Ru  Ru11  1  0.585276  0.927159  0.778374  1
  Ru  Ru12  1  0.178236  0.426590  0.765520  1
  Ru  Ru13  1  0.406060  0.079199  0.224715  1
