# generated using pymatgen
data_Li3Y3ZnSi4
_symmetry_space_group_name_H-M   'P 1'
_cell_length_a   8.04421095
_cell_length_b   8.06897436
_cell_length_c   8.06897400
_cell_angle_alpha   149.54731288
_cell_angle_beta   131.46991290
_cell_angle_gamma   58.40915120
_symmetry_Int_Tables_number   1
_chemical_formula_structural   Li3Y3ZnSi4
_chemical_formula_sum   'Li3 Y3 Zn1 Si4'
_cell_volume   197.37067929
_cell_formula_units_Z   1
loop_
 _symmetry_equiv_pos_site_id
 _symmetry_equiv_pos_as_xyz
  1  'x, y, z'
loop_
 _atom_site_type_symbol
 _atom_site_label
 _atom_site_symmetry_multiplicity
 _atom_site_fract_x
 _atom_site_fract_y
 _atom_site_fract_z
 _atom_site_occupancy
  Li  Li0  1  0.518781  0.829074  0.689708  1
  Li  Li1  1  0.861762  0.170717  0.691046  1
  Li  Li2  1  0.139005  0.827779  0.311226  1
  Y  Y3  1  0.869212  0.373008  0.496203  1
  Y  Y4  1  0.124956  0.628704  0.496251  1
  Y  Y5  1  0.501242  0.500189  0.001053  1
  Zn  Zn6  1  0.479854  0.171968  0.307887  1
  Si  Si7  1  0.820013  0.000056  0.819957  1
  Si  Si8  1  0.182201  0.000544  0.181657  1
  Si  Si9  1  0.288603  0.285292  0.003312  1
  Si  Si10  1  0.714371  0.712669  0.001702  1
