# generated using pymatgen
data_PrFe3CoP12
_symmetry_space_group_name_H-M   'P 1'
_cell_length_a   6.77411294
_cell_length_b   6.77411248
_cell_length_c   6.77411197
_cell_angle_alpha   109.44055656
_cell_angle_beta   109.44055169
_cell_angle_gamma   109.44055574
_symmetry_Int_Tables_number   1
_chemical_formula_structural   PrFe3CoP12
_chemical_formula_sum   'Pr1 Fe3 Co1 P12'
_cell_volume   239.56723859
_cell_formula_units_Z   1
loop_
 _symmetry_equiv_pos_site_id
 _symmetry_equiv_pos_as_xyz
  1  'x, y, z'
loop_
 _atom_site_type_symbol
 _atom_site_label
 _atom_site_symmetry_multiplicity
 _atom_site_fract_x
 _atom_site_fract_y
 _atom_site_fract_z
 _atom_site_occupancy
  Pr  Pr0  1  0.000000  0.000000  0.000000  1
  Fe  Fe1  1  0.000000  0.000000  0.500000  1
  Fe  Fe2  1  0.000000  0.500000  0.000000  1
  Fe  Fe3  1  0.500000  0.000000  0.000000  1
  Co  Co4  1  0.500000  0.500000  0.500000  1
  P  P5  1  0.851282  0.649878  0.497014  1
  P  P6  1  0.848373  0.351454  0.199936  1
  P  P7  1  0.151627  0.648546  0.800064  1
  P  P8  1  0.350122  0.502986  0.148718  1
  P  P9  1  0.502986  0.148718  0.350122  1
  P  P10  1  0.148718  0.350122  0.502986  1
  P  P11  1  0.648546  0.800064  0.151627  1
  P  P12  1  0.199936  0.848373  0.351454  1
  P  P13  1  0.649878  0.497014  0.851282  1
  P  P14  1  0.800064  0.151627  0.648546  1
  P  P15  1  0.351454  0.199936  0.848373  1
  P  P16  1  0.497014  0.851282  0.649878  1
