# generated using pymatgen
data_ZrAlNi3Au
_symmetry_space_group_name_H-M   'P 1'
_cell_length_a   4.96243904
_cell_length_b   4.84551895
_cell_length_c   4.96243800
_cell_angle_alpha   59.19854635
_cell_angle_beta   59.99999362
_cell_angle_gamma   59.19853769
_symmetry_Int_Tables_number   1
_chemical_formula_structural   ZrAlNi3Au
_chemical_formula_sum   'Zr1 Al1 Ni3 Au1'
_cell_volume   83.33872972
_cell_formula_units_Z   1
loop_
 _symmetry_equiv_pos_site_id
 _symmetry_equiv_pos_as_xyz
  1  'x, y, z'
loop_
 _atom_site_type_symbol
 _atom_site_label
 _atom_site_symmetry_multiplicity
 _atom_site_fract_x
 _atom_site_fract_y
 _atom_site_fract_z
 _atom_site_occupancy
  Zr  Zr0  1  0.994077  0.017768  0.994077  1
  Al  Al1  1  0.378747  0.863759  0.378747  1
  Ni  Ni2  1  0.376513  0.369566  0.877408  1
  Ni  Ni3  1  0.877408  0.369566  0.376513  1
  Ni  Ni4  1  0.376513  0.369566  0.376513  1
  Au  Au5  1  0.746742  0.759775  0.746742  1
