# generated using pymatgen
data_Eu2Ni7As3P
_symmetry_space_group_name_H-M   'P 1'
_cell_length_a   3.82617400
_cell_length_b   9.40677200
_cell_length_c   10.63790900
_cell_angle_alpha   90.00000000
_cell_angle_beta   90.00000000
_cell_angle_gamma   90.00000000
_symmetry_Int_Tables_number   1
_chemical_formula_structural   Eu2Ni7As3P
_chemical_formula_sum   'Eu4 Ni14 As6 P2'
_cell_volume   382.87905107
_cell_formula_units_Z   2
loop_
 _symmetry_equiv_pos_site_id
 _symmetry_equiv_pos_as_xyz
  1  'x, y, z'
loop_
 _atom_site_type_symbol
 _atom_site_label
 _atom_site_symmetry_multiplicity
 _atom_site_fract_x
 _atom_site_fract_y
 _atom_site_fract_z
 _atom_site_occupancy
  Eu  Eu0  1  0.000000  0.436942  0.515097  1
  Eu  Eu1  1  0.500000  0.563058  0.015097  1
  Eu  Eu2  1  0.000000  0.060521  0.742644  1
  Eu  Eu3  1  0.500000  0.939479  0.242644  1
  Ni  Ni4  1  0.000000  0.769701  0.409587  1
  Ni  Ni5  1  0.500000  0.230299  0.909587  1
  Ni  Ni6  1  0.000000  0.757937  0.644647  1
  Ni  Ni7  1  0.500000  0.242063  0.144647  1
  Ni  Ni8  1  0.000000  0.815676  0.988766  1
  Ni  Ni9  1  0.500000  0.184324  0.488766  1
  Ni  Ni10  1  0.000000  0.437262  0.219740  1
  Ni  Ni11  1  0.500000  0.562738  0.719740  1
  Ni  Ni12  1  0.000000  0.413597  0.814342  1
  Ni  Ni13  1  0.500000  0.586403  0.314342  1
  Ni  Ni14  1  0.000000  0.197288  0.306039  1
  Ni  Ni15  1  0.500000  0.802712  0.806039  1
  Ni  Ni16  1  0.000000  0.081303  0.056554  1
  Ni  Ni17  1  0.500000  0.918697  0.556554  1
  As  As18  1  0.000000  0.690123  0.200845  1
  As  As19  1  0.500000  0.309877  0.700845  1
  As  As20  1  0.000000  0.023462  0.458801  1
  As  As21  1  0.500000  0.976538  0.958801  1
  As  As22  1  0.000000  0.321228  0.021417  1
  As  As23  1  0.500000  0.678772  0.521417  1
  P  P24  1  0.000000  0.656938  0.826319  1
  P  P25  1  0.500000  0.343062  0.326319  1
