# generated using pymatgen
data_NdY5(SnIr)6
_symmetry_space_group_name_H-M   'P 1'
_cell_length_a   7.51321665
_cell_length_b   7.49915078
_cell_length_c   8.00561100
_cell_angle_alpha   90.00000000
_cell_angle_beta   90.00000000
_cell_angle_gamma   119.93468988
_symmetry_Int_Tables_number   1
_chemical_formula_structural   NdY5(SnIr)6
_chemical_formula_sum   'Nd1 Y5 Sn6 Ir6'
_cell_volume   390.88459056
_cell_formula_units_Z   1
loop_
 _symmetry_equiv_pos_site_id
 _symmetry_equiv_pos_as_xyz
  1  'x, y, z'
loop_
 _atom_site_type_symbol
 _atom_site_label
 _atom_site_symmetry_multiplicity
 _atom_site_fract_x
 _atom_site_fract_y
 _atom_site_fract_z
 _atom_site_occupancy
  Nd  Nd0  1  0.999077  0.409225  0.250000  1
  Y  Y1  1  0.406052  0.001810  0.250000  1
  Y  Y2  1  0.595491  0.594277  0.750000  1
  Y  Y3  1  0.594307  0.594910  0.250000  1
  Y  Y4  1  0.000795  0.404963  0.750000  1
  Y  Y5  1  0.404262  0.998028  0.750000  1
  Sn  Sn6  1  0.259353  0.257632  0.501004  1
  Sn  Sn7  1  0.259353  0.257632  0.998996  1
  Sn  Sn8  1  0.740494  0.997899  0.998991  1
  Sn  Sn9  1  0.000136  0.743628  0.503049  1
  Sn  Sn10  1  0.740494  0.997899  0.501009  1
  Sn  Sn11  1  0.000136  0.743628  0.996951  1
  Ir  Ir12  1  0.664744  0.332436  0.504775  1
  Ir  Ir13  1  0.664744  0.332436  0.995225  1
  Ir  Ir14  1  0.335288  0.667814  0.997189  1
  Ir  Ir15  1  0.335288  0.667814  0.502811  1
  Ir  Ir16  1  0.000046  0.000907  0.750000  1
  Ir  Ir17  1  0.999937  0.997061  0.250000  1
