# generated using pymatgen
data_Lu8V12Si15Ge
_symmetry_space_group_name_H-M   'P 1'
_cell_length_a   6.60734538
_cell_length_b   6.78712420
_cell_length_c   12.79922400
_cell_angle_alpha   90.04814979
_cell_angle_beta   90.04853032
_cell_angle_gamma   89.95759565
_symmetry_Int_Tables_number   1
_chemical_formula_structural   Lu8V12Si15Ge
_chemical_formula_sum   'Lu8 V12 Si15 Ge1'
_cell_volume   573.97901904
_cell_formula_units_Z   1
loop_
 _symmetry_equiv_pos_site_id
 _symmetry_equiv_pos_as_xyz
  1  'x, y, z'
loop_
 _atom_site_type_symbol
 _atom_site_label
 _atom_site_symmetry_multiplicity
 _atom_site_fract_x
 _atom_site_fract_y
 _atom_site_fract_z
 _atom_site_occupancy
  Lu  Lu0  1  0.002105  0.170028  0.094804  1
  Lu  Lu1  1  0.501075  0.329123  0.403602  1
  Lu  Lu2  1  0.497886  0.669476  0.905265  1
  Lu  Lu3  1  0.998145  0.830929  0.595397  1
  Lu  Lu4  1  0.998321  0.830341  0.905344  1
  Lu  Lu5  1  0.494583  0.671658  0.596018  1
  Lu  Lu6  1  0.502214  0.330575  0.095128  1
  Lu  Lu7  1  0.002870  0.169305  0.404180  1
  V  V8  1  0.665356  0.987993  0.249839  1
  V  V9  1  0.164530  0.512636  0.249801  1
  V  V10  1  0.835485  0.486742  0.752641  1
  V  V11  1  0.335747  0.012230  0.749870  1
  V  V12  1  0.838075  0.671719  0.126375  1
  V  V13  1  0.338370  0.829018  0.372908  1
  V  V14  1  0.662227  0.171808  0.873649  1
  V  V15  1  0.164521  0.327988  0.627165  1
  V  V16  1  0.161669  0.328499  0.873615  1
  V  V17  1  0.658295  0.166714  0.628250  1
  V  V18  1  0.338994  0.828045  0.126218  1
  V  V19  1  0.839836  0.674306  0.371497  1
  Si  Si20  1  0.803935  0.376608  0.249649  1
  Si  Si21  1  0.303765  0.123383  0.249262  1
  Si  Si22  1  0.697081  0.874873  0.750884  1
  Si  Si23  1  0.195604  0.623583  0.750381  1
  Si  Si24  1  0.040687  0.869331  0.248868  1
  Si  Si25  1  0.540034  0.631602  0.249756  1
  Si  Si26  1  0.460303  0.368818  0.750591  1
  Si  Si27  1  0.960621  0.131116  0.750109  1
  Si  Si28  1  0.837586  0.457614  0.957028  1
  Si  Si29  1  0.336672  0.043032  0.542745  1
  Si  Si30  1  0.662849  0.957920  0.043345  1
  Si  Si31  1  0.166031  0.543799  0.455551  1
  Si  Si32  1  0.162518  0.542444  0.043580  1
  Si  Si33  1  0.662772  0.957133  0.456771  1
  Si  Si34  1  0.337757  0.042623  0.956514  1
  Ge  Ge35  1  0.831473  0.456987  0.543399  1
