# generated using pymatgen
data_Tb3Er7(InBi2)2
_symmetry_space_group_name_H-M   'P 1'
_cell_length_a   9.04559129
_cell_length_b   9.04559087
_cell_length_c   6.48108700
_cell_angle_alpha   90.00000000
_cell_angle_beta   90.00000000
_cell_angle_gamma   119.65088825
_symmetry_Int_Tables_number   1
_chemical_formula_structural   Tb3Er7(InBi2)2
_chemical_formula_sum   'Tb3 Er7 In2 Bi4'
_cell_volume   460.86046875
_cell_formula_units_Z   1
loop_
 _symmetry_equiv_pos_site_id
 _symmetry_equiv_pos_as_xyz
  1  'x, y, z'
loop_
 _atom_site_type_symbol
 _atom_site_label
 _atom_site_symmetry_multiplicity
 _atom_site_fract_x
 _atom_site_fract_y
 _atom_site_fract_z
 _atom_site_occupancy
  Tb  Tb0  1  0.761758  0.761758  0.750000  1
  Tb  Tb1  1  0.234603  0.997885  0.750000  1
  Tb  Tb2  1  0.997885  0.234603  0.750000  1
  Er  Er3  1  0.668970  0.329071  0.003902  1
  Er  Er4  1  0.329071  0.668970  0.003902  1
  Er  Er5  1  0.329071  0.668970  0.496098  1
  Er  Er6  1  0.668970  0.329071  0.496098  1
  Er  Er7  1  0.234036  0.234036  0.250000  1
  Er  Er8  1  0.766150  0.008940  0.250000  1
  Er  Er9  1  0.008940  0.766150  0.250000  1
  In  In10  1  0.396796  0.002063  0.250000  1
  In  In11  1  0.002063  0.396796  0.250000  1
  Bi  Bi12  1  0.394176  0.394176  0.750000  1
  Bi  Bi13  1  0.601614  0.996820  0.750000  1
  Bi  Bi14  1  0.996820  0.601614  0.750000  1
  Bi  Bi15  1  0.609076  0.609076  0.250000  1
