# generated using pymatgen
data_Dy5Y(RhI3)2
_symmetry_space_group_name_H-M   'P 1'
_cell_length_a   4.23628900
_cell_length_b   8.87847046
_cell_length_c   12.37327900
_cell_angle_alpha   86.30272387
_cell_angle_beta   90.00000000
_cell_angle_gamma   90.00000000
_symmetry_Int_Tables_number   1
_chemical_formula_structural   Dy5Y(RhI3)2
_chemical_formula_sum   'Dy5 Y1 Rh2 I6'
_cell_volume   464.41227969
_cell_formula_units_Z   1
loop_
 _symmetry_equiv_pos_site_id
 _symmetry_equiv_pos_as_xyz
  1  'x, y, z'
loop_
 _atom_site_type_symbol
 _atom_site_label
 _atom_site_symmetry_multiplicity
 _atom_site_fract_x
 _atom_site_fract_y
 _atom_site_fract_z
 _atom_site_occupancy
  Dy  Dy0  1  0.750000  0.136379  0.127818  1
  Dy  Dy1  1  0.250000  0.863559  0.872065  1
  Dy  Dy2  1  0.750000  0.098652  0.683276  1
  Dy  Dy3  1  0.250000  0.901481  0.316753  1
  Dy  Dy4  1  0.250000  0.258322  0.896913  1
  Y  Y5  1  0.750000  0.740357  0.103095  1
  Rh  Rh6  1  0.750000  0.054966  0.907314  1
  Rh  Rh7  1  0.250000  0.946091  0.092749  1
  I  I8  1  0.250000  0.353950  0.636736  1
  I  I9  1  0.750000  0.645992  0.363154  1
  I  I10  1  0.750000  0.141412  0.392593  1
  I  I11  1  0.250000  0.858528  0.607450  1
  I  I12  1  0.250000  0.424688  0.132928  1
  I  I13  1  0.750000  0.575623  0.867155  1
