# generated using pymatgen
data_Dy3Y2Mg2P12Ir17
_symmetry_space_group_name_H-M   'P 1'
_cell_length_a   12.66829302
_cell_length_b   12.83024997
_cell_length_c   3.98192700
_cell_angle_alpha   90.00000000
_cell_angle_beta   90.00000000
_cell_angle_gamma   119.59009282
_symmetry_Int_Tables_number   1
_chemical_formula_structural   Dy3Y2Mg2P12Ir17
_chemical_formula_sum   'Dy3 Y2 Mg2 P12 Ir17'
_cell_volume   562.80275783
_cell_formula_units_Z   1
loop_
 _symmetry_equiv_pos_site_id
 _symmetry_equiv_pos_as_xyz
  1  'x, y, z'
loop_
 _atom_site_type_symbol
 _atom_site_label
 _atom_site_symmetry_multiplicity
 _atom_site_fract_x
 _atom_site_fract_y
 _atom_site_fract_z
 _atom_site_occupancy
  Dy  Dy0  1  0.668791  0.335935  0.500000  1
  Dy  Dy1  1  0.188996  0.186752  0.000000  1
  Dy  Dy2  1  0.810233  0.000016  0.000000  1
  Y  Y3  1  0.332827  0.664050  0.500000  1
  Y  Y4  1  0.002213  0.813192  0.000000  1
  Mg  Mg5  1  0.997579  0.443978  0.500000  1
  Mg  Mg6  1  0.553613  0.555929  0.500000  1
  P  P7  1  0.003041  0.643192  0.500000  1
  P  P8  1  0.359704  0.356650  0.500000  1
  P  P9  1  0.642488  0.999993  0.500000  1
  P  P10  1  0.514067  0.685915  0.000000  1
  P  P11  1  0.308260  0.824304  0.000000  1
  P  P12  1  0.168555  0.481241  0.000000  1
  P  P13  1  0.484105  0.175862  0.000000  1
  P  P14  1  0.687289  0.518618  0.000000  1
  P  P15  1  0.828002  0.314013  0.000000  1
  P  P16  1  0.998659  0.175769  0.500000  1
  P  P17  1  0.822855  0.824339  0.500000  1
  P  P18  1  0.179012  0.000165  0.500000  1
  Ir  Ir19  1  0.505056  0.866223  0.000000  1
  Ir  Ir20  1  0.128082  0.639842  0.000000  1
  Ir  Ir21  1  0.357625  0.492303  0.000000  1
  Ir  Ir22  1  0.488354  0.360092  0.000000  1
  Ir  Ir23  1  0.865060  0.507384  0.000000  1
  Ir  Ir24  1  0.638871  0.133958  0.000000  1
  Ir  Ir25  1  0.461864  0.000119  0.500000  1
  Ir  Ir26  1  0.996428  0.279284  0.000000  1
  Ir  Ir27  1  0.717080  0.720679  0.000000  1
  Ir  Ir28  1  0.287659  0.000119  0.000000  1
  Ir  Ir29  1  0.623211  0.807509  0.500000  1
  Ir  Ir30  1  0.201349  0.824945  0.500000  1
  Ir  Ir31  1  0.177028  0.367380  0.500000  1
  Ir  Ir32  1  0.376375  0.175153  0.500000  1
  Ir  Ir33  1  0.809371  0.632327  0.500000  1
  Ir  Ir34  1  0.815677  0.192596  0.500000  1
  Ir  Ir35  1  0.000620  0.000176  0.500000  1
