# generated using pymatgen
data_Tb3Er(TcB2)6
_symmetry_space_group_name_H-M   'P 1'
_cell_length_a   6.22195719
_cell_length_b   6.22444591
_cell_length_c   7.52132800
_cell_angle_alpha   90.53103258
_cell_angle_beta   90.77296006
_cell_angle_gamma   113.98510019
_symmetry_Int_Tables_number   1
_chemical_formula_structural   Tb3Er(TcB2)6
_chemical_formula_sum   'Tb3 Er1 Tc6 B12'
_cell_volume   266.07650276
_cell_formula_units_Z   1
loop_
 _symmetry_equiv_pos_site_id
 _symmetry_equiv_pos_as_xyz
  1  'x, y, z'
loop_
 _atom_site_type_symbol
 _atom_site_label
 _atom_site_symmetry_multiplicity
 _atom_site_fract_x
 _atom_site_fract_y
 _atom_site_fract_z
 _atom_site_occupancy
  Tb  Tb0  1  0.100083  0.441304  0.322819  1
  Tb  Tb1  1  0.559731  0.901442  0.176729  1
  Tb  Tb2  1  0.899361  0.557864  0.677016  1
  Er  Er3  1  0.439671  0.100616  0.820475  1
  Tc  Tc4  1  0.587893  0.412655  0.250470  1
  Tc  Tc5  1  0.412152  0.588494  0.750429  1
  Tc  Tc6  1  0.990800  0.804636  0.088465  1
  Tc  Tc7  1  0.195181  0.010094  0.411074  1
  Tc  Tc8  1  0.010216  0.195061  0.911040  1
  Tc  Tc9  1  0.804412  0.989752  0.589409  1
  B  B10  1  0.246800  0.151344  0.128761  1
  B  B11  1  0.848555  0.754054  0.370178  1
  B  B12  1  0.753923  0.848323  0.870146  1
  B  B13  1  0.151869  0.245370  0.630544  1
  B  B14  1  0.584274  0.158693  0.483174  1
  B  B15  1  0.840553  0.414220  0.017865  1
  B  B16  1  0.415130  0.841649  0.519109  1
  B  B17  1  0.158970  0.585030  0.981458  1
  B  B18  1  0.442877  0.350385  0.535339  1
  B  B19  1  0.649529  0.556485  0.965313  1
  B  B20  1  0.557365  0.649771  0.465864  1
  B  B21  1  0.350656  0.442757  0.034323  1
