# generated using pymatgen
data_TbThSiRh6
_symmetry_space_group_name_H-M   'P 1'
_cell_length_a   6.02062868
_cell_length_b   6.02062818
_cell_length_c   6.02062900
_cell_angle_alpha   59.99999002
_cell_angle_beta   59.99999274
_cell_angle_gamma   59.99999878
_symmetry_Int_Tables_number   1
_chemical_formula_structural   TbThSiRh6
_chemical_formula_sum   'Tb1 Th1 Si1 Rh6'
_cell_volume   154.31582246
_cell_formula_units_Z   1
loop_
 _symmetry_equiv_pos_site_id
 _symmetry_equiv_pos_as_xyz
  1  'x, y, z'
loop_
 _atom_site_type_symbol
 _atom_site_label
 _atom_site_symmetry_multiplicity
 _atom_site_fract_x
 _atom_site_fract_y
 _atom_site_fract_z
 _atom_site_occupancy
  Tb  Tb0  1  0.750000  0.750000  0.750000  1
  Th  Th1  1  0.250000  0.250000  0.250000  1
  Si  Si2  1  0.000000  0.000000  0.000000  1
  Rh  Rh3  1  0.730843  0.269158  0.269158  1
  Rh  Rh4  1  0.269158  0.730843  0.269158  1
  Rh  Rh5  1  0.730842  0.730842  0.269159  1
  Rh  Rh6  1  0.269158  0.269158  0.730843  1
  Rh  Rh7  1  0.730842  0.269159  0.730842  1
  Rh  Rh8  1  0.269159  0.730842  0.730842  1
