# generated using pymatgen
data_TlFeCl4
_symmetry_space_group_name_H-M   'P 1'
_cell_length_a   7.25187700
_cell_length_b   8.84109676
_cell_length_c   12.71006200
_cell_angle_alpha   74.96891536
_cell_angle_beta   90.00000000
_cell_angle_gamma   90.00000000
_symmetry_Int_Tables_number   1
_chemical_formula_structural   TlFeCl4
_chemical_formula_sum   'Tl4 Fe4 Cl16'
_cell_volume   787.01827733
_cell_formula_units_Z   4
loop_
 _symmetry_equiv_pos_site_id
 _symmetry_equiv_pos_as_xyz
  1  'x, y, z'
loop_
 _atom_site_type_symbol
 _atom_site_label
 _atom_site_symmetry_multiplicity
 _atom_site_fract_x
 _atom_site_fract_y
 _atom_site_fract_z
 _atom_site_occupancy
  Tl  Tl0  1  0.098482  0.000000  0.250000  1
  Tl  Tl1  1  0.370561  0.500000  0.750000  1
  Tl  Tl2  1  0.629439  0.500000  0.250000  1
  Tl  Tl3  1  0.901518  0.000000  0.750000  1
  Fe  Fe4  1  0.784323  0.715113  0.545224  1
  Fe  Fe5  1  0.215677  0.284887  0.454776  1
  Fe  Fe6  1  0.784323  0.284887  0.954776  1
  Fe  Fe7  1  0.215677  0.715113  0.045224  1
  Cl  Cl8  1  0.579976  0.166296  0.874020  1
  Cl  Cl9  1  0.265945  0.539162  0.400652  1
  Cl  Cl10  1  0.937535  0.781412  0.089193  1
  Cl  Cl11  1  0.062465  0.781412  0.589193  1
  Cl  Cl12  1  0.265945  0.460838  0.099348  1
  Cl  Cl13  1  0.420024  0.833704  0.125980  1
  Cl  Cl14  1  0.579976  0.833704  0.625980  1
  Cl  Cl15  1  0.249789  0.204176  0.633857  1
  Cl  Cl16  1  0.062465  0.218588  0.910807  1
  Cl  Cl17  1  0.750211  0.204176  0.133857  1
  Cl  Cl18  1  0.420024  0.166296  0.374020  1
  Cl  Cl19  1  0.750211  0.795824  0.366143  1
  Cl  Cl20  1  0.734055  0.539162  0.900652  1
  Cl  Cl21  1  0.249789  0.795824  0.866143  1
  Cl  Cl22  1  0.937535  0.218588  0.410807  1
  Cl  Cl23  1  0.734055  0.460838  0.599348  1
