# generated using pymatgen
data_Dy2ThMg3Ga2Ag
_symmetry_space_group_name_H-M   'P 1'
_cell_length_a   7.36472600
_cell_length_b   7.43558223
_cell_length_c   4.43374300
_cell_angle_alpha   90.00000000
_cell_angle_beta   90.00000000
_cell_angle_gamma   119.68526929
_symmetry_Int_Tables_number   1
_chemical_formula_structural   Dy2ThMg3Ga2Ag
_chemical_formula_sum   'Dy2 Th1 Mg3 Ga2 Ag1'
_cell_volume   210.93145148
_cell_formula_units_Z   1
loop_
 _symmetry_equiv_pos_site_id
 _symmetry_equiv_pos_as_xyz
  1  'x, y, z'
loop_
 _atom_site_type_symbol
 _atom_site_label
 _atom_site_symmetry_multiplicity
 _atom_site_fract_x
 _atom_site_fract_y
 _atom_site_fract_z
 _atom_site_occupancy
  Dy  Dy0  1  0.999869  0.577703  0.000000  1
  Dy  Dy1  1  0.422165  0.422297  0.000000  1
  Th  Th2  1  0.578102  0.000000  0.000000  1
  Mg  Mg3  1  0.242021  0.000000  0.500000  1
  Mg  Mg4  1  0.002025  0.247032  0.500000  1
  Mg  Mg5  1  0.754992  0.752968  0.500000  1
  Ga  Ga6  1  0.331625  0.664147  0.500000  1
  Ga  Ga7  1  0.667479  0.335853  0.500000  1
  Ag  Ag8  1  0.001721  0.000000  0.000000  1
