# generated using pymatgen
data_Sm3SnP6N13
_symmetry_space_group_name_H-M   'P 1'
_cell_length_a   7.38513032
_cell_length_b   7.38513160
_cell_length_c   7.38513200
_cell_angle_alpha   108.97479798
_cell_angle_beta   108.97479320
_cell_angle_gamma   108.97478782
_symmetry_Int_Tables_number   1
_chemical_formula_structural   Sm3SnP6N13
_chemical_formula_sum   'Sm3 Sn1 P6 N13'
_cell_volume   315.63529323
_cell_formula_units_Z   1
loop_
 _symmetry_equiv_pos_site_id
 _symmetry_equiv_pos_as_xyz
  1  'x, y, z'
loop_
 _atom_site_type_symbol
 _atom_site_label
 _atom_site_symmetry_multiplicity
 _atom_site_fract_x
 _atom_site_fract_y
 _atom_site_fract_z
 _atom_site_occupancy
  Sm  Sm0  1  0.669526  0.997557  0.997557  1
  Sm  Sm1  1  0.997557  0.997557  0.669526  1
  Sm  Sm2  1  0.997557  0.669526  0.997557  1
  Sn  Sn3  1  0.200072  0.200072  0.200072  1
  P  P4  1  0.262654  0.758954  0.509820  1
  P  P5  1  0.758954  0.262654  0.509820  1
  P  P6  1  0.758954  0.509820  0.262654  1
  P  P7  1  0.262654  0.509820  0.758954  1
  P  P8  1  0.509820  0.758954  0.262654  1
  P  P9  1  0.509820  0.262654  0.758954  1
  N  N10  1  0.896758  0.896758  0.896758  1
  N  N11  1  0.730305  0.306469  0.306469  1
  N  N12  1  0.306469  0.730305  0.306469  1
  N  N13  1  0.324755  0.617862  0.617862  1
  N  N14  1  0.617862  0.617862  0.324755  1
  N  N15  1  0.411170  0.714582  0.010225  1
  N  N16  1  0.010225  0.714582  0.411170  1
  N  N17  1  0.617862  0.324755  0.617862  1
  N  N18  1  0.714582  0.010225  0.411170  1
  N  N19  1  0.411170  0.010225  0.714582  1
  N  N20  1  0.714582  0.411170  0.010225  1
  N  N21  1  0.306469  0.306469  0.730305  1
  N  N22  1  0.010225  0.411170  0.714582  1
