# generated using pymatgen
data_Ac5(Sn5Ir2)2
_symmetry_space_group_name_H-M   'P 1'
_cell_length_a   14.48205500
_cell_length_b   14.48205500
_cell_length_c   4.84503900
_cell_angle_alpha   90.00000000
_cell_angle_beta   90.00000000
_cell_angle_gamma   90.00000000
_symmetry_Int_Tables_number   1
_chemical_formula_structural   Ac5(Sn5Ir2)2
_chemical_formula_sum   'Ac10 Sn20 Ir8'
_cell_volume   1016.14962744
_cell_formula_units_Z   2
loop_
 _symmetry_equiv_pos_site_id
 _symmetry_equiv_pos_as_xyz
  1  'x, y, z'
loop_
 _atom_site_type_symbol
 _atom_site_label
 _atom_site_symmetry_multiplicity
 _atom_site_fract_x
 _atom_site_fract_y
 _atom_site_fract_z
 _atom_site_occupancy
  Ac  Ac0  1  0.500000  0.500000  0.000000  1
  Ac  Ac1  1  0.000000  0.000000  0.000000  1
  Ac  Ac2  1  0.678097  0.178097  0.500000  1
  Ac  Ac3  1  0.321903  0.821903  0.500000  1
  Ac  Ac4  1  0.178097  0.321903  0.500000  1
  Ac  Ac5  1  0.821903  0.678097  0.500000  1
  Ac  Ac6  1  0.887769  0.387769  0.500000  1
  Ac  Ac7  1  0.112231  0.612231  0.500000  1
  Ac  Ac8  1  0.387769  0.112231  0.500000  1
  Ac  Ac9  1  0.612231  0.887769  0.500000  1
  Sn  Sn10  1  0.569516  0.069516  0.000000  1
  Sn  Sn11  1  0.430484  0.930484  0.000000  1
  Sn  Sn12  1  0.069516  0.430484  0.000000  1
  Sn  Sn13  1  0.930484  0.569516  0.000000  1
  Sn  Sn14  1  0.653017  0.697703  0.000000  1
  Sn  Sn15  1  0.346983  0.302297  0.000000  1
  Sn  Sn16  1  0.153017  0.802297  0.000000  1
  Sn  Sn17  1  0.846983  0.197703  0.000000  1
  Sn  Sn18  1  0.302297  0.653017  0.000000  1
  Sn  Sn19  1  0.697703  0.346983  0.000000  1
  Sn  Sn20  1  0.197703  0.153017  0.000000  1
  Sn  Sn21  1  0.802297  0.846983  0.000000  1
  Sn  Sn22  1  0.665283  0.503562  0.500000  1
  Sn  Sn23  1  0.334717  0.496438  0.500000  1
  Sn  Sn24  1  0.165283  0.996438  0.500000  1
  Sn  Sn25  1  0.834717  0.003562  0.500000  1
  Sn  Sn26  1  0.496438  0.665283  0.500000  1
  Sn  Sn27  1  0.503562  0.334717  0.500000  1
  Sn  Sn28  1  0.003562  0.165283  0.500000  1
  Sn  Sn29  1  0.996438  0.834717  0.500000  1
  Ir  Ir30  1  0.745041  0.528098  0.000000  1
  Ir  Ir31  1  0.254959  0.471902  0.000000  1
  Ir  Ir32  1  0.245041  0.971902  0.000000  1
  Ir  Ir33  1  0.754959  0.028098  0.000000  1
  Ir  Ir34  1  0.471902  0.745041  0.000000  1
  Ir  Ir35  1  0.528098  0.254959  0.000000  1
  Ir  Ir36  1  0.028098  0.245041  0.000000  1
  Ir  Ir37  1  0.971902  0.754959  0.000000  1
