# generated using pymatgen
data_Er2Si4Sn(PRh6)2
_symmetry_space_group_name_H-M   'P 1'
_cell_length_a   9.84099819
_cell_length_b   9.80222138
_cell_length_c   3.84175391
_cell_angle_alpha   89.98798709
_cell_angle_beta   90.07277829
_cell_angle_gamma   119.67871825
_symmetry_Int_Tables_number   1
_chemical_formula_structural   Er2Si4Sn(PRh6)2
_chemical_formula_sum   'Er2 Si4 Sn1 P2 Rh12'
_cell_volume   321.97366579
_cell_formula_units_Z   1
loop_
 _symmetry_equiv_pos_site_id
 _symmetry_equiv_pos_as_xyz
  1  'x, y, z'
loop_
 _atom_site_type_symbol
 _atom_site_label
 _atom_site_symmetry_multiplicity
 _atom_site_fract_x
 _atom_site_fract_y
 _atom_site_fract_z
 _atom_site_occupancy
  Er  Er0  1  0.334535  0.665927  0.738301  1
  Er  Er1  1  0.665250  0.334537  0.238163  1
  Si  Si2  1  0.400983  0.290932  0.738044  1
  Si  Si3  1  0.709582  0.113036  0.738022  1
  Si  Si4  1  0.888018  0.599283  0.738093  1
  Si  Si5  1  0.596977  0.705598  0.238211  1
  Sn  Sn6  1  0.000154  0.998716  0.737453  1
  P  P7  1  0.293121  0.887457  0.238135  1
  P  P8  1  0.110769  0.402809  0.238430  1
  Rh  Rh9  1  0.449944  0.074179  0.737675  1
  Rh  Rh10  1  0.927645  0.378585  0.738030  1
  Rh  Rh11  1  0.621808  0.552621  0.738227  1
  Rh  Rh12  1  0.548783  0.939891  0.238274  1
  Rh  Rh13  1  0.061096  0.609217  0.238049  1
  Rh  Rh14  1  0.384877  0.444716  0.238051  1
  Rh  Rh15  1  0.158047  0.296911  0.739021  1
  Rh  Rh16  1  0.705048  0.866410  0.738111  1
  Rh  Rh17  1  0.139482  0.837652  0.737662  1
  Rh  Rh18  1  0.861432  0.741530  0.238139  1
  Rh  Rh19  1  0.258835  0.112845  0.237770  1
  Rh  Rh20  1  0.883614  0.147149  0.238138  1
