# generated using pymatgen
data_Ho7Lu3IrOs3
_symmetry_space_group_name_H-M   'P 1'
_cell_length_a   6.35407942
_cell_length_b   7.31692493
_cell_length_c   8.33559500
_cell_angle_alpha   96.76052443
_cell_angle_beta   112.34937675
_cell_angle_gamma   90.05714508
_symmetry_Int_Tables_number   1
_chemical_formula_structural   Ho7Lu3IrOs3
_chemical_formula_sum   'Ho7 Lu3 Ir1 Os3'
_cell_volume   355.49570829
_cell_formula_units_Z   1
loop_
 _symmetry_equiv_pos_site_id
 _symmetry_equiv_pos_as_xyz
  1  'x, y, z'
loop_
 _atom_site_type_symbol
 _atom_site_label
 _atom_site_symmetry_multiplicity
 _atom_site_fract_x
 _atom_site_fract_y
 _atom_site_fract_z
 _atom_site_occupancy
  Ho  Ho0  1  0.969577  0.916001  0.179721  1
  Ho  Ho1  1  0.789271  0.581170  0.817695  1
  Ho  Ho2  1  0.025015  0.083628  0.814712  1
  Ho  Ho3  1  0.209281  0.418977  0.180274  1
  Ho  Ho4  1  0.648494  0.816611  0.438279  1
  Ho  Ho5  1  0.208997  0.681713  0.563019  1
  Ho  Ho6  1  0.352447  0.182075  0.564385  1
  Lu  Lu7  1  0.793557  0.320007  0.437769  1
  Lu  Lu8  1  0.423114  0.749091  0.999310  1
  Lu  Lu9  1  0.577255  0.250555  0.000376  1
  Ir  Ir10  1  0.399080  0.077250  0.219671  1
  Os  Os11  1  0.820514  0.574817  0.217098  1
  Os  Os12  1  0.606385  0.924655  0.783807  1
  Os  Os13  1  0.177016  0.423453  0.783883  1
