# generated using pymatgen
data_Tb5Er3Re2(B12Os)2
_symmetry_space_group_name_H-M   'P 1'
_cell_length_a   3.66929200
_cell_length_b   9.16298571
_cell_length_c   11.55886402
_cell_angle_alpha   90.14683225
_cell_angle_beta   90.00000000
_cell_angle_gamma   90.00000000
_symmetry_Int_Tables_number   1
_chemical_formula_structural   Tb5Er3Re2(B12Os)2
_chemical_formula_sum   'Tb5 Er3 Re2 B24 Os2'
_cell_volume   388.62703752
_cell_formula_units_Z   1
loop_
 _symmetry_equiv_pos_site_id
 _symmetry_equiv_pos_as_xyz
  1  'x, y, z'
loop_
 _atom_site_type_symbol
 _atom_site_label
 _atom_site_symmetry_multiplicity
 _atom_site_fract_x
 _atom_site_fract_y
 _atom_site_fract_z
 _atom_site_occupancy
  Tb  Tb0  1  0.000000  0.321091  0.412557  1
  Tb  Tb1  1  0.000000  0.678950  0.587719  1
  Tb  Tb2  1  0.000000  0.824287  0.084690  1
  Tb  Tb3  1  0.000000  0.175720  0.914998  1
  Tb  Tb4  1  0.000000  0.943492  0.370922  1
  Er  Er5  1  0.000000  0.056753  0.629780  1
  Er  Er6  1  0.000000  0.442576  0.128674  1
  Er  Er7  1  0.000000  0.557434  0.871164  1
  Re  Re8  1  0.000000  0.139295  0.179403  1
  Re  Re9  1  0.000000  0.861292  0.820196  1
  B  B10  1  0.500000  0.553718  0.432647  1
  B  B11  1  0.500000  0.445855  0.567486  1
  B  B12  1  0.500000  0.053512  0.067039  1
  B  B13  1  0.500000  0.946572  0.932645  1
  B  B14  1  0.500000  0.748008  0.418400  1
  B  B15  1  0.500000  0.250976  0.581712  1
  B  B16  1  0.500000  0.249424  0.081309  1
  B  B17  1  0.500000  0.750739  0.918576  1
  B  B18  1  0.500000  0.789854  0.265947  1
  B  B19  1  0.500000  0.209244  0.733823  1
  B  B20  1  0.500000  0.292143  0.234174  1
  B  B21  1  0.500000  0.708239  0.765726  1
  B  B22  1  0.500000  0.630158  0.185936  1
  B  B23  1  0.500000  0.369581  0.813893  1
  B  B24  1  0.500000  0.131784  0.314302  1
  B  B25  1  0.500000  0.869034  0.685355  1
  B  B26  1  0.500000  0.983543  0.212165  1
  B  B27  1  0.500000  0.017049  0.787113  1
  B  B28  1  0.500000  0.483070  0.287530  1
  B  B29  1  0.500000  0.516728  0.712391  1
  B  B30  1  0.500000  0.601926  0.028433  1
  B  B31  1  0.500000  0.398056  0.971481  1
  B  B32  1  0.500000  0.103791  0.472414  1
  B  B33  1  0.500000  0.897050  0.529350  1
  Os  Os34  1  0.000000  0.636811  0.321302  1
  Os  Os35  1  0.000000  0.362244  0.678747  1
