# generated using pymatgen
data_Nd4Fe9P12Rh11
_symmetry_space_group_name_H-M   'P 1'
_cell_length_a   3.84260400
_cell_length_b   10.62282996
_cell_length_c   12.36113009
_cell_angle_alpha   89.80968128
_cell_angle_beta   90.00000000
_cell_angle_gamma   90.00000000
_symmetry_Int_Tables_number   1
_chemical_formula_structural   Nd4Fe9P12Rh11
_chemical_formula_sum   'Nd4 Fe9 P12 Rh11'
_cell_volume   504.57025098
_cell_formula_units_Z   1
loop_
 _symmetry_equiv_pos_site_id
 _symmetry_equiv_pos_as_xyz
  1  'x, y, z'
loop_
 _atom_site_type_symbol
 _atom_site_label
 _atom_site_symmetry_multiplicity
 _atom_site_fract_x
 _atom_site_fract_y
 _atom_site_fract_z
 _atom_site_occupancy
  Nd  Nd0  1  0.250000  0.579595  0.707528  1
  Nd  Nd1  1  0.250000  0.917340  0.211548  1
  Nd  Nd2  1  0.750000  0.422640  0.292246  1
  Nd  Nd3  1  0.750000  0.079068  0.791122  1
  Fe  Fe4  1  0.750000  0.727372  0.328379  1
  Fe  Fe5  1  0.250000  0.875125  0.696958  1
  Fe  Fe6  1  0.250000  0.624851  0.197576  1
  Fe  Fe7  1  0.750000  0.121140  0.302435  1
  Fe  Fe8  1  0.750000  0.375919  0.802060  1
  Fe  Fe9  1  0.250000  0.459875  0.935388  1
  Fe  Fe10  1  0.250000  0.039601  0.435030  1
  Fe  Fe11  1  0.750000  0.541038  0.065294  1
  Fe  Fe12  1  0.750000  0.960147  0.563825  1
  P  P13  1  0.250000  0.440779  0.110630  1
  P  P14  1  0.250000  0.059483  0.609744  1
  P  P15  1  0.750000  0.559275  0.889791  1
  P  P16  1  0.750000  0.931897  0.388802  1
  P  P17  1  0.250000  0.275448  0.863547  1
  P  P18  1  0.250000  0.224308  0.364376  1
  P  P19  1  0.750000  0.723043  0.145769  1
  P  P20  1  0.750000  0.775960  0.636265  1
  P  P21  1  0.250000  0.613420  0.378021  1
  P  P22  1  0.250000  0.894346  0.884354  1
  P  P23  1  0.750000  0.396997  0.614838  1
  P  P24  1  0.750000  0.103050  0.117719  1
  Rh  Rh25  1  0.250000  0.710384  0.990192  1
  Rh  Rh26  1  0.250000  0.792177  0.485348  1
  Rh  Rh27  1  0.750000  0.288170  0.010311  1
  Rh  Rh28  1  0.750000  0.212400  0.508002  1
  Rh  Rh29  1  0.250000  0.410505  0.481199  1
  Rh  Rh30  1  0.250000  0.092014  0.982874  1
  Rh  Rh31  1  0.750000  0.597885  0.514744  1
  Rh  Rh32  1  0.750000  0.904882  0.020015  1
  Rh  Rh33  1  0.250000  0.230612  0.174177  1
  Rh  Rh34  1  0.250000  0.269748  0.672613  1
  Rh  Rh35  1  0.750000  0.769505  0.827273  1
