# generated using pymatgen
data_Eu3Al3(Ni5B)2
_symmetry_space_group_name_H-M   'P 1'
_cell_length_a   5.25004400
_cell_length_b   5.24988924
_cell_length_c   10.54177900
_cell_angle_alpha   90.00070846
_cell_angle_beta   89.99861137
_cell_angle_gamma   119.99957330
_symmetry_Int_Tables_number   1
_chemical_formula_structural   Eu3Al3(Ni5B)2
_chemical_formula_sum   'Eu3 Al3 Ni10 B2'
_cell_volume   251.62830415
_cell_formula_units_Z   1
loop_
 _symmetry_equiv_pos_site_id
 _symmetry_equiv_pos_as_xyz
  1  'x, y, z'
loop_
 _atom_site_type_symbol
 _atom_site_label
 _atom_site_symmetry_multiplicity
 _atom_site_fract_x
 _atom_site_fract_y
 _atom_site_fract_z
 _atom_site_occupancy
  Eu  Eu0  1  0.000017  0.000048  0.996408  1
  Eu  Eu1  1  0.999993  0.000027  0.330515  1
  Eu  Eu2  1  0.000017  0.000020  0.675107  1
  Al  Al3  1  0.333324  0.666691  0.317078  1
  Al  Al4  1  0.666642  0.333258  0.317080  1
  Al  Al5  1  0.666673  0.333314  0.683988  1
  Ni  Ni6  1  0.500108  0.499834  0.128098  1
  Ni  Ni7  1  0.999734  0.499827  0.128112  1
  Ni  Ni8  1  0.500142  0.000263  0.128118  1
  Ni  Ni9  1  0.498756  0.501280  0.501447  1
  Ni  Ni10  1  0.002519  0.501284  0.501445  1
  Ni  Ni11  1  0.498754  0.997497  0.501437  1
  Ni  Ni12  1  0.333368  0.666738  0.683591  1
  Ni  Ni13  1  0.499770  0.999525  0.870656  1
  Ni  Ni14  1  0.000486  0.500251  0.870640  1
  Ni  Ni15  1  0.499784  0.500257  0.870635  1
  B  B16  1  0.333344  0.666709  0.997549  1
  B  B17  1  0.666670  0.333276  0.998093  1
