# generated using pymatgen
data_Tb3Pr2Tm(IrO7)2
_symmetry_space_group_name_H-M   'P 1'
_cell_length_a   6.48978996
_cell_length_b   6.48391474
_cell_length_c   7.51385700
_cell_angle_alpha   90.00000000
_cell_angle_beta   90.00000000
_cell_angle_gamma   109.70431146
_symmetry_Int_Tables_number   1
_chemical_formula_structural   Tb3Pr2Tm(IrO7)2
_chemical_formula_sum   'Tb3 Pr2 Tm1 Ir2 O14'
_cell_volume   297.66371410
_cell_formula_units_Z   1
loop_
 _symmetry_equiv_pos_site_id
 _symmetry_equiv_pos_as_xyz
  1  'x, y, z'
loop_
 _atom_site_type_symbol
 _atom_site_label
 _atom_site_symmetry_multiplicity
 _atom_site_fract_x
 _atom_site_fract_y
 _atom_site_fract_z
 _atom_site_occupancy
  Tb  Tb0  1  0.484483  0.935036  0.750000  1
  Tb  Tb1  1  0.516141  0.065180  0.250000  1
  Tb  Tb2  1  0.936162  0.483906  0.750000  1
  Pr  Pr3  1  0.002475  0.001307  0.001192  1
  Pr  Pr4  1  0.002475  0.001307  0.498808  1
  Tm  Tm5  1  0.060273  0.513258  0.250000  1
  Ir  Ir6  1  0.500734  0.501256  0.001284  1
  Ir  Ir7  1  0.500734  0.501256  0.498716  1
  O  O8  1  0.586577  0.586654  0.750000  1
  O  O9  1  0.401394  0.408973  0.250000  1
  O  O10  1  0.841651  0.119904  0.750000  1
  O  O11  1  0.160455  0.872100  0.250000  1
  O  O12  1  0.120187  0.840547  0.750000  1
  O  O13  1  0.881827  0.163361  0.250000  1
  O  O14  1  0.438408  0.181144  0.966128  1
  O  O15  1  0.564263  0.820411  0.465231  1
  O  O16  1  0.180825  0.443758  0.969582  1
  O  O17  1  0.818721  0.557664  0.462459  1
  O  O18  1  0.438408  0.181144  0.533872  1
  O  O19  1  0.564263  0.820411  0.034769  1
  O  O20  1  0.818721  0.557664  0.037541  1
  O  O21  1  0.180825  0.443758  0.530418  1
