# generated using pymatgen
data_Y3In3Ga2Cu
_symmetry_space_group_name_H-M   'P 1'
_cell_length_a   7.31435900
_cell_length_b   7.31435987
_cell_length_c   4.37331500
_cell_angle_alpha   90.00000000
_cell_angle_beta   90.00000000
_cell_angle_gamma   119.99999154
_symmetry_Int_Tables_number   1
_chemical_formula_structural   Y3In3Ga2Cu
_chemical_formula_sum   'Y3 In3 Ga2 Cu1'
_cell_volume   202.62546516
_cell_formula_units_Z   1
loop_
 _symmetry_equiv_pos_site_id
 _symmetry_equiv_pos_as_xyz
  1  'x, y, z'
loop_
 _atom_site_type_symbol
 _atom_site_label
 _atom_site_symmetry_multiplicity
 _atom_site_fract_x
 _atom_site_fract_y
 _atom_site_fract_z
 _atom_site_occupancy
  Y  Y0  1  0.408479  0.000000  0.500000  1
  Y  Y1  1  0.000000  0.408479  0.500000  1
  Y  Y2  1  0.591521  0.591521  0.500000  1
  In  In3  1  0.753241  0.000000  0.000000  1
  In  In4  1  0.000000  0.753241  0.000000  1
  In  In5  1  0.246759  0.246759  0.000000  1
  Ga  Ga6  1  0.333333  0.666667  0.000000  1
  Ga  Ga7  1  0.666667  0.333333  0.000000  1
  Cu  Cu8  1  0.000000  0.000000  0.500000  1
