# generated using pymatgen
data_Y6Lu14Cd6OsRu
_symmetry_space_group_name_H-M   'P 1'
_cell_length_a   9.47760500
_cell_length_b   9.47760551
_cell_length_c   9.68649100
_cell_angle_alpha   90.00000000
_cell_angle_beta   90.00000000
_cell_angle_gamma   120.00000170
_symmetry_Int_Tables_number   1
_chemical_formula_structural   Y6Lu14Cd6OsRu
_chemical_formula_sum   'Y6 Lu14 Cd6 Os1 Ru1'
_cell_volume   753.51922314
_cell_formula_units_Z   1
loop_
 _symmetry_equiv_pos_site_id
 _symmetry_equiv_pos_as_xyz
  1  'x, y, z'
loop_
 _atom_site_type_symbol
 _atom_site_label
 _atom_site_symmetry_multiplicity
 _atom_site_fract_x
 _atom_site_fract_y
 _atom_site_fract_z
 _atom_site_occupancy
  Y  Y0  1  0.539135  0.460865  0.250000  1
  Y  Y1  1  0.539135  0.078271  0.250000  1
  Y  Y2  1  0.921729  0.460865  0.250000  1
  Y  Y3  1  0.459655  0.540345  0.750000  1
  Y  Y4  1  0.459655  0.919310  0.750000  1
  Y  Y5  1  0.080690  0.540345  0.750000  1
  Lu  Lu6  1  0.000000  0.000000  0.499717  1
  Lu  Lu7  1  0.000000  0.000000  0.000283  1
  Lu  Lu8  1  0.209908  0.790092  0.440854  1
  Lu  Lu9  1  0.209908  0.419818  0.440854  1
  Lu  Lu10  1  0.580182  0.790092  0.440854  1
  Lu  Lu11  1  0.789885  0.210115  0.559820  1
  Lu  Lu12  1  0.789885  0.579768  0.559820  1
  Lu  Lu13  1  0.420232  0.210115  0.559820  1
  Lu  Lu14  1  0.789885  0.210115  0.940180  1
  Lu  Lu15  1  0.789885  0.579768  0.940180  1
  Lu  Lu16  1  0.420232  0.210115  0.940180  1
  Lu  Lu17  1  0.209908  0.790092  0.059146  1
  Lu  Lu18  1  0.209908  0.419818  0.059146  1
  Lu  Lu19  1  0.580182  0.790092  0.059146  1
  Cd  Cd20  1  0.886206  0.113794  0.250000  1
  Cd  Cd21  1  0.886206  0.772413  0.250000  1
  Cd  Cd22  1  0.227587  0.113794  0.250000  1
  Cd  Cd23  1  0.113816  0.886184  0.750000  1
  Cd  Cd24  1  0.113816  0.227630  0.750000  1
  Cd  Cd25  1  0.772370  0.886184  0.750000  1
  Os  Os26  1  0.333333  0.666667  0.250000  1
  Ru  Ru27  1  0.666667  0.333333  0.750000  1
