# generated using pymatgen
data_Lu5Co2
_symmetry_space_group_name_H-M   'P 1'
_cell_length_a   8.30784754
_cell_length_b   8.30784772
_cell_length_c   6.83855746
_cell_angle_alpha   83.58199575
_cell_angle_beta   83.58199365
_cell_angle_gamma   43.52758428
_symmetry_Int_Tables_number   1
_chemical_formula_structural   Lu5Co2
_chemical_formula_sum   'Lu10 Co4'
_cell_volume   322.70465537
_cell_formula_units_Z   2
loop_
 _symmetry_equiv_pos_site_id
 _symmetry_equiv_pos_as_xyz
  1  'x, y, z'
loop_
 _atom_site_type_symbol
 _atom_site_label
 _atom_site_symmetry_multiplicity
 _atom_site_fract_x
 _atom_site_fract_y
 _atom_site_fract_z
 _atom_site_occupancy
  Lu  Lu0  1  0.646152  0.786645  0.685452  1
  Lu  Lu1  1  0.213355  0.353848  0.814548  1
  Lu  Lu2  1  0.353848  0.213355  0.314548  1
  Lu  Lu3  1  0.786645  0.646152  0.185452  1
  Lu  Lu4  1  0.428693  0.571307  0.750000  1
  Lu  Lu5  1  0.571307  0.428693  0.250000  1
  Lu  Lu6  1  0.201898  0.987080  0.086275  1
  Lu  Lu7  1  0.012920  0.798102  0.413725  1
  Lu  Lu8  1  0.798102  0.012920  0.913725  1
  Lu  Lu9  1  0.987080  0.201898  0.586275  1
  Co  Co10  1  0.399405  0.823336  0.427095  1
  Co  Co11  1  0.176664  0.600595  0.072905  1
  Co  Co12  1  0.600595  0.176664  0.572905  1
  Co  Co13  1  0.823336  0.399405  0.927095  1
