# generated using pymatgen
data_Dy5AsP11Ir8Ru11
_symmetry_space_group_name_H-M   'P 1'
_cell_length_a   12.63463149
_cell_length_b   12.58038336
_cell_length_c   3.97286200
_cell_angle_alpha   90.00000000
_cell_angle_beta   90.00000000
_cell_angle_gamma   119.68987163
_symmetry_Int_Tables_number   1
_chemical_formula_structural   Dy5AsP11Ir8Ru11
_chemical_formula_sum   'Dy5 As1 P11 Ir8 Ru11'
_cell_volume   548.57915031
_cell_formula_units_Z   1
loop_
 _symmetry_equiv_pos_site_id
 _symmetry_equiv_pos_as_xyz
  1  'x, y, z'
loop_
 _atom_site_type_symbol
 _atom_site_label
 _atom_site_symmetry_multiplicity
 _atom_site_fract_x
 _atom_site_fract_y
 _atom_site_fract_z
 _atom_site_occupancy
  Dy  Dy0  1  0.666429  0.331475  0.000000  1
  Dy  Dy1  1  0.332225  0.666914  0.000000  1
  Dy  Dy2  1  0.816832  0.000952  0.500000  1
  Dy  Dy3  1  0.185554  0.188458  0.500000  1
  Dy  Dy4  1  0.000032  0.814068  0.500000  1
  As  As5  1  0.633370  0.001229  0.000000  1
  P  P6  1  0.365483  0.371072  0.000000  1
  P  P7  1  0.006068  0.635372  0.000000  1
  P  P8  1  0.689739  0.517595  0.500000  1
  P  P9  1  0.828338  0.305584  0.500000  1
  P  P10  1  0.311490  0.831351  0.500000  1
  P  P11  1  0.517077  0.685330  0.500000  1
  P  P12  1  0.179918  0.002697  0.000000  1
  P  P13  1  0.817720  0.816896  0.000000  1
  P  P14  1  0.998569  0.184579  0.000000  1
  P  P15  1  0.480614  0.164690  0.500000  1
  P  P16  1  0.171522  0.484690  0.500000  1
  Ir  Ir17  1  0.620942  0.796639  0.000000  1
  Ir  Ir18  1  0.182740  0.378273  0.000000  1
  Ir  Ir19  1  0.372300  0.184908  0.000000  1
  Ir  Ir20  1  0.193510  0.821499  0.000000  1
  Ir  Ir21  1  0.810571  0.624295  0.000000  1
  Ir  Ir22  1  0.869768  0.505332  0.500000  1
  Ir  Ir23  1  0.494380  0.359217  0.500000  1
  Ir  Ir24  1  0.997328  0.000501  0.000000  1
  Ru  Ru25  1  0.637839  0.128591  0.500000  1
  Ru  Ru26  1  0.127542  0.641042  0.500000  1
  Ru  Ru27  1  0.362777  0.487152  0.500000  1
  Ru  Ru28  1  0.505714  0.866358  0.500000  1
  Ru  Ru29  1  0.715574  0.711523  0.500000  1
  Ru  Ru30  1  0.003850  0.289108  0.500000  1
  Ru  Ru31  1  0.443148  0.001043  0.000000  1
  Ru  Ru32  1  0.552636  0.544773  0.000000  1
  Ru  Ru33  1  0.001728  0.452339  0.000000  1
  Ru  Ru34  1  0.823358  0.201970  0.000000  1
  Ru  Ru35  1  0.283317  0.002487  0.500000  1
