# generated using pymatgen
data_La7Pr6ThPt6
_symmetry_space_group_name_H-M   'P 1'
_cell_length_a   6.58749601
_cell_length_b   10.31046201
_cell_length_c   10.31046151
_cell_angle_alpha   119.97791301
_cell_angle_beta   89.99586764
_cell_angle_gamma   90.00413505
_symmetry_Int_Tables_number   1
_chemical_formula_structural   La7Pr6ThPt6
_chemical_formula_sum   'La7 Pr6 Th1 Pt6'
_cell_volume   606.60200546
_cell_formula_units_Z   1
loop_
 _symmetry_equiv_pos_site_id
 _symmetry_equiv_pos_as_xyz
  1  'x, y, z'
loop_
 _atom_site_type_symbol
 _atom_site_label
 _atom_site_symmetry_multiplicity
 _atom_site_fract_x
 _atom_site_fract_y
 _atom_site_fract_z
 _atom_site_occupancy
  La  La0  1  0.961516  0.666614  0.333386  1
  La  La1  1  0.247718  0.128580  0.871420  1
  La  La2  1  0.247456  0.743238  0.871619  1
  La  La3  1  0.247456  0.128381  0.256762  1
  La  La4  1  0.747914  0.871893  0.128107  1
  La  La5  1  0.747685  0.255864  0.127944  1
  La  La6  1  0.747685  0.872056  0.744136  1
  Pr  Pr7  1  0.441904  0.537495  0.462505  1
  Pr  Pr8  1  0.441780  0.924965  0.462522  1
  Pr  Pr9  1  0.441780  0.537478  0.075035  1
  Pr  Pr10  1  0.943452  0.461837  0.538163  1
  Pr  Pr11  1  0.943293  0.076378  0.538162  1
  Pr  Pr12  1  0.943293  0.461838  0.923622  1
  Th  Th13  1  0.464425  0.333394  0.666606  1
  Pt  Pt14  1  0.188068  0.811424  0.188576  1
  Pt  Pt15  1  0.187889  0.377086  0.188665  1
  Pt  Pt16  1  0.187889  0.811335  0.622914  1
  Pt  Pt17  1  0.685059  0.190540  0.809460  1
  Pt  Pt18  1  0.684866  0.618979  0.809376  1
  Pt  Pt19  1  0.684866  0.190624  0.381021  1
