# generated using pymatgen
data_Tm2LuSc2Sb3
_symmetry_space_group_name_H-M   'P 1'
_cell_length_a   8.71068600
_cell_length_b   8.68797888
_cell_length_c   6.03431700
_cell_angle_alpha   90.00000000
_cell_angle_beta   90.00000000
_cell_angle_gamma   120.08649577
_symmetry_Int_Tables_number   1
_chemical_formula_structural   Tm2LuSc2Sb3
_chemical_formula_sum   'Tm4 Lu2 Sc4 Sb6'
_cell_volume   395.13971427
_cell_formula_units_Z   2
loop_
 _symmetry_equiv_pos_site_id
 _symmetry_equiv_pos_as_xyz
  1  'x, y, z'
loop_
 _atom_site_type_symbol
 _atom_site_label
 _atom_site_symmetry_multiplicity
 _atom_site_fract_x
 _atom_site_fract_y
 _atom_site_fract_z
 _atom_site_occupancy
  Tm  Tm0  1  0.999897  0.244243  0.250000  1
  Tm  Tm1  1  0.755654  0.755757  0.250000  1
  Tm  Tm2  1  0.244346  0.244243  0.750000  1
  Tm  Tm3  1  0.000103  0.755757  0.750000  1
  Lu  Lu4  1  0.244662  0.000000  0.250000  1
  Lu  Lu5  1  0.755338  0.000000  0.750000  1
  Sc  Sc6  1  0.333321  0.666642  0.000000  1
  Sc  Sc7  1  0.666679  0.333358  0.500000  1
  Sc  Sc8  1  0.666679  0.333358  0.000000  1
  Sc  Sc9  1  0.333321  0.666642  0.500000  1
  Sb  Sb10  1  0.604717  0.000000  0.250000  1
  Sb  Sb11  1  0.395283  0.000000  0.750000  1
  Sb  Sb12  1  0.000609  0.606165  0.250000  1
  Sb  Sb13  1  0.394444  0.393835  0.250000  1
  Sb  Sb14  1  0.605556  0.606165  0.750000  1
  Sb  Sb15  1  0.999391  0.393835  0.750000  1
