# generated using pymatgen
data_Sm2(ThOs)3
_symmetry_space_group_name_H-M   'P 1'
_cell_length_a   8.42475900
_cell_length_b   8.42475984
_cell_length_c   6.48025800
_cell_angle_alpha   90.00000000
_cell_angle_beta   90.00000000
_cell_angle_gamma   120.00000061
_symmetry_Int_Tables_number   1
_chemical_formula_structural   Sm2(ThOs)3
_chemical_formula_sum   'Sm4 Th6 Os6'
_cell_volume   398.32534578
_cell_formula_units_Z   2
loop_
 _symmetry_equiv_pos_site_id
 _symmetry_equiv_pos_as_xyz
  1  'x, y, z'
loop_
 _atom_site_type_symbol
 _atom_site_label
 _atom_site_symmetry_multiplicity
 _atom_site_fract_x
 _atom_site_fract_y
 _atom_site_fract_z
 _atom_site_occupancy
  Sm  Sm0  1  0.333333  0.666667  0.000000  1
  Sm  Sm1  1  0.666667  0.333333  0.000000  1
  Sm  Sm2  1  0.666667  0.333333  0.500000  1
  Sm  Sm3  1  0.333333  0.666667  0.500000  1
  Th  Th4  1  0.252331  0.000000  0.250000  1
  Th  Th5  1  0.747669  0.000000  0.750000  1
  Th  Th6  1  0.000000  0.252331  0.250000  1
  Th  Th7  1  0.000000  0.747669  0.750000  1
  Th  Th8  1  0.747669  0.747669  0.250000  1
  Th  Th9  1  0.252331  0.252331  0.750000  1
  Os  Os10  1  0.622898  0.000000  0.250000  1
  Os  Os11  1  0.377102  0.000000  0.750000  1
  Os  Os12  1  0.000000  0.622898  0.250000  1
  Os  Os13  1  0.000000  0.377102  0.750000  1
  Os  Os14  1  0.377102  0.377102  0.250000  1
  Os  Os15  1  0.622898  0.622898  0.750000  1
