# generated using pymatgen
data_Pr2Ga6CuPd
_symmetry_space_group_name_H-M   'P 1'
_cell_length_a   6.04473717
_cell_length_b   6.04473628
_cell_length_c   6.03373100
_cell_angle_alpha   90.00000000
_cell_angle_beta   90.00000000
_cell_angle_gamma   117.82518041
_symmetry_Int_Tables_number   1
_chemical_formula_structural   Pr2Ga6CuPd
_chemical_formula_sum   'Pr2 Ga6 Cu1 Pd1'
_cell_volume   194.97441857
_cell_formula_units_Z   1
loop_
 _symmetry_equiv_pos_site_id
 _symmetry_equiv_pos_as_xyz
  1  'x, y, z'
loop_
 _atom_site_type_symbol
 _atom_site_label
 _atom_site_symmetry_multiplicity
 _atom_site_fract_x
 _atom_site_fract_y
 _atom_site_fract_z
 _atom_site_occupancy
  Pr  Pr0  1  0.241980  0.758020  0.750000  1
  Pr  Pr1  1  0.759108  0.240892  0.250000  1
  Ga  Ga2  1  0.664886  0.335114  0.750000  1
  Ga  Ga3  1  0.338422  0.661578  0.250000  1
  Ga  Ga4  1  0.726379  0.727331  0.994486  1
  Ga  Ga5  1  0.726379  0.727331  0.505514  1
  Ga  Ga6  1  0.272669  0.273621  0.994486  1
  Ga  Ga7  1  0.272669  0.273621  0.505514  1
  Cu  Cu8  1  0.897193  0.102807  0.750000  1
  Pd  Pd9  1  0.100314  0.899686  0.250000  1
