# generated using pymatgen
data_Dy6B14MoOs
_symmetry_space_group_name_H-M   'P 1'
_cell_length_a   8.12046283
_cell_length_b   8.12046226
_cell_length_c   9.39519100
_cell_angle_alpha   90.00000000
_cell_angle_beta   90.00000000
_cell_angle_gamma   155.05229409
_symmetry_Int_Tables_number   1
_chemical_formula_structural   Dy6B14MoOs
_chemical_formula_sum   'Dy6 B14 Mo1 Os1'
_cell_volume   261.31500587
_cell_formula_units_Z   1
loop_
 _symmetry_equiv_pos_site_id
 _symmetry_equiv_pos_as_xyz
  1  'x, y, z'
loop_
 _atom_site_type_symbol
 _atom_site_label
 _atom_site_symmetry_multiplicity
 _atom_site_fract_x
 _atom_site_fract_y
 _atom_site_fract_z
 _atom_site_occupancy
  Dy  Dy0  1  0.256664  0.743336  0.250000  1
  Dy  Dy1  1  0.744428  0.255572  0.750000  1
  Dy  Dy2  1  0.605768  0.394232  0.062029  1
  Dy  Dy3  1  0.393255  0.606745  0.940760  1
  Dy  Dy4  1  0.393255  0.606745  0.559240  1
  Dy  Dy5  1  0.605768  0.394232  0.437971  1
  B  B6  1  0.978727  0.021273  0.096456  1
  B  B7  1  0.019834  0.980166  0.908587  1
  B  B8  1  0.019834  0.980166  0.591413  1
  B  B9  1  0.978727  0.021273  0.403544  1
  B  B10  1  0.773512  0.226488  0.034491  1
  B  B11  1  0.227913  0.772087  0.968060  1
  B  B12  1  0.227913  0.772087  0.531940  1
  B  B13  1  0.773512  0.226488  0.465509  1
  B  B14  1  0.868153  0.131847  0.151088  1
  B  B15  1  0.134641  0.865359  0.852495  1
  B  B16  1  0.134641  0.865359  0.647505  1
  B  B17  1  0.868153  0.131847  0.348912  1
  B  B18  1  0.041620  0.958380  0.250000  1
  B  B19  1  0.955330  0.044670  0.750000  1
  Mo  Mo20  1  0.552729  0.447271  0.750000  1
  Os  Os21  1  0.445625  0.554375  0.250000  1
