# generated using pymatgen
data_Dy6ErCo17P12
_symmetry_space_group_name_H-M   'P 1'
_cell_length_a   3.72336200
_cell_length_b   10.61631900
_cell_length_c   12.38742500
_cell_angle_alpha   90.00000000
_cell_angle_beta   90.00000000
_cell_angle_gamma   90.00000000
_symmetry_Int_Tables_number   1
_chemical_formula_structural   Dy6ErCo17P12
_chemical_formula_sum   'Dy6 Er1 Co17 P12'
_cell_volume   489.65507482
_cell_formula_units_Z   1
loop_
 _symmetry_equiv_pos_site_id
 _symmetry_equiv_pos_as_xyz
  1  'x, y, z'
loop_
 _atom_site_type_symbol
 _atom_site_label
 _atom_site_symmetry_multiplicity
 _atom_site_fract_x
 _atom_site_fract_y
 _atom_site_fract_z
 _atom_site_occupancy
  Dy  Dy0  1  0.000000  0.500000  0.531855  1
  Dy  Dy1  1  0.500000  0.000000  0.478172  1
  Dy  Dy2  1  0.500000  0.822516  0.208025  1
  Dy  Dy3  1  0.500000  0.177484  0.208025  1
  Dy  Dy4  1  0.000000  0.683498  0.795179  1
  Dy  Dy5  1  0.000000  0.316502  0.795179  1
  Er  Er6  1  0.500000  0.500000  0.154988  1
  Co  Co7  1  0.000000  0.000000  0.834452  1
  Co  Co8  1  0.500000  0.500000  0.703307  1
  Co  Co9  1  0.000000  0.000000  0.295146  1
  Co  Co10  1  0.000000  0.500000  0.981110  1
  Co  Co11  1  0.500000  0.000000  0.013136  1
  Co  Co12  1  0.500000  0.323898  0.985911  1
  Co  Co13  1  0.500000  0.676102  0.985911  1
  Co  Co14  1  0.000000  0.158883  0.998497  1
  Co  Co15  1  0.000000  0.841117  0.998497  1
  Co  Co16  1  0.500000  0.292704  0.436724  1
  Co  Co17  1  0.500000  0.707296  0.436724  1
  Co  Co18  1  0.000000  0.200878  0.571089  1
  Co  Co19  1  0.000000  0.799122  0.571089  1
  Co  Co20  1  0.500000  0.880946  0.707165  1
  Co  Co21  1  0.500000  0.119054  0.707165  1
  Co  Co22  1  0.000000  0.622603  0.305280  1
  Co  Co23  1  0.000000  0.377397  0.305280  1
  P  P24  1  0.500000  0.500000  0.881694  1
  P  P25  1  0.000000  0.000000  0.115587  1
  P  P26  1  0.500000  0.500000  0.365361  1
  P  P27  1  0.000000  0.000000  0.654155  1
  P  P28  1  0.500000  0.307705  0.618661  1
  P  P29  1  0.500000  0.692295  0.618661  1
  P  P30  1  0.000000  0.187802  0.387739  1
  P  P31  1  0.000000  0.812198  0.387739  1
  P  P32  1  0.500000  0.854263  0.886873  1
  P  P33  1  0.500000  0.145737  0.886873  1
  P  P34  1  0.000000  0.668838  0.094378  1
  P  P35  1  0.000000  0.331162  0.094378  1
