# generated using pymatgen
data_Yb4Sb6Ir2Rh5
_symmetry_space_group_name_H-M   'P 1'
_cell_length_a   7.57919923
_cell_length_b   7.57920021
_cell_length_c   7.58062831
_cell_angle_alpha   109.53620717
_cell_angle_beta   109.53620769
_cell_angle_gamma   109.33366590
_symmetry_Int_Tables_number   1
_chemical_formula_structural   Yb4Sb6Ir2Rh5
_chemical_formula_sum   'Yb4 Sb6 Ir2 Rh5'
_cell_volume   335.25038537
_cell_formula_units_Z   1
loop_
 _symmetry_equiv_pos_site_id
 _symmetry_equiv_pos_as_xyz
  1  'x, y, z'
loop_
 _atom_site_type_symbol
 _atom_site_label
 _atom_site_symmetry_multiplicity
 _atom_site_fract_x
 _atom_site_fract_y
 _atom_site_fract_z
 _atom_site_occupancy
  Yb  Yb0  1  0.500028  0.000028  0.000056  1
  Yb  Yb1  1  0.000028  0.500028  0.000056  1
  Yb  Yb2  1  0.999735  0.999735  0.499902  1
  Yb  Yb3  1  0.500167  0.500167  0.499902  1
  Sb  Sb4  1  0.317073  0.999805  0.316879  1
  Sb  Sb5  1  0.999668  0.682881  0.682549  1
  Sb  Sb6  1  0.684051  0.684051  0.000695  1
  Sb  Sb7  1  0.682881  0.999668  0.682549  1
  Sb  Sb8  1  0.999805  0.317073  0.316879  1
  Sb  Sb9  1  0.316644  0.316644  0.000695  1
  Ir  Ir10  1  0.250262  0.499149  0.749412  1
  Ir  Ir11  1  0.499149  0.250262  0.749412  1
  Rh  Rh12  1  0.750892  0.250892  0.501783  1
  Rh  Rh13  1  0.499161  0.749673  0.248835  1
  Rh  Rh14  1  0.999890  0.999890  0.999779  1
  Rh  Rh15  1  0.250892  0.750892  0.501783  1
  Rh  Rh16  1  0.749673  0.499161  0.248835  1
