# generated using pymatgen
data_TbEr7In2NiRu
_symmetry_space_group_name_H-M   'P 1'
_cell_length_a   9.54860737
_cell_length_b   9.54860661
_cell_length_c   9.54604400
_cell_angle_alpha   60.00887739
_cell_angle_beta   60.00888003
_cell_angle_gamma   59.80332541
_symmetry_Int_Tables_number   1
_chemical_formula_structural   TbEr7In2NiRu
_chemical_formula_sum   'Tb2 Er14 In4 Ni2 Ru2'
_cell_volume   614.60612971
_cell_formula_units_Z   2
loop_
 _symmetry_equiv_pos_site_id
 _symmetry_equiv_pos_as_xyz
  1  'x, y, z'
loop_
 _atom_site_type_symbol
 _atom_site_label
 _atom_site_symmetry_multiplicity
 _atom_site_fract_x
 _atom_site_fract_y
 _atom_site_fract_z
 _atom_site_occupancy
  Tb  Tb0  1  0.564409  0.564409  0.935591  1
  Tb  Tb1  1  0.941039  0.941039  0.558961  1
  Er  Er2  1  0.348372  0.348372  0.345433  1
  Er  Er3  1  0.348372  0.348372  0.957822  1
  Er  Er4  1  0.350823  0.955858  0.346659  1
  Er  Er5  1  0.955858  0.350823  0.346659  1
  Er  Er6  1  0.811209  0.186741  0.190593  1
  Er  Er7  1  0.186741  0.811209  0.811457  1
  Er  Er8  1  0.186741  0.811209  0.190593  1
  Er  Er9  1  0.811209  0.186741  0.811457  1
  Er  Er10  1  0.189554  0.189554  0.810446  1
  Er  Er11  1  0.810329  0.810329  0.189671  1
  Er  Er12  1  0.939899  0.557000  0.563067  1
  Er  Er13  1  0.557000  0.939899  0.940034  1
  Er  Er14  1  0.557000  0.939899  0.563067  1
  Er  Er15  1  0.939899  0.557000  0.940034  1
  In  In16  1  0.582283  0.582283  0.584653  1
  In  In17  1  0.582283  0.582283  0.250781  1
  In  In18  1  0.581190  0.250832  0.583988  1
  In  In19  1  0.250832  0.581190  0.583988  1
  Ni  Ni20  1  0.140765  0.577281  0.140977  1
  Ni  Ni21  1  0.577281  0.140765  0.140977  1
  Ru  Ru22  1  0.143453  0.143453  0.138231  1
  Ru  Ru23  1  0.143453  0.143453  0.574861  1
