# generated using pymatgen
data_Tb3Dy3(BiO7)2
_symmetry_space_group_name_H-M   'P 1'
_cell_length_a   6.58027406
_cell_length_b   6.56110665
_cell_length_c   7.73330914
_cell_angle_alpha   106.89065361
_cell_angle_beta   89.73008368
_cell_angle_gamma   98.74765701
_symmetry_Int_Tables_number   1
_chemical_formula_structural   Tb3Dy3(BiO7)2
_chemical_formula_sum   'Tb3 Dy3 Bi2 O14'
_cell_volume   315.48243341
_cell_formula_units_Z   1
loop_
 _symmetry_equiv_pos_site_id
 _symmetry_equiv_pos_as_xyz
  1  'x, y, z'
loop_
 _atom_site_type_symbol
 _atom_site_label
 _atom_site_symmetry_multiplicity
 _atom_site_fract_x
 _atom_site_fract_y
 _atom_site_fract_z
 _atom_site_occupancy
  Tb  Tb0  1  0.727493  0.462294  0.117044  1
  Tb  Tb1  1  0.733171  0.475645  0.612910  1
  Tb  Tb2  1  0.266578  0.524548  0.387505  1
  Dy  Dy3  1  0.461802  0.005495  0.251825  1
  Dy  Dy4  1  0.537790  0.994166  0.748083  1
  Dy  Dy5  1  0.272920  0.537806  0.882711  1
  Bi  Bi6  1  0.000181  0.000364  0.500282  1
  Bi  Bi7  1  0.000390  0.000097  0.999778  1
  O  O8  1  0.444962  0.649186  0.166662  1
  O  O9  1  0.552997  0.350634  0.832408  1
  O  O10  1  0.302290  0.921522  0.951222  1
  O  O11  1  0.697927  0.077482  0.048649  1
  O  O12  1  0.298988  0.924201  0.512855  1
  O  O13  1  0.701274  0.075780  0.487079  1
  O  O14  1  0.544949  0.362188  0.344869  1
  O  O15  1  0.454372  0.637763  0.656062  1
  O  O16  1  0.926398  0.667189  0.960576  1
  O  O17  1  0.075129  0.332871  0.038344  1
  O  O18  1  0.070487  0.349703  0.621436  1
  O  O19  1  0.930143  0.650793  0.379656  1
  O  O20  1  0.873775  0.900808  0.724548  1
  O  O21  1  0.125982  0.099463  0.275497  1
