# generated using pymatgen
data_Li3Er(ScHg2)4
_symmetry_space_group_name_H-M   'P 1'
_cell_length_a   7.08851600
_cell_length_b   7.09079600
_cell_length_c   6.84946300
_cell_angle_alpha   90.00001559
_cell_angle_beta   89.99797719
_cell_angle_gamma   89.99967673
_symmetry_Int_Tables_number   1
_chemical_formula_structural   Li3Er(ScHg2)4
_chemical_formula_sum   'Li3 Er1 Sc4 Hg8'
_cell_volume   344.27607170
_cell_formula_units_Z   1
loop_
 _symmetry_equiv_pos_site_id
 _symmetry_equiv_pos_as_xyz
  1  'x, y, z'
loop_
 _atom_site_type_symbol
 _atom_site_label
 _atom_site_symmetry_multiplicity
 _atom_site_fract_x
 _atom_site_fract_y
 _atom_site_fract_z
 _atom_site_occupancy
  Li  Li0  1  0.249921  0.749997  0.999996  1
  Li  Li1  1  0.749923  0.249997  0.499977  1
  Li  Li2  1  0.250074  0.749999  0.500035  1
  Er  Er3  1  0.750063  0.250020  0.000034  1
  Sc  Sc4  1  0.249946  0.249998  0.999977  1
  Sc  Sc5  1  0.750096  0.750003  0.000010  1
  Sc  Sc6  1  0.749924  0.750000  0.499969  1
  Sc  Sc7  1  0.250080  0.250000  0.500006  1
  Hg  Hg8  1  0.495296  0.995330  0.254561  1
  Hg  Hg9  1  0.495274  0.504738  0.254560  1
  Hg  Hg10  1  0.004662  0.995326  0.254743  1
  Hg  Hg11  1  0.004645  0.504602  0.254740  1
  Hg  Hg12  1  0.004642  0.995345  0.745269  1
  Hg  Hg13  1  0.004641  0.504692  0.745268  1
  Hg  Hg14  1  0.495408  0.504610  0.745420  1
  Hg  Hg15  1  0.495405  0.995341  0.745438  1
