# generated using pymatgen
data_Sr3Ac17Sn16
_symmetry_space_group_name_H-M   'P 1'
_cell_length_a   8.77776779
_cell_length_b   8.86451354
_cell_length_c   17.10767200
_cell_angle_alpha   90.00000000
_cell_angle_beta   90.00000000
_cell_angle_gamma   89.94838354
_symmetry_Int_Tables_number   1
_chemical_formula_structural   Sr3Ac17Sn16
_chemical_formula_sum   'Sr3 Ac17 Sn16'
_cell_volume   1331.15839048
_cell_formula_units_Z   1
loop_
 _symmetry_equiv_pos_site_id
 _symmetry_equiv_pos_as_xyz
  1  'x, y, z'
loop_
 _atom_site_type_symbol
 _atom_site_label
 _atom_site_symmetry_multiplicity
 _atom_site_fract_x
 _atom_site_fract_y
 _atom_site_fract_z
 _atom_site_occupancy
  Sr  Sr0  1  0.701491  0.996659  0.250000  1
  Sr  Sr1  1  0.298913  0.001788  0.750000  1
  Sr  Sr2  1  0.798247  0.498494  0.750000  1
  Ac  Ac3  1  0.019127  0.179473  0.402352  1
  Ac  Ac4  1  0.372305  0.841028  0.116989  1
  Ac  Ac5  1  0.127331  0.340601  0.617021  1
  Ac  Ac6  1  0.481909  0.681958  0.902025  1
  Ac  Ac7  1  0.869288  0.659945  0.116560  1
  Ac  Ac8  1  0.127331  0.340601  0.882979  1
  Ac  Ac9  1  0.199610  0.501283  0.250000  1
  Ac  Ac10  1  0.481909  0.681958  0.597975  1
  Ac  Ac11  1  0.628348  0.159804  0.617195  1
  Ac  Ac12  1  0.869288  0.659945  0.383440  1
  Ac  Ac13  1  0.019127  0.179473  0.097648  1
  Ac  Ac14  1  0.981023  0.817904  0.902454  1
  Ac  Ac15  1  0.628348  0.159804  0.882805  1
  Ac  Ac16  1  0.520193  0.317711  0.097455  1
  Ac  Ac17  1  0.372305  0.841028  0.383011  1
  Ac  Ac18  1  0.981023  0.817904  0.597546  1
  Ac  Ac19  1  0.520193  0.317711  0.402545  1
  Sn  Sn20  1  0.787020  0.464979  0.543460  1
  Sn  Sn21  1  0.713016  0.965019  0.457931  1
  Sn  Sn22  1  0.683714  0.863573  0.750000  1
  Sn  Sn23  1  0.212849  0.535447  0.456413  1
  Sn  Sn24  1  0.286636  0.035046  0.956629  1
  Sn  Sn25  1  0.816276  0.361606  0.250000  1
  Sn  Sn26  1  0.787020  0.464979  0.956540  1
  Sn  Sn27  1  0.574706  0.610746  0.250000  1
  Sn  Sn28  1  0.212849  0.535447  0.043587  1
  Sn  Sn29  1  0.424600  0.394190  0.750000  1
  Sn  Sn30  1  0.184657  0.636392  0.750000  1
  Sn  Sn31  1  0.925878  0.103893  0.750000  1
  Sn  Sn32  1  0.286636  0.035046  0.543371  1
  Sn  Sn33  1  0.713016  0.965019  0.042069  1
  Sn  Sn34  1  0.319846  0.138972  0.250000  1
  Sn  Sn35  1  0.073977  0.894568  0.250000  1
