# generated using pymatgen
data_Ta5NbCr2(Ga2C)2
_symmetry_space_group_name_H-M   'P 1'
_cell_length_a   8.27794268
_cell_length_b   8.27794279
_cell_length_c   8.26891234
_cell_angle_alpha   59.92982322
_cell_angle_beta   59.92981866
_cell_angle_gamma   59.93014188
_symmetry_Int_Tables_number   1
_chemical_formula_structural   Ta5NbCr2(Ga2C)2
_chemical_formula_sum   'Ta10 Nb2 Cr4 Ga8 C4'
_cell_volume   400.02524990
_cell_formula_units_Z   2
loop_
 _symmetry_equiv_pos_site_id
 _symmetry_equiv_pos_as_xyz
  1  'x, y, z'
loop_
 _atom_site_type_symbol
 _atom_site_label
 _atom_site_symmetry_multiplicity
 _atom_site_fract_x
 _atom_site_fract_y
 _atom_site_fract_z
 _atom_site_occupancy
  Ta  Ta0  1  0.695842  0.304278  0.304426  1
  Ta  Ta1  1  0.303789  0.696038  0.303964  1
  Ta  Ta2  1  0.696182  0.695621  0.304238  1
  Ta  Ta3  1  0.304102  0.304117  0.695997  1
  Ta  Ta4  1  0.554379  0.553818  0.945762  1
  Ta  Ta5  1  0.946321  0.553518  0.553683  1
  Ta  Ta6  1  0.553962  0.946211  0.946036  1
  Ta  Ta7  1  0.945883  0.945898  0.554003  1
  Ta  Ta8  1  0.696482  0.303679  0.696317  1
  Ta  Ta9  1  0.945722  0.554158  0.945574  1
  Nb  Nb10  1  0.553844  0.946267  0.553487  1
  Nb  Nb11  1  0.303733  0.696156  0.696513  1
  Cr  Cr12  1  0.124790  0.125210  0.125000  1
  Cr  Cr13  1  0.625260  0.125470  0.123940  1
  Cr  Cr14  1  0.124530  0.624740  0.126060  1
  Cr  Cr15  1  0.123363  0.126637  0.625000  1
  Ga  Ga16  1  0.913418  0.913004  0.913459  1
  Ga  Ga17  1  0.990056  0.336637  0.336271  1
  Ga  Ga18  1  0.336714  0.989952  0.336638  1
  Ga  Ga19  1  0.336434  0.336709  0.990143  1
  Ga  Ga20  1  0.913363  0.259944  0.913729  1
  Ga  Ga21  1  0.913291  0.913566  0.259857  1
  Ga  Ga22  1  0.260048  0.913286  0.913362  1
  Ga  Ga23  1  0.336996  0.336582  0.336541  1
  C  C24  1  0.626963  0.623037  0.625000  1
  C  C25  1  0.124058  0.624604  0.624698  1
  C  C26  1  0.625396  0.125942  0.625302  1
  C  C27  1  0.625081  0.624919  0.125000  1
