# generated using pymatgen
data_Nd8DyHo11Sb16
_symmetry_space_group_name_H-M   'P 1'
_cell_length_a   8.07121594
_cell_length_b   8.15639892
_cell_length_c   15.39948000
_cell_angle_alpha   90.00325241
_cell_angle_beta   90.09855950
_cell_angle_gamma   90.06285082
_symmetry_Int_Tables_number   1
_chemical_formula_structural   Nd8DyHo11Sb16
_chemical_formula_sum   'Nd8 Dy1 Ho11 Sb16'
_cell_volume   1013.77733353
_cell_formula_units_Z   1
loop_
 _symmetry_equiv_pos_site_id
 _symmetry_equiv_pos_as_xyz
  1  'x, y, z'
loop_
 _atom_site_type_symbol
 _atom_site_label
 _atom_site_symmetry_multiplicity
 _atom_site_fract_x
 _atom_site_fract_y
 _atom_site_fract_z
 _atom_site_occupancy
  Nd  Nd0  1  0.472183  0.678149  0.596401  1
  Nd  Nd1  1  0.973448  0.822148  0.904196  1
  Nd  Nd2  1  0.526690  0.322156  0.095975  1
  Nd  Nd3  1  0.027788  0.177391  0.403304  1
  Nd  Nd4  1  0.526903  0.322157  0.403710  1
  Nd  Nd5  1  0.026769  0.177692  0.096109  1
  Nd  Nd6  1  0.473458  0.677995  0.904087  1
  Nd  Nd7  1  0.972658  0.822391  0.596411  1
  Dy  Dy8  1  0.140719  0.348069  0.622482  1
  Ho  Ho9  1  0.640854  0.151875  0.622842  1
  Ho  Ho10  1  0.141151  0.348236  0.877357  1
  Ho  Ho11  1  0.358685  0.848328  0.122777  1
  Ho  Ho12  1  0.859043  0.651732  0.377245  1
  Ho  Ho13  1  0.359627  0.848142  0.376885  1
  Ho  Ho14  1  0.859034  0.651708  0.122757  1
  Ho  Ho15  1  0.641347  0.151706  0.877484  1
  Ho  Ho16  1  0.803530  0.501330  0.750202  1
  Ho  Ho17  1  0.303725  0.998730  0.750151  1
  Ho  Ho18  1  0.196435  0.498599  0.249710  1
  Ho  Ho19  1  0.696440  0.001263  0.249915  1
  Sb  Sb20  1  0.708140  0.961766  0.453270  1
  Sb  Sb21  1  0.207529  0.538873  0.046538  1
  Sb  Sb22  1  0.292674  0.039138  0.953535  1
  Sb  Sb23  1  0.791008  0.462155  0.546750  1
  Sb  Sb24  1  0.292578  0.037858  0.546453  1
  Sb  Sb25  1  0.792622  0.461100  0.953533  1
  Sb  Sb26  1  0.707362  0.960916  0.046663  1
  Sb  Sb27  1  0.207762  0.538716  0.452804  1
  Sb  Sb28  1  0.443066  0.365970  0.750273  1
  Sb  Sb29  1  0.942744  0.133624  0.750310  1
  Sb  Sb30  1  0.557222  0.633833  0.249799  1
  Sb  Sb31  1  0.057079  0.866047  0.249959  1
  Sb  Sb32  1  0.657618  0.849498  0.750188  1
  Sb  Sb33  1  0.157579  0.650618  0.750294  1
  Sb  Sb34  1  0.342356  0.150458  0.249761  1
  Sb  Sb35  1  0.842171  0.349631  0.249870  1
