# generated using pymatgen
data_Zr8In4OsAu7
_symmetry_space_group_name_H-M   'P 1'
_cell_length_a   7.62670643
_cell_length_b   7.62670643
_cell_length_c   7.13200942
_cell_angle_alpha   90.31631166
_cell_angle_beta   90.31631166
_cell_angle_gamma   90.20544992
_symmetry_Int_Tables_number   1
_chemical_formula_structural   Zr8In4OsAu7
_chemical_formula_sum   'Zr8 In4 Os1 Au7'
_cell_volume   414.82974647
_cell_formula_units_Z   1
loop_
 _symmetry_equiv_pos_site_id
 _symmetry_equiv_pos_as_xyz
  1  'x, y, z'
loop_
 _atom_site_type_symbol
 _atom_site_label
 _atom_site_symmetry_multiplicity
 _atom_site_fract_x
 _atom_site_fract_y
 _atom_site_fract_z
 _atom_site_occupancy
  Zr  Zr0  1  0.156319  0.156319  0.013080  1
  Zr  Zr1  1  0.857798  0.857798  0.995717  1
  Zr  Zr2  1  0.634467  0.346670  0.486458  1
  Zr  Zr3  1  0.346670  0.634467  0.486458  1
  Zr  Zr4  1  0.680765  0.305609  0.007722  1
  Zr  Zr5  1  0.305609  0.680765  0.007722  1
  Zr  Zr6  1  0.806613  0.806613  0.499516  1
  Zr  Zr7  1  0.200427  0.200427  0.491306  1
  In  In8  1  0.499633  0.002900  0.246960  1
  In  In9  1  0.499092  0.997321  0.749961  1
  In  In10  1  0.002900  0.499633  0.246960  1
  In  In11  1  0.997321  0.499092  0.749961  1
  Os  Os12  1  0.371976  0.371976  0.222439  1
  Au  Au13  1  0.630398  0.630398  0.788151  1
  Au  Au14  1  0.634971  0.634971  0.201947  1
  Au  Au15  1  0.870605  0.133008  0.709187  1
  Au  Au16  1  0.871358  0.129835  0.295000  1
  Au  Au17  1  0.370233  0.370233  0.797270  1
  Au  Au18  1  0.129835  0.871358  0.295000  1
  Au  Au19  1  0.133008  0.870605  0.709187  1
