# generated using pymatgen
data_YEr4Bi2Pt
_symmetry_space_group_name_H-M   'P 1'
_cell_length_a   8.01980300
_cell_length_b   9.01338300
_cell_length_c   12.30503200
_cell_angle_alpha   90.00000000
_cell_angle_beta   90.00000000
_cell_angle_gamma   90.00000000
_symmetry_Int_Tables_number   1
_chemical_formula_structural   YEr4Bi2Pt
_chemical_formula_sum   'Y4 Er16 Bi8 Pt4'
_cell_volume   889.47608001
_cell_formula_units_Z   4
loop_
 _symmetry_equiv_pos_site_id
 _symmetry_equiv_pos_as_xyz
  1  'x, y, z'
loop_
 _atom_site_type_symbol
 _atom_site_label
 _atom_site_symmetry_multiplicity
 _atom_site_fract_x
 _atom_site_fract_y
 _atom_site_fract_z
 _atom_site_occupancy
  Y  Y0  1  0.628732  0.750000  0.302586  1
  Y  Y1  1  0.871268  0.750000  0.802586  1
  Y  Y2  1  0.371268  0.250000  0.697414  1
  Y  Y3  1  0.128732  0.250000  0.197414  1
  Er  Er4  1  0.165317  0.750000  0.210667  1
  Er  Er5  1  0.334683  0.750000  0.710667  1
  Er  Er6  1  0.834683  0.250000  0.789333  1
  Er  Er7  1  0.665317  0.250000  0.289333  1
  Er  Er8  1  0.450413  0.750000  0.999973  1
  Er  Er9  1  0.049587  0.750000  0.499973  1
  Er  Er10  1  0.549587  0.250000  0.000027  1
  Er  Er11  1  0.950413  0.250000  0.500027  1
  Er  Er12  1  0.822751  0.547683  0.066487  1
  Er  Er13  1  0.677249  0.952317  0.566487  1
  Er  Er14  1  0.177249  0.047683  0.933513  1
  Er  Er15  1  0.322751  0.452317  0.433513  1
  Er  Er16  1  0.177249  0.452317  0.933513  1
  Er  Er17  1  0.322751  0.047683  0.433513  1
  Er  Er18  1  0.822751  0.952317  0.066487  1
  Er  Er19  1  0.677249  0.547683  0.566487  1
  Bi  Bi20  1  0.933187  0.509803  0.327464  1
  Bi  Bi21  1  0.566813  0.990197  0.827464  1
  Bi  Bi22  1  0.066813  0.009803  0.672536  1
  Bi  Bi23  1  0.433187  0.490197  0.172536  1
  Bi  Bi24  1  0.066813  0.490197  0.672536  1
  Bi  Bi25  1  0.433187  0.009803  0.172536  1
  Bi  Bi26  1  0.933187  0.990197  0.327464  1
  Bi  Bi27  1  0.566813  0.509803  0.827464  1
  Pt  Pt28  1  0.418856  0.750000  0.489527  1
  Pt  Pt29  1  0.081144  0.750000  0.989527  1
  Pt  Pt30  1  0.581144  0.250000  0.510473  1
  Pt  Pt31  1  0.918856  0.250000  0.010473  1
