# generated using pymatgen
data_CsV3F9
_symmetry_space_group_name_H-M   'P 1'
_cell_length_a   7.66203637
_cell_length_b   7.70363304
_cell_length_c   7.92029447
_cell_angle_alpha   89.93558674
_cell_angle_beta   90.25683187
_cell_angle_gamma   60.03515367
_symmetry_Int_Tables_number   1
_chemical_formula_structural   CsV3F9
_chemical_formula_sum   'Cs2 V6 F18'
_cell_volume   405.00263853
_cell_formula_units_Z   2
loop_
 _symmetry_equiv_pos_site_id
 _symmetry_equiv_pos_as_xyz
  1  'x, y, z'
loop_
 _atom_site_type_symbol
 _atom_site_label
 _atom_site_symmetry_multiplicity
 _atom_site_fract_x
 _atom_site_fract_y
 _atom_site_fract_z
 _atom_site_occupancy
  Cs  Cs0  1  0.013948  0.489917  0.250569  1
  Cs  Cs1  1  0.984490  0.510803  0.748379  1
  V  V2  1  0.499220  0.000200  0.999659  1
  V  V3  1  0.499398  0.500017  0.999484  1
  V  V4  1  0.998967  0.000523  0.499793  1
  V  V5  1  0.999336  0.000059  0.999652  1
  V  V6  1  0.499266  0.500171  0.499542  1
  V  V7  1  0.499285  0.000150  0.499649  1
  F  F8  1  0.539888  0.512386  0.747721  1
  F  F9  1  0.451678  0.060161  0.258289  1
  F  F10  1  0.787213  0.306762  0.476909  1
  F  F11  1  0.209356  0.096864  0.527621  1
  F  F12  1  0.790620  0.296519  0.025988  1
  F  F13  1  0.191838  0.097013  0.973524  1
  F  F14  1  0.420958  0.290184  0.539108  1
  F  F15  1  0.577704  0.710134  0.460025  1
  F  F16  1  0.047789  0.976241  0.241310  1
  F  F17  1  0.950828  0.023697  0.758004  1
  F  F18  1  0.417123  0.300416  0.963196  1
  F  F19  1  0.581404  0.699835  0.035996  1
  F  F20  1  0.789213  0.903402  0.471712  1
  F  F21  1  0.211233  0.693588  0.522043  1
  F  F22  1  0.806748  0.903133  0.025736  1
  F  F23  1  0.208044  0.703579  0.973154  1
  F  F24  1  0.546934  0.940216  0.741000  1
  F  F25  1  0.458648  0.487814  0.251329  1
