# generated using pymatgen
data_Ho3Tm5B24(OsW)2
_symmetry_space_group_name_H-M   'P 1'
_cell_length_a   3.60385200
_cell_length_b   9.17672924
_cell_length_c   11.56952835
_cell_angle_alpha   89.85092349
_cell_angle_beta   90.00000000
_cell_angle_gamma   90.00000000
_symmetry_Int_Tables_number   1
_chemical_formula_structural   Ho3Tm5B24(OsW)2
_chemical_formula_sum   'Ho3 Tm5 B24 Os2 W2'
_cell_volume   382.62121804
_cell_formula_units_Z   1
loop_
 _symmetry_equiv_pos_site_id
 _symmetry_equiv_pos_as_xyz
  1  'x, y, z'
loop_
 _atom_site_type_symbol
 _atom_site_label
 _atom_site_symmetry_multiplicity
 _atom_site_fract_x
 _atom_site_fract_y
 _atom_site_fract_z
 _atom_site_occupancy
  Ho  Ho0  1  0.000000  0.321021  0.413699  1
  Ho  Ho1  1  0.000000  0.678921  0.586385  1
  Ho  Ho2  1  0.000000  0.821474  0.086333  1
  Tm  Tm3  1  0.000000  0.178742  0.913581  1
  Tm  Tm4  1  0.000000  0.945029  0.371569  1
  Tm  Tm5  1  0.000000  0.055034  0.628483  1
  Tm  Tm6  1  0.000000  0.441952  0.127520  1
  Tm  Tm7  1  0.000000  0.557806  0.872398  1
  B  B8  1  0.500000  0.550979  0.434643  1
  B  B9  1  0.500000  0.448896  0.565471  1
  B  B10  1  0.500000  0.053816  0.066352  1
  B  B11  1  0.500000  0.946802  0.933270  1
  B  B12  1  0.500000  0.752289  0.421535  1
  B  B13  1  0.500000  0.247742  0.578577  1
  B  B14  1  0.500000  0.248790  0.080839  1
  B  B15  1  0.500000  0.751238  0.918598  1
  B  B16  1  0.500000  0.796104  0.263197  1
  B  B17  1  0.500000  0.203693  0.737306  1
  B  B18  1  0.500000  0.290155  0.233244  1
  B  B19  1  0.500000  0.709873  0.766632  1
  B  B20  1  0.500000  0.631587  0.181111  1
  B  B21  1  0.500000  0.367904  0.819211  1
  B  B22  1  0.500000  0.130253  0.313348  1
  B  B23  1  0.500000  0.869914  0.686651  1
  B  B24  1  0.500000  0.983434  0.211613  1
  B  B25  1  0.500000  0.017102  0.788526  1
  B  B26  1  0.500000  0.477137  0.285803  1
  B  B27  1  0.500000  0.522716  0.714198  1
  B  B28  1  0.500000  0.602544  0.027633  1
  B  B29  1  0.500000  0.396806  0.972208  1
  B  B30  1  0.500000  0.102214  0.470654  1
  B  B31  1  0.500000  0.897835  0.529392  1
  Os  Os32  1  0.000000  0.137907  0.177465  1
  Os  Os33  1  0.000000  0.862513  0.822286  1
  W  W34  1  0.000000  0.638993  0.319385  1
  W  W35  1  0.000000  0.360782  0.680885  1
