# generated using pymatgen
data_Tb3YGa12Co
_symmetry_space_group_name_H-M   'P 1'
_cell_length_a   7.45274045
_cell_length_b   7.45674654
_cell_length_c   7.45274100
_cell_angle_alpha   109.48211596
_cell_angle_beta   109.46033396
_cell_angle_gamma   109.48211225
_symmetry_Int_Tables_number   1
_chemical_formula_structural   Tb3YGa12Co
_chemical_formula_sum   'Tb3 Y1 Ga12 Co1'
_cell_volume   318.78733851
_cell_formula_units_Z   1
loop_
 _symmetry_equiv_pos_site_id
 _symmetry_equiv_pos_as_xyz
  1  'x, y, z'
loop_
 _atom_site_type_symbol
 _atom_site_label
 _atom_site_symmetry_multiplicity
 _atom_site_fract_x
 _atom_site_fract_y
 _atom_site_fract_z
 _atom_site_occupancy
  Tb  Tb0  1  0.000000  0.000000  0.500000  1
  Tb  Tb1  1  0.500000  0.000000  0.000000  1
  Tb  Tb2  1  0.500000  0.500000  0.500000  1
  Y  Y3  1  0.000000  0.500000  0.000000  1
  Ga  Ga4  1  0.749997  0.249997  0.499996  1
  Ga  Ga5  1  0.749997  0.500000  0.250003  1
  Ga  Ga6  1  0.499996  0.249997  0.749997  1
  Ga  Ga7  1  0.250003  0.500000  0.749997  1
  Ga  Ga8  1  0.250003  0.750003  0.500004  1
  Ga  Ga9  1  0.500004  0.750003  0.250003  1
  Ga  Ga10  1  0.717240  0.717263  0.000000  1
  Ga  Ga11  1  0.282760  0.000023  0.282760  1
  Ga  Ga12  1  0.000000  0.282737  0.282760  1
  Ga  Ga13  1  0.282760  0.282737  0.000000  1
  Ga  Ga14  1  0.717240  0.999977  0.717240  1
  Ga  Ga15  1  0.000000  0.717263  0.717240  1
  Co  Co16  1  0.000000  0.000000  0.000000  1
