# generated using pymatgen
data_Ho4Er8In2Fe2Tc
_symmetry_space_group_name_H-M   'P 1'
_cell_length_a   8.31771805
_cell_length_b   8.31771695
_cell_length_c   8.31771663
_cell_angle_alpha   108.78396280
_cell_angle_beta   108.78396692
_cell_angle_gamma   110.85464732
_symmetry_Int_Tables_number   1
_chemical_formula_structural   Ho4Er8In2Fe2Tc
_chemical_formula_sum   'Ho4 Er8 In2 Fe2 Tc1'
_cell_volume   442.79237497
_cell_formula_units_Z   1
loop_
 _symmetry_equiv_pos_site_id
 _symmetry_equiv_pos_as_xyz
  1  'x, y, z'
loop_
 _atom_site_type_symbol
 _atom_site_label
 _atom_site_symmetry_multiplicity
 _atom_site_fract_x
 _atom_site_fract_y
 _atom_site_fract_z
 _atom_site_occupancy
  Ho  Ho0  1  0.306823  0.306823  0.613642  1
  Ho  Ho1  1  0.693177  0.693177  0.386358  1
  Ho  Ho2  1  0.306823  0.693177  0.000000  1
  Ho  Ho3  1  0.693177  0.306823  0.000000  1
  Er  Er4  1  0.431396  0.193080  0.238316  1
  Er  Er5  1  0.568604  0.806920  0.761684  1
  Er  Er6  1  0.954764  0.193080  0.761684  1
  Er  Er7  1  0.193080  0.954764  0.761684  1
  Er  Er8  1  0.045236  0.806920  0.238316  1
  Er  Er9  1  0.806920  0.045236  0.238316  1
  Er  Er10  1  0.193080  0.431396  0.238316  1
  Er  Er11  1  0.806920  0.568604  0.761684  1
  In  In12  1  0.500000  0.000000  0.500000  1
  In  In13  1  0.000000  0.500000  0.500000  1
  Fe  Fe14  1  0.385683  0.385683  0.000000  1
  Fe  Fe15  1  0.614317  0.614317  0.000000  1
  Tc  Tc16  1  0.000000  0.000000  0.000000  1
