# generated using pymatgen
data_SrNb8VSe16
_symmetry_space_group_name_H-M   'P 1'
_cell_length_a   7.00719000
_cell_length_b   7.00719089
_cell_length_c   14.33260800
_cell_angle_alpha   90.00000000
_cell_angle_beta   90.00000000
_cell_angle_gamma   120.00000524
_symmetry_Int_Tables_number   1
_chemical_formula_structural   SrNb8VSe16
_chemical_formula_sum   'Sr1 Nb8 V1 Se16'
_cell_volume   609.45784830
_cell_formula_units_Z   1
loop_
 _symmetry_equiv_pos_site_id
 _symmetry_equiv_pos_as_xyz
  1  'x, y, z'
loop_
 _atom_site_type_symbol
 _atom_site_label
 _atom_site_symmetry_multiplicity
 _atom_site_fract_x
 _atom_site_fract_y
 _atom_site_fract_z
 _atom_site_occupancy
  Sr  Sr0  1  0.000000  0.000000  0.000000  1
  Nb  Nb1  1  0.000000  0.000000  0.274664  1
  Nb  Nb2  1  0.000000  0.000000  0.725336  1
  Nb  Nb3  1  0.506958  0.013916  0.275992  1
  Nb  Nb4  1  0.493042  0.986084  0.724008  1
  Nb  Nb5  1  0.986084  0.493042  0.275992  1
  Nb  Nb6  1  0.013916  0.506958  0.724008  1
  Nb  Nb7  1  0.506958  0.493042  0.275992  1
  Nb  Nb8  1  0.493042  0.506958  0.724008  1
  V  V9  1  0.000000  0.000000  0.500000  1
  Se  Se10  1  0.333333  0.666667  0.604423  1
  Se  Se11  1  0.666667  0.333333  0.395577  1
  Se  Se12  1  0.666667  0.333333  0.154738  1
  Se  Se13  1  0.333333  0.666667  0.845262  1
  Se  Se14  1  0.169010  0.338020  0.159752  1
  Se  Se15  1  0.830990  0.661980  0.840248  1
  Se  Se16  1  0.661980  0.830990  0.159752  1
  Se  Se17  1  0.833227  0.666453  0.609256  1
  Se  Se18  1  0.338020  0.169010  0.840248  1
  Se  Se19  1  0.166773  0.333547  0.390744  1
  Se  Se20  1  0.169010  0.830990  0.159752  1
  Se  Se21  1  0.333547  0.166773  0.609256  1
  Se  Se22  1  0.830990  0.169010  0.840248  1
  Se  Se23  1  0.666453  0.833227  0.390744  1
  Se  Se24  1  0.833227  0.166773  0.609256  1
  Se  Se25  1  0.166773  0.833227  0.390744  1
