# generated using pymatgen
data_Lu4MnTcRu6
_symmetry_space_group_name_H-M   'P 1'
_cell_length_a   5.14398183
_cell_length_b   5.26493338
_cell_length_c   8.85056900
_cell_angle_alpha   90.00000000
_cell_angle_beta   90.00000000
_cell_angle_gamma   119.70419921
_symmetry_Int_Tables_number   1
_chemical_formula_structural   Lu4MnTcRu6
_chemical_formula_sum   'Lu4 Mn1 Tc1 Ru6'
_cell_volume   208.20009511
_cell_formula_units_Z   1
loop_
 _symmetry_equiv_pos_site_id
 _symmetry_equiv_pos_as_xyz
  1  'x, y, z'
loop_
 _atom_site_type_symbol
 _atom_site_label
 _atom_site_symmetry_multiplicity
 _atom_site_fract_x
 _atom_site_fract_y
 _atom_site_fract_z
 _atom_site_occupancy
  Lu  Lu0  1  0.333496  0.667798  0.434471  1
  Lu  Lu1  1  0.662970  0.330164  0.565848  1
  Lu  Lu2  1  0.662970  0.330164  0.934152  1
  Lu  Lu3  1  0.333496  0.667798  0.065529  1
  Mn  Mn4  1  0.832887  0.169542  0.250000  1
  Tc  Tc5  1  0.662864  0.831722  0.750000  1
  Ru  Ru6  1  0.990070  0.996548  0.497342  1
  Ru  Ru7  1  0.990070  0.996548  0.002658  1
  Ru  Ru8  1  0.828483  0.657289  0.250000  1
  Ru  Ru9  1  0.349989  0.174776  0.250000  1
  Ru  Ru10  1  0.175738  0.831701  0.750000  1
  Ru  Ru11  1  0.176965  0.345950  0.750000  1
