# generated using pymatgen
data_GdY3Ho4(WO6)4
_symmetry_space_group_name_H-M   'P 1'
_cell_length_a   5.40866200
_cell_length_b   7.71511965
_cell_length_c   11.47604115
_cell_angle_alpha   75.58940788
_cell_angle_beta   90.00000000
_cell_angle_gamma   90.00000000
_symmetry_Int_Tables_number   1
_chemical_formula_structural   GdY3Ho4(WO6)4
_chemical_formula_sum   'Gd1 Y3 Ho4 W4 O24'
_cell_volume   463.81084268
_cell_formula_units_Z   1
loop_
 _symmetry_equiv_pos_site_id
 _symmetry_equiv_pos_as_xyz
  1  'x, y, z'
loop_
 _atom_site_type_symbol
 _atom_site_label
 _atom_site_symmetry_multiplicity
 _atom_site_fract_x
 _atom_site_fract_y
 _atom_site_fract_z
 _atom_site_occupancy
  Gd  Gd0  1  0.684030  0.500000  0.750000  1
  Y  Y1  1  0.740892  0.000000  0.750000  1
  Y  Y2  1  0.260548  0.000000  0.250000  1
  Y  Y3  1  0.316146  0.500000  0.250000  1
  Ho  Ho4  1  0.185366  0.795294  0.577271  1
  Ho  Ho5  1  0.815099  0.794637  0.078158  1
  Ho  Ho6  1  0.185366  0.204706  0.922729  1
  Ho  Ho7  1  0.815099  0.205363  0.421842  1
  W  W8  1  0.254719  0.724697  0.885718  1
  W  W9  1  0.745248  0.723670  0.384747  1
  W  W10  1  0.254719  0.275303  0.614282  1
  W  W11  1  0.745248  0.276330  0.115253  1
  O  O12  1  0.043488  0.939941  0.896931  1
  O  O13  1  0.533437  0.846661  0.931262  1
  O  O14  1  0.955760  0.940278  0.395110  1
  O  O15  1  0.455618  0.791579  0.727222  1
  O  O16  1  0.467860  0.846763  0.431164  1
  O  O17  1  0.982795  0.713595  0.770874  1
  O  O18  1  0.542987  0.790357  0.227019  1
  O  O19  1  0.852490  0.635710  0.546739  1
  O  O20  1  0.356344  0.490505  0.886772  1
  O  O21  1  0.018328  0.709992  0.271334  1
  O  O22  1  0.356344  0.509495  0.613228  1
  O  O23  1  0.852490  0.364290  0.953261  1
  O  O24  1  0.150118  0.637003  0.048537  1
  O  O25  1  0.639533  0.490230  0.385832  1
  O  O26  1  0.982795  0.286405  0.729126  1
  O  O27  1  0.639533  0.509770  0.114168  1
  O  O28  1  0.150118  0.362997  0.451463  1
  O  O29  1  0.455618  0.208421  0.772778  1
  O  O30  1  0.018328  0.290008  0.228666  1
  O  O31  1  0.533437  0.153339  0.568738  1
  O  O32  1  0.542987  0.209643  0.272981  1
  O  O33  1  0.043488  0.060059  0.603069  1
  O  O34  1  0.467860  0.153237  0.068836  1
  O  O35  1  0.955760  0.059722  0.104890  1
