# generated using pymatgen
data_Sc4Sn3As3Ir7
_symmetry_space_group_name_H-M   'P 1'
_cell_length_a   7.25867276
_cell_length_b   7.25867371
_cell_length_c   7.34983900
_cell_angle_alpha   109.72584628
_cell_angle_beta   109.72584898
_cell_angle_gamma   109.21539382
_symmetry_Int_Tables_number   1
_chemical_formula_structural   Sc4Sn3As3Ir7
_chemical_formula_sum   'Sc4 Sn3 As3 Ir7'
_cell_volume   297.16389749
_cell_formula_units_Z   1
loop_
 _symmetry_equiv_pos_site_id
 _symmetry_equiv_pos_as_xyz
  1  'x, y, z'
loop_
 _atom_site_type_symbol
 _atom_site_label
 _atom_site_symmetry_multiplicity
 _atom_site_fract_x
 _atom_site_fract_y
 _atom_site_fract_z
 _atom_site_occupancy
  Sc  Sc0  1  0.000000  0.000000  0.552141  1
  Sc  Sc1  1  0.000000  0.470314  0.989089  1
  Sc  Sc2  1  0.470314  0.000000  0.989089  1
  Sc  Sc3  1  0.529686  0.529686  0.518775  1
  Sn  Sn4  1  0.712513  0.712513  0.015587  1
  Sn  Sn5  1  0.287487  0.000000  0.303074  1
  Sn  Sn6  1  0.000000  0.287487  0.303074  1
  As  As7  1  0.333886  0.333886  0.005734  1
  As  As8  1  0.666114  0.000000  0.671848  1
  As  As9  1  0.000000  0.666114  0.671848  1
  Ir  Ir10  1  0.747588  0.250204  0.504743  1
  Ir  Ir11  1  0.749796  0.497384  0.254539  1
  Ir  Ir12  1  0.502616  0.252412  0.757154  1
  Ir  Ir13  1  0.252412  0.502616  0.757154  1
  Ir  Ir14  1  0.250204  0.747588  0.504743  1
  Ir  Ir15  1  0.497384  0.749796  0.254539  1
  Ir  Ir16  1  0.000000  0.000000  0.946868  1
