# generated using pymatgen
data_Pr8Zn3Si12Ir
_symmetry_space_group_name_H-M   'P 1'
_cell_length_a   8.23813900
_cell_length_b   8.23814005
_cell_length_c   8.65631700
_cell_angle_alpha   90.00000000
_cell_angle_beta   90.00000000
_cell_angle_gamma   120.00000783
_symmetry_Int_Tables_number   1
_chemical_formula_structural   Pr8Zn3Si12Ir
_chemical_formula_sum   'Pr8 Zn3 Si12 Ir1'
_cell_volume   508.77063367
_cell_formula_units_Z   1
loop_
 _symmetry_equiv_pos_site_id
 _symmetry_equiv_pos_as_xyz
  1  'x, y, z'
loop_
 _atom_site_type_symbol
 _atom_site_label
 _atom_site_symmetry_multiplicity
 _atom_site_fract_x
 _atom_site_fract_y
 _atom_site_fract_z
 _atom_site_occupancy
  Pr  Pr0  1  0.500537  0.499463  0.749544  1
  Pr  Pr1  1  0.501076  0.498924  0.250465  1
  Pr  Pr2  1  0.998925  0.499463  0.749544  1
  Pr  Pr3  1  0.997848  0.498924  0.250465  1
  Pr  Pr4  1  0.500537  0.001075  0.749544  1
  Pr  Pr5  1  0.501076  0.002152  0.250465  1
  Pr  Pr6  1  0.000000  0.000000  0.749853  1
  Pr  Pr7  1  0.000000  0.000000  0.250419  1
  Zn  Zn8  1  0.666667  0.333333  0.997079  1
  Zn  Zn9  1  0.333333  0.666667  0.002174  1
  Zn  Zn10  1  0.333333  0.666667  0.498959  1
  Si  Si11  1  0.833476  0.166524  0.000815  1
  Si  Si12  1  0.166145  0.833855  0.999435  1
  Si  Si13  1  0.333048  0.166524  0.000815  1
  Si  Si14  1  0.163105  0.836895  0.499630  1
  Si  Si15  1  0.667711  0.833855  0.999435  1
  Si  Si16  1  0.830166  0.169834  0.500608  1
  Si  Si17  1  0.833476  0.666952  0.000815  1
  Si  Si18  1  0.673792  0.836895  0.499630  1
  Si  Si19  1  0.166145  0.332289  0.999435  1
  Si  Si20  1  0.339667  0.169834  0.500608  1
  Si  Si21  1  0.163105  0.326208  0.499630  1
  Si  Si22  1  0.830166  0.660333  0.500608  1
  Ir  Ir23  1  0.666667  0.333333  0.500027  1
