# generated using pymatgen
data_AcPr3(AuCl6)4
_symmetry_space_group_name_H-M   'P 1'
_cell_length_a   7.84201869
_cell_length_b   10.21877123
_cell_length_c   14.70119476
_cell_angle_alpha   103.32190806
_cell_angle_beta   96.25235352
_cell_angle_gamma   111.99317688
_symmetry_Int_Tables_number   1
_chemical_formula_structural   AcPr3(AuCl6)4
_chemical_formula_sum   'Ac1 Pr3 Au4 Cl24'
_cell_volume   1037.79251086
_cell_formula_units_Z   1
loop_
 _symmetry_equiv_pos_site_id
 _symmetry_equiv_pos_as_xyz
  1  'x, y, z'
loop_
 _atom_site_type_symbol
 _atom_site_label
 _atom_site_symmetry_multiplicity
 _atom_site_fract_x
 _atom_site_fract_y
 _atom_site_fract_z
 _atom_site_occupancy
  Ac  Ac0  1  0.580811  0.926950  0.622184  1
  Pr  Pr1  1  0.027358  0.687853  0.128456  1
  Pr  Pr2  1  0.418107  0.074568  0.372876  1
  Pr  Pr3  1  0.976844  0.317015  0.876245  1
  Au  Au4  1  0.291140  0.631440  0.765576  1
  Au  Au5  1  0.497590  0.494798  0.497616  1
  Au  Au6  1  0.707760  0.367714  0.236310  1
  Au  Au7  1  0.000859  0.000726  0.001011  1
  Cl  Cl8  1  0.779948  0.095268  0.971360  1
  Cl  Cl9  1  0.724638  0.156597  0.261080  1
  Cl  Cl10  1  0.272437  0.843252  0.742648  1
  Cl  Cl11  1  0.774154  0.795410  0.026382  1
  Cl  Cl12  1  0.621714  0.202370  0.751916  1
  Cl  Cl13  1  0.306646  0.417030  0.785749  1
  Cl  Cl14  1  0.692052  0.582021  0.215612  1
  Cl  Cl15  1  0.298012  0.615131  0.496739  1
  Cl  Cl16  1  0.228419  0.207025  0.977083  1
  Cl  Cl17  1  0.754079  0.718024  0.520230  1
  Cl  Cl18  1  0.220677  0.904762  0.029124  1
  Cl  Cl19  1  0.727570  0.052660  0.475856  1
  Cl  Cl20  1  0.602201  0.722530  0.749314  1
  Cl  Cl21  1  0.960932  0.065117  0.737846  1
  Cl  Cl22  1  0.243404  0.270278  0.473506  1
  Cl  Cl23  1  0.383078  0.807382  0.253127  1
  Cl  Cl24  1  0.978544  0.539216  0.778806  1
  Cl  Cl25  1  0.764543  0.438014  0.982754  1
  Cl  Cl26  1  0.241570  0.567895  0.021868  1
  Cl  Cl27  1  0.019535  0.458716  0.221500  1
  Cl  Cl28  1  0.397205  0.275057  0.253482  1
  Cl  Cl29  1  0.267115  0.950968  0.510649  1
  Cl  Cl30  1  0.693889  0.371891  0.498066  1
  Cl  Cl31  1  0.047171  0.942323  0.265026  1
