# generated using pymatgen
data_HoEr6Fe2Co4Sn23
_symmetry_space_group_name_H-M   'P 1'
_cell_length_a   9.67572852
_cell_length_b   9.67572881
_cell_length_c   9.94428069
_cell_angle_alpha   90.17047482
_cell_angle_beta   89.82952338
_cell_angle_gamma   119.91274440
_symmetry_Int_Tables_number   1
_chemical_formula_structural   HoEr6Fe2Co4Sn23
_chemical_formula_sum   'Ho1 Er6 Fe2 Co4 Sn23'
_cell_volume   806.95623700
_cell_formula_units_Z   1
loop_
 _symmetry_equiv_pos_site_id
 _symmetry_equiv_pos_as_xyz
  1  'x, y, z'
loop_
 _atom_site_type_symbol
 _atom_site_label
 _atom_site_symmetry_multiplicity
 _atom_site_fract_x
 _atom_site_fract_y
 _atom_site_fract_z
 _atom_site_occupancy
  Ho  Ho0  1  0.000000  0.000000  0.000000  1
  Er  Er1  1  0.479635  0.520365  0.306193  1
  Er  Er2  1  0.520365  0.479635  0.693807  1
  Er  Er3  1  0.480085  0.959182  0.305596  1
  Er  Er4  1  0.519915  0.040818  0.694404  1
  Er  Er5  1  0.040818  0.519915  0.305596  1
  Er  Er6  1  0.959182  0.480085  0.694404  1
  Fe  Fe7  1  0.832491  0.167509  0.198256  1
  Fe  Fe8  1  0.167509  0.832491  0.801744  1
  Co  Co9  1  0.831696  0.663839  0.197482  1
  Co  Co10  1  0.168304  0.336161  0.802518  1
  Co  Co11  1  0.336161  0.168304  0.197482  1
  Co  Co12  1  0.663839  0.831696  0.802518  1
  Sn  Sn13  1  0.118188  0.881812  0.274360  1
  Sn  Sn14  1  0.881812  0.118188  0.725640  1
  Sn  Sn15  1  0.117827  0.236222  0.273476  1
  Sn  Sn16  1  0.882173  0.763778  0.726524  1
  Sn  Sn17  1  0.763778  0.882173  0.273476  1
  Sn  Sn18  1  0.236222  0.117827  0.726524  1
  Sn  Sn19  1  0.781336  0.218664  0.451678  1
  Sn  Sn20  1  0.218664  0.781336  0.548322  1
  Sn  Sn21  1  0.781178  0.562578  0.451837  1
  Sn  Sn22  1  0.218822  0.437422  0.548163  1
  Sn  Sn23  1  0.437422  0.218822  0.451837  1
  Sn  Sn24  1  0.562578  0.781178  0.548163  1
  Sn  Sn25  1  0.345461  0.999209  0.999551  1
  Sn  Sn26  1  0.654539  0.000791  0.000449  1
  Sn  Sn27  1  0.999209  0.345461  0.000449  1
  Sn  Sn28  1  0.000791  0.654539  0.999551  1
  Sn  Sn29  1  0.653468  0.653468  0.000000  1
  Sn  Sn30  1  0.346532  0.346532  0.000000  1
  Sn  Sn31  1  0.333277  0.666723  0.119431  1
  Sn  Sn32  1  0.666723  0.333277  0.880569  1
  Sn  Sn33  1  0.332752  0.667248  0.817239  1
  Sn  Sn34  1  0.667248  0.332752  0.182761  1
  Sn  Sn35  1  0.000000  0.000000  0.500000  1
