# generated using pymatgen
data_Er2Ga2PdRh
_symmetry_space_group_name_H-M   'P 1'
_cell_length_a   4.38455500
_cell_length_b   6.82577700
_cell_length_c   7.69835700
_cell_angle_alpha   90.00000000
_cell_angle_beta   90.00000000
_cell_angle_gamma   90.00000000
_symmetry_Int_Tables_number   1
_chemical_formula_structural   Er2Ga2PdRh
_chemical_formula_sum   'Er4 Ga4 Pd2 Rh2'
_cell_volume   230.39638730
_cell_formula_units_Z   2
loop_
 _symmetry_equiv_pos_site_id
 _symmetry_equiv_pos_as_xyz
  1  'x, y, z'
loop_
 _atom_site_type_symbol
 _atom_site_label
 _atom_site_symmetry_multiplicity
 _atom_site_fract_x
 _atom_site_fract_y
 _atom_site_fract_z
 _atom_site_occupancy
  Er  Er0  1  0.250000  0.979736  0.306410  1
  Er  Er1  1  0.250000  0.479736  0.193590  1
  Er  Er2  1  0.750000  0.028526  0.685732  1
  Er  Er3  1  0.750000  0.528526  0.814268  1
  Ga  Ga4  1  0.250000  0.337362  0.567750  1
  Ga  Ga5  1  0.250000  0.837362  0.932250  1
  Ga  Ga6  1  0.750000  0.657655  0.429173  1
  Ga  Ga7  1  0.750000  0.157655  0.070827  1
  Pd  Pd8  1  0.250000  0.227392  0.891869  1
  Pd  Pd9  1  0.250000  0.727392  0.608131  1
  Rh  Rh10  1  0.750000  0.769329  0.108090  1
  Rh  Rh11  1  0.750000  0.269329  0.391910  1
