# generated using pymatgen
data_Sr3Nd(FeO3)4
_symmetry_space_group_name_H-M   'P 1'
_cell_length_a   5.54995407
_cell_length_b   5.53108619
_cell_length_c   7.80639700
_cell_angle_alpha   90.00128041
_cell_angle_beta   89.99519180
_cell_angle_gamma   90.08940546
_symmetry_Int_Tables_number   1
_chemical_formula_structural   Sr3Nd(FeO3)4
_chemical_formula_sum   'Sr3 Nd1 Fe4 O12'
_cell_volume   239.63481739
_cell_formula_units_Z   1
loop_
 _symmetry_equiv_pos_site_id
 _symmetry_equiv_pos_as_xyz
  1  'x, y, z'
loop_
 _atom_site_type_symbol
 _atom_site_label
 _atom_site_symmetry_multiplicity
 _atom_site_fract_x
 _atom_site_fract_y
 _atom_site_fract_z
 _atom_site_occupancy
  Sr  Sr0  1  0.493048  0.486451  0.750006  1
  Sr  Sr1  1  0.501477  0.512954  0.249984  1
  Sr  Sr2  1  0.000996  0.990043  0.750010  1
  Nd  Nd3  1  0.999946  0.027415  0.249956  1
  Fe  Fe4  1  0.499940  0.998883  0.999923  1
  Fe  Fe5  1  0.999847  0.502570  0.999630  1
  Fe  Fe6  1  0.999838  0.502596  0.500550  1
  Fe  Fe7  1  0.499940  0.998922  0.500002  1
  O  O8  1  0.738658  0.260005  0.027375  1
  O  O9  1  0.229797  0.228361  0.983678  1
  O  O10  1  0.776416  0.776880  0.464233  1
  O  O11  1  0.269719  0.731396  0.514801  1
  O  O12  1  0.269547  0.731320  0.985199  1
  O  O13  1  0.776465  0.776835  0.035738  1
  O  O14  1  0.229877  0.228321  0.516310  1
  O  O15  1  0.738553  0.259882  0.472592  1
  O  O16  1  0.039464  0.479380  0.250045  1
  O  O17  1  0.538582  0.997143  0.750005  1
  O  O18  1  0.440257  0.003668  0.249970  1
  O  O19  1  0.957632  0.506974  0.749992  1
