# generated using pymatgen
data_VCo4Si4Mo3
_symmetry_space_group_name_H-M   'P 1'
_cell_length_a   3.59560900
_cell_length_b   6.08091815
_cell_length_c   6.93090917
_cell_angle_alpha   90.02568051
_cell_angle_beta   90.00000000
_cell_angle_gamma   90.00000000
_symmetry_Int_Tables_number   1
_chemical_formula_structural   VCo4Si4Mo3
_chemical_formula_sum   'V1 Co4 Si4 Mo3'
_cell_volume   151.54156949
_cell_formula_units_Z   1
loop_
 _symmetry_equiv_pos_site_id
 _symmetry_equiv_pos_as_xyz
  1  'x, y, z'
loop_
 _atom_site_type_symbol
 _atom_site_label
 _atom_site_symmetry_multiplicity
 _atom_site_fract_x
 _atom_site_fract_y
 _atom_site_fract_z
 _atom_site_occupancy
  V  V0  1  0.250000  0.525382  0.328297  1
  Co  Co1  1  0.250000  0.645667  0.942579  1
  Co  Co2  1  0.250000  0.144994  0.557880  1
  Co  Co3  1  0.750000  0.854869  0.439486  1
  Co  Co4  1  0.750000  0.355856  0.061298  1
  Si  Si5  1  0.250000  0.773168  0.621484  1
  Si  Si6  1  0.250000  0.275316  0.874244  1
  Si  Si7  1  0.750000  0.230561  0.375462  1
  Si  Si8  1  0.750000  0.722172  0.128948  1
  Mo  Mo9  1  0.750000  0.474675  0.669344  1
  Mo  Mo10  1  0.250000  0.025750  0.171341  1
  Mo  Mo11  1  0.750000  0.971590  0.829639  1
