# generated using pymatgen
data_ErTmLu6(WO6)4
_symmetry_space_group_name_H-M   'P 1'
_cell_length_a   5.30896600
_cell_length_b   7.59413540
_cell_length_c   11.30612600
_cell_angle_alpha   75.17811851
_cell_angle_beta   90.00000000
_cell_angle_gamma   90.00000000
_symmetry_Int_Tables_number   1
_chemical_formula_structural   ErTmLu6(WO6)4
_chemical_formula_sum   'Er1 Tm1 Lu6 W4 O24'
_cell_volume   440.66178950
_cell_formula_units_Z   1
loop_
 _symmetry_equiv_pos_site_id
 _symmetry_equiv_pos_as_xyz
  1  'x, y, z'
loop_
 _atom_site_type_symbol
 _atom_site_label
 _atom_site_symmetry_multiplicity
 _atom_site_fract_x
 _atom_site_fract_y
 _atom_site_fract_z
 _atom_site_occupancy
  Er  Er0  1  0.314713  0.500000  0.750000  1
  Tm  Tm1  1  0.685175  0.500000  0.250000  1
  Lu  Lu2  1  0.259178  0.000000  0.750000  1
  Lu  Lu3  1  0.183193  0.794909  0.078998  1
  Lu  Lu4  1  0.183193  0.205091  0.421002  1
  Lu  Lu5  1  0.740786  0.000000  0.250000  1
  Lu  Lu6  1  0.816756  0.204883  0.921133  1
  Lu  Lu7  1  0.816756  0.795117  0.578867  1
  W  W8  1  0.743579  0.724014  0.885682  1
  W  W9  1  0.256463  0.723880  0.385342  1
  W  W10  1  0.743579  0.275986  0.614318  1
  W  W11  1  0.256463  0.276120  0.114658  1
  O  O12  1  0.540825  0.152946  0.069050  1
  O  O13  1  0.041965  0.057348  0.104752  1
  O  O14  1  0.021239  0.712448  0.769803  1
  O  O15  1  0.459060  0.152939  0.569081  1
  O  O16  1  0.361245  0.486949  0.385233  1
  O  O17  1  0.958087  0.057347  0.604678  1
  O  O18  1  0.540225  0.794639  0.724703  1
  O  O19  1  0.460027  0.794296  0.224716  1
  O  O20  1  0.147831  0.634345  0.550325  1
  O  O21  1  0.041965  0.942652  0.395248  1
  O  O22  1  0.459060  0.847061  0.930919  1
  O  O23  1  0.460027  0.205704  0.275284  1
  O  O24  1  0.851754  0.365757  0.449365  1
  O  O25  1  0.639790  0.486791  0.885619  1
  O  O26  1  0.361245  0.513051  0.114767  1
  O  O27  1  0.958087  0.942653  0.895322  1
  O  O28  1  0.540825  0.847054  0.430950  1
  O  O29  1  0.978035  0.288239  0.230127  1
  O  O30  1  0.540225  0.205361  0.775297  1
  O  O31  1  0.851754  0.634243  0.050635  1
  O  O32  1  0.021239  0.287552  0.730197  1
  O  O33  1  0.147831  0.365655  0.949675  1
  O  O34  1  0.978035  0.711761  0.269873  1
  O  O35  1  0.639790  0.513209  0.614381  1
