# generated using pymatgen
data_DyYZn5Sn
_symmetry_space_group_name_H-M   'P 1'
_cell_length_a   8.38181705
_cell_length_b   8.38181700
_cell_length_c   8.98273400
_cell_angle_alpha   90.00000000
_cell_angle_beta   90.00000000
_cell_angle_gamma   149.79507619
_symmetry_Int_Tables_number   1
_chemical_formula_structural   DyYZn5Sn
_chemical_formula_sum   'Dy2 Y2 Zn10 Sn2'
_cell_volume   317.49304584
_cell_formula_units_Z   2
loop_
 _symmetry_equiv_pos_site_id
 _symmetry_equiv_pos_as_xyz
  1  'x, y, z'
loop_
 _atom_site_type_symbol
 _atom_site_label
 _atom_site_symmetry_multiplicity
 _atom_site_fract_x
 _atom_site_fract_y
 _atom_site_fract_z
 _atom_site_occupancy
  Dy  Dy0  1  0.202627  0.797373  0.250000  1
  Dy  Dy1  1  0.797373  0.202627  0.750000  1
  Y  Y2  1  0.000000  0.000000  0.500000  1
  Y  Y3  1  0.000000  0.000000  0.000000  1
  Zn  Zn4  1  0.812861  0.187139  0.391089  1
  Zn  Zn5  1  0.187139  0.812861  0.608911  1
  Zn  Zn6  1  0.812861  0.187139  0.108911  1
  Zn  Zn7  1  0.187139  0.812861  0.891089  1
  Zn  Zn8  1  0.656151  0.343849  0.481273  1
  Zn  Zn9  1  0.343849  0.656151  0.518727  1
  Zn  Zn10  1  0.656151  0.343849  0.018727  1
  Zn  Zn11  1  0.343849  0.656151  0.981273  1
  Zn  Zn12  1  0.391458  0.608542  0.250000  1
  Zn  Zn13  1  0.608542  0.391458  0.750000  1
  Sn  Sn14  1  0.553121  0.446879  0.250000  1
  Sn  Sn15  1  0.446879  0.553121  0.750000  1
