# generated using pymatgen
data_Ho7Lu3(InSb)3
_symmetry_space_group_name_H-M   'P 1'
_cell_length_a   8.90462805
_cell_length_b   8.88535222
_cell_length_c   6.47111065
_cell_angle_alpha   89.95529569
_cell_angle_beta   90.00033032
_cell_angle_gamma   120.05941459
_symmetry_Int_Tables_number   1
_chemical_formula_structural   Ho7Lu3(InSb)3
_chemical_formula_sum   'Ho7 Lu3 In3 Sb3'
_cell_volume   443.13840529
_cell_formula_units_Z   1
loop_
 _symmetry_equiv_pos_site_id
 _symmetry_equiv_pos_as_xyz
  1  'x, y, z'
loop_
 _atom_site_type_symbol
 _atom_site_label
 _atom_site_symmetry_multiplicity
 _atom_site_fract_x
 _atom_site_fract_y
 _atom_site_fract_z
 _atom_site_occupancy
  Ho  Ho0  1  0.331060  0.665938  0.499013  1
  Ho  Ho1  1  0.760343  0.999962  0.750229  1
  Ho  Ho2  1  0.762949  0.759154  0.249784  1
  Ho  Ho3  1  0.003433  0.240624  0.249814  1
  Ho  Ho4  1  0.002307  0.762895  0.750318  1
  Ho  Ho5  1  0.239607  0.237124  0.750319  1
  Ho  Ho6  1  0.238184  0.000196  0.249764  1
  Lu  Lu7  1  0.331015  0.665977  0.001313  1
  Lu  Lu8  1  0.664806  0.333907  0.498535  1
  Lu  Lu9  1  0.665082  0.334004  0.001342  1
  In  In10  1  0.398386  0.001220  0.751025  1
  In  In11  1  0.396539  0.397272  0.248840  1
  In  In12  1  0.997274  0.601625  0.248947  1
  Sb  Sb13  1  0.996807  0.392510  0.750708  1
  Sb  Sb14  1  0.605283  0.606855  0.750837  1
  Sb  Sb15  1  0.606923  0.000737  0.249212  1
