# generated using pymatgen
data_Tm12Co2Ni2BiOs
_symmetry_space_group_name_H-M   'P 1'
_cell_length_a   8.20872661
_cell_length_b   8.20781417
_cell_length_c   8.20872523
_cell_angle_alpha   110.13767591
_cell_angle_beta   111.55386602
_cell_angle_gamma   106.76323764
_symmetry_Int_Tables_number   1
_chemical_formula_structural   Tm12Co2Ni2BiOs
_chemical_formula_sum   'Tm12 Co2 Ni2 Bi1 Os1'
_cell_volume   424.95184497
_cell_formula_units_Z   1
loop_
 _symmetry_equiv_pos_site_id
 _symmetry_equiv_pos_as_xyz
  1  'x, y, z'
loop_
 _atom_site_type_symbol
 _atom_site_label
 _atom_site_symmetry_multiplicity
 _atom_site_fract_x
 _atom_site_fract_y
 _atom_site_fract_z
 _atom_site_occupancy
  Tm  Tm0  1  0.280768  0.179399  0.460151  1
  Tm  Tm1  1  0.719232  0.820601  0.539849  1
  Tm  Tm2  1  0.280753  0.820601  0.101368  1
  Tm  Tm3  1  0.719247  0.179399  0.898632  1
  Tm  Tm4  1  0.621101  0.312359  0.308741  1
  Tm  Tm5  1  0.378899  0.687641  0.691259  1
  Tm  Tm6  1  0.003618  0.312359  0.691258  1
  Tm  Tm7  1  0.996382  0.687641  0.308742  1
  Tm  Tm8  1  0.218396  0.414121  0.195726  1
  Tm  Tm9  1  0.781604  0.585879  0.804274  1
  Tm  Tm10  1  0.218395  0.022682  0.804288  1
  Tm  Tm11  1  0.781605  0.977318  0.195712  1
  Co  Co12  1  0.387259  0.887328  0.500069  1
  Co  Co13  1  0.612741  0.112672  0.499931  1
  Ni  Ni14  1  0.000022  0.364713  0.364690  1
  Ni  Ni15  1  0.999978  0.635287  0.635310  1
  Bi  Bi16  1  0.500000  0.500000  0.000000  1
  Os  Os17  1  0.000000  0.000000  0.000000  1
