# generated using pymatgen
data_Ca4DyHo(RuO6)2
_symmetry_space_group_name_H-M   'P 1'
_cell_length_a   5.79731110
_cell_length_b   5.60582489
_cell_length_c   9.75829138
_cell_angle_alpha   55.53078192
_cell_angle_beta   90.02174119
_cell_angle_gamma   90.01302432
_symmetry_Int_Tables_number   1
_chemical_formula_structural   Ca4DyHo(RuO6)2
_chemical_formula_sum   'Ca4 Dy1 Ho1 Ru2 O12'
_cell_volume   261.45314215
_cell_formula_units_Z   1
loop_
 _symmetry_equiv_pos_site_id
 _symmetry_equiv_pos_as_xyz
  1  'x, y, z'
loop_
 _atom_site_type_symbol
 _atom_site_label
 _atom_site_symmetry_multiplicity
 _atom_site_fract_x
 _atom_site_fract_y
 _atom_site_fract_z
 _atom_site_occupancy
  Ca  Ca0  1  0.554543  0.734314  0.750774  1
  Ca  Ca1  1  0.054778  0.265000  0.749926  1
  Ca  Ca2  1  0.945222  0.735000  0.250074  1
  Ca  Ca3  1  0.445457  0.265686  0.249226  1
  Dy  Dy4  1  0.000000  0.000000  0.500000  1
  Ho  Ho5  1  0.500000  0.000000  0.000000  1
  Ru  Ru6  1  0.000000  0.500000  0.000000  1
  Ru  Ru7  1  0.500000  0.500000  0.500000  1
  O  O8  1  0.542082  0.841531  0.266612  1
  O  O9  1  0.042242  0.158886  0.232583  1
  O  O10  1  0.457918  0.158469  0.733388  1
  O  O11  1  0.957758  0.841114  0.767417  1
  O  O12  1  0.784990  0.619324  0.559804  1
  O  O13  1  0.285198  0.379298  0.940483  1
  O  O14  1  0.215010  0.380676  0.440196  1
  O  O15  1  0.714802  0.620702  0.059517  1
  O  O16  1  0.186919  0.730480  0.055039  1
  O  O17  1  0.685921  0.270045  0.444686  1
  O  O18  1  0.813081  0.269520  0.944961  1
  O  O19  1  0.314079  0.729955  0.555314  1
