# generated using pymatgen
data_Ta4Al(Si5Pt4)3
_symmetry_space_group_name_H-M   'P 1'
_cell_length_a   3.57794300
_cell_length_b   5.57181782
_cell_length_c   24.95058700
_cell_angle_alpha   90.04633583
_cell_angle_beta   90.00000000
_cell_angle_gamma   90.00000000
_symmetry_Int_Tables_number   1
_chemical_formula_structural   Ta4Al(Si5Pt4)3
_chemical_formula_sum   'Ta4 Al1 Si15 Pt12'
_cell_volume   497.40592158
_cell_formula_units_Z   1
loop_
 _symmetry_equiv_pos_site_id
 _symmetry_equiv_pos_as_xyz
  1  'x, y, z'
loop_
 _atom_site_type_symbol
 _atom_site_label
 _atom_site_symmetry_multiplicity
 _atom_site_fract_x
 _atom_site_fract_y
 _atom_site_fract_z
 _atom_site_occupancy
  Ta  Ta0  1  0.250000  0.500337  0.711191  1
  Ta  Ta1  1  0.750000  0.997542  0.209869  1
  Ta  Ta2  1  0.250000  0.001007  0.790247  1
  Ta  Ta3  1  0.750000  0.497094  0.288472  1
  Al  Al4  1  0.250000  0.183527  0.520561  1
  Si  Si5  1  0.750000  0.318553  0.019905  1
  Si  Si6  1  0.250000  0.681127  0.980004  1
  Si  Si7  1  0.750000  0.825302  0.480972  1
  Si  Si8  1  0.750000  0.317237  0.643681  1
  Si  Si9  1  0.250000  0.184243  0.144222  1
  Si  Si10  1  0.750000  0.814570  0.855773  1
  Si  Si11  1  0.250000  0.681567  0.355003  1
  Si  Si12  1  0.250000  0.660852  0.609085  1
  Si  Si13  1  0.750000  0.843941  0.108467  1
  Si  Si14  1  0.250000  0.155897  0.891613  1
  Si  Si15  1  0.750000  0.339504  0.391024  1
  Si  Si16  1  0.750000  0.834632  0.725104  1
  Si  Si17  1  0.250000  0.664337  0.223637  1
  Si  Si18  1  0.750000  0.333746  0.776124  1
  Si  Si19  1  0.250000  0.162634  0.275231  1
  Pt  Pt20  1  0.750000  0.995594  0.575716  1
  Pt  Pt21  1  0.250000  0.497168  0.072346  1
  Pt  Pt22  1  0.750000  0.502401  0.927543  1
  Pt  Pt23  1  0.250000  0.000730  0.425608  1
  Pt  Pt24  1  0.250000  0.005266  0.670107  1
  Pt  Pt25  1  0.750000  0.495191  0.167026  1
  Pt  Pt26  1  0.250000  0.503721  0.832750  1
  Pt  Pt27  1  0.750000  0.993531  0.330654  1
  Pt  Pt28  1  0.750000  0.506970  0.548373  1
  Pt  Pt29  1  0.250000  0.995105  0.047583  1
  Pt  Pt30  1  0.750000  0.004614  0.952526  1
  Pt  Pt31  1  0.250000  0.502058  0.449583  1
