# generated using pymatgen
data_Ho5Tm5SnSb5
_symmetry_space_group_name_H-M   'P 1'
_cell_length_a   8.89212068
_cell_length_b   8.86618958
_cell_length_c   6.28649600
_cell_angle_alpha   90.00000000
_cell_angle_beta   90.00000000
_cell_angle_gamma   119.63979583
_symmetry_Int_Tables_number   1
_chemical_formula_structural   Ho5Tm5SnSb5
_chemical_formula_sum   'Ho5 Tm5 Sn1 Sb5'
_cell_volume   430.77110138
_cell_formula_units_Z   1
loop_
 _symmetry_equiv_pos_site_id
 _symmetry_equiv_pos_as_xyz
  1  'x, y, z'
loop_
 _atom_site_type_symbol
 _atom_site_label
 _atom_site_symmetry_multiplicity
 _atom_site_fract_x
 _atom_site_fract_y
 _atom_site_fract_z
 _atom_site_occupancy
  Ho  Ho0  1  0.243947  0.998394  0.250000  1
  Ho  Ho1  1  0.756994  0.001392  0.750000  1
  Ho  Ho2  1  0.997599  0.242296  0.250000  1
  Ho  Ho3  1  0.247149  0.246356  0.750000  1
  Ho  Ho4  1  0.001842  0.756236  0.750000  1
  Tm  Tm5  1  0.333829  0.668285  0.000133  1
  Tm  Tm6  1  0.666287  0.331566  0.499824  1
  Tm  Tm7  1  0.666287  0.331566  0.000176  1
  Tm  Tm8  1  0.333829  0.668285  0.499867  1
  Tm  Tm9  1  0.753113  0.754938  0.250000  1
  Sn  Sn10  1  0.607212  0.999216  0.250000  1
  Sb  Sb11  1  0.392554  0.000990  0.750000  1
  Sb  Sb12  1  0.997288  0.607370  0.250000  1
  Sb  Sb13  1  0.389518  0.389952  0.250000  1
  Sb  Sb14  1  0.610862  0.610475  0.750000  1
  Sb  Sb15  1  0.001688  0.392682  0.750000  1
