# generated using pymatgen
data_Dy3Er2RuRh
_symmetry_space_group_name_H-M   'P 1'
_cell_length_a   6.37586748
_cell_length_b   7.23577762
_cell_length_c   8.50797639
_cell_angle_alpha   96.76247377
_cell_angle_beta   112.00572850
_cell_angle_gamma   90.00000026
_symmetry_Int_Tables_number   1
_chemical_formula_structural   Dy3Er2RuRh
_chemical_formula_sum   'Dy6 Er4 Ru2 Rh2'
_cell_volume   360.96724937
_cell_formula_units_Z   2
loop_
 _symmetry_equiv_pos_site_id
 _symmetry_equiv_pos_as_xyz
  1  'x, y, z'
loop_
 _atom_site_type_symbol
 _atom_site_label
 _atom_site_symmetry_multiplicity
 _atom_site_fract_x
 _atom_site_fract_y
 _atom_site_fract_z
 _atom_site_occupancy
  Dy  Dy0  1  0.792050  0.581465  0.811672  1
  Dy  Dy1  1  0.980378  0.918535  0.188328  1
  Dy  Dy2  1  0.210263  0.414422  0.185756  1
  Dy  Dy3  1  0.024507  0.085578  0.814244  1
  Dy  Dy4  1  0.207660  0.683791  0.565723  1
  Dy  Dy5  1  0.641937  0.816209  0.434277  1
  Er  Er6  1  0.791878  0.312280  0.435956  1
  Er  Er7  1  0.355922  0.187720  0.564044  1
  Er  Er8  1  0.421637  0.750000  0.000000  1
  Er  Er9  1  0.576566  0.250000  0.000000  1
  Ru  Ru10  1  0.398797  0.074977  0.220846  1
  Ru  Ru11  1  0.177952  0.425023  0.779154  1
  Rh  Rh12  1  0.599857  0.925170  0.779260  1
  Rh  Rh13  1  0.820597  0.574830  0.220740  1
