# generated using pymatgen
data_La4Mg(CdAu5)2
_symmetry_space_group_name_H-M   'P 1'
_cell_length_a   8.81089262
_cell_length_b   8.81089203
_cell_length_c   10.49614800
_cell_angle_alpha   90.00000000
_cell_angle_beta   90.00000000
_cell_angle_gamma   108.32671348
_symmetry_Int_Tables_number   1
_chemical_formula_structural   La4Mg(CdAu5)2
_chemical_formula_sum   'La8 Mg2 Cd4 Au20'
_cell_volume   773.50584121
_cell_formula_units_Z   2
loop_
 _symmetry_equiv_pos_site_id
 _symmetry_equiv_pos_as_xyz
  1  'x, y, z'
loop_
 _atom_site_type_symbol
 _atom_site_label
 _atom_site_symmetry_multiplicity
 _atom_site_fract_x
 _atom_site_fract_y
 _atom_site_fract_z
 _atom_site_occupancy
  La  La0  1  0.701311  0.298689  0.000000  1
  La  La1  1  0.298689  0.701311  0.000000  1
  La  La2  1  0.798689  0.201311  0.500000  1
  La  La3  1  0.201311  0.798689  0.500000  1
  La  La4  1  0.300117  0.300117  0.204983  1
  La  La5  1  0.699883  0.699883  0.795017  1
  La  La6  1  0.199883  0.199883  0.704983  1
  La  La7  1  0.800117  0.800117  0.295017  1
  Mg  Mg8  1  0.000000  0.000000  0.000000  1
  Mg  Mg9  1  0.500000  0.500000  0.500000  1
  Cd  Cd10  1  0.014423  0.514423  0.250000  1
  Cd  Cd11  1  0.985577  0.485577  0.750000  1
  Cd  Cd12  1  0.485577  0.985577  0.750000  1
  Cd  Cd13  1  0.514423  0.014423  0.250000  1
  Au  Au14  1  0.095975  0.095975  0.404590  1
  Au  Au15  1  0.904025  0.904025  0.595410  1
  Au  Au16  1  0.404025  0.404025  0.904590  1
  Au  Au17  1  0.595975  0.595975  0.095410  1
  Au  Au18  1  0.890061  0.162519  0.203209  1
  Au  Au19  1  0.109939  0.837481  0.796791  1
  Au  Au20  1  0.609939  0.337481  0.703209  1
  Au  Au21  1  0.662519  0.390061  0.296791  1
  Au  Au22  1  0.390061  0.662519  0.296791  1
  Au  Au23  1  0.337481  0.609939  0.703209  1
  Au  Au24  1  0.837481  0.109939  0.796791  1
  Au  Au25  1  0.162519  0.890061  0.203209  1
  Au  Au26  1  0.932119  0.662469  0.021442  1
  Au  Au27  1  0.067881  0.337531  0.978558  1
  Au  Au28  1  0.567881  0.837531  0.521442  1
  Au  Au29  1  0.162469  0.432119  0.478558  1
  Au  Au30  1  0.432119  0.162469  0.478558  1
  Au  Au31  1  0.837531  0.567881  0.521442  1
  Au  Au32  1  0.337531  0.067881  0.978558  1
  Au  Au33  1  0.662469  0.932119  0.021442  1
