# generated using pymatgen
data_Tb2NdBe2Co9B4
_symmetry_space_group_name_H-M   'P 1'
_cell_length_a   5.09907700
_cell_length_b   5.09165912
_cell_length_c   9.45082201
_cell_angle_alpha   90.00245387
_cell_angle_beta   89.99511065
_cell_angle_gamma   120.04819805
_symmetry_Int_Tables_number   1
_chemical_formula_structural   Tb2NdBe2Co9B4
_chemical_formula_sum   'Tb2 Nd1 Be2 Co9 B4'
_cell_volume   212.39289004
_cell_formula_units_Z   1
loop_
 _symmetry_equiv_pos_site_id
 _symmetry_equiv_pos_as_xyz
  1  'x, y, z'
loop_
 _atom_site_type_symbol
 _atom_site_label
 _atom_site_symmetry_multiplicity
 _atom_site_fract_x
 _atom_site_fract_y
 _atom_site_fract_z
 _atom_site_occupancy
  Tb  Tb0  1  0.000039  0.000000  0.339655  1
  Tb  Tb1  1  0.000024  0.000000  0.661465  1
  Nd  Nd2  1  0.999859  0.000000  0.000266  1
  Be  Be3  1  0.334275  0.668813  0.998975  1
  Be  Be4  1  0.665462  0.331187  0.998975  1
  Co  Co5  1  0.500048  0.000000  0.500538  1
  Co  Co6  1  0.500046  0.500003  0.500254  1
  Co  Co7  1  0.000043  0.499997  0.500254  1
  Co  Co8  1  0.499998  0.000000  0.193474  1
  Co  Co9  1  0.500006  0.499991  0.193593  1
  Co  Co10  1  0.000016  0.500009  0.193593  1
  Co  Co11  1  0.499975  0.000000  0.805944  1
  Co  Co12  1  0.499984  0.499992  0.806175  1
  Co  Co13  1  0.999991  0.500008  0.806175  1
  B  B14  1  0.333525  0.666974  0.343670  1
  B  B15  1  0.666551  0.333026  0.343670  1
  B  B16  1  0.666869  0.333680  0.656663  1
  B  B17  1  0.333188  0.666320  0.656663  1
