# generated using pymatgen
data_CeTm3Sc3AlIr4
_symmetry_space_group_name_H-M   'P 1'
_cell_length_a   7.06010078
_cell_length_b   4.26680300
_cell_length_c   8.45240111
_cell_angle_alpha   90.00000000
_cell_angle_beta   93.13996364
_cell_angle_gamma   90.00000000
_symmetry_Int_Tables_number   1
_chemical_formula_structural   CeTm3Sc3AlIr4
_chemical_formula_sum   'Ce1 Tm3 Sc3 Al1 Ir4'
_cell_volume   254.23837141
_cell_formula_units_Z   1
loop_
 _symmetry_equiv_pos_site_id
 _symmetry_equiv_pos_as_xyz
  1  'x, y, z'
loop_
 _atom_site_type_symbol
 _atom_site_label
 _atom_site_symmetry_multiplicity
 _atom_site_fract_x
 _atom_site_fract_y
 _atom_site_fract_z
 _atom_site_occupancy
  Ce  Ce0  1  0.517960  0.750000  0.693615  1
  Tm  Tm1  1  0.988193  0.250000  0.159471  1
  Tm  Tm2  1  0.464421  0.250000  0.318517  1
  Tm  Tm3  1  0.038878  0.750000  0.831823  1
  Sc  Sc4  1  0.867387  0.250000  0.562555  1
  Sc  Sc5  1  0.135327  0.750000  0.428284  1
  Sc  Sc6  1  0.636940  0.750000  0.065276  1
  Al  Al7  1  0.356659  0.250000  0.940657  1
  Ir  Ir8  1  0.732656  0.250000  0.879108  1
  Ir  Ir9  1  0.248312  0.250000  0.615111  1
  Ir  Ir10  1  0.264222  0.750000  0.115628  1
  Ir  Ir11  1  0.749047  0.750000  0.389954  1
