# generated using pymatgen
data_Sr2La2As7Ir8
_symmetry_space_group_name_H-M   'P 1'
_cell_length_a   4.16532600
_cell_length_b   13.37020218
_cell_length_c   13.82341108
_cell_angle_alpha   81.11739072
_cell_angle_beta   90.00000000
_cell_angle_gamma   90.00000000
_symmetry_Int_Tables_number   1
_chemical_formula_structural   Sr2La2As7Ir8
_chemical_formula_sum   'Sr4 La4 As14 Ir16'
_cell_volume   760.61015457
_cell_formula_units_Z   2
loop_
 _symmetry_equiv_pos_site_id
 _symmetry_equiv_pos_as_xyz
  1  'x, y, z'
loop_
 _atom_site_type_symbol
 _atom_site_label
 _atom_site_symmetry_multiplicity
 _atom_site_fract_x
 _atom_site_fract_y
 _atom_site_fract_z
 _atom_site_occupancy
  Sr  Sr0  1  0.250000  0.102905  0.793118  1
  Sr  Sr1  1  0.750000  0.897095  0.206882  1
  Sr  Sr2  1  0.250000  0.286239  0.104678  1
  Sr  Sr3  1  0.750000  0.713761  0.895322  1
  La  La4  1  0.250000  0.518840  0.292033  1
  La  La5  1  0.750000  0.481160  0.707967  1
  La  La6  1  0.250000  0.211613  0.435793  1
  La  La7  1  0.750000  0.788387  0.564207  1
  As  As8  1  0.250000  0.058013  0.099153  1
  As  As9  1  0.750000  0.941987  0.900847  1
  As  As10  1  0.250000  0.312624  0.686706  1
  As  As11  1  0.750000  0.687376  0.313294  1
  As  As12  1  0.250000  0.606593  0.563696  1
  As  As13  1  0.750000  0.393407  0.436304  1
  As  As14  1  0.250000  0.847541  0.721752  1
  As  As15  1  0.750000  0.152459  0.278248  1
  As  As16  1  0.750000  0.257336  0.917753  1
  As  As17  1  0.250000  0.742664  0.082247  1
  As  As18  1  0.750000  0.094176  0.586319  1
  As  As19  1  0.250000  0.905824  0.413681  1
  As  As20  1  0.750000  0.470544  0.127309  1
  As  As21  1  0.250000  0.529456  0.872691  1
  Ir  Ir22  1  0.250000  0.985982  0.574117  1
  Ir  Ir23  1  0.750000  0.014018  0.425883  1
  Ir  Ir24  1  0.250000  0.664108  0.727626  1
  Ir  Ir25  1  0.750000  0.335892  0.272374  1
  Ir  Ir26  1  0.250000  0.552247  0.049428  1
  Ir  Ir27  1  0.750000  0.447753  0.950572  1
  Ir  Ir28  1  0.250000  0.057576  0.278716  1
  Ir  Ir29  1  0.750000  0.942424  0.721284  1
  Ir  Ir30  1  0.250000  0.425430  0.525946  1
  Ir  Ir31  1  0.750000  0.574570  0.474054  1
  Ir  Ir32  1  0.250000  0.920758  0.998481  1
  Ir  Ir33  1  0.750000  0.079242  0.001519  1
  Ir  Ir34  1  0.250000  0.722150  0.401687  1
  Ir  Ir35  1  0.750000  0.277850  0.598313  1
  Ir  Ir36  1  0.250000  0.345257  0.860161  1
  Ir  Ir37  1  0.750000  0.654743  0.139839  1
