# generated using pymatgen
data_Ho3ThCdCo
_symmetry_space_group_name_H-M   'P 1'
_cell_length_a   9.56470877
_cell_length_b   9.56470869
_cell_length_c   9.56470900
_cell_angle_alpha   60.00000238
_cell_angle_beta   60.00000267
_cell_angle_gamma   59.99999949
_symmetry_Int_Tables_number   1
_chemical_formula_structural   Ho3ThCdCo
_chemical_formula_sum   'Ho12 Th4 Cd4 Co4'
_cell_volume   618.72872213
_cell_formula_units_Z   4
loop_
 _symmetry_equiv_pos_site_id
 _symmetry_equiv_pos_as_xyz
  1  'x, y, z'
loop_
 _atom_site_type_symbol
 _atom_site_label
 _atom_site_symmetry_multiplicity
 _atom_site_fract_x
 _atom_site_fract_y
 _atom_site_fract_z
 _atom_site_occupancy
  Ho  Ho0  1  0.813172  0.186828  0.186828  1
  Ho  Ho1  1  0.186828  0.813172  0.813172  1
  Ho  Ho2  1  0.186828  0.813172  0.186828  1
  Ho  Ho3  1  0.813172  0.186828  0.813172  1
  Ho  Ho4  1  0.186828  0.186828  0.813172  1
  Ho  Ho5  1  0.813172  0.813172  0.186828  1
  Ho  Ho6  1  0.935679  0.564321  0.564321  1
  Ho  Ho7  1  0.564321  0.935679  0.935679  1
  Ho  Ho8  1  0.564321  0.935679  0.564321  1
  Ho  Ho9  1  0.935679  0.564321  0.935679  1
  Ho  Ho10  1  0.564321  0.564321  0.935679  1
  Ho  Ho11  1  0.935679  0.935679  0.564321  1
  Th  Th12  1  0.345957  0.345957  0.345957  1
  Th  Th13  1  0.345957  0.345957  0.962131  1
  Th  Th14  1  0.345957  0.962131  0.345957  1
  Th  Th15  1  0.962131  0.345957  0.345957  1
  Cd  Cd16  1  0.581629  0.581629  0.581629  1
  Cd  Cd17  1  0.581629  0.581629  0.255113  1
  Cd  Cd18  1  0.581629  0.255113  0.581629  1
  Cd  Cd19  1  0.255113  0.581629  0.581629  1
  Co  Co20  1  0.144577  0.144577  0.144577  1
  Co  Co21  1  0.144577  0.144577  0.566271  1
  Co  Co22  1  0.144577  0.566271  0.144577  1
  Co  Co23  1  0.566271  0.144577  0.144577  1
