# generated using pymatgen
data_TbNd6ScAu10
_symmetry_space_group_name_H-M   'P 1'
_cell_length_a   8.17219068
_cell_length_b   8.17219005
_cell_length_c   8.17219109
_cell_angle_alpha   65.84920567
_cell_angle_beta   65.84920247
_cell_angle_gamma   65.84917800
_symmetry_Int_Tables_number   1
_chemical_formula_structural   TbNd6ScAu10
_chemical_formula_sum   'Tb1 Nd6 Sc1 Au10'
_cell_volume   434.84108858
_cell_formula_units_Z   1
loop_
 _symmetry_equiv_pos_site_id
 _symmetry_equiv_pos_as_xyz
  1  'x, y, z'
loop_
 _atom_site_type_symbol
 _atom_site_label
 _atom_site_symmetry_multiplicity
 _atom_site_fract_x
 _atom_site_fract_y
 _atom_site_fract_z
 _atom_site_occupancy
  Tb  Tb0  1  0.657007  0.657007  0.657007  1
  Nd  Nd1  1  0.893939  0.184202  0.621103  1
  Nd  Nd2  1  0.621103  0.893939  0.184202  1
  Nd  Nd3  1  0.184202  0.621103  0.893939  1
  Nd  Nd4  1  0.110206  0.812459  0.378146  1
  Nd  Nd5  1  0.378146  0.110206  0.812459  1
  Nd  Nd6  1  0.812459  0.378146  0.110206  1
  Sc  Sc7  1  0.342520  0.342520  0.342520  1
  Au  Au8  1  0.000656  0.000656  0.000656  1
  Au  Au9  1  0.496320  0.496320  0.496320  1
  Au  Au10  1  0.804891  0.804891  0.804891  1
  Au  Au11  1  0.197916  0.197916  0.197916  1
  Au  Au12  1  0.945452  0.545277  0.318950  1
  Au  Au13  1  0.318950  0.945452  0.545277  1
  Au  Au14  1  0.545277  0.318950  0.945452  1
  Au  Au15  1  0.065989  0.450615  0.674351  1
  Au  Au16  1  0.674351  0.065989  0.450615  1
  Au  Au17  1  0.450615  0.674351  0.065989  1
