# generated using pymatgen
data_PrNd5Co16(ReP6)2
_symmetry_space_group_name_H-M   'P 1'
_cell_length_a   3.79348900
_cell_length_b   10.69997100
_cell_length_c   12.43755000
_cell_angle_alpha   90.00000000
_cell_angle_beta   90.00000000
_cell_angle_gamma   90.00000000
_symmetry_Int_Tables_number   1
_chemical_formula_structural   PrNd5Co16(ReP6)2
_chemical_formula_sum   'Pr1 Nd5 Co16 Re2 P12'
_cell_volume   504.84291923
_cell_formula_units_Z   1
loop_
 _symmetry_equiv_pos_site_id
 _symmetry_equiv_pos_as_xyz
  1  'x, y, z'
loop_
 _atom_site_type_symbol
 _atom_site_label
 _atom_site_symmetry_multiplicity
 _atom_site_fract_x
 _atom_site_fract_y
 _atom_site_fract_z
 _atom_site_occupancy
  Pr  Pr0  1  0.500000  0.000000  0.477461  1
  Nd  Nd1  1  0.000000  0.500000  0.522326  1
  Nd  Nd2  1  0.500000  0.817610  0.205405  1
  Nd  Nd3  1  0.500000  0.182390  0.205405  1
  Nd  Nd4  1  0.000000  0.682203  0.794669  1
  Nd  Nd5  1  0.000000  0.317797  0.794669  1
  Co  Co6  1  0.500000  0.500000  0.703419  1
  Co  Co7  1  0.000000  0.000000  0.296227  1
  Co  Co8  1  0.000000  0.500000  0.988038  1
  Co  Co9  1  0.500000  0.000000  0.011832  1
  Co  Co10  1  0.500000  0.332414  0.991840  1
  Co  Co11  1  0.500000  0.667586  0.991840  1
  Co  Co12  1  0.000000  0.167564  0.008180  1
  Co  Co13  1  0.000000  0.832436  0.008180  1
  Co  Co14  1  0.500000  0.297298  0.429707  1
  Co  Co15  1  0.500000  0.702702  0.429707  1
  Co  Co16  1  0.000000  0.204188  0.570312  1
  Co  Co17  1  0.000000  0.795812  0.570312  1
  Co  Co18  1  0.500000  0.881460  0.711616  1
  Co  Co19  1  0.500000  0.118540  0.711616  1
  Co  Co20  1  0.000000  0.618178  0.288421  1
  Co  Co21  1  0.000000  0.381822  0.288421  1
  Re  Re22  1  0.500000  0.500000  0.153453  1
  Re  Re23  1  0.000000  0.000000  0.846854  1
  P  P24  1  0.500000  0.500000  0.884611  1
  P  P25  1  0.000000  0.000000  0.115357  1
  P  P26  1  0.500000  0.500000  0.342802  1
  P  P27  1  0.000000  0.000000  0.657380  1
  P  P28  1  0.500000  0.307073  0.614234  1
  P  P29  1  0.500000  0.692927  0.614234  1
  P  P30  1  0.000000  0.194329  0.385668  1
  P  P31  1  0.000000  0.805671  0.385668  1
  P  P32  1  0.500000  0.847664  0.895486  1
  P  P33  1  0.500000  0.152336  0.895486  1
  P  P34  1  0.000000  0.652290  0.104582  1
  P  P35  1  0.000000  0.347710  0.104582  1
