# generated using pymatgen
data_Pr16Hg4OsRh3
_symmetry_space_group_name_H-M   'P 1'
_cell_length_a   10.04499137
_cell_length_b   10.04499146
_cell_length_c   10.04499131
_cell_angle_alpha   59.49816052
_cell_angle_beta   59.49815732
_cell_angle_gamma   59.49816707
_symmetry_Int_Tables_number   1
_chemical_formula_structural   Pr16Hg4OsRh3
_chemical_formula_sum   'Pr16 Hg4 Os1 Rh3'
_cell_volume   708.51407163
_cell_formula_units_Z   1
loop_
 _symmetry_equiv_pos_site_id
 _symmetry_equiv_pos_as_xyz
  1  'x, y, z'
loop_
 _atom_site_type_symbol
 _atom_site_label
 _atom_site_symmetry_multiplicity
 _atom_site_fract_x
 _atom_site_fract_y
 _atom_site_fract_z
 _atom_site_occupancy
  Pr  Pr0  1  0.350012  0.350012  0.350012  1
  Pr  Pr1  1  0.348465  0.348465  0.952402  1
  Pr  Pr2  1  0.348465  0.952402  0.348465  1
  Pr  Pr3  1  0.952402  0.348465  0.348465  1
  Pr  Pr4  1  0.811509  0.190392  0.190392  1
  Pr  Pr5  1  0.190341  0.808313  0.808312  1
  Pr  Pr6  1  0.190392  0.811509  0.190391  1
  Pr  Pr7  1  0.808312  0.190341  0.808312  1
  Pr  Pr8  1  0.190392  0.190392  0.811509  1
  Pr  Pr9  1  0.808313  0.808313  0.190340  1
  Pr  Pr10  1  0.937634  0.562219  0.562219  1
  Pr  Pr11  1  0.557614  0.939561  0.939561  1
  Pr  Pr12  1  0.562219  0.937634  0.562219  1
  Pr  Pr13  1  0.939561  0.557614  0.939561  1
  Pr  Pr14  1  0.562219  0.562219  0.937634  1
  Pr  Pr15  1  0.939561  0.939561  0.557614  1
  Hg  Hg16  1  0.583381  0.583381  0.583381  1
  Hg  Hg17  1  0.583013  0.583013  0.249243  1
  Hg  Hg18  1  0.583013  0.249243  0.583013  1
  Hg  Hg19  1  0.249243  0.583013  0.583013  1
  Os  Os20  1  0.141324  0.141324  0.141324  1
  Rh  Rh21  1  0.142980  0.142980  0.576654  1
  Rh  Rh22  1  0.142980  0.576654  0.142980  1
  Rh  Rh23  1  0.576654  0.142980  0.142980  1
