# generated using pymatgen
data_TbYGaNiI2
_symmetry_space_group_name_H-M   'P 1'
_cell_length_a   4.16086800
_cell_length_b   4.16086716
_cell_length_c   11.75756400
_cell_angle_alpha   90.00000000
_cell_angle_beta   90.00000000
_cell_angle_gamma   119.99999076
_symmetry_Int_Tables_number   1
_chemical_formula_structural   TbYGaNiI2
_chemical_formula_sum   'Tb1 Y1 Ga1 Ni1 I2'
_cell_volume   176.28518385
_cell_formula_units_Z   1
loop_
 _symmetry_equiv_pos_site_id
 _symmetry_equiv_pos_as_xyz
  1  'x, y, z'
loop_
 _atom_site_type_symbol
 _atom_site_label
 _atom_site_symmetry_multiplicity
 _atom_site_fract_x
 _atom_site_fract_y
 _atom_site_fract_z
 _atom_site_occupancy
  Tb  Tb0  1  0.000000  0.000000  0.843129  1
  Y  Y1  1  0.000000  0.000000  0.157992  1
  Ga  Ga2  1  0.666667  0.333333  0.002923  1
  Ni  Ni3  1  0.333333  0.666667  0.996766  1
  I  I4  1  0.666667  0.333333  0.663936  1
  I  I5  1  0.333333  0.666667  0.335255  1
