# generated using pymatgen
data_Tb3CeCdRu
_symmetry_space_group_name_H-M   'P 1'
_cell_length_a   9.68188890
_cell_length_b   9.68188865
_cell_length_c   9.68188900
_cell_angle_alpha   60.00000221
_cell_angle_beta   60.00000306
_cell_angle_gamma   59.99999921
_symmetry_Int_Tables_number   1
_chemical_formula_structural   Tb3CeCdRu
_chemical_formula_sum   'Tb12 Ce4 Cd4 Ru4'
_cell_volume   641.74913828
_cell_formula_units_Z   4
loop_
 _symmetry_equiv_pos_site_id
 _symmetry_equiv_pos_as_xyz
  1  'x, y, z'
loop_
 _atom_site_type_symbol
 _atom_site_label
 _atom_site_symmetry_multiplicity
 _atom_site_fract_x
 _atom_site_fract_y
 _atom_site_fract_z
 _atom_site_occupancy
  Tb  Tb0  1  0.561830  0.561830  0.938170  1
  Tb  Tb1  1  0.938170  0.561830  0.938170  1
  Tb  Tb2  1  0.561830  0.938170  0.938170  1
  Tb  Tb3  1  0.938170  0.938170  0.561830  1
  Tb  Tb4  1  0.561830  0.938170  0.561830  1
  Tb  Tb5  1  0.938170  0.561830  0.561830  1
  Tb  Tb6  1  0.189363  0.189363  0.810637  1
  Tb  Tb7  1  0.810637  0.189363  0.810637  1
  Tb  Tb8  1  0.189362  0.810638  0.810637  1
  Tb  Tb9  1  0.810637  0.810638  0.189363  1
  Tb  Tb10  1  0.189362  0.810637  0.189362  1
  Tb  Tb11  1  0.810637  0.189363  0.189363  1
  Ce  Ce12  1  0.345316  0.345316  0.964053  1
  Ce  Ce13  1  0.345316  0.964053  0.345316  1
  Ce  Ce14  1  0.964053  0.345316  0.345316  1
  Ce  Ce15  1  0.345316  0.345316  0.345316  1
  Cd  Cd16  1  0.580870  0.580870  0.257390  1
  Cd  Cd17  1  0.580870  0.257390  0.580870  1
  Cd  Cd18  1  0.257390  0.580870  0.580870  1
  Cd  Cd19  1  0.580870  0.580870  0.580870  1
  Ru  Ru20  1  0.144770  0.144770  0.565689  1
  Ru  Ru21  1  0.144770  0.565689  0.144770  1
  Ru  Ru22  1  0.565689  0.144770  0.144770  1
  Ru  Ru23  1  0.144770  0.144770  0.144770  1
