# generated using pymatgen
data_Lu4ReB12Ru
_symmetry_space_group_name_H-M   'P 1'
_cell_length_a   3.60622700
_cell_length_b   9.04603973
_cell_length_c   11.40727033
_cell_angle_alpha   90.19968531
_cell_angle_beta   90.00000000
_cell_angle_gamma   90.00000000
_symmetry_Int_Tables_number   1
_chemical_formula_structural   Lu4ReB12Ru
_chemical_formula_sum   'Lu8 Re2 B24 Ru2'
_cell_volume   372.12654206
_cell_formula_units_Z   2
loop_
 _symmetry_equiv_pos_site_id
 _symmetry_equiv_pos_as_xyz
  1  'x, y, z'
loop_
 _atom_site_type_symbol
 _atom_site_label
 _atom_site_symmetry_multiplicity
 _atom_site_fract_x
 _atom_site_fract_y
 _atom_site_fract_z
 _atom_site_occupancy
  Lu  Lu0  1  0.000000  0.320556  0.412429  1
  Lu  Lu1  1  0.000000  0.679444  0.587571  1
  Lu  Lu2  1  0.000000  0.824399  0.084595  1
  Lu  Lu3  1  0.000000  0.175601  0.915405  1
  Lu  Lu4  1  0.000000  0.943641  0.370811  1
  Lu  Lu5  1  0.000000  0.056359  0.629189  1
  Lu  Lu6  1  0.000000  0.443413  0.128904  1
  Lu  Lu7  1  0.000000  0.556587  0.871096  1
  Re  Re8  1  0.000000  0.139132  0.179694  1
  Re  Re9  1  0.000000  0.860868  0.820306  1
  B  B10  1  0.500000  0.553931  0.433886  1
  B  B11  1  0.500000  0.446069  0.566114  1
  B  B12  1  0.500000  0.053195  0.066005  1
  B  B13  1  0.500000  0.946805  0.933995  1
  B  B14  1  0.500000  0.750212  0.419823  1
  B  B15  1  0.500000  0.249788  0.580177  1
  B  B16  1  0.500000  0.250672  0.079834  1
  B  B17  1  0.500000  0.749328  0.920166  1
  B  B18  1  0.500000  0.792390  0.265351  1
  B  B19  1  0.500000  0.207610  0.734649  1
  B  B20  1  0.500000  0.293709  0.235272  1
  B  B21  1  0.500000  0.706291  0.764728  1
  B  B22  1  0.500000  0.631146  0.184992  1
  B  B23  1  0.500000  0.368854  0.815008  1
  B  B24  1  0.500000  0.131507  0.315901  1
  B  B25  1  0.500000  0.868493  0.684099  1
  B  B26  1  0.500000  0.981573  0.212496  1
  B  B27  1  0.500000  0.018427  0.787504  1
  B  B28  1  0.500000  0.482597  0.288023  1
  B  B29  1  0.500000  0.517403  0.711977  1
  B  B30  1  0.500000  0.602054  0.028490  1
  B  B31  1  0.500000  0.397946  0.971510  1
  B  B32  1  0.500000  0.102550  0.471867  1
  B  B33  1  0.500000  0.897450  0.528133  1
  Ru  Ru34  1  0.000000  0.638510  0.321464  1
  Ru  Ru35  1  0.000000  0.361490  0.678536  1
