# generated using pymatgen
data_TbSmRe4(SiC)2
_symmetry_space_group_name_H-M   'P 1'
_cell_length_a   5.81905042
_cell_length_b   5.81905047
_cell_length_c   7.31048000
_cell_angle_alpha   90.00000000
_cell_angle_beta   90.00000000
_cell_angle_gamma   40.06024062
_symmetry_Int_Tables_number   1
_chemical_formula_structural   TbSmRe4(SiC)2
_chemical_formula_sum   'Tb1 Sm1 Re4 Si2 C2'
_cell_volume   159.31667256
_cell_formula_units_Z   1
loop_
 _symmetry_equiv_pos_site_id
 _symmetry_equiv_pos_as_xyz
  1  'x, y, z'
loop_
 _atom_site_type_symbol
 _atom_site_label
 _atom_site_symmetry_multiplicity
 _atom_site_fract_x
 _atom_site_fract_y
 _atom_site_fract_z
 _atom_site_occupancy
  Tb  Tb0  1  0.956685  0.956685  0.750000  1
  Sm  Sm1  1  0.043325  0.043325  0.250000  1
  Re  Re2  1  0.674126  0.674126  0.562988  1
  Re  Re3  1  0.326042  0.326042  0.061189  1
  Re  Re4  1  0.326042  0.326042  0.438811  1
  Re  Re5  1  0.674126  0.674126  0.937011  1
  Si  Si6  1  0.766023  0.766023  0.250000  1
  Si  Si7  1  0.234131  0.234131  0.750000  1
  C  C8  1  0.499750  0.499750  0.997162  1
  C  C9  1  0.499750  0.499750  0.502838  1
