# generated using pymatgen
data_Tb10Ho2Os3Ru
_symmetry_space_group_name_H-M   'P 1'
_cell_length_a   6.35086642
_cell_length_b   7.38190379
_cell_length_c   9.14101694
_cell_angle_alpha   90.00340592
_cell_angle_beta   90.18566225
_cell_angle_gamma   89.94866277
_symmetry_Int_Tables_number   1
_chemical_formula_structural   Tb10Ho2Os3Ru
_chemical_formula_sum   'Tb10 Ho2 Os3 Ru1'
_cell_volume   428.54202491
_cell_formula_units_Z   1
loop_
 _symmetry_equiv_pos_site_id
 _symmetry_equiv_pos_as_xyz
  1  'x, y, z'
loop_
 _atom_site_type_symbol
 _atom_site_label
 _atom_site_symmetry_multiplicity
 _atom_site_fract_x
 _atom_site_fract_y
 _atom_site_fract_z
 _atom_site_occupancy
  Tb  Tb0  1  0.329460  0.676440  0.065458  1
  Tb  Tb1  1  0.169944  0.176220  0.435904  1
  Tb  Tb2  1  0.668831  0.324362  0.563586  1
  Tb  Tb3  1  0.832269  0.825316  0.937228  1
  Tb  Tb4  1  0.669128  0.323597  0.936394  1
  Tb  Tb5  1  0.831947  0.824582  0.562735  1
  Tb  Tb6  1  0.868671  0.538397  0.250189  1
  Tb  Tb7  1  0.630931  0.038926  0.249761  1
  Tb  Tb8  1  0.133529  0.460931  0.749897  1
  Tb  Tb9  1  0.367788  0.959806  0.750107  1
  Ho  Ho10  1  0.329686  0.675771  0.434773  1
  Ho  Ho11  1  0.169556  0.175523  0.063720  1
  Os  Os12  1  0.041088  0.884376  0.250077  1
  Os  Os13  1  0.458551  0.384645  0.249960  1
  Os  Os14  1  0.960595  0.115677  0.751194  1
  Ru  Ru15  1  0.538026  0.615433  0.749016  1
