# generated using pymatgen
data_Zr3Nb3Si5Tc6Ge
_symmetry_space_group_name_H-M   'P 1'
_cell_length_a   3.38095100
_cell_length_b   6.98052556
_cell_length_c   11.98996704
_cell_angle_alpha   89.63970576
_cell_angle_beta   90.00000000
_cell_angle_gamma   90.00000000
_symmetry_Int_Tables_number   1
_chemical_formula_structural   Zr3Nb3Si5Tc6Ge
_chemical_formula_sum   'Zr3 Nb3 Si5 Tc6 Ge1'
_cell_volume   282.96739770
_cell_formula_units_Z   1
loop_
 _symmetry_equiv_pos_site_id
 _symmetry_equiv_pos_as_xyz
  1  'x, y, z'
loop_
 _atom_site_type_symbol
 _atom_site_label
 _atom_site_symmetry_multiplicity
 _atom_site_fract_x
 _atom_site_fract_y
 _atom_site_fract_z
 _atom_site_occupancy
  Zr  Zr0  1  0.500000  0.296588  0.298813  1
  Zr  Zr1  1  0.500000  0.300809  0.701369  1
  Zr  Zr2  1  0.500000  0.798936  0.201693  1
  Nb  Nb3  1  0.500000  0.406473  0.999974  1
  Nb  Nb4  1  0.500000  0.900594  0.498199  1
  Nb  Nb5  1  0.500000  0.790737  0.801758  1
  Si  Si6  1  0.000000  0.498468  0.161639  1
  Si  Si7  1  0.000000  0.502770  0.836073  1
  Si  Si8  1  0.000000  0.996957  0.338229  1
  Si  Si9  1  0.500000  0.005187  0.998327  1
  Si  Si10  1  0.500000  0.502754  0.498951  1
  Tc  Tc11  1  0.000000  0.748571  0.997014  1
  Tc  Tc12  1  0.000000  0.247280  0.499801  1
  Tc  Tc13  1  0.000000  0.623949  0.627374  1
  Tc  Tc14  1  0.000000  0.129121  0.124461  1
  Tc  Tc15  1  0.000000  0.130995  0.874724  1
  Tc  Tc16  1  0.000000  0.627840  0.373946  1
  Ge  Ge17  1  0.000000  0.992165  0.667658  1
