# generated using pymatgen
data_Co4Mo3P4W
_symmetry_space_group_name_H-M   'P 1'
_cell_length_a   3.74771900
_cell_length_b   5.81755713
_cell_length_c   6.74519232
_cell_angle_alpha   89.92849603
_cell_angle_beta   90.00000000
_cell_angle_gamma   90.00000000
_symmetry_Int_Tables_number   1
_chemical_formula_structural   Co4Mo3P4W
_chemical_formula_sum   'Co4 Mo3 P4 W1'
_cell_volume   147.06240900
_cell_formula_units_Z   1
loop_
 _symmetry_equiv_pos_site_id
 _symmetry_equiv_pos_as_xyz
  1  'x, y, z'
loop_
 _atom_site_type_symbol
 _atom_site_label
 _atom_site_symmetry_multiplicity
 _atom_site_fract_x
 _atom_site_fract_y
 _atom_site_fract_z
 _atom_site_occupancy
  Co  Co0  1  0.750000  0.639878  0.431686  1
  Co  Co1  1  0.250000  0.858551  0.933108  1
  Co  Co2  1  0.750000  0.141443  0.067973  1
  Co  Co3  1  0.250000  0.360301  0.566260  1
  Mo  Mo4  1  0.250000  0.967344  0.330103  1
  Mo  Mo5  1  0.750000  0.032098  0.670264  1
  Mo  Mo6  1  0.750000  0.531892  0.830474  1
  P  P7  1  0.250000  0.734238  0.619652  1
  P  P8  1  0.250000  0.233022  0.879709  1
  P  P9  1  0.750000  0.265636  0.381409  1
  P  P10  1  0.750000  0.767094  0.119244  1
  W  W11  1  0.250000  0.468505  0.170118  1
