# generated using pymatgen
data_Dy4ErSc3(P3Ir4)4
_symmetry_space_group_name_H-M   'P 1'
_cell_length_a   12.85416400
_cell_length_b   12.85416214
_cell_length_c   3.96199600
_cell_angle_alpha   90.00000000
_cell_angle_beta   90.00000000
_cell_angle_gamma   119.99999072
_symmetry_Int_Tables_number   1
_chemical_formula_structural   Dy4ErSc3(P3Ir4)4
_chemical_formula_sum   'Dy4 Er1 Sc3 P12 Ir16'
_cell_volume   566.93375488
_cell_formula_units_Z   1
loop_
 _symmetry_equiv_pos_site_id
 _symmetry_equiv_pos_as_xyz
  1  'x, y, z'
loop_
 _atom_site_type_symbol
 _atom_site_label
 _atom_site_symmetry_multiplicity
 _atom_site_fract_x
 _atom_site_fract_y
 _atom_site_fract_z
 _atom_site_occupancy
  Dy  Dy0  1  0.333330  0.666684  0.500000  1
  Dy  Dy1  1  0.666670  0.333353  0.500000  1
  Dy  Dy2  1  0.188264  0.188263  0.000000  1
  Dy  Dy3  1  0.811736  0.999998  0.000000  1
  Er  Er4  1  0.000000  0.811630  0.000000  1
  Sc  Sc5  1  0.000000  0.444918  0.500000  1
  Sc  Sc6  1  0.555296  0.555316  0.500000  1
  Sc  Sc7  1  0.444704  0.000020  0.500000  1
  P  P8  1  0.000000  0.646021  0.500000  1
  P  P9  1  0.354458  0.354478  0.500000  1
  P  P10  1  0.645542  0.000020  0.500000  1
  P  P11  1  0.516983  0.686795  0.000000  1
  P  P12  1  0.313215  0.830123  0.000000  1
  P  P13  1  0.169787  0.483108  0.000000  1
  P  P14  1  0.483017  0.169813  0.000000  1
  P  P15  1  0.686785  0.516908  0.000000  1
  P  P16  1  0.830213  0.313321  0.000000  1
  P  P17  1  0.000000  0.176704  0.500000  1
  P  P18  1  0.823338  0.823075  0.500000  1
  P  P19  1  0.176662  0.999737  0.500000  1
  Ir  Ir20  1  0.509897  0.867733  0.000000  1
  Ir  Ir21  1  0.132283  0.642198  0.000000  1
  Ir  Ir22  1  0.357886  0.490143  0.000000  1
  Ir  Ir23  1  0.490103  0.357835  0.000000  1
  Ir  Ir24  1  0.867717  0.509914  0.000000  1
  Ir  Ir25  1  0.642114  0.132256  0.000000  1
  Ir  Ir26  1  0.000000  0.277805  0.000000  1
  Ir  Ir27  1  0.722607  0.722311  0.000000  1
  Ir  Ir28  1  0.277393  0.999704  0.000000  1
  Ir  Ir29  1  0.627878  0.806732  0.500000  1
  Ir  Ir30  1  0.192497  0.820952  0.500000  1
  Ir  Ir31  1  0.178994  0.372145  0.500000  1
  Ir  Ir32  1  0.372122  0.178853  0.500000  1
  Ir  Ir33  1  0.807503  0.628455  0.500000  1
  Ir  Ir34  1  0.821006  0.193151  0.500000  1
  Ir  Ir35  1  0.000000  0.999528  0.500000  1
