# generated using pymatgen
data_Ho3Tm3Si2Os
_symmetry_space_group_name_H-M   'P 1'
_cell_length_a   7.58241900
_cell_length_b   7.58241970
_cell_length_c   4.35208500
_cell_angle_alpha   90.00000000
_cell_angle_beta   90.00000000
_cell_angle_gamma   120.00000129
_symmetry_Int_Tables_number   1
_chemical_formula_structural   Ho3Tm3Si2Os
_chemical_formula_sum   'Ho3 Tm3 Si2 Os1'
_cell_volume   216.69235749
_cell_formula_units_Z   1
loop_
 _symmetry_equiv_pos_site_id
 _symmetry_equiv_pos_as_xyz
  1  'x, y, z'
loop_
 _atom_site_type_symbol
 _atom_site_label
 _atom_site_symmetry_multiplicity
 _atom_site_fract_x
 _atom_site_fract_y
 _atom_site_fract_z
 _atom_site_occupancy
  Ho  Ho0  1  0.405504  0.000000  0.000000  1
  Ho  Ho1  1  0.000000  0.405504  0.000000  1
  Ho  Ho2  1  0.594496  0.594496  0.000000  1
  Tm  Tm3  1  0.748908  0.000000  0.499999  1
  Tm  Tm4  1  0.251093  0.251093  0.499999  1
  Tm  Tm5  1  0.000000  0.748909  0.499999  1
  Si  Si6  1  0.666666  0.333334  0.499999  1
  Si  Si7  1  0.333333  0.666666  0.499999  1
  Os  Os8  1  0.000000  0.000000  0.000000  1
