# generated using pymatgen
data_Ho4ErP12Ru17Pt2
_symmetry_space_group_name_H-M   'P 1'
_cell_length_a   12.60620500
_cell_length_b   12.52440796
_cell_length_c   3.98073100
_cell_angle_alpha   90.00000000
_cell_angle_beta   90.00000000
_cell_angle_gamma   120.21594990
_symmetry_Int_Tables_number   1
_chemical_formula_structural   Ho4ErP12Ru17Pt2
_chemical_formula_sum   'Ho4 Er1 P12 Ru17 Pt2'
_cell_volume   543.10758239
_cell_formula_units_Z   1
loop_
 _symmetry_equiv_pos_site_id
 _symmetry_equiv_pos_as_xyz
  1  'x, y, z'
loop_
 _atom_site_type_symbol
 _atom_site_label
 _atom_site_symmetry_multiplicity
 _atom_site_fract_x
 _atom_site_fract_y
 _atom_site_fract_z
 _atom_site_occupancy
  Ho  Ho0  1  0.001583  0.182747  0.500000  1
  Ho  Ho1  1  0.818841  0.817251  0.500000  1
  Ho  Ho2  1  0.183444  0.000001  0.500000  1
  Ho  Ho3  1  0.337069  0.672991  0.000000  1
  Er  Er4  1  0.664093  0.327008  0.000000  1
  P  P5  1  0.997455  0.812286  0.000000  1
  P  P6  1  0.185161  0.187707  0.000000  1
  P  P7  1  0.818770  0.000007  0.000000  1
  P  P8  1  0.692655  0.169438  0.500000  1
  P  P9  1  0.816466  0.515730  0.500000  1
  P  P10  1  0.477755  0.299319  0.500000  1
  P  P11  1  0.178378  0.700702  0.500000  1
  P  P12  1  0.523302  0.830632  0.500000  1
  P  P13  1  0.300694  0.484164  0.500000  1
  P  P14  1  0.000303  0.364702  0.000000  1
  P  P15  1  0.635593  0.635313  0.000000  1
  P  P16  1  0.372972  0.999985  0.000000  1
  Ru  Ru17  1  0.555186  0.999996  0.000000  1
  Ru  Ru18  1  0.997145  0.709339  0.500000  1
  Ru  Ru19  1  0.287811  0.290662  0.500000  1
  Ru  Ru20  1  0.719114  0.999993  0.500000  1
  Ru  Ru21  1  0.809064  0.184460  0.000000  1
  Ru  Ru22  1  0.812776  0.617967  0.000000  1
  Ru  Ru23  1  0.375857  0.192625  0.000000  1
  Ru  Ru24  1  0.183201  0.807402  0.000000  1
  Ru  Ru25  1  0.624665  0.815570  0.000000  1
  Ru  Ru26  1  0.194788  0.381970  0.000000  1
  Ru  Ru27  1  0.869941  0.364725  0.500000  1
  Ru  Ru28  1  0.628734  0.505477  0.500000  1
  Ru  Ru29  1  0.491777  0.124114  0.500000  1
  Ru  Ru30  1  0.367670  0.875997  0.500000  1
  Ru  Ru31  1  0.505326  0.635284  0.500000  1
  Ru  Ru32  1  0.123162  0.494432  0.500000  1
  Ru  Ru33  1  0.003057  0.000003  0.000000  1
  Pt  Pt34  1  0.997792  0.549384  0.000000  1
  Pt  Pt35  1  0.448397  0.450619  0.000000  1
