# generated using pymatgen
data_Ho2InSnPt2
_symmetry_space_group_name_H-M   'P 1'
_cell_length_a   7.62705018
_cell_length_b   7.61441941
_cell_length_c   7.79114306
_cell_angle_alpha   90.00333845
_cell_angle_beta   89.99750555
_cell_angle_gamma   120.05157085
_symmetry_Int_Tables_number   1
_chemical_formula_structural   Ho2InSnPt2
_chemical_formula_sum   'Ho6 In3 Sn3 Pt6'
_cell_volume   391.65104245
_cell_formula_units_Z   3
loop_
 _symmetry_equiv_pos_site_id
 _symmetry_equiv_pos_as_xyz
  1  'x, y, z'
loop_
 _atom_site_type_symbol
 _atom_site_label
 _atom_site_symmetry_multiplicity
 _atom_site_fract_x
 _atom_site_fract_y
 _atom_site_fract_z
 _atom_site_occupancy
  Ho  Ho0  1  0.400929  0.999691  0.249064  1
  Ho  Ho1  1  0.599441  0.595109  0.248414  1
  Ho  Ho2  1  0.000049  0.405060  0.248751  1
  Ho  Ho3  1  0.399661  0.996741  0.751009  1
  Ho  Ho4  1  0.598458  0.596799  0.751630  1
  Ho  Ho5  1  0.002764  0.406595  0.751144  1
  In  In6  1  0.262997  0.261843  0.999727  1
  In  In7  1  0.001957  0.741125  0.000171  1
  In  In8  1  0.999144  0.733671  0.499836  1
  Sn  Sn9  1  0.732800  0.997954  0.499891  1
  Sn  Sn10  1  0.264345  0.263081  0.500344  1
  Sn  Sn11  1  0.741179  0.000801  0.000051  1
  Pt  Pt12  1  0.997417  0.002186  0.745857  1
  Pt  Pt13  1  0.997666  0.002551  0.254165  1
  Pt  Pt14  1  0.667946  0.332495  0.997506  1
  Pt  Pt15  1  0.333312  0.665431  0.497292  1
  Pt  Pt16  1  0.335626  0.668651  0.002482  1
  Pt  Pt17  1  0.664313  0.330217  0.502666  1
