# generated using pymatgen
data_Tm2Lu2B12IrRu
_symmetry_space_group_name_H-M   'P 1'
_cell_length_a   3.60172100
_cell_length_b   9.07336915
_cell_length_c   11.39767349
_cell_angle_alpha   90.05817453
_cell_angle_beta   90.00000000
_cell_angle_gamma   90.00000000
_symmetry_Int_Tables_number   1
_chemical_formula_structural   Tm2Lu2B12IrRu
_chemical_formula_sum   'Tm4 Lu4 B24 Ir2 Ru2'
_cell_volume   372.47286233
_cell_formula_units_Z   2
loop_
 _symmetry_equiv_pos_site_id
 _symmetry_equiv_pos_as_xyz
  1  'x, y, z'
loop_
 _atom_site_type_symbol
 _atom_site_label
 _atom_site_symmetry_multiplicity
 _atom_site_fract_x
 _atom_site_fract_y
 _atom_site_fract_z
 _atom_site_occupancy
  Tm  Tm0  1  0.000000  0.318174  0.412319  1
  Tm  Tm1  1  0.000000  0.681826  0.587681  1
  Tm  Tm2  1  0.000000  0.822074  0.084887  1
  Tm  Tm3  1  0.000000  0.177926  0.915113  1
  Lu  Lu4  1  0.000000  0.945767  0.372961  1
  Lu  Lu5  1  0.000000  0.054233  0.627039  1
  Lu  Lu6  1  0.000000  0.442175  0.125731  1
  Lu  Lu7  1  0.000000  0.557825  0.874269  1
  B  B8  1  0.500000  0.553283  0.434283  1
  B  B9  1  0.500000  0.446717  0.565717  1
  B  B10  1  0.500000  0.054098  0.066476  1
  B  B11  1  0.500000  0.945902  0.933524  1
  B  B12  1  0.500000  0.751408  0.420653  1
  B  B13  1  0.500000  0.248592  0.579347  1
  B  B14  1  0.500000  0.249261  0.079836  1
  B  B15  1  0.500000  0.750739  0.920164  1
  B  B16  1  0.500000  0.793320  0.264934  1
  B  B17  1  0.500000  0.206680  0.735066  1
  B  B18  1  0.500000  0.292546  0.234991  1
  B  B19  1  0.500000  0.707454  0.765009  1
  B  B20  1  0.500000  0.630880  0.183147  1
  B  B21  1  0.500000  0.369120  0.816853  1
  B  B22  1  0.500000  0.131241  0.315761  1
  B  B23  1  0.500000  0.868759  0.684239  1
  B  B24  1  0.500000  0.982379  0.213208  1
  B  B25  1  0.500000  0.017621  0.786792  1
  B  B26  1  0.500000  0.480782  0.286335  1
  B  B27  1  0.500000  0.519218  0.713665  1
  B  B28  1  0.500000  0.606484  0.029395  1
  B  B29  1  0.500000  0.393516  0.970605  1
  B  B30  1  0.500000  0.106558  0.471191  1
  B  B31  1  0.500000  0.893442  0.528809  1
  Ir  Ir32  1  0.000000  0.637784  0.321382  1
  Ir  Ir33  1  0.000000  0.362216  0.678618  1
  Ru  Ru34  1  0.000000  0.138388  0.179558  1
  Ru  Ru35  1  0.000000  0.861612  0.820442  1
