# generated using pymatgen
data_Ce2Ag2P2RuRh3
_symmetry_space_group_name_H-M   'P 1'
_cell_length_a   3.97345800
_cell_length_b   3.97345800
_cell_length_c   11.35267500
_cell_angle_alpha   90.00000000
_cell_angle_beta   90.00000000
_cell_angle_gamma   90.00000000
_symmetry_Int_Tables_number   1
_chemical_formula_structural   Ce2Ag2P2RuRh3
_chemical_formula_sum   'Ce2 Ag2 P2 Ru1 Rh3'
_cell_volume   179.24021611
_cell_formula_units_Z   1
loop_
 _symmetry_equiv_pos_site_id
 _symmetry_equiv_pos_as_xyz
  1  'x, y, z'
loop_
 _atom_site_type_symbol
 _atom_site_label
 _atom_site_symmetry_multiplicity
 _atom_site_fract_x
 _atom_site_fract_y
 _atom_site_fract_z
 _atom_site_occupancy
  Ce  Ce0  1  0.500000  0.000000  0.758513  1
  Ce  Ce1  1  0.000000  0.500000  0.241487  1
  Ag  Ag2  1  0.500000  0.500000  0.500000  1
  Ag  Ag3  1  0.000000  0.000000  0.500000  1
  P  P4  1  0.500000  0.000000  0.112860  1
  P  P5  1  0.000000  0.500000  0.887140  1
  Ru  Ru6  1  0.000000  0.000000  0.000000  1
  Rh  Rh7  1  0.000000  0.500000  0.685087  1
  Rh  Rh8  1  0.500000  0.000000  0.314913  1
  Rh  Rh9  1  0.500000  0.500000  0.000000  1
