# generated using pymatgen
data_Ba3U6(Si2O13)2
_symmetry_space_group_name_H-M   'P 1'
_cell_length_a   9.61657800
_cell_length_b   9.61657763
_cell_length_c   8.36970900
_cell_angle_alpha   90.00000000
_cell_angle_beta   90.00000000
_cell_angle_gamma   119.99999438
_symmetry_Int_Tables_number   1
_chemical_formula_structural   Ba3U6(Si2O13)2
_chemical_formula_sum   'Ba3 U6 Si4 O26'
_cell_volume   670.31990426
_cell_formula_units_Z   1
loop_
 _symmetry_equiv_pos_site_id
 _symmetry_equiv_pos_as_xyz
  1  'x, y, z'
loop_
 _atom_site_type_symbol
 _atom_site_label
 _atom_site_symmetry_multiplicity
 _atom_site_fract_x
 _atom_site_fract_y
 _atom_site_fract_z
 _atom_site_occupancy
  Ba  Ba0  1  0.000000  0.583377  0.500000  1
  Ba  Ba1  1  0.416623  0.416623  0.500000  1
  Ba  Ba2  1  0.583377  0.000000  0.500000  1
  U  U3  1  0.243561  0.000000  0.751055  1
  U  U4  1  0.756439  0.756439  0.248945  1
  U  U5  1  0.000000  0.243561  0.248945  1
  U  U6  1  0.000000  0.243561  0.751055  1
  U  U7  1  0.756439  0.756439  0.751055  1
  U  U8  1  0.243561  0.000000  0.248945  1
  Si  Si9  1  0.666667  0.333333  0.194915  1
  Si  Si10  1  0.666667  0.333333  0.805085  1
  Si  Si11  1  0.333333  0.666667  0.805085  1
  Si  Si12  1  0.333333  0.666667  0.194915  1
  O  O13  1  0.000000  0.269448  0.500000  1
  O  O14  1  0.730552  0.730552  0.500000  1
  O  O15  1  0.269448  0.000000  0.500000  1
  O  O16  1  0.496574  0.676296  0.267877  1
  O  O17  1  0.323704  0.820278  0.267877  1
  O  O18  1  0.179722  0.503426  0.267877  1
  O  O19  1  0.503426  0.179722  0.732123  1
  O  O20  1  0.179722  0.503426  0.732123  1
  O  O21  1  0.496574  0.676296  0.732123  1
  O  O22  1  0.323704  0.820278  0.732123  1
  O  O23  1  0.676296  0.496574  0.267877  1
  O  O24  1  0.820278  0.323704  0.267877  1
  O  O25  1  0.820278  0.323704  0.732123  1
  O  O26  1  0.333333  0.666667  0.000000  1
  O  O27  1  0.666667  0.333333  0.000000  1
  O  O28  1  0.234576  0.000000  0.000000  1
  O  O29  1  0.765424  0.765424  0.000000  1
  O  O30  1  0.000000  0.234576  0.000000  1
  O  O31  1  0.808460  0.000000  0.276812  1
  O  O32  1  0.191540  0.191540  0.723188  1
  O  O33  1  0.000000  0.808460  0.723188  1
  O  O34  1  0.000000  0.808460  0.276812  1
  O  O35  1  0.191540  0.191540  0.276812  1
  O  O36  1  0.808460  0.000000  0.723188  1
  O  O37  1  0.503426  0.179722  0.267877  1
  O  O38  1  0.676296  0.496574  0.732123  1
