# generated using pymatgen
data_Li4Y4Sn2BiPb
_symmetry_space_group_name_H-M   'P 1'
_cell_length_a   9.49908695
_cell_length_b   9.49095004
_cell_length_c   7.33556066
_cell_angle_alpha   90.09494053
_cell_angle_beta   89.78770530
_cell_angle_gamma   120.03958919
_symmetry_Int_Tables_number   1
_chemical_formula_structural   Li4Y4Sn2BiPb
_chemical_formula_sum   'Li8 Y8 Sn4 Bi2 Pb2'
_cell_volume   572.50477303
_cell_formula_units_Z   2
loop_
 _symmetry_equiv_pos_site_id
 _symmetry_equiv_pos_as_xyz
  1  'x, y, z'
loop_
 _atom_site_type_symbol
 _atom_site_label
 _atom_site_symmetry_multiplicity
 _atom_site_fract_x
 _atom_site_fract_y
 _atom_site_fract_z
 _atom_site_occupancy
  Li  Li0  1  0.166001  0.829457  0.196489  1
  Li  Li1  1  0.336480  0.170521  0.696479  1
  Li  Li2  1  0.829461  0.663754  0.693980  1
  Li  Li3  1  0.165676  0.336238  0.193907  1
  Li  Li4  1  0.664857  0.832828  0.197194  1
  Li  Li5  1  0.832002  0.167231  0.697187  1
  Li  Li6  1  0.335353  0.665816  0.814134  1
  Li  Li7  1  0.669592  0.334182  0.314185  1
  Y  Y8  1  0.515138  0.492351  0.988461  1
  Y  Y9  1  0.022842  0.507612  0.488465  1
  Y  Y10  1  0.495755  0.975554  0.491639  1
  Y  Y11  1  0.520214  0.024361  0.991729  1
  Y  Y12  1  0.971631  0.481547  0.992946  1
  Y  Y13  1  0.490132  0.518435  0.493072  1
  Y  Y14  1  0.992456  0.000230  0.985074  1
  Y  Y15  1  0.992190  0.999875  0.485005  1
  Sn  Sn16  1  0.666810  0.833486  0.754114  1
  Sn  Sn17  1  0.833312  0.166520  0.254149  1
  Sn  Sn18  1  0.333427  0.667409  0.223742  1
  Sn  Sn19  1  0.666065  0.332594  0.723798  1
  Bi  Bi20  1  0.167182  0.834017  0.752720  1
  Bi  Bi21  1  0.333070  0.165980  0.252608  1
  Pb  Pb22  1  0.833588  0.666732  0.254437  1
  Pb  Pb23  1  0.166768  0.333270  0.754490  1
