# generated using pymatgen
data_DyLu3B12MoRh
_symmetry_space_group_name_H-M   'P 1'
_cell_length_a   3.61877800
_cell_length_b   9.10106956
_cell_length_c   11.50499204
_cell_angle_alpha   90.39143789
_cell_angle_beta   90.00000000
_cell_angle_gamma   90.00000000
_symmetry_Int_Tables_number   1
_chemical_formula_structural   DyLu3B12MoRh
_chemical_formula_sum   'Dy2 Lu6 B24 Mo2 Rh2'
_cell_volume   378.90519698
_cell_formula_units_Z   2
loop_
 _symmetry_equiv_pos_site_id
 _symmetry_equiv_pos_as_xyz
  1  'x, y, z'
loop_
 _atom_site_type_symbol
 _atom_site_label
 _atom_site_symmetry_multiplicity
 _atom_site_fract_x
 _atom_site_fract_y
 _atom_site_fract_z
 _atom_site_occupancy
  Dy  Dy0  1  0.500000  0.318805  0.412031  1
  Dy  Dy1  1  0.500000  0.681195  0.587969  1
  Lu  Lu2  1  0.500000  0.175229  0.917383  1
  Lu  Lu3  1  0.500000  0.824771  0.082617  1
  Lu  Lu4  1  0.500000  0.443143  0.126155  1
  Lu  Lu5  1  0.500000  0.556857  0.873845  1
  Lu  Lu6  1  0.500000  0.054951  0.628602  1
  Lu  Lu7  1  0.500000  0.945049  0.371398  1
  B  B8  1  0.000000  0.103000  0.472963  1
  B  B9  1  0.000000  0.897000  0.527037  1
  B  B10  1  0.000000  0.396118  0.970643  1
  B  B11  1  0.000000  0.603882  0.029357  1
  B  B12  1  0.000000  0.131165  0.317555  1
  B  B13  1  0.000000  0.868835  0.682445  1
  B  B14  1  0.000000  0.368610  0.817251  1
  B  B15  1  0.000000  0.631390  0.182749  1
  B  B16  1  0.000000  0.051648  0.065353  1
  B  B17  1  0.000000  0.948352  0.934647  1
  B  B18  1  0.000000  0.445412  0.566134  1
  B  B19  1  0.000000  0.554588  0.433866  1
  B  B20  1  0.000000  0.483417  0.287102  1
  B  B21  1  0.000000  0.516583  0.712898  1
  B  B22  1  0.000000  0.021744  0.786843  1
  B  B23  1  0.000000  0.978256  0.213157  1
  B  B24  1  0.000000  0.251038  0.078565  1
  B  B25  1  0.000000  0.748962  0.921435  1
  B  B26  1  0.000000  0.249097  0.580239  1
  B  B27  1  0.000000  0.750903  0.419761  1
  B  B28  1  0.000000  0.295968  0.235789  1
  B  B29  1  0.000000  0.704032  0.764211  1
  B  B30  1  0.000000  0.208238  0.735598  1
  B  B31  1  0.000000  0.791762  0.264402  1
  Mo  Mo32  1  0.500000  0.138965  0.180933  1
  Mo  Mo33  1  0.500000  0.861035  0.819067  1
  Rh  Rh34  1  0.500000  0.361113  0.679789  1
  Rh  Rh35  1  0.500000  0.638887  0.320211  1
