# generated using pymatgen
data_La6YEr3(Sn3Cl)2
_symmetry_space_group_name_H-M   'P 1'
_cell_length_a   9.46137100
_cell_length_b   9.46137056
_cell_length_c   6.74646900
_cell_angle_alpha   90.00000000
_cell_angle_beta   90.00000000
_cell_angle_gamma   119.99999105
_symmetry_Int_Tables_number   1
_chemical_formula_structural   La6YEr3(Sn3Cl)2
_chemical_formula_sum   'La6 Y1 Er3 Sn6 Cl2'
_cell_volume   523.01642121
_cell_formula_units_Z   1
loop_
 _symmetry_equiv_pos_site_id
 _symmetry_equiv_pos_as_xyz
  1  'x, y, z'
loop_
 _atom_site_type_symbol
 _atom_site_label
 _atom_site_symmetry_multiplicity
 _atom_site_fract_x
 _atom_site_fract_y
 _atom_site_fract_z
 _atom_site_occupancy
  La  La0  1  0.737589  0.000193  0.749797  1
  La  La1  1  0.737589  0.737396  0.250203  1
  La  La2  1  0.999807  0.262411  0.250203  1
  La  La3  1  0.999807  0.737396  0.749797  1
  La  La4  1  0.262604  0.262411  0.749797  1
  La  La5  1  0.262604  0.000193  0.250203  1
  Y  Y6  1  0.333333  0.666667  0.000000  1
  Er  Er7  1  0.666667  0.333333  0.000000  1
  Er  Er8  1  0.333333  0.666667  0.500000  1
  Er  Er9  1  0.666667  0.333333  0.500000  1
  Sn  Sn10  1  0.607763  0.607377  0.749623  1
  Sn  Sn11  1  0.999614  0.607377  0.250377  1
  Sn  Sn12  1  0.607763  0.000386  0.250377  1
  Sn  Sn13  1  0.392623  0.000386  0.749623  1
  Sn  Sn14  1  0.999614  0.392237  0.749623  1
  Sn  Sn15  1  0.392623  0.392237  0.250377  1
  Cl  Cl16  1  0.000000  0.000000  0.500000  1
  Cl  Cl17  1  0.000000  0.000000  0.000000  1
