# generated using pymatgen
data_PrNd2CCl5
_symmetry_space_group_name_H-M   'P 1'
_cell_length_a   7.46297343
_cell_length_b   8.85918753
_cell_length_c   8.95881144
_cell_angle_alpha   108.53832119
_cell_angle_beta   97.18983271
_cell_angle_gamma   106.29560467
_symmetry_Int_Tables_number   1
_chemical_formula_structural   PrNd2CCl5
_chemical_formula_sum   'Pr2 Nd4 C2 Cl10'
_cell_volume   523.85553251
_cell_formula_units_Z   2
loop_
 _symmetry_equiv_pos_site_id
 _symmetry_equiv_pos_as_xyz
  1  'x, y, z'
loop_
 _atom_site_type_symbol
 _atom_site_label
 _atom_site_symmetry_multiplicity
 _atom_site_fract_x
 _atom_site_fract_y
 _atom_site_fract_z
 _atom_site_occupancy
  Pr  Pr0  1  0.878231  0.950086  0.234475  1
  Pr  Pr1  1  0.121769  0.049914  0.765525  1
  Nd  Nd2  1  0.026726  0.712260  0.910875  1
  Nd  Nd3  1  0.973274  0.287740  0.089125  1
  Nd  Nd4  1  0.602686  0.839409  0.787455  1
  Nd  Nd5  1  0.397314  0.160591  0.212545  1
  C  C6  1  0.905822  0.965067  0.951105  1
  C  C7  1  0.094178  0.034933  0.048895  1
  Cl  Cl8  1  0.754615  0.914634  0.538174  1
  Cl  Cl9  1  0.245385  0.085366  0.461826  1
  Cl  Cl10  1  0.455520  0.826924  0.076672  1
  Cl  Cl11  1  0.544480  0.173076  0.923328  1
  Cl  Cl12  1  0.819348  0.264406  0.353691  1
  Cl  Cl13  1  0.180652  0.735594  0.646309  1
  Cl  Cl14  1  0.910651  0.625039  0.166335  1
  Cl  Cl15  1  0.089349  0.374961  0.833665  1
  Cl  Cl16  1  0.653296  0.533327  0.718347  1
  Cl  Cl17  1  0.346704  0.466673  0.281653  1
