# generated using pymatgen
data_Ba12Y3Ho(Co4O15)2
_symmetry_space_group_name_H-M   'P 1'
_cell_length_a   6.04327495
_cell_length_b   8.04492888
_cell_length_c   18.52771920
_cell_angle_alpha   89.11754564
_cell_angle_beta   89.72943150
_cell_angle_gamma   89.99329541
_symmetry_Int_Tables_number   1
_chemical_formula_structural   Ba12Y3Ho(Co4O15)2
_chemical_formula_sum   'Ba12 Y3 Ho1 Co8 O30'
_cell_volume   900.65853228
_cell_formula_units_Z   1
loop_
 _symmetry_equiv_pos_site_id
 _symmetry_equiv_pos_as_xyz
  1  'x, y, z'
loop_
 _atom_site_type_symbol
 _atom_site_label
 _atom_site_symmetry_multiplicity
 _atom_site_fract_x
 _atom_site_fract_y
 _atom_site_fract_z
 _atom_site_occupancy
  Ba  Ba0  1  0.278754  0.999883  0.250479  1
  Ba  Ba1  1  0.721376  0.999935  0.749812  1
  Ba  Ba2  1  0.328505  0.500369  0.250384  1
  Ba  Ba3  1  0.671089  0.499972  0.749845  1
  Ba  Ba4  1  0.749205  0.978859  0.089049  1
  Ba  Ba5  1  0.749048  0.020369  0.411195  1
  Ba  Ba6  1  0.250828  0.021087  0.911150  1
  Ba  Ba7  1  0.251157  0.978902  0.588223  1
  Ba  Ba8  1  0.247982  0.496796  0.577735  1
  Ba  Ba9  1  0.247709  0.503381  0.921890  1
  Ba  Ba10  1  0.752364  0.503858  0.421752  1
  Ba  Ba11  1  0.752321  0.496540  0.078222  1
  Y  Y12  1  0.251939  0.246026  0.089179  1
  Y  Y13  1  0.748166  0.246203  0.588786  1
  Y  Y14  1  0.748091  0.753960  0.911032  1
  Ho  Ho15  1  0.252204  0.753574  0.411094  1
  Co  Co16  1  0.252534  0.753874  0.062400  1
  Co  Co17  1  0.253087  0.246407  0.437467  1
  Co  Co18  1  0.747435  0.246109  0.937787  1
  Co  Co19  1  0.747461  0.753825  0.561755  1
  Co  Co20  1  0.775412  0.768357  0.264402  1
  Co  Co21  1  0.775454  0.231505  0.236109  1
  Co  Co22  1  0.224236  0.231548  0.735876  1
  Co  Co23  1  0.224417  0.768498  0.763919  1
  O  O24  1  0.820495  0.999872  0.250332  1
  O  O25  1  0.178986  0.000056  0.749829  1
  O  O26  1  0.768477  0.956950  0.606109  1
  O  O27  1  0.768434  0.043012  0.893277  1
  O  O28  1  0.232472  0.041577  0.394046  1
  O  O29  1  0.231643  0.956966  0.106927  1
  O  O30  1  0.244308  0.532879  0.088920  1
  O  O31  1  0.244883  0.468524  0.411384  1
  O  O32  1  0.755696  0.467149  0.911311  1
  O  O33  1  0.755761  0.532904  0.588393  1
  O  O34  1  0.035718  0.717720  0.311741  1
  O  O35  1  0.037049  0.283054  0.189657  1
  O  O36  1  0.963354  0.283080  0.689213  1
  O  O37  1  0.963075  0.716963  0.810564  1
  O  O38  1  0.541803  0.752041  0.335978  1
  O  O39  1  0.544270  0.248107  0.164281  1
  O  O40  1  0.456151  0.247975  0.663972  1
  O  O41  1  0.455795  0.751949  0.835789  1
  O  O42  1  0.489107  0.764492  0.501766  1
  O  O43  1  0.488738  0.235221  0.997489  1
  O  O44  1  0.510749  0.235321  0.497258  1
  O  O45  1  0.511197  0.764795  0.002673  1
  O  O46  1  0.015493  0.765325  0.992942  1
  O  O47  1  0.015063  0.235102  0.506704  1
  O  O48  1  0.984427  0.234654  0.007270  1
  O  O49  1  0.986350  0.764909  0.492502  1
  O  O50  1  0.349207  0.698288  0.681974  1
  O  O51  1  0.349004  0.301954  0.817643  1
  O  O52  1  0.650021  0.301655  0.317936  1
  O  O53  1  0.651498  0.697672  0.182577  1
