# generated using pymatgen
data_Sc7Co16TcP12
_symmetry_space_group_name_H-M   'P 1'
_cell_length_a   11.99802339
_cell_length_b   11.99802293
_cell_length_c   3.62832700
_cell_angle_alpha   90.00000000
_cell_angle_beta   90.00000000
_cell_angle_gamma   119.91382457
_symmetry_Int_Tables_number   1
_chemical_formula_structural   Sc7Co16TcP12
_chemical_formula_sum   'Sc7 Co16 Tc1 P12'
_cell_volume   452.72337034
_cell_formula_units_Z   1
loop_
 _symmetry_equiv_pos_site_id
 _symmetry_equiv_pos_as_xyz
  1  'x, y, z'
loop_
 _atom_site_type_symbol
 _atom_site_label
 _atom_site_symmetry_multiplicity
 _atom_site_fract_x
 _atom_site_fract_y
 _atom_site_fract_z
 _atom_site_occupancy
  Sc  Sc0  1  0.812185  0.812185  0.500000  1
  Sc  Sc1  1  0.999893  0.181041  0.500000  1
  Sc  Sc2  1  0.557779  0.001045  0.000000  1
  Sc  Sc3  1  0.335352  0.666610  0.000000  1
  Sc  Sc4  1  0.666610  0.335352  0.000000  1
  Sc  Sc5  1  0.001045  0.557779  0.000000  1
  Sc  Sc6  1  0.181041  0.999893  0.500000  1
  Co  Co7  1  0.624638  0.817416  0.000000  1
  Co  Co8  1  0.371913  0.198843  0.000000  1
  Co  Co9  1  0.997264  0.721068  0.500000  1
  Co  Co10  1  0.280444  0.280444  0.500000  1
  Co  Co11  1  0.877445  0.354691  0.500000  1
  Co  Co12  1  0.721068  0.997264  0.500000  1
  Co  Co13  1  0.817416  0.624638  0.000000  1
  Co  Co14  1  0.178213  0.808007  0.000000  1
  Co  Co15  1  0.354691  0.877445  0.500000  1
  Co  Co16  1  0.131609  0.482148  0.500000  1
  Co  Co17  1  0.642031  0.516882  0.500000  1
  Co  Co18  1  0.999911  0.999911  0.000000  1
  Co  Co19  1  0.516882  0.642031  0.500000  1
  Co  Co20  1  0.482148  0.131609  0.500000  1
  Co  Co21  1  0.198843  0.371913  0.000000  1
  Co  Co22  1  0.808007  0.178213  0.000000  1
  Tc  Tc23  1  0.448001  0.448001  0.000000  1
  P  P24  1  0.004087  0.351181  0.000000  1
  P  P25  1  0.826070  0.514546  0.500000  1
  P  P26  1  0.691674  0.174575  0.500000  1
  P  P27  1  0.175608  0.175608  0.000000  1
  P  P28  1  0.640780  0.640780  0.000000  1
  P  P29  1  0.822334  0.997307  0.000000  1
  P  P30  1  0.514546  0.826070  0.500000  1
  P  P31  1  0.174575  0.691674  0.500000  1
  P  P32  1  0.351181  0.004087  0.000000  1
  P  P33  1  0.481597  0.315811  0.500000  1
  P  P34  1  0.997307  0.822334  0.000000  1
  P  P35  1  0.315811  0.481597  0.500000  1
