# generated using pymatgen
data_Pr2HfIr3
_symmetry_space_group_name_H-M   'P 1'
_cell_length_a   5.83911668
_cell_length_b   5.38416054
_cell_length_c   5.83911600
_cell_angle_alpha   57.16308813
_cell_angle_beta   59.99999252
_cell_angle_gamma   57.16308726
_symmetry_Int_Tables_number   1
_chemical_formula_structural   Pr2HfIr3
_chemical_formula_sum   'Pr2 Hf1 Ir3'
_cell_volume   123.95902519
_cell_formula_units_Z   1
loop_
 _symmetry_equiv_pos_site_id
 _symmetry_equiv_pos_as_xyz
  1  'x, y, z'
loop_
 _atom_site_type_symbol
 _atom_site_label
 _atom_site_symmetry_multiplicity
 _atom_site_fract_x
 _atom_site_fract_y
 _atom_site_fract_z
 _atom_site_occupancy
  Pr  Pr0  1  0.500727  0.497820  0.500727  1
  Pr  Pr1  1  0.749273  0.752180  0.749273  1
  Hf  Hf2  1  0.125000  0.625000  0.125000  1
  Ir  Ir3  1  0.625000  0.125000  0.125000  1
  Ir  Ir4  1  0.125000  0.125000  0.125000  1
  Ir  Ir5  1  0.125000  0.125000  0.625000  1
