# generated using pymatgen
data_CaYb13(CdN4)2
_symmetry_space_group_name_H-M   'P 1'
_cell_length_a   3.55683200
_cell_length_b   11.92231476
_cell_length_c   11.53516874
_cell_angle_alpha   90.04107986
_cell_angle_beta   89.99928831
_cell_angle_gamma   89.99817845
_symmetry_Int_Tables_number   1
_chemical_formula_structural   CaYb13(CdN4)2
_chemical_formula_sum   'Ca1 Yb13 Cd2 N8'
_cell_volume   489.15644094
_cell_formula_units_Z   1
loop_
 _symmetry_equiv_pos_site_id
 _symmetry_equiv_pos_as_xyz
  1  'x, y, z'
loop_
 _atom_site_type_symbol
 _atom_site_label
 _atom_site_symmetry_multiplicity
 _atom_site_fract_x
 _atom_site_fract_y
 _atom_site_fract_z
 _atom_site_occupancy
  Ca  Ca0  1  0.999012  0.735555  0.978887  1
  Yb  Yb1  1  0.499814  0.669291  0.237820  1
  Yb  Yb2  1  0.499832  0.330249  0.763706  1
  Yb  Yb3  1  0.500183  0.169888  0.263406  1
  Yb  Yb4  1  0.500174  0.830096  0.735548  1
  Yb  Yb5  1  0.499356  0.500177  0.999818  1
  Yb  Yb6  1  0.500629  0.000104  0.499954  1
  Yb  Yb7  1  0.000251  0.929842  0.267632  1
  Yb  Yb8  1  0.000240  0.070250  0.732526  1
  Yb  Yb9  1  0.999753  0.429513  0.232645  1
  Yb  Yb10  1  0.999756  0.570003  0.766825  1
  Yb  Yb11  1  0.000851  0.766054  0.478077  1
  Yb  Yb12  1  0.000848  0.234036  0.521951  1
  Yb  Yb13  1  0.999154  0.265891  0.021935  1
  Cd  Cd14  1  0.510480  0.499895  0.499957  1
  Cd  Cd15  1  0.489598  0.000738  0.000129  1
  N  N16  1  0.999705  0.601150  0.129389  1
  N  N17  1  0.999702  0.397669  0.872666  1
  N  N18  1  0.000307  0.101997  0.372383  1
  N  N19  1  0.000293  0.898362  0.627120  1
  N  N20  1  0.500530  0.835062  0.359746  1
  N  N21  1  0.500522  0.165003  0.640515  1
  N  N22  1  0.499483  0.334786  0.140565  1
  N  N23  1  0.499528  0.664390  0.856799  1
