# generated using pymatgen
data_Pr15NdMgAg3Ir4
_symmetry_space_group_name_H-M   'P 1'
_cell_length_a   9.96383478
_cell_length_b   10.01390696
_cell_length_c   10.01390641
_cell_angle_alpha   60.18034575
_cell_angle_beta   59.89886343
_cell_angle_gamma   59.89886645
_symmetry_Int_Tables_number   1
_chemical_formula_structural   Pr15NdMgAg3Ir4
_chemical_formula_sum   'Pr15 Nd1 Mg1 Ag3 Ir4'
_cell_volume   706.38200690
_cell_formula_units_Z   1
loop_
 _symmetry_equiv_pos_site_id
 _symmetry_equiv_pos_as_xyz
  1  'x, y, z'
loop_
 _atom_site_type_symbol
 _atom_site_label
 _atom_site_symmetry_multiplicity
 _atom_site_fract_x
 _atom_site_fract_y
 _atom_site_fract_z
 _atom_site_occupancy
  Pr  Pr0  1  0.346389  0.347836  0.957872  1
  Pr  Pr1  1  0.346389  0.957872  0.347836  1
  Pr  Pr2  1  0.944933  0.351673  0.351673  1
  Pr  Pr3  1  0.805507  0.193225  0.193225  1
  Pr  Pr4  1  0.188138  0.810693  0.810693  1
  Pr  Pr5  1  0.189905  0.809236  0.188844  1
  Pr  Pr6  1  0.804931  0.193555  0.807031  1
  Pr  Pr7  1  0.189905  0.188844  0.809236  1
  Pr  Pr8  1  0.804931  0.807031  0.193555  1
  Pr  Pr9  1  0.938419  0.562046  0.562046  1
  Pr  Pr10  1  0.561061  0.938991  0.938991  1
  Pr  Pr11  1  0.560596  0.939136  0.562046  1
  Pr  Pr12  1  0.938909  0.561721  0.937641  1
  Pr  Pr13  1  0.560596  0.562046  0.939136  1
  Pr  Pr14  1  0.938909  0.937641  0.561721  1
  Nd  Nd15  1  0.346787  0.346705  0.346705  1
  Mg  Mg16  1  0.298082  0.566600  0.566600  1
  Ag  Ag17  1  0.580470  0.584638  0.584638  1
  Ag  Ag18  1  0.578931  0.584648  0.252508  1
  Ag  Ag19  1  0.578931  0.252508  0.584648  1
  Ir  Ir20  1  0.139359  0.141271  0.141271  1
  Ir  Ir21  1  0.141188  0.144744  0.574656  1
  Ir  Ir22  1  0.141188  0.574656  0.144744  1
  Ir  Ir23  1  0.575543  0.142683  0.142683  1
