# generated using pymatgen
data_Hf6Al16RuPt6
_symmetry_space_group_name_H-M   'P 1'
_cell_length_a   8.74886855
_cell_length_b   8.74886876
_cell_length_c   8.74886900
_cell_angle_alpha   59.99999530
_cell_angle_beta   59.99999452
_cell_angle_gamma   59.99999495
_symmetry_Int_Tables_number   1
_chemical_formula_structural   Hf6Al16RuPt6
_chemical_formula_sum   'Hf6 Al16 Ru1 Pt6'
_cell_volume   473.52254267
_cell_formula_units_Z   1
loop_
 _symmetry_equiv_pos_site_id
 _symmetry_equiv_pos_as_xyz
  1  'x, y, z'
loop_
 _atom_site_type_symbol
 _atom_site_label
 _atom_site_symmetry_multiplicity
 _atom_site_fract_x
 _atom_site_fract_y
 _atom_site_fract_z
 _atom_site_occupancy
  Hf  Hf0  1  0.682942  0.317057  0.317057  1
  Hf  Hf1  1  0.317057  0.682942  0.682942  1
  Hf  Hf2  1  0.317057  0.682942  0.317057  1
  Hf  Hf3  1  0.317057  0.317057  0.682942  1
  Hf  Hf4  1  0.682942  0.317057  0.682942  1
  Hf  Hf5  1  0.682942  0.682942  0.317057  1
  Al  Al6  1  0.335660  0.335660  0.335660  1
  Al  Al7  1  0.335660  0.335660  0.993019  1
  Al  Al8  1  0.993019  0.335660  0.335660  1
  Al  Al9  1  0.335660  0.993019  0.335660  1
  Al  Al10  1  0.664340  0.664340  0.664340  1
  Al  Al11  1  0.664340  0.664340  0.006981  1
  Al  Al12  1  0.664340  0.006981  0.664340  1
  Al  Al13  1  0.006981  0.664340  0.664340  1
  Al  Al14  1  0.117841  0.117841  0.117841  1
  Al  Al15  1  0.117841  0.117841  0.646477  1
  Al  Al16  1  0.646477  0.117841  0.117841  1
  Al  Al17  1  0.117841  0.646477  0.117841  1
  Al  Al18  1  0.882158  0.882158  0.882158  1
  Al  Al19  1  0.882158  0.882158  0.353526  1
  Al  Al20  1  0.882158  0.353526  0.882158  1
  Al  Al21  1  0.353526  0.882158  0.882158  1
  Ru  Ru22  1  0.000000  0.000000  0.000000  1
  Pt  Pt23  1  0.500000  0.000000  0.000000  1
  Pt  Pt24  1  0.000000  0.500000  0.500000  1
  Pt  Pt25  1  0.000000  0.500000  0.000000  1
  Pt  Pt26  1  0.000000  0.000000  0.500000  1
  Pt  Pt27  1  0.500000  0.000000  0.500000  1
  Pt  Pt28  1  0.500000  0.500000  0.000000  1
