# generated using pymatgen
data_Ti10CuSi(SnSb2)2
_symmetry_space_group_name_H-M   'P 1'
_cell_length_a   8.19048993
_cell_length_b   8.21230253
_cell_length_c   5.52311574
_cell_angle_alpha   90.09106980
_cell_angle_beta   89.95434772
_cell_angle_gamma   120.08813722
_symmetry_Int_Tables_number   1
_chemical_formula_structural   Ti10CuSi(SnSb2)2
_chemical_formula_sum   'Ti10 Cu1 Si1 Sn2 Sb4'
_cell_volume   321.44202284
_cell_formula_units_Z   1
loop_
 _symmetry_equiv_pos_site_id
 _symmetry_equiv_pos_as_xyz
  1  'x, y, z'
loop_
 _atom_site_type_symbol
 _atom_site_label
 _atom_site_symmetry_multiplicity
 _atom_site_fract_x
 _atom_site_fract_y
 _atom_site_fract_z
 _atom_site_occupancy
  Ti  Ti0  1  0.668873  0.335042  0.498723  1
  Ti  Ti1  1  0.331127  0.666170  0.498723  1
  Ti  Ti2  1  0.331784  0.666284  0.001252  1
  Ti  Ti3  1  0.668216  0.334499  0.001252  1
  Ti  Ti4  1  0.734355  0.733085  0.243634  1
  Ti  Ti5  1  0.265645  0.998731  0.243634  1
  Ti  Ti6  1  0.000000  0.268826  0.245290  1
  Ti  Ti7  1  0.260534  0.259686  0.756642  1
  Ti  Ti8  1  0.739466  0.999153  0.756642  1
  Ti  Ti9  1  0.000000  0.738568  0.756016  1
  Cu  Cu10  1  0.000000  0.002069  0.490748  1
  Si  Si11  1  0.000000  0.001240  0.008069  1
  Sn  Sn12  1  0.385522  0.385293  0.253562  1
  Sn  Sn13  1  0.614478  0.999772  0.253562  1
  Sb  Sb14  1  0.000000  0.613809  0.252989  1
  Sb  Sb15  1  0.607810  0.608642  0.746104  1
  Sb  Sb16  1  0.392190  0.000832  0.746104  1
  Sb  Sb17  1  0.000000  0.388297  0.747054  1
