# generated using pymatgen
data_Ca4TbSn3H
_symmetry_space_group_name_H-M   'P 1'
_cell_length_a   9.41178176
_cell_length_b   9.41178083
_cell_length_c   9.42085667
_cell_angle_alpha   128.83010064
_cell_angle_beta   128.83009828
_cell_angle_gamma   75.21246647
_symmetry_Int_Tables_number   1
_chemical_formula_structural   Ca4TbSn3H
_chemical_formula_sum   'Ca8 Tb2 Sn6 H2'
_cell_volume   493.17864236
_cell_formula_units_Z   2
loop_
 _symmetry_equiv_pos_site_id
 _symmetry_equiv_pos_as_xyz
  1  'x, y, z'
loop_
 _atom_site_type_symbol
 _atom_site_label
 _atom_site_symmetry_multiplicity
 _atom_site_fract_x
 _atom_site_fract_y
 _atom_site_fract_z
 _atom_site_occupancy
  Ca  Ca0  1  0.500691  0.500691  0.000000  1
  Ca  Ca1  1  0.000691  0.000691  0.000000  1
  Ca  Ca2  1  0.008417  0.186355  0.500000  1
  Ca  Ca3  1  0.686355  0.508417  0.500000  1
  Ca  Ca4  1  0.489346  0.989346  0.178807  1
  Ca  Ca5  1  0.810539  0.310539  0.821193  1
  Ca  Ca6  1  0.987815  0.812139  0.500000  1
  Ca  Ca7  1  0.312139  0.487815  0.500000  1
  Tb  Tb8  1  0.517252  0.017252  0.829426  1
  Tb  Tb9  1  0.187827  0.687827  0.170574  1
  Sn  Sn10  1  0.253877  0.253877  0.000000  1
  Sn  Sn11  1  0.753877  0.753877  0.000000  1
  Sn  Sn12  1  0.869179  0.369179  0.241696  1
  Sn  Sn13  1  0.127484  0.627484  0.758304  1
  Sn  Sn14  1  0.365772  0.122539  0.500000  1
  Sn  Sn15  1  0.622539  0.865772  0.500000  1
  H  H16  1  0.258182  0.758182  0.500000  1
  H  H17  1  0.748018  0.248018  0.500000  1
