# generated using pymatgen
data_Th3SnPt2RhAu2
_symmetry_space_group_name_H-M   'P 1'
_cell_length_a   7.85621719
_cell_length_b   7.60612952
_cell_length_c   3.87110800
_cell_angle_alpha   90.00000000
_cell_angle_beta   90.00000000
_cell_angle_gamma   118.95244834
_symmetry_Int_Tables_number   1
_chemical_formula_structural   Th3SnPt2RhAu2
_chemical_formula_sum   'Th3 Sn1 Pt2 Rh1 Au2'
_cell_volume   202.40970945
_cell_formula_units_Z   1
loop_
 _symmetry_equiv_pos_site_id
 _symmetry_equiv_pos_as_xyz
  1  'x, y, z'
loop_
 _atom_site_type_symbol
 _atom_site_label
 _atom_site_symmetry_multiplicity
 _atom_site_fract_x
 _atom_site_fract_y
 _atom_site_fract_z
 _atom_site_occupancy
  Th  Th0  1  0.402944  0.390375  0.500000  1
  Th  Th1  1  0.597056  0.987432  0.500000  1
  Th  Th2  1  0.000000  0.627000  0.500000  1
  Sn  Sn3  1  0.000000  0.257565  0.000000  1
  Pt  Pt4  1  0.678221  0.329235  0.000000  1
  Pt  Pt5  1  0.321779  0.651014  0.000000  1
  Rh  Rh6  1  0.000000  0.020172  0.500000  1
  Au  Au7  1  0.730719  0.733963  0.000000  1
  Au  Au8  1  0.269281  0.003244  0.000000  1
