# generated using pymatgen
data_Sr3Er(Al3Pt)6
_symmetry_space_group_name_H-M   'P 1'
_cell_length_a   7.69641403
_cell_length_b   7.69882073
_cell_length_c   9.60287600
_cell_angle_alpha   90.00000000
_cell_angle_beta   90.00000000
_cell_angle_gamma   119.56296499
_symmetry_Int_Tables_number   1
_chemical_formula_structural   Sr3Er(Al3Pt)6
_chemical_formula_sum   'Sr3 Er1 Al18 Pt6'
_cell_volume   494.92609878
_cell_formula_units_Z   1
loop_
 _symmetry_equiv_pos_site_id
 _symmetry_equiv_pos_as_xyz
  1  'x, y, z'
loop_
 _atom_site_type_symbol
 _atom_site_label
 _atom_site_symmetry_multiplicity
 _atom_site_fract_x
 _atom_site_fract_y
 _atom_site_fract_z
 _atom_site_occupancy
  Sr  Sr0  1  0.994781  0.669109  0.250000  1
  Sr  Sr1  1  0.003819  0.330437  0.750000  1
  Sr  Sr2  1  0.670968  0.996330  0.250000  1
  Er  Er3  1  0.330062  0.003125  0.750000  1
  Al  Al4  1  0.135764  0.134158  0.250000  1
  Al  Al5  1  0.871526  0.867342  0.750000  1
  Al  Al6  1  0.003267  0.334823  0.072308  1
  Al  Al7  1  0.000585  0.667836  0.921982  1
  Al  Al8  1  0.000585  0.667836  0.578018  1
  Al  Al9  1  0.334397  0.002020  0.429884  1
  Al  Al10  1  0.003267  0.334823  0.427692  1
  Al  Al11  1  0.662996  0.998340  0.577883  1
  Al  Al12  1  0.662996  0.998340  0.922117  1
  Al  Al13  1  0.334397  0.002020  0.070116  1
  Al  Al14  1  0.333855  0.331636  0.558673  1
  Al  Al15  1  0.664715  0.664898  0.450822  1
  Al  Al16  1  0.664715  0.664898  0.049178  1
  Al  Al17  1  0.333855  0.331636  0.941327  1
  Al  Al18  1  0.340696  0.543539  0.250000  1
  Al  Al19  1  0.653274  0.451622  0.750000  1
  Al  Al20  1  0.541098  0.339293  0.250000  1
  Al  Al21  1  0.457863  0.665753  0.750000  1
  Pt  Pt22  1  0.669087  0.328146  0.998272  1
  Pt  Pt23  1  0.329339  0.671658  0.997874  1
  Pt  Pt24  1  0.329339  0.671658  0.502126  1
  Pt  Pt25  1  0.669087  0.328146  0.501728  1
  Pt  Pt26  1  0.001832  0.000293  0.997782  1
  Pt  Pt27  1  0.001832  0.000293  0.502218  1
