# generated using pymatgen
data_TbCeNd(RhPb)3
_symmetry_space_group_name_H-M   'P 1'
_cell_length_a   7.73746771
_cell_length_b   7.85256727
_cell_length_c   3.94368200
_cell_angle_alpha   90.00000000
_cell_angle_beta   90.00000000
_cell_angle_gamma   120.27284405
_symmetry_Int_Tables_number   1
_chemical_formula_structural   TbCeNd(RhPb)3
_chemical_formula_sum   'Tb1 Ce1 Nd1 Rh3 Pb3'
_cell_volume   206.93903814
_cell_formula_units_Z   1
loop_
 _symmetry_equiv_pos_site_id
 _symmetry_equiv_pos_as_xyz
  1  'x, y, z'
loop_
 _atom_site_type_symbol
 _atom_site_label
 _atom_site_symmetry_multiplicity
 _atom_site_fract_x
 _atom_site_fract_y
 _atom_site_fract_z
 _atom_site_occupancy
  Tb  Tb0  1  0.405726  0.405407  0.500000  1
  Ce  Ce1  1  0.000370  0.588553  0.500000  1
  Nd  Nd2  1  0.593974  0.000596  0.500000  1
  Rh  Rh3  1  0.001213  0.994414  0.500000  1
  Rh  Rh4  1  0.683851  0.350383  0.000000  1
  Rh  Rh5  1  0.313938  0.660869  0.000000  1
  Pb  Pb6  1  0.731814  0.736253  0.000000  1
  Pb  Pb7  1  0.266119  0.007110  0.000000  1
  Pb  Pb8  1  0.002996  0.256415  0.000000  1
