# generated using pymatgen
data_HoSc5Al17Si7Os8
_symmetry_space_group_name_H-M   'P 1'
_cell_length_a   8.59304212
_cell_length_b   8.58761450
_cell_length_c   9.38787400
_cell_angle_alpha   90.00000000
_cell_angle_beta   90.00000000
_cell_angle_gamma   120.01058696
_symmetry_Int_Tables_number   1
_chemical_formula_structural   HoSc5Al17Si7Os8
_chemical_formula_sum   'Ho1 Sc5 Al17 Si7 Os8'
_cell_volume   599.88917308
_cell_formula_units_Z   1
loop_
 _symmetry_equiv_pos_site_id
 _symmetry_equiv_pos_as_xyz
  1  'x, y, z'
loop_
 _atom_site_type_symbol
 _atom_site_label
 _atom_site_symmetry_multiplicity
 _atom_site_fract_x
 _atom_site_fract_y
 _atom_site_fract_z
 _atom_site_occupancy
  Ho  Ho0  1  0.804327  0.189385  0.750000  1
  Sc  Sc1  1  0.194221  0.392531  0.250000  1
  Sc  Sc2  1  0.804915  0.610947  0.750000  1
  Sc  Sc3  1  0.607133  0.805839  0.250000  1
  Sc  Sc4  1  0.392689  0.192827  0.750000  1
  Sc  Sc5  1  0.197950  0.803117  0.250000  1
  Al  Al6  1  0.165985  0.330646  0.577430  1
  Al  Al7  1  0.834555  0.672169  0.419755  1
  Al  Al8  1  0.670245  0.833340  0.577025  1
  Al  Al9  1  0.834555  0.672169  0.080245  1
  Al  Al10  1  0.328913  0.165755  0.421220  1
  Al  Al11  1  0.165985  0.330646  0.922570  1
  Al  Al12  1  0.163560  0.834618  0.576247  1
  Al  Al13  1  0.328913  0.165755  0.078780  1
  Al  Al14  1  0.835111  0.164212  0.417625  1
  Al  Al15  1  0.670245  0.833340  0.922975  1
  Al  Al16  1  0.835111  0.164212  0.082375  1
  Al  Al17  1  0.163560  0.834618  0.923753  1
  Al  Al18  1  0.124286  0.566071  0.750000  1
  Al  Al19  1  0.562428  0.436966  0.250000  1
  Al  Al20  1  0.440639  0.563540  0.750000  1
  Al  Al21  1  0.000051  0.999471  0.250000  1
  Al  Al22  1  0.005658  0.995584  0.750000  1
  Si  Si23  1  0.333389  0.665213  0.048543  1
  Si  Si24  1  0.665467  0.337413  0.954051  1
  Si  Si25  1  0.665467  0.337413  0.545949  1
  Si  Si26  1  0.333389  0.665213  0.451457  1
  Si  Si27  1  0.561529  0.120992  0.250000  1
  Si  Si28  1  0.434438  0.873107  0.750000  1
  Si  Si29  1  0.877037  0.437273  0.250000  1
  Os  Os30  1  0.499544  0.000472  0.001915  1
  Os  Os31  1  0.999278  0.500766  0.007977  1
  Os  Os32  1  0.499544  0.000472  0.498085  1
  Os  Os33  1  0.500327  0.500585  0.000973  1
  Os  Os34  1  0.999278  0.500766  0.492023  1
  Os  Os35  1  0.500327  0.500585  0.499027  1
  Os  Os36  1  0.999976  0.000984  0.000055  1
  Os  Os37  1  0.999976  0.000984  0.499945  1
