# generated using pymatgen
data_Nd16MgIn(AgPt2)2
_symmetry_space_group_name_H-M   'P 1'
_cell_length_a   9.98019041
_cell_length_b   9.99518639
_cell_length_c   9.99518613
_cell_angle_alpha   60.14354104
_cell_angle_beta   60.08653382
_cell_angle_gamma   60.08653681
_symmetry_Int_Tables_number   1
_chemical_formula_structural   Nd16MgIn(AgPt2)2
_chemical_formula_sum   'Nd16 Mg1 In1 Ag2 Pt4'
_cell_volume   706.71216969
_cell_formula_units_Z   1
loop_
 _symmetry_equiv_pos_site_id
 _symmetry_equiv_pos_as_xyz
  1  'x, y, z'
loop_
 _atom_site_type_symbol
 _atom_site_label
 _atom_site_symmetry_multiplicity
 _atom_site_fract_x
 _atom_site_fract_y
 _atom_site_fract_z
 _atom_site_occupancy
  Nd  Nd0  1  0.349240  0.348973  0.348973  1
  Nd  Nd1  1  0.351988  0.351327  0.946044  1
  Nd  Nd2  1  0.351988  0.946044  0.351327  1
  Nd  Nd3  1  0.938519  0.353848  0.353848  1
  Nd  Nd4  1  0.809446  0.191577  0.191577  1
  Nd  Nd5  1  0.191357  0.808068  0.808068  1
  Nd  Nd6  1  0.188319  0.811995  0.189951  1
  Nd  Nd7  1  0.805916  0.193360  0.807019  1
  Nd  Nd8  1  0.188319  0.189951  0.811995  1
  Nd  Nd9  1  0.805916  0.807019  0.193360  1
  Nd  Nd10  1  0.938391  0.565137  0.565137  1
  Nd  Nd11  1  0.562059  0.937130  0.937130  1
  Nd  Nd12  1  0.562684  0.943567  0.565069  1
  Nd  Nd13  1  0.934823  0.563477  0.937192  1
  Nd  Nd14  1  0.562684  0.565069  0.943567  1
  Nd  Nd15  1  0.934823  0.937192  0.563477  1
  Mg  Mg16  1  0.286100  0.568192  0.568192  1
  In  In17  1  0.582688  0.581565  0.581565  1
  Ag  Ag18  1  0.580373  0.584869  0.249846  1
  Ag  Ag19  1  0.580373  0.249846  0.584869  1
  Pt  Pt20  1  0.141685  0.144965  0.144965  1
  Pt  Pt21  1  0.141043  0.143608  0.570224  1
  Pt  Pt22  1  0.141043  0.570224  0.143608  1
  Pt  Pt23  1  0.570223  0.142999  0.142999  1
