# generated using pymatgen
data_Ac5CeIr18
_symmetry_space_group_name_H-M   'P 1'
_cell_length_a   5.48726000
_cell_length_b   5.48723933
_cell_length_c   17.80608800
_cell_angle_alpha   89.99944063
_cell_angle_beta   90.00002331
_cell_angle_gamma   120.00002417
_symmetry_Int_Tables_number   1
_chemical_formula_structural   Ac5CeIr18
_chemical_formula_sum   'Ac5 Ce1 Ir18'
_cell_volume   464.31047617
_cell_formula_units_Z   1
loop_
 _symmetry_equiv_pos_site_id
 _symmetry_equiv_pos_as_xyz
  1  'x, y, z'
loop_
 _atom_site_type_symbol
 _atom_site_label
 _atom_site_symmetry_multiplicity
 _atom_site_fract_x
 _atom_site_fract_y
 _atom_site_fract_z
 _atom_site_occupancy
  Ac  Ac0  1  0.333333  0.666666  0.959408  1
  Ac  Ac1  1  0.666666  0.333333  0.040439  1
  Ac  Ac2  1  0.666664  0.333328  0.460840  1
  Ac  Ac3  1  0.333334  0.666667  0.750199  1
  Ac  Ac4  1  0.666667  0.333333  0.250765  1
  Ce  Ce5  1  0.333327  0.666658  0.543936  1
  Ir  Ir6  1  0.166915  0.833085  0.371591  1
  Ir  Ir7  1  0.166911  0.333823  0.371589  1
  Ir  Ir8  1  0.666171  0.833086  0.371591  1
  Ir  Ir9  1  0.833548  0.166461  0.627176  1
  Ir  Ir10  1  0.833550  0.667098  0.627178  1
  Ir  Ir11  1  0.332908  0.166463  0.627177  1
  Ir  Ir12  1  0.834401  0.165603  0.868428  1
  Ir  Ir13  1  0.834396  0.668791  0.868429  1
  Ir  Ir14  1  0.331201  0.165603  0.868428  1
  Ir  Ir15  1  0.165269  0.834726  0.131417  1
  Ir  Ir16  1  0.165276  0.330552  0.131414  1
  Ir  Ir17  1  0.669458  0.834727  0.131417  1
  Ir  Ir18  1  0.333333  0.666664  0.250489  1
  Ir  Ir19  1  0.666666  0.333333  0.748733  1
  Ir  Ir20  1  0.000001  0.000003  0.251781  1
  Ir  Ir21  1  0.000000  0.999998  0.747770  1
  Ir  Ir22  1  0.000005  0.000000  0.500240  1
  Ir  Ir23  1  0.999998  0.999998  0.999566  1
