# generated using pymatgen
data_CsSm10(C2Br9)2
_symmetry_space_group_name_H-M   'P 1'
_cell_length_a   10.91205312
_cell_length_b   11.00659204
_cell_length_c   11.12885668
_cell_angle_alpha   113.25729882
_cell_angle_beta   87.63308596
_cell_angle_gamma   118.71490131
_symmetry_Int_Tables_number   1
_chemical_formula_structural   CsSm10(C2Br9)2
_chemical_formula_sum   'Cs1 Sm10 C4 Br18'
_cell_volume   1058.56659659
_cell_formula_units_Z   1
loop_
 _symmetry_equiv_pos_site_id
 _symmetry_equiv_pos_as_xyz
  1  'x, y, z'
loop_
 _atom_site_type_symbol
 _atom_site_label
 _atom_site_symmetry_multiplicity
 _atom_site_fract_x
 _atom_site_fract_y
 _atom_site_fract_z
 _atom_site_occupancy
  Cs  Cs0  1  0.500000  0.000000  0.500000  1
  Sm  Sm1  1  0.658353  0.715747  0.699956  1
  Sm  Sm2  1  0.281661  0.364962  0.012854  1
  Sm  Sm3  1  0.092875  0.410537  0.303536  1
  Sm  Sm4  1  0.961241  0.038414  0.333836  1
  Sm  Sm5  1  0.907125  0.589463  0.696464  1
  Sm  Sm6  1  0.113526  0.941659  0.000951  1
  Sm  Sm7  1  0.038759  0.961586  0.666164  1
  Sm  Sm8  1  0.341647  0.284253  0.300044  1
  Sm  Sm9  1  0.718339  0.635038  0.987146  1
  Sm  Sm10  1  0.886474  0.058341  0.999049  1
  C  C11  1  0.156732  0.228800  0.126282  1
  C  C12  1  0.843268  0.771200  0.873718  1
  C  C13  1  0.919460  0.848068  0.795454  1
  C  C14  1  0.080540  0.151932  0.204546  1
  Br  Br15  1  0.452221  0.531023  0.832292  1
  Br  Br16  1  0.383636  0.037448  0.160041  1
  Br  Br17  1  0.775684  0.856699  0.502392  1
  Br  Br18  1  0.836935  0.311522  0.154704  1
  Br  Br19  1  0.547779  0.468977  0.167708  1
  Br  Br20  1  0.224316  0.143301  0.497608  1
  Br  Br21  1  0.313724  0.098682  0.830328  1
  Br  Br22  1  0.686276  0.901318  0.169672  1
  Br  Br23  1  0.976865  0.763434  0.172596  1
  Br  Br24  1  0.931401  0.301647  0.501715  1
  Br  Br25  1  0.023135  0.236566  0.827404  1
  Br  Br26  1  0.068599  0.698353  0.498285  1
  Br  Br27  1  0.261220  0.624522  0.188395  1
  Br  Br28  1  0.738780  0.375478  0.811605  1
  Br  Br29  1  0.637753  0.431782  0.498933  1
  Br  Br30  1  0.163065  0.688478  0.845296  1
  Br  Br31  1  0.616364  0.962552  0.839959  1
  Br  Br32  1  0.362247  0.568218  0.501067  1
