# generated using pymatgen
data_Pr16Cd4AgOs3
_symmetry_space_group_name_H-M   'P 1'
_cell_length_a   10.01878733
_cell_length_b   10.14990331
_cell_length_c   10.14990200
_cell_angle_alpha   59.99999775
_cell_angle_beta   59.56613030
_cell_angle_gamma   59.56613849
_symmetry_Int_Tables_number   1
_chemical_formula_structural   Pr16Cd4AgOs3
_chemical_formula_sum   'Pr16 Cd4 Ag1 Os3'
_cell_volume   725.01085423
_cell_formula_units_Z   1
loop_
 _symmetry_equiv_pos_site_id
 _symmetry_equiv_pos_as_xyz
  1  'x, y, z'
loop_
 _atom_site_type_symbol
 _atom_site_label
 _atom_site_symmetry_multiplicity
 _atom_site_fract_x
 _atom_site_fract_y
 _atom_site_fract_z
 _atom_site_occupancy
  Pr  Pr0  1  0.340165  0.355341  0.355341  1
  Pr  Pr1  1  0.340165  0.355341  0.949154  1
  Pr  Pr2  1  0.340165  0.949154  0.355341  1
  Pr  Pr3  1  0.969863  0.343379  0.343379  1
  Pr  Pr4  1  0.820876  0.192257  0.192257  1
  Pr  Pr5  1  0.188970  0.811004  0.811004  1
  Pr  Pr6  1  0.188970  0.811004  0.189022  1
  Pr  Pr7  1  0.820876  0.192257  0.794611  1
  Pr  Pr8  1  0.188970  0.189022  0.811004  1
  Pr  Pr9  1  0.820876  0.794611  0.192257  1
  Pr  Pr10  1  0.934466  0.563156  0.563156  1
  Pr  Pr11  1  0.552141  0.940521  0.940521  1
  Pr  Pr12  1  0.552141  0.940521  0.566818  1
  Pr  Pr13  1  0.934466  0.563156  0.939220  1
  Pr  Pr14  1  0.552141  0.566818  0.940521  1
  Pr  Pr15  1  0.934466  0.939220  0.563156  1
  Cd  Cd16  1  0.580347  0.579017  0.579017  1
  Cd  Cd17  1  0.580347  0.579017  0.261619  1
  Cd  Cd18  1  0.580347  0.261619  0.579017  1
  Cd  Cd19  1  0.260777  0.579741  0.579741  1
  Ag  Ag20  1  0.575319  0.141560  0.141560  1
  Os  Os21  1  0.147716  0.137274  0.137274  1
  Os  Os22  1  0.147716  0.137274  0.577736  1
  Os  Os23  1  0.147716  0.577736  0.137274  1
