# generated using pymatgen
data_Sr4Sc(TcO4)3
_symmetry_space_group_name_H-M   'P 1'
_cell_length_a   5.66455801
_cell_length_b   5.69149084
_cell_length_c   8.00010518
_cell_angle_alpha   90.06199988
_cell_angle_beta   89.99585156
_cell_angle_gamma   90.00339164
_symmetry_Int_Tables_number   1
_chemical_formula_structural   Sr4Sc(TcO4)3
_chemical_formula_sum   'Sr4 Sc1 Tc3 O12'
_cell_volume   257.92147856
_cell_formula_units_Z   1
loop_
 _symmetry_equiv_pos_site_id
 _symmetry_equiv_pos_as_xyz
  1  'x, y, z'
loop_
 _atom_site_type_symbol
 _atom_site_label
 _atom_site_symmetry_multiplicity
 _atom_site_fract_x
 _atom_site_fract_y
 _atom_site_fract_z
 _atom_site_occupancy
  Sr  Sr0  1  0.494326  0.002091  0.747657  1
  Sr  Sr1  1  0.994191  0.496887  0.747758  1
  Sr  Sr2  1  0.505674  0.997909  0.252343  1
  Sr  Sr3  1  0.005809  0.503113  0.252242  1
  Sc  Sc4  1  0.500000  0.500000  0.500000  1
  Tc  Tc5  1  0.000000  0.000000  0.000000  1
  Tc  Tc6  1  0.500000  0.500000  0.000000  1
  Tc  Tc7  1  0.000000  0.000000  0.500000  1
  O  O8  1  0.002166  0.952392  0.749271  1
  O  O9  1  0.502412  0.549983  0.755730  1
  O  O10  1  0.997834  0.047608  0.250729  1
  O  O11  1  0.497588  0.450017  0.244270  1
  O  O12  1  0.744826  0.233057  0.525756  1
  O  O13  1  0.240151  0.260366  0.975004  1
  O  O14  1  0.260322  0.759318  0.025022  1
  O  O15  1  0.766579  0.746020  0.474256  1
  O  O16  1  0.255174  0.766943  0.474244  1
  O  O17  1  0.759849  0.739634  0.024996  1
  O  O18  1  0.739678  0.240682  0.974978  1
  O  O19  1  0.233421  0.253980  0.525744  1
