# generated using pymatgen
data_KSr(AgTe2)2
_symmetry_space_group_name_H-M   'P 1'
_cell_length_a   12.45553945
_cell_length_b   12.45553988
_cell_length_c   12.45554030
_cell_angle_alpha   159.09836624
_cell_angle_beta   159.09837152
_cell_angle_gamma   29.72807390
_symmetry_Int_Tables_number   1
_chemical_formula_structural   KSr(AgTe2)2
_chemical_formula_sum   'K1 Sr1 Ag2 Te4'
_cell_volume   245.81006977
_cell_formula_units_Z   1
loop_
 _symmetry_equiv_pos_site_id
 _symmetry_equiv_pos_as_xyz
  1  'x, y, z'
loop_
 _atom_site_type_symbol
 _atom_site_label
 _atom_site_symmetry_multiplicity
 _atom_site_fract_x
 _atom_site_fract_y
 _atom_site_fract_z
 _atom_site_occupancy
  K  K0  1  0.880618  0.880618  0.000000  1
  Sr  Sr1  1  0.120278  0.120278  0.000000  1
  Ag  Ag2  1  0.249349  0.749349  0.500000  1
  Ag  Ag3  1  0.749349  0.249349  0.500000  1
  Te  Te4  1  0.506719  0.006719  0.500000  1
  Te  Te5  1  0.006719  0.506719  0.500000  1
  Te  Te6  1  0.321251  0.321251  0.000000  1
  Te  Te7  1  0.665717  0.665717  0.000000  1
