# generated using pymatgen
data_Th2MnCo21
_symmetry_space_group_name_H-M   'P 1'
_cell_length_a   7.64734467
_cell_length_b   7.64734535
_cell_length_c   7.64734461
_cell_angle_alpha   99.92954045
_cell_angle_beta   99.92953211
_cell_angle_gamma   130.92921068
_symmetry_Int_Tables_number   1
_chemical_formula_structural   Th2MnCo21
_chemical_formula_sum   'Th2 Mn1 Co21'
_cell_volume   307.38191889
_cell_formula_units_Z   1
loop_
 _symmetry_equiv_pos_site_id
 _symmetry_equiv_pos_as_xyz
  1  'x, y, z'
loop_
 _atom_site_type_symbol
 _atom_site_label
 _atom_site_symmetry_multiplicity
 _atom_site_fract_x
 _atom_site_fract_y
 _atom_site_fract_z
 _atom_site_occupancy
  Th  Th0  1  0.000000  0.000000  0.000000  1
  Th  Th1  1  0.250000  0.750000  0.500000  1
  Mn  Mn2  1  0.750000  0.250000  0.500000  1
  Co  Co3  1  0.764180  0.183625  0.831012  1
  Co  Co4  1  0.352612  0.933168  0.168988  1
  Co  Co5  1  0.185271  0.515207  0.080435  1
  Co  Co6  1  0.895165  0.565228  0.080435  1
  Co  Co7  1  0.484793  0.814729  0.919565  1
  Co  Co8  1  0.434772  0.104835  0.919565  1
  Co  Co9  1  0.066832  0.647388  0.831012  1
  Co  Co10  1  0.816375  0.647388  0.580555  1
  Co  Co11  1  0.484793  0.565228  0.670064  1
  Co  Co12  1  0.895165  0.814729  0.329936  1
  Co  Co13  1  0.066832  0.235820  0.419445  1
  Co  Co14  1  0.352612  0.183625  0.419445  1
  Co  Co15  1  0.764180  0.933168  0.580555  1
  Co  Co16  1  0.434772  0.515207  0.329936  1
  Co  Co17  1  0.185271  0.104835  0.670064  1
  Co  Co18  1  0.816375  0.235820  0.168988  1
  Co  Co19  1  0.500000  0.500000  0.000000  1
  Co  Co20  1  0.626025  0.872320  0.246295  1
  Co  Co21  1  0.620271  0.373975  0.246295  1
  Co  Co22  1  0.127680  0.373975  0.753705  1
  Co  Co23  1  0.626025  0.379729  0.753705  1
