# generated using pymatgen
data_YTm5NiI10
_symmetry_space_group_name_H-M   'P 1'
_cell_length_a   7.63463925
_cell_length_b   9.57195212
_cell_length_c   9.59499011
_cell_angle_alpha   107.06454940
_cell_angle_beta   97.00396270
_cell_angle_gamma   104.64195714
_symmetry_Int_Tables_number   1
_chemical_formula_structural   YTm5NiI10
_chemical_formula_sum   'Y1 Tm5 Ni1 I10'
_cell_volume   633.80130663
_cell_formula_units_Z   1
loop_
 _symmetry_equiv_pos_site_id
 _symmetry_equiv_pos_as_xyz
  1  'x, y, z'
loop_
 _atom_site_type_symbol
 _atom_site_label
 _atom_site_symmetry_multiplicity
 _atom_site_fract_x
 _atom_site_fract_y
 _atom_site_fract_z
 _atom_site_occupancy
  Y  Y0  1  0.342843  0.121569  0.162697  1
  Tm  Tm1  1  0.888336  0.959773  0.232876  1
  Tm  Tm2  1  0.109061  0.038821  0.765756  1
  Tm  Tm3  1  0.028925  0.722627  0.916700  1
  Tm  Tm4  1  0.969519  0.276743  0.082109  1
  Tm  Tm5  1  0.663018  0.879998  0.839653  1
  Ni  Ni6  1  0.999523  0.000308  0.000332  1
  I  I7  1  0.647197  0.548340  0.726919  1
  I  I8  1  0.350278  0.454388  0.272887  1
  I  I9  1  0.740852  0.911539  0.535700  1
  I  I10  1  0.255878  0.087298  0.465526  1
  I  I11  1  0.084694  0.373270  0.819495  1
  I  I12  1  0.914594  0.626534  0.179966  1
  I  I13  1  0.454200  0.811774  0.092219  1
  I  I14  1  0.546194  0.185254  0.904485  1
  I  I15  1  0.225062  0.742959  0.655407  1
  I  I16  1  0.779826  0.258804  0.347273  1
