# generated using pymatgen
data_YZr7(Nb3Ge4)4
_symmetry_space_group_name_H-M   'P 1'
_cell_length_a   6.88227152
_cell_length_b   7.01968023
_cell_length_c   13.41097422
_cell_angle_alpha   90.06728648
_cell_angle_beta   89.92396494
_cell_angle_gamma   90.00277444
_symmetry_Int_Tables_number   1
_chemical_formula_structural   YZr7(Nb3Ge4)4
_chemical_formula_sum   'Y1 Zr7 Nb12 Ge16'
_cell_volume   647.90118892
_cell_formula_units_Z   1
loop_
 _symmetry_equiv_pos_site_id
 _symmetry_equiv_pos_as_xyz
  1  'x, y, z'
loop_
 _atom_site_type_symbol
 _atom_site_label
 _atom_site_symmetry_multiplicity
 _atom_site_fract_x
 _atom_site_fract_y
 _atom_site_fract_z
 _atom_site_occupancy
  Y  Y0  1  0.994441  0.172932  0.091567  1
  Zr  Zr1  1  0.493347  0.326815  0.091848  1
  Zr  Zr2  1  0.990217  0.175531  0.407592  1
  Zr  Zr3  1  0.508725  0.674754  0.591494  1
  Zr  Zr4  1  0.009042  0.822326  0.905312  1
  Zr  Zr5  1  0.509152  0.675981  0.906673  1
  Zr  Zr6  1  0.009357  0.825748  0.591576  1
  Zr  Zr7  1  0.491358  0.324659  0.409399  1
  Nb  Nb8  1  0.662927  0.008795  0.749151  1
  Nb  Nb9  1  0.162732  0.492839  0.749863  1
  Nb  Nb10  1  0.337467  0.990828  0.251916  1
  Nb  Nb11  1  0.836399  0.509049  0.252653  1
  Nb  Nb12  1  0.839559  0.334056  0.624386  1
  Nb  Nb13  1  0.339235  0.166235  0.875078  1
  Nb  Nb14  1  0.160523  0.665817  0.125620  1
  Nb  Nb15  1  0.658795  0.831710  0.376180  1
  Nb  Nb16  1  0.160770  0.666898  0.376951  1
  Nb  Nb17  1  0.657623  0.831318  0.125744  1
  Nb  Nb18  1  0.836655  0.336173  0.874175  1
  Nb  Nb19  1  0.339836  0.166107  0.624663  1
  Ge  Ge20  1  0.804164  0.648422  0.748885  1
  Ge  Ge21  1  0.305039  0.852289  0.749538  1
  Ge  Ge22  1  0.197699  0.353526  0.251851  1
  Ge  Ge23  1  0.693017  0.148261  0.251028  1
  Ge  Ge24  1  0.536605  0.386190  0.749477  1
  Ge  Ge25  1  0.036944  0.115030  0.750250  1
  Ge  Ge26  1  0.462096  0.613515  0.250773  1
  Ge  Ge27  1  0.961635  0.883453  0.251486  1
  Ge  Ge28  1  0.681809  0.039319  0.539463  1
  Ge  Ge29  1  0.182469  0.464026  0.958536  1
  Ge  Ge30  1  0.325277  0.956456  0.038531  1
  Ge  Ge31  1  0.819377  0.538836  0.460850  1
  Ge  Ge32  1  0.318060  0.961941  0.460671  1
  Ge  Ge33  1  0.817847  0.542793  0.038506  1
  Ge  Ge34  1  0.678752  0.037657  0.958398  1
  Ge  Ge35  1  0.181051  0.459715  0.539914  1
