# generated using pymatgen
data_Tb2Dy4IrI10
_symmetry_space_group_name_H-M   'P 1'
_cell_length_a   7.74487573
_cell_length_b   9.73977549
_cell_length_c   9.73374558
_cell_angle_alpha   107.37243745
_cell_angle_beta   104.84774697
_cell_angle_gamma   96.93341589
_symmetry_Int_Tables_number   1
_chemical_formula_structural   Tb2Dy4IrI10
_chemical_formula_sum   'Tb2 Dy4 Ir1 I10'
_cell_volume   661.69629394
_cell_formula_units_Z   1
loop_
 _symmetry_equiv_pos_site_id
 _symmetry_equiv_pos_as_xyz
  1  'x, y, z'
loop_
 _atom_site_type_symbol
 _atom_site_label
 _atom_site_symmetry_multiplicity
 _atom_site_fract_x
 _atom_site_fract_y
 _atom_site_fract_z
 _atom_site_occupancy
  Tb  Tb0  1  0.112927  0.762676  0.040518  1
  Tb  Tb1  1  0.887073  0.237324  0.959482  1
  Dy  Dy2  1  0.650464  0.832779  0.873609  1
  Dy  Dy3  1  0.349536  0.167221  0.126391  1
  Dy  Dy4  1  0.027803  0.912790  0.711371  1
  Dy  Dy5  1  0.972197  0.087210  0.288629  1
  Ir  Ir6  1  0.000000  0.000000  0.000000  1
  I  I7  1  0.642928  0.726371  0.545672  1
  I  I8  1  0.357072  0.273629  0.454328  1
  I  I9  1  0.215960  0.650915  0.739489  1
  I  I10  1  0.784040  0.349085  0.260511  1
  I  I11  1  0.454002  0.092385  0.817529  1
  I  I12  1  0.545998  0.907615  0.182471  1
  I  I13  1  0.260693  0.462394  0.088484  1
  I  I14  1  0.739307  0.537606  0.911516  1
  I  I15  1  0.085888  0.820148  0.372583  1
  I  I16  1  0.914112  0.179852  0.627417  1
