# generated using pymatgen
data_Er8Sc12Si15Au
_symmetry_space_group_name_H-M   'P 1'
_cell_length_a   7.09469967
_cell_length_b   7.35665029
_cell_length_c   14.01480002
_cell_angle_alpha   89.93110295
_cell_angle_beta   89.66588624
_cell_angle_gamma   90.15579308
_symmetry_Int_Tables_number   1
_chemical_formula_structural   Er8Sc12Si15Au
_chemical_formula_sum   'Er8 Sc12 Si15 Au1'
_cell_volume   731.46191776
_cell_formula_units_Z   1
loop_
 _symmetry_equiv_pos_site_id
 _symmetry_equiv_pos_as_xyz
  1  'x, y, z'
loop_
 _atom_site_type_symbol
 _atom_site_label
 _atom_site_symmetry_multiplicity
 _atom_site_fract_x
 _atom_site_fract_y
 _atom_site_fract_z
 _atom_site_occupancy
  Er  Er0  1  0.012502  0.176113  0.097257  1
  Er  Er1  1  0.987285  0.824358  0.903721  1
  Er  Er2  1  0.487248  0.677508  0.903546  1
  Er  Er3  1  0.988064  0.826924  0.597509  1
  Er  Er4  1  0.512109  0.323024  0.096502  1
  Er  Er5  1  0.010869  0.174831  0.400182  1
  Er  Er6  1  0.509641  0.324021  0.401295  1
  Er  Er7  1  0.490876  0.676406  0.598644  1
  Sc  Sc8  1  0.162650  0.502183  0.751101  1
  Sc  Sc9  1  0.837573  0.497693  0.250748  1
  Sc  Sc10  1  0.338219  0.001607  0.249401  1
  Sc  Sc11  1  0.663469  0.995444  0.750695  1
  Sc  Sc12  1  0.337677  0.175889  0.625769  1
  Sc  Sc13  1  0.666873  0.823445  0.373668  1
  Sc  Sc14  1  0.169110  0.673866  0.373308  1
  Sc  Sc15  1  0.670057  0.824080  0.125336  1
  Sc  Sc16  1  0.828437  0.325425  0.625484  1
  Sc  Sc17  1  0.328907  0.175437  0.875783  1
  Sc  Sc18  1  0.830290  0.322674  0.875711  1
  Sc  Sc19  1  0.169333  0.676836  0.125190  1
  Si  Si20  1  0.034382  0.116790  0.750672  1
  Si  Si21  1  0.967057  0.886185  0.249259  1
  Si  Si22  1  0.467052  0.613635  0.248461  1
  Si  Si23  1  0.534308  0.386589  0.752185  1
  Si  Si24  1  0.284555  0.871935  0.750779  1
  Si  Si25  1  0.713750  0.129906  0.249082  1
  Si  Si26  1  0.214737  0.369130  0.248017  1
  Si  Si27  1  0.786724  0.629211  0.752543  1
  Si  Si28  1  0.834128  0.536290  0.459563  1
  Si  Si29  1  0.339823  0.963961  0.460005  1
  Si  Si30  1  0.842432  0.535070  0.038958  1
  Si  Si31  1  0.659059  0.035401  0.537995  1
  Si  Si32  1  0.157217  0.464815  0.961651  1
  Si  Si33  1  0.658129  0.034451  0.961112  1
  Si  Si34  1  0.342122  0.964872  0.039295  1
  Au  Au35  1  0.163336  0.463998  0.539571  1
