# generated using pymatgen
data_Tm12GaFe3Ag
_symmetry_space_group_name_H-M   'P 1'
_cell_length_a   8.14961676
_cell_length_b   8.14961579
_cell_length_c   8.14961527
_cell_angle_alpha   109.66148639
_cell_angle_beta   107.88508637
_cell_angle_gamma   110.88103832
_symmetry_Int_Tables_number   1
_chemical_formula_structural   Tm12GaFe3Ag
_chemical_formula_sum   'Tm12 Ga1 Fe3 Ag1'
_cell_volume   416.38013289
_cell_formula_units_Z   1
loop_
 _symmetry_equiv_pos_site_id
 _symmetry_equiv_pos_as_xyz
  1  'x, y, z'
loop_
 _atom_site_type_symbol
 _atom_site_label
 _atom_site_symmetry_multiplicity
 _atom_site_fract_x
 _atom_site_fract_y
 _atom_site_fract_z
 _atom_site_occupancy
  Tm  Tm0  1  0.189600  0.432838  0.243238  1
  Tm  Tm1  1  0.810400  0.567162  0.756762  1
  Tm  Tm2  1  0.189600  0.946362  0.756762  1
  Tm  Tm3  1  0.949357  0.189248  0.760108  1
  Tm  Tm4  1  0.810400  0.053638  0.243238  1
  Tm  Tm5  1  0.050643  0.810752  0.239892  1
  Tm  Tm6  1  0.429140  0.189248  0.239892  1
  Tm  Tm7  1  0.570860  0.810752  0.760108  1
  Tm  Tm8  1  0.311455  0.306354  0.617809  1
  Tm  Tm9  1  0.688545  0.693646  0.382191  1
  Tm  Tm10  1  0.688545  0.306354  0.994899  1
  Tm  Tm11  1  0.311455  0.693646  0.005101  1
  Ga  Ga12  1  0.500000  0.000000  0.500000  1
  Fe  Fe13  1  0.382081  0.382081  0.000000  1
  Fe  Fe14  1  0.617919  0.617919  0.000000  1
  Fe  Fe15  1  0.000000  0.000000  0.000000  1
  Ag  Ag16  1  0.000000  0.500000  0.500000  1
