# generated using pymatgen
data_Cs3K2BaTaP4
_symmetry_space_group_name_H-M   'P 1'
_cell_length_a   10.81748028
_cell_length_b   10.81747901
_cell_length_c   7.93156797
_cell_angle_alpha   88.76516417
_cell_angle_beta   88.76516686
_cell_angle_gamma   120.31766372
_symmetry_Int_Tables_number   1
_chemical_formula_structural   Cs3K2BaTaP4
_chemical_formula_sum   'Cs6 K4 Ba2 Ta2 P8'
_cell_volume   800.45162722
_cell_formula_units_Z   2
loop_
 _symmetry_equiv_pos_site_id
 _symmetry_equiv_pos_as_xyz
  1  'x, y, z'
loop_
 _atom_site_type_symbol
 _atom_site_label
 _atom_site_symmetry_multiplicity
 _atom_site_fract_x
 _atom_site_fract_y
 _atom_site_fract_z
 _atom_site_occupancy
  Cs  Cs0  1  0.867165  0.137822  0.682785  1
  Cs  Cs1  1  0.291138  0.151942  0.725879  1
  Cs  Cs2  1  0.856541  0.720509  0.658693  1
  Cs  Cs3  1  0.137822  0.867165  0.182785  1
  Cs  Cs4  1  0.720509  0.856541  0.158693  1
  Cs  Cs5  1  0.151942  0.291138  0.225879  1
  K  K6  1  0.464186  0.528567  0.500671  1
  K  K7  1  0.063246  0.530425  0.502095  1
  K  K8  1  0.528567  0.464186  0.000671  1
  K  K9  1  0.530425  0.063246  0.002095  1
  Ba  Ba10  1  0.462260  0.931690  0.489901  1
  Ba  Ba11  1  0.931690  0.462260  0.989901  1
  Ta  Ta12  1  0.668618  0.330940  0.390610  1
  Ta  Ta13  1  0.330940  0.668618  0.890610  1
  P  P14  1  0.685233  0.337005  0.695881  1
  P  P15  1  0.337005  0.685233  0.195881  1
  P  P16  1  0.785417  0.205553  0.283412  1
  P  P17  1  0.420110  0.201120  0.316992  1
  P  P18  1  0.789555  0.570956  0.267368  1
  P  P19  1  0.205553  0.785417  0.783412  1
  P  P20  1  0.570956  0.789555  0.767368  1
  P  P21  1  0.201120  0.420110  0.816992  1
