# generated using pymatgen
data_Tm20CoIrPt10
_symmetry_space_group_name_H-M   'P 1'
_cell_length_a   10.87854700
_cell_length_b   10.87854700
_cell_length_c   6.32631800
_cell_angle_alpha   90.00000000
_cell_angle_beta   90.00000000
_cell_angle_gamma   90.00000000
_symmetry_Int_Tables_number   1
_chemical_formula_structural   Tm20CoIrPt10
_chemical_formula_sum   'Tm20 Co1 Ir1 Pt10'
_cell_volume   748.67408985
_cell_formula_units_Z   1
loop_
 _symmetry_equiv_pos_site_id
 _symmetry_equiv_pos_as_xyz
  1  'x, y, z'
loop_
 _atom_site_type_symbol
 _atom_site_label
 _atom_site_symmetry_multiplicity
 _atom_site_fract_x
 _atom_site_fract_y
 _atom_site_fract_z
 _atom_site_occupancy
  Tm  Tm0  1  0.291804  0.088365  0.375502  1
  Tm  Tm1  1  0.291912  0.911576  0.875435  1
  Tm  Tm2  1  0.708088  0.088424  0.875435  1
  Tm  Tm3  1  0.708196  0.911635  0.375502  1
  Tm  Tm4  1  0.588424  0.791912  0.875435  1
  Tm  Tm5  1  0.588365  0.208196  0.375502  1
  Tm  Tm6  1  0.411635  0.791804  0.375502  1
  Tm  Tm7  1  0.411576  0.208088  0.875435  1
  Tm  Tm8  1  0.203263  0.413897  0.627013  1
  Tm  Tm9  1  0.202613  0.586208  0.121304  1
  Tm  Tm10  1  0.797387  0.413792  0.121304  1
  Tm  Tm11  1  0.796737  0.586103  0.627013  1
  Tm  Tm12  1  0.913792  0.702613  0.121304  1
  Tm  Tm13  1  0.913897  0.296737  0.627013  1
  Tm  Tm14  1  0.086103  0.703263  0.627013  1
  Tm  Tm15  1  0.086208  0.297387  0.121304  1
  Tm  Tm16  1  0.000000  0.000000  0.502085  1
  Tm  Tm17  1  0.000000  0.000000  0.001680  1
  Tm  Tm18  1  0.500000  0.500000  0.001680  1
  Tm  Tm19  1  0.500000  0.500000  0.502085  1
  Co  Co20  1  0.000000  0.500000  0.880379  1
  Ir  Ir21  1  0.000000  0.500000  0.379350  1
  Pt  Pt22  1  0.845761  0.153130  0.250533  1
  Pt  Pt23  1  0.846265  0.846326  0.750213  1
  Pt  Pt24  1  0.153735  0.153674  0.750213  1
  Pt  Pt25  1  0.154239  0.846870  0.250533  1
  Pt  Pt26  1  0.653674  0.346265  0.750213  1
  Pt  Pt27  1  0.653130  0.654239  0.250533  1
  Pt  Pt28  1  0.346870  0.345761  0.250533  1
  Pt  Pt29  1  0.346326  0.653735  0.750213  1
  Pt  Pt30  1  0.500000  0.000000  0.116347  1
  Pt  Pt31  1  0.500000  0.000000  0.616385  1
