# generated using pymatgen
data_Sm6Mn3WC12
_symmetry_space_group_name_H-M   'P 1'
_cell_length_a   8.27221400
_cell_length_b   8.27221483
_cell_length_c   5.15325200
_cell_angle_alpha   90.00000000
_cell_angle_beta   90.00000000
_cell_angle_gamma   119.99998870
_symmetry_Int_Tables_number   1
_chemical_formula_structural   Sm6Mn3WC12
_chemical_formula_sum   'Sm6 Mn3 W1 C12'
_cell_volume   305.39057306
_cell_formula_units_Z   1
loop_
 _symmetry_equiv_pos_site_id
 _symmetry_equiv_pos_as_xyz
  1  'x, y, z'
loop_
 _atom_site_type_symbol
 _atom_site_label
 _atom_site_symmetry_multiplicity
 _atom_site_fract_x
 _atom_site_fract_y
 _atom_site_fract_z
 _atom_site_occupancy
  Sm  Sm0  1  0.616347  0.681997  0.750989  1
  Sm  Sm1  1  0.934349  0.616347  0.249011  1
  Sm  Sm2  1  0.681997  0.065651  0.249011  1
  Sm  Sm3  1  0.318003  0.934349  0.750989  1
  Sm  Sm4  1  0.065651  0.383653  0.750989  1
  Sm  Sm5  1  0.383653  0.318003  0.249011  1
  Mn  Mn6  1  0.000000  0.000000  0.000000  1
  Mn  Mn7  1  0.666667  0.333333  0.753893  1
  Mn  Mn8  1  0.333333  0.666667  0.246107  1
  W  W9  1  0.000000  0.000000  0.500000  1
  C  C10  1  0.959347  0.765289  0.744560  1
  C  C11  1  0.194057  0.959347  0.255440  1
  C  C12  1  0.765289  0.805943  0.255440  1
  C  C13  1  0.234711  0.194057  0.744560  1
  C  C14  1  0.805943  0.040653  0.744560  1
  C  C15  1  0.040653  0.234711  0.255440  1
  C  C16  1  0.860230  0.574011  0.750851  1
  C  C17  1  0.286218  0.860230  0.249149  1
  C  C18  1  0.574011  0.713782  0.249149  1
  C  C19  1  0.425989  0.286218  0.750851  1
  C  C20  1  0.139770  0.425989  0.249149  1
  C  C21  1  0.713782  0.139770  0.750851  1
