# generated using pymatgen
data_NdErMnIr3
_symmetry_space_group_name_H-M   'P 1'
_cell_length_a   5.21964046
_cell_length_b   5.21964077
_cell_length_c   5.21964121
_cell_angle_alpha   63.71114522
_cell_angle_beta   63.71114333
_cell_angle_gamma   63.71114026
_symmetry_Int_Tables_number   1
_chemical_formula_structural   NdErMnIr3
_chemical_formula_sum   'Nd1 Er1 Mn1 Ir3'
_cell_volume   108.79390567
_cell_formula_units_Z   1
loop_
 _symmetry_equiv_pos_site_id
 _symmetry_equiv_pos_as_xyz
  1  'x, y, z'
loop_
 _atom_site_type_symbol
 _atom_site_label
 _atom_site_symmetry_multiplicity
 _atom_site_fract_x
 _atom_site_fract_y
 _atom_site_fract_z
 _atom_site_occupancy
  Nd  Nd0  1  0.999867  0.999867  0.999867  1
  Er  Er1  1  0.251777  0.251777  0.251777  1
  Mn  Mn2  1  0.624665  0.624665  0.624665  1
  Ir  Ir3  1  0.623976  0.623976  0.125738  1
  Ir  Ir4  1  0.623976  0.125738  0.623976  1
  Ir  Ir5  1  0.125738  0.623976  0.623976  1
