# generated using pymatgen
data_RbLa3(SbAu)4
_symmetry_space_group_name_H-M   'P 1'
_cell_length_a   4.73518000
_cell_length_b   4.73517985
_cell_length_c   18.17510500
_cell_angle_alpha   90.00000000
_cell_angle_beta   90.00000000
_cell_angle_gamma   120.00000104
_symmetry_Int_Tables_number   1
_chemical_formula_structural   RbLa3(SbAu)4
_chemical_formula_sum   'Rb1 La3 Sb4 Au4'
_cell_volume   352.92345919
_cell_formula_units_Z   1
loop_
 _symmetry_equiv_pos_site_id
 _symmetry_equiv_pos_as_xyz
  1  'x, y, z'
loop_
 _atom_site_type_symbol
 _atom_site_label
 _atom_site_symmetry_multiplicity
 _atom_site_fract_x
 _atom_site_fract_y
 _atom_site_fract_z
 _atom_site_occupancy
  Rb  Rb0  1  0.000000  0.000000  0.250000  1
  La  La1  1  0.000000  0.000000  0.513095  1
  La  La2  1  0.000000  0.000000  0.986905  1
  La  La3  1  0.000000  0.000000  0.750000  1
  Sb  Sb4  1  0.333333  0.666667  0.396581  1
  Sb  Sb5  1  0.666667  0.333333  0.619417  1
  Sb  Sb6  1  0.666667  0.333333  0.880583  1
  Sb  Sb7  1  0.333333  0.666667  0.103419  1
  Au  Au8  1  0.666667  0.333333  0.416768  1
  Au  Au9  1  0.333333  0.666667  0.665128  1
  Au  Au10  1  0.333333  0.666667  0.834872  1
  Au  Au11  1  0.666667  0.333333  0.083232  1
