# generated using pymatgen
data_PrLu2Ni2Rh7
_symmetry_space_group_name_H-M   'P 1'
_cell_length_a   5.25071530
_cell_length_b   5.25071471
_cell_length_c   8.90889100
_cell_angle_alpha   72.86107483
_cell_angle_beta   72.86107681
_cell_angle_gamma   60.00001402
_symmetry_Int_Tables_number   1
_chemical_formula_structural   PrLu2Ni2Rh7
_chemical_formula_sum   'Pr1 Lu2 Ni2 Rh7'
_cell_volume   200.01801770
_cell_formula_units_Z   1
loop_
 _symmetry_equiv_pos_site_id
 _symmetry_equiv_pos_as_xyz
  1  'x, y, z'
loop_
 _atom_site_type_symbol
 _atom_site_label
 _atom_site_symmetry_multiplicity
 _atom_site_fract_x
 _atom_site_fract_y
 _atom_site_fract_z
 _atom_site_occupancy
  Pr  Pr0  1  0.000000  0.000000  0.000000  1
  Lu  Lu1  1  0.140486  0.140486  0.578541  1
  Lu  Lu2  1  0.859514  0.859514  0.421459  1
  Ni  Ni3  1  0.333433  0.333433  0.999701  1
  Ni  Ni4  1  0.666567  0.666567  0.000299  1
  Rh  Rh5  1  0.078607  0.582856  0.755683  1
  Rh  Rh6  1  0.582856  0.582856  0.755683  1
  Rh  Rh7  1  0.582856  0.078607  0.755683  1
  Rh  Rh8  1  0.921393  0.417144  0.244317  1
  Rh  Rh9  1  0.417144  0.417144  0.244317  1
  Rh  Rh10  1  0.417144  0.921393  0.244317  1
  Rh  Rh11  1  0.500000  0.500000  0.500000  1
