# generated using pymatgen
data_TbHoCdIn
_symmetry_space_group_name_H-M   'P 1'
_cell_length_a   5.30585146
_cell_length_b   5.30585101
_cell_length_c   5.30585100
_cell_angle_alpha   59.99999385
_cell_angle_beta   59.99999665
_cell_angle_gamma   59.99999857
_symmetry_Int_Tables_number   1
_chemical_formula_structural   TbHoCdIn
_chemical_formula_sum   'Tb1 Ho1 Cd1 In1'
_cell_volume   105.62097079
_cell_formula_units_Z   1
loop_
 _symmetry_equiv_pos_site_id
 _symmetry_equiv_pos_as_xyz
  1  'x, y, z'
loop_
 _atom_site_type_symbol
 _atom_site_label
 _atom_site_symmetry_multiplicity
 _atom_site_fract_x
 _atom_site_fract_y
 _atom_site_fract_z
 _atom_site_occupancy
  Tb  Tb0  1  0.250000  0.250000  0.250000  1
  Ho  Ho1  1  0.750000  0.750000  0.750000  1
  Cd  Cd2  1  0.500000  0.500000  0.500000  1
  In  In3  1  0.000000  0.000000  0.000000  1
