# generated using pymatgen
data_Ga3NiRh4
_symmetry_space_group_name_H-M   'P 1'
_cell_length_a   5.23183339
_cell_length_b   5.23183349
_cell_length_c   4.24373900
_cell_angle_alpha   90.00000000
_cell_angle_beta   90.00000000
_cell_angle_gamma   109.01660514
_symmetry_Int_Tables_number   1
_chemical_formula_structural   Ga3NiRh4
_chemical_formula_sum   'Ga3 Ni1 Rh4'
_cell_volume   109.82044281
_cell_formula_units_Z   1
loop_
 _symmetry_equiv_pos_site_id
 _symmetry_equiv_pos_as_xyz
  1  'x, y, z'
loop_
 _atom_site_type_symbol
 _atom_site_label
 _atom_site_symmetry_multiplicity
 _atom_site_fract_x
 _atom_site_fract_y
 _atom_site_fract_z
 _atom_site_occupancy
  Ga  Ga0  1  0.000000  0.000000  0.000000  1
  Ga  Ga1  1  0.736598  0.263402  0.500000  1
  Ga  Ga2  1  0.263402  0.736598  0.500000  1
  Ni  Ni3  1  0.500000  0.500000  0.000000  1
  Rh  Rh4  1  0.500000  0.000000  0.000000  1
  Rh  Rh5  1  0.000000  0.500000  0.000000  1
  Rh  Rh6  1  0.758181  0.758181  0.500000  1
  Rh  Rh7  1  0.241819  0.241819  0.500000  1
