# generated using pymatgen
data_Cs4P2PbSe8
_symmetry_space_group_name_H-M   'P 1'
_cell_length_a   9.91690776
_cell_length_b   10.13067347
_cell_length_c   12.21275400
_cell_angle_alpha   106.10276552
_cell_angle_beta   103.23348694
_cell_angle_gamma   93.86011906
_symmetry_Int_Tables_number   1
_chemical_formula_structural   Cs4P2PbSe8
_chemical_formula_sum   'Cs8 P4 Pb2 Se16'
_cell_volume   1136.23180572
_cell_formula_units_Z   2
loop_
 _symmetry_equiv_pos_site_id
 _symmetry_equiv_pos_as_xyz
  1  'x, y, z'
loop_
 _atom_site_type_symbol
 _atom_site_label
 _atom_site_symmetry_multiplicity
 _atom_site_fract_x
 _atom_site_fract_y
 _atom_site_fract_z
 _atom_site_occupancy
  Cs  Cs0  1  0.932275  0.510883  0.249536  1
  Cs  Cs1  1  0.067725  0.489117  0.750464  1
  Cs  Cs2  1  0.767747  0.990788  0.471760  1
  Cs  Cs3  1  0.232253  0.009212  0.528240  1
  Cs  Cs4  1  0.590985  0.742309  0.025513  1
  Cs  Cs5  1  0.409015  0.257691  0.974487  1
  Cs  Cs6  1  0.615167  0.681424  0.612878  1
  Cs  Cs7  1  0.384833  0.318576  0.387122  1
  P  P8  1  0.949464  0.114698  0.236816  1
  P  P9  1  0.050536  0.885302  0.763184  1
  P  P10  1  0.372732  0.676974  0.260140  1
  P  P11  1  0.627268  0.323026  0.739860  1
  Pb  Pb12  1  0.846034  0.138693  0.924399  1
  Pb  Pb13  1  0.153966  0.861307  0.075601  1
  Se  Se14  1  0.954894  0.893313  0.234970  1
  Se  Se15  1  0.045106  0.106687  0.765030  1
  Se  Se16  1  0.577979  0.098628  0.732046  1
  Se  Se17  1  0.422021  0.901372  0.267954  1
  Se  Se18  1  0.283928  0.662976  0.407012  1
  Se  Se19  1  0.716072  0.337024  0.592988  1
  Se  Se20  1  0.785644  0.429700  0.912766  1
  Se  Se21  1  0.214356  0.570300  0.087234  1
  Se  Se22  1  0.012403  0.254837  0.417751  1
  Se  Se23  1  0.987597  0.745163  0.582249  1
  Se  Se24  1  0.099507  0.171955  0.137352  1
  Se  Se25  1  0.900493  0.828045  0.862648  1
  Se  Se26  1  0.734536  0.139545  0.146074  1
  Se  Se27  1  0.265464  0.860455  0.853926  1
  Se  Se28  1  0.565905  0.578174  0.266958  1
  Se  Se29  1  0.434095  0.421826  0.733042  1
