# generated using pymatgen
data_LiSmHoAs2
_symmetry_space_group_name_H-M   'P 1'
_cell_length_a   4.20714600
_cell_length_b   4.20714486
_cell_length_c   14.31807400
_cell_angle_alpha   90.00000000
_cell_angle_beta   90.00000000
_cell_angle_gamma   120.00000894
_symmetry_Int_Tables_number   1
_chemical_formula_structural   LiSmHoAs2
_chemical_formula_sum   'Li2 Sm2 Ho2 As4'
_cell_volume   219.47762140
_cell_formula_units_Z   2
loop_
 _symmetry_equiv_pos_site_id
 _symmetry_equiv_pos_as_xyz
  1  'x, y, z'
loop_
 _atom_site_type_symbol
 _atom_site_label
 _atom_site_symmetry_multiplicity
 _atom_site_fract_x
 _atom_site_fract_y
 _atom_site_fract_z
 _atom_site_occupancy
  Li  Li0  1  0.000000  0.000000  0.747964  1
  Li  Li1  1  0.000000  0.000000  0.247964  1
  Sm  Sm2  1  0.666667  0.333333  0.389274  1
  Sm  Sm3  1  0.333333  0.666667  0.889274  1
  Ho  Ho4  1  0.333333  0.666667  0.610894  1
  Ho  Ho5  1  0.666667  0.333333  0.110894  1
  As  As6  1  0.333333  0.666667  0.247286  1
  As  As7  1  0.000000  0.000000  0.004581  1
  As  As8  1  0.000000  0.000000  0.504581  1
  As  As9  1  0.666667  0.333333  0.747286  1
