# generated using pymatgen
data_Yb2Al20Os3Pd
_symmetry_space_group_name_H-M   'P 1'
_cell_length_a   6.88754941
_cell_length_b   6.89307987
_cell_length_c   9.16198781
_cell_angle_alpha   90.34963116
_cell_angle_beta   90.18120219
_cell_angle_gamma   96.62702994
_symmetry_Int_Tables_number   1
_chemical_formula_structural   Yb2Al20Os3Pd
_chemical_formula_sum   'Yb2 Al20 Os3 Pd1'
_cell_volume   432.06080039
_cell_formula_units_Z   1
loop_
 _symmetry_equiv_pos_site_id
 _symmetry_equiv_pos_as_xyz
  1  'x, y, z'
loop_
 _atom_site_type_symbol
 _atom_site_label
 _atom_site_symmetry_multiplicity
 _atom_site_fract_x
 _atom_site_fract_y
 _atom_site_fract_z
 _atom_site_occupancy
  Yb  Yb0  1  0.628765  0.375363  0.748680  1
  Yb  Yb1  1  0.371235  0.624637  0.251320  1
  Al  Al2  1  0.276742  0.019896  0.744064  1
  Al  Al3  1  0.019739  0.282289  0.249479  1
  Al  Al4  1  0.723258  0.980104  0.255936  1
  Al  Al5  1  0.980261  0.717711  0.750521  1
  Al  Al6  1  0.881976  0.125489  0.951408  1
  Al  Al7  1  0.118024  0.874511  0.048592  1
  Al  Al8  1  0.877001  0.124430  0.544673  1
  Al  Al9  1  0.122999  0.875570  0.455327  1
  Al  Al10  1  0.647690  0.915408  0.747830  1
  Al  Al11  1  0.915380  0.644308  0.251094  1
  Al  Al12  1  0.352310  0.084592  0.252170  1
  Al  Al13  1  0.084620  0.355692  0.748906  1
  Al  Al14  1  0.340652  0.653675  0.895858  1
  Al  Al15  1  0.659348  0.346325  0.104142  1
  Al  Al16  1  0.344814  0.657002  0.598923  1
  Al  Al17  1  0.655186  0.342998  0.401077  1
  Al  Al18  1  0.725790  0.721573  0.997380  1
  Al  Al19  1  0.722142  0.720929  0.500800  1
  Al  Al20  1  0.274210  0.278427  0.002620  1
  Al  Al21  1  0.277858  0.279071  0.499200  1
  Os  Os22  1  0.000000  0.500000  0.000000  1
  Os  Os23  1  0.500000  0.000000  0.500000  1
  Os  Os24  1  0.000000  0.500000  0.500000  1
  Pd  Pd25  1  0.500000  0.000000  0.000000  1
