# generated using pymatgen
data_Sm2Er2Ga4PdRu3
_symmetry_space_group_name_H-M   'P 1'
_cell_length_a   4.55023800
_cell_length_b   7.18167190
_cell_length_c   7.21859669
_cell_angle_alpha   90.67138860
_cell_angle_beta   90.00000000
_cell_angle_gamma   90.00000000
_symmetry_Int_Tables_number   1
_chemical_formula_structural   Sm2Er2Ga4PdRu3
_chemical_formula_sum   'Sm2 Er2 Ga4 Pd1 Ru3'
_cell_volume   235.87539125
_cell_formula_units_Z   1
loop_
 _symmetry_equiv_pos_site_id
 _symmetry_equiv_pos_as_xyz
  1  'x, y, z'
loop_
 _atom_site_type_symbol
 _atom_site_label
 _atom_site_symmetry_multiplicity
 _atom_site_fract_x
 _atom_site_fract_y
 _atom_site_fract_z
 _atom_site_occupancy
  Sm  Sm0  1  0.250000  0.016007  0.313155  1
  Sm  Sm1  1  0.250000  0.515884  0.193506  1
  Er  Er2  1  0.750000  0.971924  0.696363  1
  Er  Er3  1  0.750000  0.486924  0.794837  1
  Ga  Ga4  1  0.250000  0.699920  0.604361  1
  Ga  Ga5  1  0.250000  0.188151  0.878559  1
  Ga  Ga6  1  0.750000  0.299285  0.411359  1
  Ga  Ga7  1  0.750000  0.802209  0.101852  1
  Pd  Pd8  1  0.750000  0.172014  0.063779  1
  Ru  Ru9  1  0.250000  0.346986  0.568188  1
  Ru  Ru10  1  0.250000  0.838752  0.935519  1
  Ru  Ru11  1  0.750000  0.661942  0.438522  1
