# generated using pymatgen
data_YbTa2Bi2O9
_symmetry_space_group_name_H-M   'P 1'
_cell_length_a   13.05725001
_cell_length_b   13.05724939
_cell_length_c   5.44915000
_cell_angle_alpha   90.00000000
_cell_angle_beta   90.00000000
_cell_angle_gamma   155.71131724
_symmetry_Int_Tables_number   1
_chemical_formula_structural   YbTa2Bi2O9
_chemical_formula_sum   'Yb2 Ta4 Bi4 O18'
_cell_volume   382.14408016
_cell_formula_units_Z   2
loop_
 _symmetry_equiv_pos_site_id
 _symmetry_equiv_pos_as_xyz
  1  'x, y, z'
loop_
 _atom_site_type_symbol
 _atom_site_label
 _atom_site_symmetry_multiplicity
 _atom_site_fract_x
 _atom_site_fract_y
 _atom_site_fract_z
 _atom_site_occupancy
  Yb  Yb0  1  0.035059  0.035059  0.000000  1
  Yb  Yb1  1  0.535059  0.535059  0.500000  1
  Ta  Ta2  1  0.936316  0.099311  0.502960  1
  Ta  Ta3  1  0.099311  0.936316  0.497040  1
  Ta  Ta4  1  0.436316  0.599311  0.997040  1
  Ta  Ta5  1  0.599311  0.436316  0.002960  1
  Bi  Bi6  1  0.730236  0.128966  0.983300  1
  Bi  Bi7  1  0.128966  0.730236  0.016700  1
  Bi  Bi8  1  0.628966  0.230236  0.483300  1
  Bi  Bi9  1  0.230236  0.628966  0.516700  1
  O  O10  1  0.188057  0.876220  0.467306  1
  O  O11  1  0.961634  0.460156  0.256855  1
  O  O12  1  0.460156  0.961634  0.743145  1
  O  O13  1  0.688057  0.376220  0.032694  1
  O  O14  1  0.510347  0.510347  0.000000  1
  O  O15  1  0.010347  0.010347  0.500000  1
  O  O16  1  0.639226  0.789198  0.304767  1
  O  O17  1  0.789198  0.639226  0.695233  1
  O  O18  1  0.255478  0.396496  0.691608  1
  O  O19  1  0.960156  0.461634  0.756855  1
  O  O20  1  0.755478  0.896496  0.808392  1
  O  O21  1  0.289198  0.139226  0.804767  1
  O  O22  1  0.896496  0.755478  0.191608  1
  O  O23  1  0.139226  0.289198  0.195233  1
  O  O24  1  0.376220  0.688057  0.967306  1
  O  O25  1  0.396496  0.255478  0.308392  1
  O  O26  1  0.876220  0.188057  0.532694  1
  O  O27  1  0.461634  0.960156  0.243145  1
