# generated using pymatgen
data_Tb2Pr8Si5Sn
_symmetry_space_group_name_H-M   'P 1'
_cell_length_a   7.75177142
_cell_length_b   7.75177222
_cell_length_c   9.20119810
_cell_angle_alpha   114.91273080
_cell_angle_beta   114.91272592
_cell_angle_gamma   89.99999449
_symmetry_Int_Tables_number   1
_chemical_formula_structural   Tb2Pr8Si5Sn
_chemical_formula_sum   'Tb2 Pr8 Si5 Sn1'
_cell_volume   444.08491667
_cell_formula_units_Z   1
loop_
 _symmetry_equiv_pos_site_id
 _symmetry_equiv_pos_as_xyz
  1  'x, y, z'
loop_
 _atom_site_type_symbol
 _atom_site_label
 _atom_site_symmetry_multiplicity
 _atom_site_fract_x
 _atom_site_fract_y
 _atom_site_fract_z
 _atom_site_occupancy
  Tb  Tb0  1  0.515911  0.515911  0.031824  1
  Tb  Tb1  1  0.984089  0.984089  0.968176  1
  Pr  Pr2  1  0.973798  0.827692  0.281344  1
  Pr  Pr3  1  0.307546  0.453651  0.281344  1
  Pr  Pr4  1  0.827692  0.307546  0.281344  1
  Pr  Pr5  1  0.453651  0.973798  0.281344  1
  Pr  Pr6  1  0.046349  0.192454  0.718656  1
  Pr  Pr7  1  0.672308  0.526202  0.718656  1
  Pr  Pr8  1  0.192454  0.672308  0.718656  1
  Pr  Pr9  1  0.526202  0.046349  0.718656  1
  Si  Si10  1  0.250000  0.250000  0.500000  1
  Si  Si11  1  0.618043  0.881957  0.000000  1
  Si  Si12  1  0.381957  0.118043  0.000000  1
  Si  Si13  1  0.881957  0.381957  0.000000  1
  Si  Si14  1  0.118043  0.618043  0.000000  1
  Sn  Sn15  1  0.750000  0.750000  0.500000  1
