# generated using pymatgen
data_Nd6Ni17P13PtW2
_symmetry_space_group_name_H-M   'P 1'
_cell_length_a   12.95404620
_cell_length_b   12.95274162
_cell_length_c   3.86043400
_cell_angle_alpha   90.00000000
_cell_angle_beta   90.00000000
_cell_angle_gamma   120.15385114
_symmetry_Int_Tables_number   1
_chemical_formula_structural   Nd6Ni17P13PtW2
_chemical_formula_sum   'Nd6 Ni17 P13 Pt1 W2'
_cell_volume   560.09091528
_cell_formula_units_Z   1
loop_
 _symmetry_equiv_pos_site_id
 _symmetry_equiv_pos_as_xyz
  1  'x, y, z'
loop_
 _atom_site_type_symbol
 _atom_site_label
 _atom_site_symmetry_multiplicity
 _atom_site_fract_x
 _atom_site_fract_y
 _atom_site_fract_z
 _atom_site_occupancy
  Nd  Nd0  1  0.800343  0.949172  0.000000  1
  Nd  Nd1  1  0.050991  0.851401  0.000000  1
  Nd  Nd2  1  0.150875  0.203242  0.000000  1
  Nd  Nd3  1  0.518974  0.135505  0.500000  1
  Nd  Nd4  1  0.864424  0.383298  0.500000  1
  Nd  Nd5  1  0.616179  0.481953  0.500000  1
  Ni  Ni6  1  0.529303  0.771812  0.000000  1
  Ni  Ni7  1  0.226255  0.756545  0.000000  1
  Ni  Ni8  1  0.245177  0.471579  0.000000  1
  Ni  Ni9  1  0.413301  0.597013  0.500000  1
  Ni  Ni10  1  0.665934  0.333441  0.000000  1
  Ni  Ni11  1  0.769682  0.687911  0.000000  1
  Ni  Ni12  1  0.313579  0.084575  0.000000  1
  Ni  Ni13  1  0.916036  0.229902  0.000000  1
  Ni  Ni14  1  0.643613  0.735184  0.500000  1
  Ni  Ni15  1  0.259543  0.908605  0.500000  1
  Ni  Ni16  1  0.092030  0.350663  0.500000  1
  Ni  Ni17  1  0.359754  0.257863  0.500000  1
  Ni  Ni18  1  0.741337  0.101923  0.500000  1
  Ni  Ni19  1  0.898521  0.639225  0.500000  1
  Ni  Ni20  1  0.571214  0.982469  0.000000  1
  Ni  Ni21  1  0.018147  0.587797  0.000000  1
  Ni  Ni22  1  0.413168  0.426954  0.000000  1
  P  P23  1  0.845487  0.789001  0.500000  1
  P  P24  1  0.209475  0.056649  0.500000  1
  P  P25  1  0.943854  0.153461  0.500000  1
  P  P26  1  0.612118  0.899804  0.500000  1
  P  P27  1  0.099054  0.710457  0.500000  1
  P  P28  1  0.294226  0.395689  0.500000  1
  P  P29  1  0.468750  0.283313  0.000000  1
  P  P30  1  0.717042  0.186335  0.000000  1
  P  P31  1  0.812653  0.531029  0.000000  1
  P  P32  1  0.377880  0.945899  0.000000  1
  P  P33  1  0.054732  0.431134  0.000000  1
  P  P34  1  0.568171  0.622440  0.000000  1
  P  P35  1  0.335061  0.666246  0.000000  1
  Pt  Pt36  1  0.999707  0.999783  0.500000  1
  W  W37  1  0.400313  0.816726  0.500000  1
  W  W38  1  0.183096  0.584003  0.500000  1
