# generated using pymatgen
data_Tb4Al16Ga2CuRh5
_symmetry_space_group_name_H-M   'P 1'
_cell_length_a   7.55997647
_cell_length_b   7.55997707
_cell_length_c   9.48687907
_cell_angle_alpha   90.08597739
_cell_angle_beta   90.08597123
_cell_angle_gamma   119.42465157
_symmetry_Int_Tables_number   1
_chemical_formula_structural   Tb4Al16Ga2CuRh5
_chemical_formula_sum   'Tb4 Al16 Ga2 Cu1 Rh5'
_cell_volume   472.26066602
_cell_formula_units_Z   1
loop_
 _symmetry_equiv_pos_site_id
 _symmetry_equiv_pos_as_xyz
  1  'x, y, z'
loop_
 _atom_site_type_symbol
 _atom_site_label
 _atom_site_symmetry_multiplicity
 _atom_site_fract_x
 _atom_site_fract_y
 _atom_site_fract_z
 _atom_site_occupancy
  Tb  Tb0  1  0.994437  0.674843  0.249545  1
  Tb  Tb1  1  0.005563  0.325157  0.750455  1
  Tb  Tb2  1  0.674843  0.994437  0.249545  1
  Tb  Tb3  1  0.325157  0.005563  0.750455  1
  Al  Al4  1  0.001464  0.339310  0.076607  1
  Al  Al5  1  0.998536  0.660690  0.923393  1
  Al  Al6  1  0.999193  0.664565  0.573782  1
  Al  Al7  1  0.335435  0.000807  0.426218  1
  Al  Al8  1  0.000807  0.335435  0.426218  1
  Al  Al9  1  0.664565  0.999193  0.573782  1
  Al  Al10  1  0.660690  0.998536  0.923393  1
  Al  Al11  1  0.339310  0.001464  0.076607  1
  Al  Al12  1  0.333764  0.333764  0.552083  1
  Al  Al13  1  0.666236  0.666236  0.447917  1
  Al  Al14  1  0.662879  0.662879  0.053653  1
  Al  Al15  1  0.337121  0.337121  0.946347  1
  Al  Al16  1  0.337640  0.550080  0.250438  1
  Al  Al17  1  0.662360  0.449920  0.749562  1
  Al  Al18  1  0.550080  0.337640  0.250438  1
  Al  Al19  1  0.449920  0.662360  0.749562  1
  Ga  Ga20  1  0.132504  0.132504  0.249319  1
  Ga  Ga21  1  0.867496  0.867496  0.750681  1
  Cu  Cu22  1  0.000000  0.000000  0.000000  1
  Rh  Rh23  1  0.671478  0.328522  0.000000  1
  Rh  Rh24  1  0.328522  0.671478  0.000000  1
  Rh  Rh25  1  0.328499  0.671501  0.500000  1
  Rh  Rh26  1  0.671501  0.328499  0.500000  1
  Rh  Rh27  1  0.000000  0.000000  0.500000  1
