# generated using pymatgen
data_Pr8Nb(RuO8)3
_symmetry_space_group_name_H-M   'P 1'
_cell_length_a   10.29298412
_cell_length_b   10.25331767
_cell_length_c   5.66314038
_cell_angle_alpha   75.13782801
_cell_angle_beta   74.96362813
_cell_angle_gamma   69.18743414
_symmetry_Int_Tables_number   1
_chemical_formula_structural   Pr8Nb(RuO8)3
_chemical_formula_sum   'Pr8 Nb1 Ru3 O24'
_cell_volume   530.53156510
_cell_formula_units_Z   1
loop_
 _symmetry_equiv_pos_site_id
 _symmetry_equiv_pos_as_xyz
  1  'x, y, z'
loop_
 _atom_site_type_symbol
 _atom_site_label
 _atom_site_symmetry_multiplicity
 _atom_site_fract_x
 _atom_site_fract_y
 _atom_site_fract_z
 _atom_site_occupancy
  Pr  Pr0  1  0.628442  0.374319  0.740214  1
  Pr  Pr1  1  0.371506  0.640502  0.239783  1
  Pr  Pr2  1  0.112293  0.890582  0.753440  1
  Pr  Pr3  1  0.892871  0.107771  0.252336  1
  Pr  Pr4  1  0.710317  0.934288  0.877761  1
  Pr  Pr5  1  0.291909  0.055162  0.124844  1
  Pr  Pr6  1  0.066098  0.286239  0.627645  1
  Pr  Pr7  1  0.931603  0.715738  0.379961  1
  Nb  Nb8  1  0.508363  0.798049  0.557417  1
  Ru  Ru9  1  0.498413  0.200651  0.445468  1
  Ru  Ru10  1  0.199992  0.498786  0.954715  1
  Ru  Ru11  1  0.798823  0.500324  0.047866  1
  O  O12  1  0.684708  0.163997  0.585785  1
  O  O13  1  0.305734  0.839038  0.416808  1
  O  O14  1  0.835240  0.313489  0.909043  1
  O  O15  1  0.161054  0.684191  0.090839  1
  O  O16  1  0.380831  0.828337  0.870206  1
  O  O17  1  0.613559  0.177220  0.148547  1
  O  O18  1  0.170785  0.611402  0.658445  1
  O  O19  1  0.828754  0.384837  0.344442  1
  O  O20  1  0.684326  0.787804  0.626517  1
  O  O21  1  0.328118  0.215335  0.369411  1
  O  O22  1  0.215760  0.327482  0.874165  1
  O  O23  1  0.784210  0.670129  0.131060  1
  O  O24  1  0.473251  0.069911  0.724676  1
  O  O25  1  0.525879  0.930192  0.247816  1
  O  O26  1  0.928979  0.525569  0.767589  1
  O  O27  1  0.071944  0.471271  0.237747  1
  O  O28  1  0.538489  0.610668  0.518752  1
  O  O29  1  0.456131  0.381853  0.479986  1
  O  O30  1  0.381743  0.457588  0.984008  1
  O  O31  1  0.617844  0.541999  0.011986  1
  O  O32  1  0.888182  0.923400  0.074989  1
  O  O33  1  0.107422  0.078961  0.928583  1
  O  O34  1  0.077655  0.112032  0.427138  1
  O  O35  1  0.928769  0.890884  0.570013  1
