# generated using pymatgen
data_Er3Sc3Bi2W
_symmetry_space_group_name_H-M   'P 1'
_cell_length_a   7.94992700
_cell_length_b   7.94992647
_cell_length_c   4.29479100
_cell_angle_alpha   90.00000000
_cell_angle_beta   90.00000000
_cell_angle_gamma   119.99998970
_symmetry_Int_Tables_number   1
_chemical_formula_structural   Er3Sc3Bi2W
_chemical_formula_sum   'Er3 Sc3 Bi2 W1'
_cell_volume   235.07095083
_cell_formula_units_Z   1
loop_
 _symmetry_equiv_pos_site_id
 _symmetry_equiv_pos_as_xyz
  1  'x, y, z'
loop_
 _atom_site_type_symbol
 _atom_site_label
 _atom_site_symmetry_multiplicity
 _atom_site_fract_x
 _atom_site_fract_y
 _atom_site_fract_z
 _atom_site_occupancy
  Er  Er0  1  0.000000  0.611445  0.500000  1
  Er  Er1  1  0.388555  0.388555  0.500000  1
  Er  Er2  1  0.611445  0.000000  0.500000  1
  Sc  Sc3  1  0.228236  0.000000  0.000000  1
  Sc  Sc4  1  0.771764  0.771764  0.000000  1
  Sc  Sc5  1  0.000000  0.228236  0.000000  1
  Bi  Bi6  1  0.333333  0.666667  0.000000  1
  Bi  Bi7  1  0.666667  0.333333  0.000000  1
  W  W8  1  0.000000  0.000000  0.500000  1
