# generated using pymatgen
data_TmZnInNi3
_symmetry_space_group_name_H-M   'P 1'
_cell_length_a   5.08482917
_cell_length_b   4.98351170
_cell_length_c   5.08482900
_cell_angle_alpha   59.32515561
_cell_angle_beta   59.99999463
_cell_angle_gamma   59.32515359
_symmetry_Int_Tables_number   1
_chemical_formula_structural   TmZnInNi3
_chemical_formula_sum   'Tm1 Zn1 In1 Ni3'
_cell_volume   90.17104741
_cell_formula_units_Z   1
loop_
 _symmetry_equiv_pos_site_id
 _symmetry_equiv_pos_as_xyz
  1  'x, y, z'
loop_
 _atom_site_type_symbol
 _atom_site_label
 _atom_site_symmetry_multiplicity
 _atom_site_fract_x
 _atom_site_fract_y
 _atom_site_fract_z
 _atom_site_occupancy
  Tm  Tm0  1  0.751709  0.744872  0.751709  1
  Zn  Zn1  1  0.374980  0.875059  0.374980  1
  In  In2  1  0.000042  0.999875  0.000042  1
  Ni  Ni3  1  0.373295  0.376731  0.373295  1
  Ni  Ni4  1  0.876679  0.376731  0.373295  1
  Ni  Ni5  1  0.373295  0.376731  0.876679  1
