# generated using pymatgen
data_Th3Pt3Rh2
_symmetry_space_group_name_H-M   'P 1'
_cell_length_a   7.20792478
_cell_length_b   7.20792409
_cell_length_c   3.92180100
_cell_angle_alpha   90.00000000
_cell_angle_beta   90.00000000
_cell_angle_gamma   121.05380429
_symmetry_Int_Tables_number   1
_chemical_formula_structural   Th3Pt3Rh2
_chemical_formula_sum   'Th3 Pt3 Rh2'
_cell_volume   174.55258660
_cell_formula_units_Z   1
loop_
 _symmetry_equiv_pos_site_id
 _symmetry_equiv_pos_as_xyz
  1  'x, y, z'
loop_
 _atom_site_type_symbol
 _atom_site_label
 _atom_site_symmetry_multiplicity
 _atom_site_fract_x
 _atom_site_fract_y
 _atom_site_fract_z
 _atom_site_occupancy
  Th  Th0  1  0.657976  0.010187  0.500000  1
  Th  Th1  1  0.010187  0.657976  0.500000  1
  Th  Th2  1  0.338133  0.338133  0.500000  1
  Pt  Pt3  1  0.772676  0.772676  0.000000  1
  Pt  Pt4  1  0.334201  0.665493  0.000000  1
  Pt  Pt5  1  0.665493  0.334201  0.000000  1
  Rh  Rh6  1  0.222337  0.998998  0.000000  1
  Rh  Rh7  1  0.998998  0.222337  0.000000  1
