# generated using pymatgen
data_DyLu4Mn2P12Ir17
_symmetry_space_group_name_H-M   'P 1'
_cell_length_a   12.60450800
_cell_length_b   12.69298400
_cell_length_c   3.94327700
_cell_angle_alpha   90.00000000
_cell_angle_beta   90.00000000
_cell_angle_gamma   119.76968552
_symmetry_Int_Tables_number   1
_chemical_formula_structural   DyLu4Mn2P12Ir17
_chemical_formula_sum   'Dy1 Lu4 Mn2 P12 Ir17'
_cell_volume   547.62187552
_cell_formula_units_Z   1
loop_
 _symmetry_equiv_pos_site_id
 _symmetry_equiv_pos_as_xyz
  1  'x, y, z'
loop_
 _atom_site_type_symbol
 _atom_site_label
 _atom_site_symmetry_multiplicity
 _atom_site_fract_x
 _atom_site_fract_y
 _atom_site_fract_z
 _atom_site_occupancy
  Dy  Dy0  1  0.813707  0.000000  0.000000  1
  Lu  Lu1  1  0.332556  0.663452  0.500000  1
  Lu  Lu2  1  0.669104  0.336548  0.500000  1
  Lu  Lu3  1  0.999893  0.811690  0.000000  1
  Lu  Lu4  1  0.188203  0.188310  0.000000  1
  Mn  Mn5  1  0.999482  0.458006  0.500000  1
  Mn  Mn6  1  0.541477  0.541994  0.500000  1
  P  P7  1  0.999941  0.636148  0.500000  1
  P  P8  1  0.363792  0.363852  0.500000  1
  P  P9  1  0.643818  0.000000  0.500000  1
  P  P10  1  0.515094  0.683946  0.000000  1
  P  P11  1  0.309321  0.824133  0.000000  1
  P  P12  1  0.167133  0.481874  0.000000  1
  P  P13  1  0.485188  0.175867  0.000000  1
  P  P14  1  0.685257  0.518126  0.000000  1
  P  P15  1  0.831149  0.316054  0.000000  1
  P  P16  1  0.000472  0.177773  0.500000  1
  P  P17  1  0.822698  0.822227  0.500000  1
  P  P18  1  0.179208  0.000000  0.500000  1
  Ir  Ir19  1  0.504699  0.864702  0.000000  1
  Ir  Ir20  1  0.130273  0.638518  0.000000  1
  Ir  Ir21  1  0.358169  0.492830  0.000000  1
  Ir  Ir22  1  0.491756  0.361482  0.000000  1
  Ir  Ir23  1  0.865340  0.507170  0.000000  1
  Ir  Ir24  1  0.639997  0.135298  0.000000  1
  Ir  Ir25  1  0.462148  0.000000  0.500000  1
  Ir  Ir26  1  0.998533  0.282638  0.000000  1
  Ir  Ir27  1  0.715895  0.717362  0.000000  1
  Ir  Ir28  1  0.286620  0.000000  0.000000  1
  Ir  Ir29  1  0.621746  0.803691  0.500000  1
  Ir  Ir30  1  0.196641  0.820947  0.500000  1
  Ir  Ir31  1  0.178648  0.372084  0.500000  1
  Ir  Ir32  1  0.375693  0.179053  0.500000  1
  Ir  Ir33  1  0.806563  0.627916  0.500000  1
  Ir  Ir34  1  0.818054  0.196309  0.500000  1
  Ir  Ir35  1  0.001732  0.000000  0.500000  1
