# generated using pymatgen
data_Ce3TiCuSe7
_symmetry_space_group_name_H-M   'P 1'
_cell_length_a   10.32544300
_cell_length_b   10.32563861
_cell_length_c   6.44958800
_cell_angle_alpha   90.00000000
_cell_angle_beta   90.00000000
_cell_angle_gamma   120.00041451
_symmetry_Int_Tables_number   1
_chemical_formula_structural   Ce3TiCuSe7
_chemical_formula_sum   'Ce6 Ti2 Cu2 Se14'
_cell_volume   595.50636154
_cell_formula_units_Z   2
loop_
 _symmetry_equiv_pos_site_id
 _symmetry_equiv_pos_as_xyz
  1  'x, y, z'
loop_
 _atom_site_type_symbol
 _atom_site_label
 _atom_site_symmetry_multiplicity
 _atom_site_fract_x
 _atom_site_fract_y
 _atom_site_fract_z
 _atom_site_occupancy
  Ce  Ce0  1  0.231553  0.839762  0.242179  1
  Ce  Ce1  1  0.160377  0.392578  0.242447  1
  Ce  Ce2  1  0.607359  0.768547  0.242521  1
  Ce  Ce3  1  0.768447  0.160238  0.742179  1
  Ce  Ce4  1  0.839623  0.607422  0.742447  1
  Ce  Ce5  1  0.392641  0.231453  0.742521  1
  Ti  Ti6  1  0.999877  0.999962  0.064613  1
  Ti  Ti7  1  0.000123  0.000038  0.564613  1
  Cu  Cu8  1  0.667084  0.333182  0.123159  1
  Cu  Cu9  1  0.332915  0.666818  0.623159  1
  Se  Se10  1  0.332737  0.666619  0.007036  1
  Se  Se11  1  0.514104  0.080450  0.999847  1
  Se  Se12  1  0.567478  0.486486  0.999564  1
  Se  Se13  1  0.919665  0.432549  0.999233  1
  Se  Se14  1  0.233772  0.133761  0.314385  1
  Se  Se15  1  0.899804  0.766458  0.314250  1
  Se  Se16  1  0.865871  0.099567  0.314764  1
  Se  Se17  1  0.667262  0.333380  0.507036  1
  Se  Se18  1  0.485896  0.919550  0.499847  1
  Se  Se19  1  0.432521  0.513514  0.499565  1
  Se  Se20  1  0.080335  0.567451  0.499233  1
  Se  Se21  1  0.100196  0.233542  0.814250  1
  Se  Se22  1  0.766228  0.866239  0.814385  1
  Se  Se23  1  0.134128  0.900433  0.814764  1
