# generated using pymatgen
data_TbDyCo12SiP6
_symmetry_space_group_name_H-M   'P 1'
_cell_length_a   9.04458600
_cell_length_b   9.04458542
_cell_length_c   3.59798800
_cell_angle_alpha   90.00000000
_cell_angle_beta   90.00000000
_cell_angle_gamma   120.00000942
_symmetry_Int_Tables_number   1
_chemical_formula_structural   TbDyCo12SiP6
_chemical_formula_sum   'Tb1 Dy1 Co12 Si1 P6'
_cell_volume   254.89872229
_cell_formula_units_Z   1
loop_
 _symmetry_equiv_pos_site_id
 _symmetry_equiv_pos_as_xyz
  1  'x, y, z'
loop_
 _atom_site_type_symbol
 _atom_site_label
 _atom_site_symmetry_multiplicity
 _atom_site_fract_x
 _atom_site_fract_y
 _atom_site_fract_z
 _atom_site_occupancy
  Tb  Tb0  1  0.333333  0.666667  0.500000  1
  Dy  Dy1  1  0.000000  0.000000  0.000000  1
  Co  Co2  1  0.100251  0.392767  0.000000  1
  Co  Co3  1  0.607233  0.707485  0.000000  1
  Co  Co4  1  0.292515  0.899749  0.000000  1
  Co  Co5  1  0.051430  0.768710  0.500000  1
  Co  Co6  1  0.231290  0.282719  0.500000  1
  Co  Co7  1  0.717281  0.948570  0.500000  1
  Co  Co8  1  0.824674  0.613871  0.000000  1
  Co  Co9  1  0.386129  0.210804  0.000000  1
  Co  Co10  1  0.789196  0.175326  0.000000  1
  Co  Co11  1  0.897771  0.434380  0.500000  1
  Co  Co12  1  0.565620  0.463391  0.500000  1
  Co  Co13  1  0.536609  0.102229  0.500000  1
  Si  Si14  1  0.666667  0.333333  0.000000  1
  P  P15  1  0.777973  0.735388  0.500000  1
  P  P16  1  0.264612  0.042585  0.500000  1
  P  P17  1  0.957415  0.222027  0.500000  1
  P  P18  1  0.072112  0.626929  0.000000  1
  P  P19  1  0.373071  0.445183  0.000000  1
  P  P20  1  0.554817  0.927888  0.000000  1
