# generated using pymatgen
data_Dy2Y8(AlSb)3
_symmetry_space_group_name_H-M   'P 1'
_cell_length_a   8.83947821
_cell_length_b   8.85427444
_cell_length_c   6.47940400
_cell_angle_alpha   89.99660921
_cell_angle_beta   90.01262656
_cell_angle_gamma   120.05735540
_symmetry_Int_Tables_number   1
_chemical_formula_structural   Dy2Y8(AlSb)3
_chemical_formula_sum   'Dy2 Y8 Al3 Sb3'
_cell_volume   438.92871910
_cell_formula_units_Z   1
loop_
 _symmetry_equiv_pos_site_id
 _symmetry_equiv_pos_as_xyz
  1  'x, y, z'
loop_
 _atom_site_type_symbol
 _atom_site_label
 _atom_site_symmetry_multiplicity
 _atom_site_fract_x
 _atom_site_fract_y
 _atom_site_fract_z
 _atom_site_occupancy
  Dy  Dy0  1  0.666558  0.326048  0.002627  1
  Dy  Dy1  1  0.333172  0.678824  0.497024  1
  Y  Y2  1  0.333088  0.677659  0.002747  1
  Y  Y3  1  0.666765  0.326866  0.497576  1
  Y  Y4  1  0.234802  0.990754  0.249982  1
  Y  Y5  1  0.758591  0.000869  0.749988  1
  Y  Y6  1  0.989178  0.234901  0.249949  1
  Y  Y7  1  0.761429  0.762970  0.250047  1
  Y  Y8  1  0.244782  0.234409  0.750041  1
  Y  Y9  1  0.011507  0.768613  0.749952  1
  Al  Al10  1  0.599298  0.999196  0.249879  1
  Al  Al11  1  0.403770  0.003201  0.750146  1
  Al  Al12  1  0.995141  0.599818  0.249917  1
  Sb  Sb13  1  0.388021  0.391717  0.250093  1
  Sb  Sb14  1  0.609456  0.607541  0.750048  1
  Sb  Sb15  1  0.004442  0.396614  0.749982  1
