# generated using pymatgen
data_Ti12CdS16
_symmetry_space_group_name_H-M   'P 1'
_cell_length_a   6.77250378
_cell_length_b   9.53567725
_cell_length_c   10.11614830
_cell_angle_alpha   118.13164000
_cell_angle_beta   109.59574999
_cell_angle_gamma   89.96888855
_symmetry_Int_Tables_number   1
_chemical_formula_structural   Ti12CdS16
_chemical_formula_sum   'Ti12 Cd1 S16'
_cell_volume   532.90602680
_cell_formula_units_Z   1
loop_
 _symmetry_equiv_pos_site_id
 _symmetry_equiv_pos_as_xyz
  1  'x, y, z'
loop_
 _atom_site_type_symbol
 _atom_site_label
 _atom_site_symmetry_multiplicity
 _atom_site_fract_x
 _atom_site_fract_y
 _atom_site_fract_z
 _atom_site_occupancy
  Ti  Ti0  1  0.558278  0.354644  0.867527  1
  Ti  Ti1  1  0.058631  0.355164  0.867089  1
  Ti  Ti2  1  0.369780  0.133303  0.488292  1
  Ti  Ti3  1  0.868257  0.132964  0.486961  1
  Ti  Ti4  1  0.447454  0.513224  0.645623  1
  Ti  Ti5  1  0.947613  0.512096  0.644581  1
  Ti  Ti6  1  0.941369  0.644836  0.132911  1
  Ti  Ti7  1  0.441722  0.645356  0.132473  1
  Ti  Ti8  1  0.131743  0.867036  0.513039  1
  Ti  Ti9  1  0.630220  0.866697  0.511708  1
  Ti  Ti10  1  0.052387  0.487904  0.355419  1
  Ti  Ti11  1  0.552546  0.486776  0.354377  1
  Cd  Cd12  1  0.000000  0.000000  0.000000  1
  S  S13  1  0.971429  0.050484  0.692925  1
  S  S14  1  0.471624  0.050635  0.692936  1
  S  S15  1  0.803871  0.306211  0.356991  1
  S  S16  1  0.303820  0.306294  0.356933  1
  S  S17  1  0.100160  0.643571  0.949788  1
  S  S18  1  0.600113  0.642390  0.949407  1
  S  S19  1  0.528376  0.949365  0.307064  1
  S  S20  1  0.028571  0.949516  0.307075  1
  S  S21  1  0.696180  0.693706  0.643067  1
  S  S22  1  0.196129  0.693789  0.643009  1
  S  S23  1  0.399887  0.357610  0.050593  1
  S  S24  1  0.899840  0.356429  0.050212  1
  S  S25  1  0.791716  0.666587  0.333194  1
  S  S26  1  0.291395  0.666202  0.333002  1
  S  S27  1  0.708605  0.333798  0.666998  1
  S  S28  1  0.208284  0.333413  0.666806  1
