# generated using pymatgen
data_Na3P(SeS)2
_symmetry_space_group_name_H-M   'P 1'
_cell_length_a   6.40177017
_cell_length_b   6.13480456
_cell_length_c   6.13480447
_cell_angle_alpha   107.30267652
_cell_angle_beta   109.67233704
_cell_angle_gamma   109.67234232
_symmetry_Int_Tables_number   1
_chemical_formula_structural   Na3P(SeS)2
_chemical_formula_sum   'Na3 P1 Se2 S2'
_cell_volume   189.32663934
_cell_formula_units_Z   1
loop_
 _symmetry_equiv_pos_site_id
 _symmetry_equiv_pos_as_xyz
  1  'x, y, z'
loop_
 _atom_site_type_symbol
 _atom_site_label
 _atom_site_symmetry_multiplicity
 _atom_site_fract_x
 _atom_site_fract_y
 _atom_site_fract_z
 _atom_site_occupancy
  Na  Na0  1  0.000000  0.482239  0.482239  1
  Na  Na1  1  0.500000  0.538038  0.038038  1
  Na  Na2  1  0.500000  0.038038  0.538038  1
  P  P3  1  0.000000  0.995361  0.995361  1
  Se  Se4  1  0.350103  0.990931  0.990931  1
  Se  Se5  1  0.649897  0.640828  0.640828  1
  S  S6  1  0.000000  0.987053  0.327512  1
  S  S7  1  0.000000  0.327512  0.987053  1
