# generated using pymatgen
data_DyEr(LuSb5)2
_symmetry_space_group_name_H-M   'P 1'
_cell_length_a   4.20376100
_cell_length_b   13.13695063
_cell_length_c   14.51389543
_cell_angle_alpha   78.53084120
_cell_angle_beta   90.00000000
_cell_angle_gamma   90.00000000
_symmetry_Int_Tables_number   1
_chemical_formula_structural   DyEr(LuSb5)2
_chemical_formula_sum   'Dy2 Er2 Lu4 Sb20'
_cell_volume   785.51914984
_cell_formula_units_Z   2
loop_
 _symmetry_equiv_pos_site_id
 _symmetry_equiv_pos_as_xyz
  1  'x, y, z'
loop_
 _atom_site_type_symbol
 _atom_site_label
 _atom_site_symmetry_multiplicity
 _atom_site_fract_x
 _atom_site_fract_y
 _atom_site_fract_z
 _atom_site_occupancy
  Dy  Dy0  1  0.250000  0.953475  0.358760  1
  Dy  Dy1  1  0.750000  0.046525  0.641240  1
  Er  Er2  1  0.250000  0.668520  0.576231  1
  Er  Er3  1  0.750000  0.331480  0.423769  1
  Lu  Lu4  1  0.250000  0.395576  0.770829  1
  Lu  Lu5  1  0.750000  0.604424  0.229171  1
  Lu  Lu6  1  0.250000  0.661330  0.856145  1
  Lu  Lu7  1  0.750000  0.338670  0.143855  1
  Sb  Sb8  1  0.250000  0.145141  0.778834  1
  Sb  Sb9  1  0.750000  0.854859  0.221166  1
  Sb  Sb10  1  0.250000  0.144512  0.482554  1
  Sb  Sb11  1  0.750000  0.855488  0.517446  1
  Sb  Sb12  1  0.250000  0.154669  0.169945  1
  Sb  Sb13  1  0.750000  0.845331  0.830055  1
  Sb  Sb14  1  0.250000  0.420891  0.975272  1
  Sb  Sb15  1  0.750000  0.579109  0.024728  1
  Sb  Sb16  1  0.750000  0.028852  0.910203  1
  Sb  Sb17  1  0.250000  0.971148  0.089797  1
  Sb  Sb18  1  0.750000  0.140642  0.321681  1
  Sb  Sb19  1  0.250000  0.859358  0.678319  1
  Sb  Sb20  1  0.750000  0.279318  0.936785  1
  Sb  Sb21  1  0.250000  0.720682  0.063215  1
  Sb  Sb22  1  0.750000  0.286062  0.653737  1
  Sb  Sb23  1  0.250000  0.713938  0.346263  1
  Sb  Sb24  1  0.750000  0.575842  0.735801  1
  Sb  Sb25  1  0.250000  0.424158  0.264199  1
  Sb  Sb26  1  0.750000  0.571695  0.446685  1
  Sb  Sb27  1  0.250000  0.428305  0.553315  1
