# generated using pymatgen
data_Tm5InBiPb
_symmetry_space_group_name_H-M   'P 1'
_cell_length_a   6.52816300
_cell_length_b   8.97288234
_cell_length_c   8.94387122
_cell_angle_alpha   120.10735620
_cell_angle_beta   89.99999768
_cell_angle_gamma   90.00001641
_symmetry_Int_Tables_number   1
_chemical_formula_structural   Tm5InBiPb
_chemical_formula_sum   'Tm10 In2 Bi2 Pb2'
_cell_volume   453.21919792
_cell_formula_units_Z   2
loop_
 _symmetry_equiv_pos_site_id
 _symmetry_equiv_pos_as_xyz
  1  'x, y, z'
loop_
 _atom_site_type_symbol
 _atom_site_label
 _atom_site_symmetry_multiplicity
 _atom_site_fract_x
 _atom_site_fract_y
 _atom_site_fract_z
 _atom_site_occupancy
  Tm  Tm0  1  0.496788  0.330216  0.657704  1
  Tm  Tm1  1  0.496788  0.672512  0.342296  1
  Tm  Tm2  1  0.003212  0.672513  0.342297  1
  Tm  Tm3  1  0.003212  0.330215  0.657703  1
  Tm  Tm4  1  0.750000  0.233576  0.000000  1
  Tm  Tm5  1  0.750000  0.766949  0.760515  1
  Tm  Tm6  1  0.750000  0.006434  0.239485  1
  Tm  Tm7  1  0.250000  0.767051  0.000000  1
  Tm  Tm8  1  0.250000  0.231678  0.242297  1
  Tm  Tm9  1  0.250000  0.989381  0.757703  1
  In  In10  1  0.250002  0.602032  0.604274  1
  In  In11  1  0.250002  0.997756  0.395726  1
  Bi  Bi12  1  0.750000  0.606170  0.000000  1
  Bi  Bi13  1  0.250000  0.390763  0.000000  1
  Pb  Pb14  1  0.749998  0.398733  0.394714  1
  Pb  Pb15  1  0.749998  0.004021  0.605286  1
