# generated using pymatgen
data_PrTh(Co3P2)2
_symmetry_space_group_name_H-M   'P 1'
_cell_length_a   3.80475900
_cell_length_b   10.63647186
_cell_length_c   12.41641080
_cell_angle_alpha   90.08731546
_cell_angle_beta   90.00000000
_cell_angle_gamma   90.00000000
_symmetry_Int_Tables_number   1
_chemical_formula_structural   PrTh(Co3P2)2
_chemical_formula_sum   'Pr3 Th3 Co18 P12'
_cell_volume   502.48177796
_cell_formula_units_Z   3
loop_
 _symmetry_equiv_pos_site_id
 _symmetry_equiv_pos_as_xyz
  1  'x, y, z'
loop_
 _atom_site_type_symbol
 _atom_site_label
 _atom_site_symmetry_multiplicity
 _atom_site_fract_x
 _atom_site_fract_y
 _atom_site_fract_z
 _atom_site_occupancy
  Pr  Pr0  1  0.500000  0.186530  0.205388  1
  Pr  Pr1  1  0.000000  0.685097  0.794660  1
  Pr  Pr2  1  0.000000  0.314853  0.793772  1
  Th  Th3  1  0.000000  0.499936  0.523110  1
  Th  Th4  1  0.500000  0.000436  0.477896  1
  Th  Th5  1  0.500000  0.816515  0.207320  1
  Co  Co6  1  0.500000  0.500020  0.157060  1
  Co  Co7  1  0.000000  0.999076  0.844267  1
  Co  Co8  1  0.500000  0.499660  0.699153  1
  Co  Co9  1  0.000000  0.995215  0.297747  1
  Co  Co10  1  0.000000  0.500105  0.985067  1
  Co  Co11  1  0.500000  0.000185  0.014452  1
  Co  Co12  1  0.500000  0.334490  0.995383  1
  Co  Co13  1  0.500000  0.666339  0.996939  1
  Co  Co14  1  0.000000  0.166612  0.004030  1
  Co  Co15  1  0.000000  0.834423  0.005706  1
  Co  Co16  1  0.500000  0.299599  0.429522  1
  Co  Co17  1  0.500000  0.698711  0.428789  1
  Co  Co18  1  0.000000  0.199136  0.569577  1
  Co  Co19  1  0.000000  0.800773  0.571357  1
  Co  Co20  1  0.500000  0.883009  0.712839  1
  Co  Co21  1  0.500000  0.116800  0.711855  1
  Co  Co22  1  0.000000  0.619255  0.286207  1
  Co  Co23  1  0.000000  0.383674  0.288042  1
  P  P24  1  0.500000  0.500046  0.884264  1
  P  P25  1  0.000000  0.001520  0.114357  1
  P  P26  1  0.500000  0.499375  0.338359  1
  P  P27  1  0.000000  0.999483  0.662525  1
  P  P28  1  0.500000  0.303525  0.613238  1
  P  P29  1  0.500000  0.696019  0.614079  1
  P  P30  1  0.000000  0.194966  0.385745  1
  P  P31  1  0.000000  0.803654  0.388769  1
  P  P32  1  0.500000  0.849383  0.897011  1
  P  P33  1  0.500000  0.151185  0.896754  1
  P  P34  1  0.000000  0.650503  0.102156  1
  P  P35  1  0.000000  0.349895  0.102605  1
