# generated using pymatgen
data_Ti19Si16Pt
_symmetry_space_group_name_H-M   'P 1'
_cell_length_a   6.70707237
_cell_length_b   6.70707237
_cell_length_c   12.15198880
_cell_angle_alpha   89.66726096
_cell_angle_beta   90.33273904
_cell_angle_gamma   89.88973672
_symmetry_Int_Tables_number   1
_chemical_formula_structural   Ti19Si16Pt
_chemical_formula_sum   'Ti19 Si16 Pt1'
_cell_volume   546.63554156
_cell_formula_units_Z   1
loop_
 _symmetry_equiv_pos_site_id
 _symmetry_equiv_pos_as_xyz
  1  'x, y, z'
loop_
 _atom_site_type_symbol
 _atom_site_label
 _atom_site_symmetry_multiplicity
 _atom_site_fract_x
 _atom_site_fract_y
 _atom_site_fract_z
 _atom_site_occupancy
  Ti  Ti0  1  0.996204  0.146832  0.623969  1
  Ti  Ti1  1  0.355292  0.499341  0.869624  1
  Ti  Ti2  1  0.648375  0.504051  0.370857  1
  Ti  Ti3  1  0.499341  0.355292  0.130376  1
  Ti  Ti4  1  0.504051  0.648375  0.629143  1
  Ti  Ti5  1  0.003698  0.849349  0.120127  1
  Ti  Ti6  1  0.146832  0.996204  0.376031  1
  Ti  Ti7  1  0.849349  0.003698  0.879873  1
  Ti  Ti8  1  0.999852  0.348453  0.218903  1
  Ti  Ti9  1  0.154159  0.501659  0.468005  1
  Ti  Ti10  1  0.839865  0.499556  0.970081  1
  Ti  Ti11  1  0.501659  0.154159  0.531995  1
  Ti  Ti12  1  0.499556  0.839865  0.029919  1
  Ti  Ti13  1  0.997507  0.656093  0.719858  1
  Ti  Ti14  1  0.348453  0.999852  0.781097  1
  Ti  Ti15  1  0.656093  0.997507  0.280142  1
  Ti  Ti16  1  0.327007  0.672149  0.248057  1
  Ti  Ti17  1  0.672149  0.327007  0.751943  1
  Ti  Ti18  1  0.828614  0.828614  0.500000  1
  Si  Si19  1  0.047367  0.300111  0.815029  1
  Si  Si20  1  0.202891  0.547259  0.061882  1
  Si  Si21  1  0.801040  0.454274  0.564113  1
  Si  Si22  1  0.547259  0.202891  0.938118  1
  Si  Si23  1  0.454274  0.801040  0.435887  1
  Si  Si24  1  0.955218  0.698947  0.313955  1
  Si  Si25  1  0.300111  0.047367  0.184971  1
  Si  Si26  1  0.698947  0.955218  0.686045  1
  Si  Si27  1  0.293799  0.356604  0.672869  1
  Si  Si28  1  0.137115  0.786042  0.919791  1
  Si  Si29  1  0.857323  0.205828  0.423280  1
  Si  Si30  1  0.786042  0.137115  0.080209  1
  Si  Si31  1  0.205828  0.857323  0.576720  1
  Si  Si32  1  0.705677  0.645285  0.173354  1
  Si  Si33  1  0.356604  0.293799  0.327131  1
  Si  Si34  1  0.645285  0.705677  0.826646  1
  Pt  Pt35  1  0.177163  0.177163  0.000000  1
