# generated using pymatgen
data_NbFe3(SO4)6
_symmetry_space_group_name_H-M   'P 1'
_cell_length_a   8.66296912
_cell_length_b   8.66296963
_cell_length_c   9.03864627
_cell_angle_alpha   118.63435825
_cell_angle_beta   61.36563915
_cell_angle_gamma   119.99999643
_symmetry_Int_Tables_number   1
_chemical_formula_structural   NbFe3(SO4)6
_chemical_formula_sum   'Nb1 Fe3 S6 O24'
_cell_volume   489.31065230
_cell_formula_units_Z   1
loop_
 _symmetry_equiv_pos_site_id
 _symmetry_equiv_pos_as_xyz
  1  'x, y, z'
loop_
 _atom_site_type_symbol
 _atom_site_label
 _atom_site_symmetry_multiplicity
 _atom_site_fract_x
 _atom_site_fract_y
 _atom_site_fract_z
 _atom_site_occupancy
  Nb  Nb0  1  0.644907  0.355092  0.065276  1
  Fe  Fe1  1  0.851192  0.148808  0.446424  1
  Fe  Fe2  1  0.147516  0.852484  0.557451  1
  Fe  Fe3  1  0.356864  0.643135  0.929406  1
  S  S4  1  0.254156  0.471080  0.251385  1
  S  S5  1  0.528920  0.034462  0.251385  1
  S  S6  1  0.965538  0.745844  0.251385  1
  S  S7  1  0.043175  0.241886  0.742992  1
  S  S8  1  0.455720  0.956826  0.742992  1
  S  S9  1  0.758114  0.544281  0.742992  1
  O  O10  1  0.110004  0.702396  0.084260  1
  O  O11  1  0.297603  0.491868  0.084260  1
  O  O12  1  0.508132  0.889996  0.084260  1
  O  O13  1  0.412076  0.416483  0.226407  1
  O  O14  1  0.583517  0.222001  0.226407  1
  O  O15  1  0.777999  0.587923  0.226407  1
  O  O16  1  0.076996  0.320829  0.291738  1
  O  O17  1  0.679170  0.047904  0.291738  1
  O  O18  1  0.952096  0.923005  0.291738  1
  O  O19  1  0.269015  0.651235  0.400635  1
  O  O20  1  0.348766  0.018417  0.400635  1
  O  O21  1  0.981583  0.730983  0.400635  1
  O  O22  1  0.026959  0.258434  0.598392  1
  O  O23  1  0.633083  0.973041  0.598392  1
  O  O24  1  0.741568  0.366917  0.598392  1
  O  O25  1  0.018378  0.047427  0.712989  1
  O  O26  1  0.316061  0.981622  0.712989  1
  O  O27  1  0.952572  0.683939  0.712989  1
  O  O28  1  0.217580  0.375798  0.780097  1
  O  O29  1  0.378119  0.782419  0.780097  1
  O  O30  1  0.624203  0.621881  0.780097  1
  O  O31  1  0.496355  0.123953  0.911588  1
  O  O32  1  0.716012  0.503645  0.911588  1
  O  O33  1  0.876046  0.283989  0.911588  1
