# generated using pymatgen
data_Rb2NaScBi2
_symmetry_space_group_name_H-M   'P 1'
_cell_length_a   10.04180992
_cell_length_b   10.04181111
_cell_length_c   10.04180915
_cell_angle_alpha   136.65508454
_cell_angle_beta   135.94954795
_cell_angle_gamma   63.51505020
_symmetry_Int_Tables_number   1
_chemical_formula_structural   Rb2NaScBi2
_chemical_formula_sum   'Rb4 Na2 Sc2 Bi4'
_cell_volume   476.96589504
_cell_formula_units_Z   2
loop_
 _symmetry_equiv_pos_site_id
 _symmetry_equiv_pos_as_xyz
  1  'x, y, z'
loop_
 _atom_site_type_symbol
 _atom_site_label
 _atom_site_symmetry_multiplicity
 _atom_site_fract_x
 _atom_site_fract_y
 _atom_site_fract_z
 _atom_site_occupancy
  Rb  Rb0  1  0.099038  0.324114  0.774923  1
  Rb  Rb1  1  0.450808  0.175886  0.274923  1
  Rb  Rb2  1  0.900962  0.675886  0.225077  1
  Rb  Rb3  1  0.549192  0.824114  0.725077  1
  Na  Na4  1  0.500000  0.750000  0.250000  1
  Na  Na5  1  0.500000  0.250000  0.750000  1
  Sc  Sc6  1  0.000000  0.750000  0.750000  1
  Sc  Sc7  1  0.000000  0.250000  0.250000  1
  Bi  Bi8  1  0.119496  0.903224  0.216271  1
  Bi  Bi9  1  0.880504  0.096776  0.783729  1
  Bi  Bi10  1  0.313046  0.596776  0.716271  1
  Bi  Bi11  1  0.686954  0.403224  0.283729  1
