# generated using pymatgen
data_Tb6Ga5GeRh12
_symmetry_space_group_name_H-M   'P 1'
_cell_length_a   5.59165300
_cell_length_b   5.59165228
_cell_length_c   15.67608900
_cell_angle_alpha   90.00000000
_cell_angle_beta   90.00000000
_cell_angle_gamma   119.99999837
_symmetry_Int_Tables_number   1
_chemical_formula_structural   Tb6Ga5GeRh12
_chemical_formula_sum   'Tb6 Ga5 Ge1 Rh12'
_cell_volume   424.47168806
_cell_formula_units_Z   1
loop_
 _symmetry_equiv_pos_site_id
 _symmetry_equiv_pos_as_xyz
  1  'x, y, z'
loop_
 _atom_site_type_symbol
 _atom_site_label
 _atom_site_symmetry_multiplicity
 _atom_site_fract_x
 _atom_site_fract_y
 _atom_site_fract_z
 _atom_site_occupancy
  Tb  Tb0  1  0.666667  0.333333  0.958477  1
  Tb  Tb1  1  0.666667  0.333333  0.541523  1
  Tb  Tb2  1  0.333333  0.666667  0.038825  1
  Tb  Tb3  1  0.666667  0.333333  0.750000  1
  Tb  Tb4  1  0.333333  0.666667  0.461175  1
  Tb  Tb5  1  0.333333  0.666667  0.250000  1
  Ga  Ga6  1  0.666667  0.333333  0.250000  1
  Ga  Ga7  1  0.000000  0.000000  0.500522  1
  Ga  Ga8  1  0.000000  0.000000  0.250000  1
  Ga  Ga9  1  0.000000  0.000000  0.750000  1
  Ga  Ga10  1  0.000000  0.000000  0.999478  1
  Ge  Ge11  1  0.333333  0.666667  0.750000  1
  Rh  Rh12  1  0.168631  0.337262  0.872732  1
  Rh  Rh13  1  0.168631  0.337262  0.627268  1
  Rh  Rh14  1  0.662738  0.831369  0.872732  1
  Rh  Rh15  1  0.338512  0.169256  0.374623  1
  Rh  Rh16  1  0.830744  0.661488  0.374623  1
  Rh  Rh17  1  0.830744  0.169256  0.374623  1
  Rh  Rh18  1  0.830744  0.169256  0.125377  1
  Rh  Rh19  1  0.338512  0.169256  0.125377  1
  Rh  Rh20  1  0.662738  0.831369  0.627268  1
  Rh  Rh21  1  0.168631  0.831369  0.627268  1
  Rh  Rh22  1  0.830744  0.661488  0.125377  1
  Rh  Rh23  1  0.168631  0.831369  0.872732  1
