# generated using pymatgen
data_Nd16NiHg4Pd3
_symmetry_space_group_name_H-M   'P 1'
_cell_length_a   9.96097890
_cell_length_b   9.96097827
_cell_length_c   9.96097885
_cell_angle_alpha   60.14426547
_cell_angle_beta   60.14426885
_cell_angle_gamma   60.14426553
_symmetry_Int_Tables_number   1
_chemical_formula_structural   Nd16NiHg4Pd3
_chemical_formula_sum   'Nd16 Ni1 Hg4 Pd3'
_cell_volume   701.14517361
_cell_formula_units_Z   1
loop_
 _symmetry_equiv_pos_site_id
 _symmetry_equiv_pos_as_xyz
  1  'x, y, z'
loop_
 _atom_site_type_symbol
 _atom_site_label
 _atom_site_symmetry_multiplicity
 _atom_site_fract_x
 _atom_site_fract_y
 _atom_site_fract_z
 _atom_site_occupancy
  Nd  Nd0  1  0.352443  0.352443  0.352443  1
  Nd  Nd1  1  0.349640  0.349640  0.942354  1
  Nd  Nd2  1  0.349640  0.942354  0.349640  1
  Nd  Nd3  1  0.942354  0.349640  0.349640  1
  Nd  Nd4  1  0.817127  0.190401  0.190401  1
  Nd  Nd5  1  0.191710  0.807764  0.807764  1
  Nd  Nd6  1  0.190401  0.817127  0.190401  1
  Nd  Nd7  1  0.807764  0.191710  0.807764  1
  Nd  Nd8  1  0.190401  0.190401  0.817127  1
  Nd  Nd9  1  0.807764  0.807764  0.191710  1
  Nd  Nd10  1  0.938647  0.564081  0.564081  1
  Nd  Nd11  1  0.562280  0.935835  0.935835  1
  Nd  Nd12  1  0.564081  0.938647  0.564081  1
  Nd  Nd13  1  0.935835  0.562280  0.935835  1
  Nd  Nd14  1  0.564081  0.564081  0.938647  1
  Nd  Nd15  1  0.935835  0.935835  0.562280  1
  Ni  Ni16  1  0.143745  0.143745  0.143745  1
  Hg  Hg17  1  0.584260  0.584260  0.584260  1
  Hg  Hg18  1  0.584676  0.584676  0.245936  1
  Hg  Hg19  1  0.584676  0.245936  0.584676  1
  Hg  Hg20  1  0.245936  0.584676  0.584676  1
  Pd  Pd21  1  0.144041  0.144041  0.568626  1
  Pd  Pd22  1  0.144041  0.568626  0.144041  1
  Pd  Pd23  1  0.568626  0.144041  0.144041  1
