# generated using pymatgen
data_Ho10IrOs2Au3
_symmetry_space_group_name_H-M   'P 1'
_cell_length_a   11.14644077
_cell_length_b   11.08234200
_cell_length_c   6.37142308
_cell_angle_alpha   90.00000000
_cell_angle_beta   89.68942292
_cell_angle_gamma   90.00000000
_symmetry_Int_Tables_number   1
_chemical_formula_structural   Ho10IrOs2Au3
_chemical_formula_sum   'Ho20 Ir2 Os4 Au6'
_cell_volume   787.04184778
_cell_formula_units_Z   2
loop_
 _symmetry_equiv_pos_site_id
 _symmetry_equiv_pos_as_xyz
  1  'x, y, z'
loop_
 _atom_site_type_symbol
 _atom_site_label
 _atom_site_symmetry_multiplicity
 _atom_site_fract_x
 _atom_site_fract_y
 _atom_site_fract_z
 _atom_site_occupancy
  Ho  Ho0  1  0.301506  0.090270  0.365136  1
  Ho  Ho1  1  0.301506  0.909730  0.865136  1
  Ho  Ho2  1  0.695709  0.082885  0.860207  1
  Ho  Ho3  1  0.695709  0.917115  0.360207  1
  Ho  Ho4  1  0.575175  0.794277  0.861547  1
  Ho  Ho5  1  0.575175  0.205723  0.361547  1
  Ho  Ho6  1  0.411378  0.797412  0.376793  1
  Ho  Ho7  1  0.411378  0.202588  0.876793  1
  Ho  Ho8  1  0.208860  0.418647  0.628022  1
  Ho  Ho9  1  0.208860  0.581353  0.128022  1
  Ho  Ho10  1  0.804027  0.416406  0.134952  1
  Ho  Ho11  1  0.804027  0.583594  0.634952  1
  Ho  Ho12  1  0.920953  0.697852  0.138342  1
  Ho  Ho13  1  0.920953  0.302148  0.638342  1
  Ho  Ho14  1  0.093961  0.697860  0.638419  1
  Ho  Ho15  1  0.093961  0.302140  0.138419  1
  Ho  Ho16  1  0.998451  0.999098  0.499076  1
  Ho  Ho17  1  0.998451  0.000902  0.999076  1
  Ho  Ho18  1  0.491614  0.497765  0.998976  1
  Ho  Ho19  1  0.491614  0.502235  0.498976  1
  Ir  Ir20  1  0.347508  0.348191  0.250415  1
  Ir  Ir21  1  0.347508  0.651809  0.750415  1
  Os  Os22  1  0.498582  0.999337  0.118825  1
  Os  Os23  1  0.498582  0.000663  0.618825  1
  Os  Os24  1  0.001812  0.499977  0.881797  1
  Os  Os25  1  0.001812  0.500023  0.381797  1
  Au  Au26  1  0.842352  0.154828  0.251009  1
  Au  Au27  1  0.842352  0.845172  0.751009  1
  Au  Au28  1  0.154100  0.155265  0.748684  1
  Au  Au29  1  0.154100  0.844735  0.248684  1
  Au  Au30  1  0.654011  0.346549  0.747800  1
  Au  Au31  1  0.654011  0.653451  0.247800  1
