# generated using pymatgen
data_HoCdCuNi2Pt
_symmetry_space_group_name_H-M   'P 1'
_cell_length_a   5.07968093
_cell_length_b   5.04327660
_cell_length_c   5.20319600
_cell_angle_alpha   60.36070886
_cell_angle_beta   60.78221092
_cell_angle_gamma   59.76093123
_symmetry_Int_Tables_number   1
_chemical_formula_structural   HoCdCuNi2Pt
_chemical_formula_sum   'Ho1 Cd1 Cu1 Ni2 Pt1'
_cell_volume   94.88254537
_cell_formula_units_Z   1
loop_
 _symmetry_equiv_pos_site_id
 _symmetry_equiv_pos_as_xyz
  1  'x, y, z'
loop_
 _atom_site_type_symbol
 _atom_site_label
 _atom_site_symmetry_multiplicity
 _atom_site_fract_x
 _atom_site_fract_y
 _atom_site_fract_z
 _atom_site_occupancy
  Ho  Ho0  1  0.248203  0.252363  0.251230  1
  Cd  Cd1  1  0.004794  0.003234  0.987177  1
  Cu  Cu2  1  0.624388  0.123157  0.628068  1
  Ni  Ni3  1  0.122212  0.623711  0.628668  1
  Ni  Ni4  1  0.625409  0.623711  0.628668  1
  Pt  Pt5  1  0.624993  0.623824  0.126190  1
