# generated using pymatgen
data_DyHo6Lu13Sn16
_symmetry_space_group_name_H-M   'P 1'
_cell_length_a   7.93420014
_cell_length_b   8.06064524
_cell_length_c   15.22801501
_cell_angle_alpha   90.01431544
_cell_angle_beta   90.20722634
_cell_angle_gamma   89.90571297
_symmetry_Int_Tables_number   1
_chemical_formula_structural   DyHo6Lu13Sn16
_chemical_formula_sum   'Dy1 Ho6 Lu13 Sn16'
_cell_volume   973.89651999
_cell_formula_units_Z   1
loop_
 _symmetry_equiv_pos_site_id
 _symmetry_equiv_pos_as_xyz
  1  'x, y, z'
loop_
 _atom_site_type_symbol
 _atom_site_label
 _atom_site_symmetry_multiplicity
 _atom_site_fract_x
 _atom_site_fract_y
 _atom_site_fract_z
 _atom_site_occupancy
  Dy  Dy0  1  0.020390  0.179142  0.903777  1
  Ho  Ho1  1  0.019501  0.179189  0.596478  1
  Ho  Ho2  1  0.480676  0.678896  0.404460  1
  Ho  Ho3  1  0.979417  0.820866  0.095950  1
  Ho  Ho4  1  0.479314  0.678042  0.095840  1
  Ho  Ho5  1  0.980527  0.821324  0.404419  1
  Ho  Ho6  1  0.518542  0.321785  0.595424  1
  Lu  Lu7  1  0.364949  0.838239  0.876415  1
  Lu  Lu8  1  0.863468  0.662220  0.624040  1
  Lu  Lu9  1  0.635745  0.162168  0.376069  1
  Lu  Lu10  1  0.134050  0.338203  0.123189  1
  Lu  Lu11  1  0.634200  0.161835  0.123186  1
  Lu  Lu12  1  0.135924  0.337959  0.376306  1
  Lu  Lu13  1  0.364285  0.838437  0.624507  1
  Lu  Lu14  1  0.865985  0.661339  0.876651  1
  Lu  Lu15  1  0.522787  0.321233  0.903113  1
  Lu  Lu16  1  0.195842  0.504815  0.750497  1
  Lu  Lu17  1  0.695296  0.995181  0.750539  1
  Lu  Lu18  1  0.804299  0.494764  0.249749  1
  Lu  Lu19  1  0.304375  0.005064  0.249805  1
  Sn  Sn20  1  0.295902  0.039342  0.041653  1
  Sn  Sn21  1  0.797416  0.459375  0.458668  1
  Sn  Sn22  1  0.701656  0.960641  0.541269  1
  Sn  Sn23  1  0.207299  0.537360  0.957733  1
  Sn  Sn24  1  0.702962  0.960830  0.958166  1
  Sn  Sn25  1  0.201874  0.541061  0.541458  1
  Sn  Sn26  1  0.297835  0.040277  0.458614  1
  Sn  Sn27  1  0.794867  0.458970  0.040439  1
  Sn  Sn28  1  0.561511  0.619671  0.750485  1
  Sn  Sn29  1  0.061134  0.879438  0.750285  1
  Sn  Sn30  1  0.438804  0.380060  0.249605  1
  Sn  Sn31  1  0.938668  0.120025  0.249829  1
  Sn  Sn32  1  0.331626  0.151592  0.750953  1
  Sn  Sn33  1  0.829043  0.350352  0.750163  1
  Sn  Sn34  1  0.669914  0.850303  0.250161  1
  Sn  Sn35  1  0.169913  0.650004  0.250105  1
