# generated using pymatgen
data_Ac4(LaPd)3
_symmetry_space_group_name_H-M   'P 1'
_cell_length_a   10.69054600
_cell_length_b   10.69054564
_cell_length_c   6.72090500
_cell_angle_alpha   90.00000000
_cell_angle_beta   90.00000000
_cell_angle_gamma   120.00000112
_symmetry_Int_Tables_number   1
_chemical_formula_structural   Ac4(LaPd)3
_chemical_formula_sum   'Ac8 La6 Pd6'
_cell_volume   665.20903919
_cell_formula_units_Z   2
loop_
 _symmetry_equiv_pos_site_id
 _symmetry_equiv_pos_as_xyz
  1  'x, y, z'
loop_
 _atom_site_type_symbol
 _atom_site_label
 _atom_site_symmetry_multiplicity
 _atom_site_fract_x
 _atom_site_fract_y
 _atom_site_fract_z
 _atom_site_occupancy
  Ac  Ac0  1  0.333333  0.666667  0.458028  1
  Ac  Ac1  1  0.666667  0.333333  0.958028  1
  Ac  Ac2  1  0.128299  0.871701  0.246405  1
  Ac  Ac3  1  0.743402  0.871701  0.246405  1
  Ac  Ac4  1  0.128299  0.256598  0.246405  1
  Ac  Ac5  1  0.871701  0.128299  0.746405  1
  Ac  Ac6  1  0.256598  0.128299  0.746405  1
  Ac  Ac7  1  0.871701  0.743402  0.746405  1
  La  La8  1  0.539249  0.460751  0.435319  1
  La  La9  1  0.921503  0.460751  0.435319  1
  La  La10  1  0.539249  0.078497  0.435319  1
  La  La11  1  0.460751  0.539249  0.935319  1
  La  La12  1  0.078497  0.539249  0.935319  1
  La  La13  1  0.460751  0.921503  0.935319  1
  Pd  Pd14  1  0.810134  0.189866  0.196565  1
  Pd  Pd15  1  0.379732  0.189866  0.196565  1
  Pd  Pd16  1  0.810134  0.620268  0.196565  1
  Pd  Pd17  1  0.189866  0.810134  0.696565  1
  Pd  Pd18  1  0.620268  0.810134  0.696565  1
  Pd  Pd19  1  0.189866  0.379732  0.696565  1
