# generated using pymatgen
data_TbDy7Cd2(SnAu4)2
_symmetry_space_group_name_H-M   'P 1'
_cell_length_a   8.03275948
_cell_length_b   8.03275948
_cell_length_c   7.37738302
_cell_angle_alpha   89.99442391
_cell_angle_beta   89.99442391
_cell_angle_gamma   90.03941552
_symmetry_Int_Tables_number   1
_chemical_formula_structural   TbDy7Cd2(SnAu4)2
_chemical_formula_sum   'Tb1 Dy7 Cd2 Sn2 Au8'
_cell_volume   476.02718151
_cell_formula_units_Z   1
loop_
 _symmetry_equiv_pos_site_id
 _symmetry_equiv_pos_as_xyz
  1  'x, y, z'
loop_
 _atom_site_type_symbol
 _atom_site_label
 _atom_site_symmetry_multiplicity
 _atom_site_fract_x
 _atom_site_fract_y
 _atom_site_fract_z
 _atom_site_occupancy
  Tb  Tb0  1  0.840970  0.159030  0.500000  1
  Dy  Dy1  1  0.159128  0.840872  0.500000  1
  Dy  Dy2  1  0.340948  0.340998  0.999999  1
  Dy  Dy3  1  0.659002  0.659052  0.000001  1
  Dy  Dy4  1  0.682625  0.682627  0.499990  1
  Dy  Dy5  1  0.317373  0.317375  0.500010  1
  Dy  Dy6  1  0.182699  0.817301  0.000000  1
  Dy  Dy7  1  0.817365  0.182635  0.000000  1
  Cd  Cd8  1  0.499948  0.999967  0.249949  1
  Cd  Cd9  1  0.000033  0.500052  0.750051  1
  Sn  Sn10  1  0.499936  0.999955  0.750026  1
  Sn  Sn11  1  0.000045  0.500064  0.249974  1
  Au  Au12  1  0.624598  0.368757  0.273270  1
  Au  Au13  1  0.375129  0.631521  0.273611  1
  Au  Au14  1  0.125070  0.131451  0.773786  1
  Au  Au15  1  0.875189  0.868329  0.773791  1
  Au  Au16  1  0.368479  0.624871  0.726389  1
  Au  Au17  1  0.631243  0.375402  0.726730  1
  Au  Au18  1  0.868549  0.874930  0.226214  1
  Au  Au19  1  0.131671  0.124811  0.226209  1
