# generated using pymatgen
data_Tm12Co4SnRu
_symmetry_space_group_name_H-M   'P 1'
_cell_length_a   8.16612534
_cell_length_b   8.16612597
_cell_length_c   8.16612494
_cell_angle_alpha   111.50286939
_cell_angle_beta   110.88102188
_cell_angle_gamma   106.08264322
_symmetry_Int_Tables_number   1
_chemical_formula_structural   Tm12Co4SnRu
_chemical_formula_sum   'Tm12 Co4 Sn1 Ru1'
_cell_volume   418.10032258
_cell_formula_units_Z   1
loop_
 _symmetry_equiv_pos_site_id
 _symmetry_equiv_pos_as_xyz
  1  'x, y, z'
loop_
 _atom_site_type_symbol
 _atom_site_label
 _atom_site_symmetry_multiplicity
 _atom_site_fract_x
 _atom_site_fract_y
 _atom_site_fract_z
 _atom_site_occupancy
  Tm  Tm0  1  0.413236  0.219393  0.193843  1
  Tm  Tm1  1  0.586764  0.780607  0.806157  1
  Tm  Tm2  1  0.025550  0.219393  0.806157  1
  Tm  Tm3  1  0.974450  0.780607  0.193843  1
  Tm  Tm4  1  0.183361  0.282199  0.465560  1
  Tm  Tm5  1  0.816639  0.717801  0.534440  1
  Tm  Tm6  1  0.183361  0.717801  0.901162  1
  Tm  Tm7  1  0.816639  0.282199  0.098838  1
  Tm  Tm8  1  0.313972  0.621434  0.307461  1
  Tm  Tm9  1  0.686028  0.378566  0.692539  1
  Tm  Tm10  1  0.313972  0.006512  0.692539  1
  Tm  Tm11  1  0.686028  0.993488  0.307461  1
  Co  Co12  1  0.373716  0.000000  0.373716  1
  Co  Co13  1  0.626284  0.000000  0.626284  1
  Co  Co14  1  0.112051  0.612051  0.500000  1
  Co  Co15  1  0.887949  0.387949  0.500000  1
  Sn  Sn16  1  0.500000  0.500000  0.000000  1
  Ru  Ru17  1  0.000000  0.000000  0.000000  1
