# generated using pymatgen
data_Tb5Ho3Ti11Si16Ru
_symmetry_space_group_name_H-M   'P 1'
_cell_length_a   7.03816803
_cell_length_b   7.03872403
_cell_length_c   12.91675901
_cell_angle_alpha   90.02709974
_cell_angle_beta   89.96936174
_cell_angle_gamma   89.87355092
_symmetry_Int_Tables_number   1
_chemical_formula_structural   Tb5Ho3Ti11Si16Ru
_chemical_formula_sum   'Tb5 Ho3 Ti11 Si16 Ru1'
_cell_volume   639.89093425
_cell_formula_units_Z   1
loop_
 _symmetry_equiv_pos_site_id
 _symmetry_equiv_pos_as_xyz
  1  'x, y, z'
loop_
 _atom_site_type_symbol
 _atom_site_label
 _atom_site_symmetry_multiplicity
 _atom_site_fract_x
 _atom_site_fract_y
 _atom_site_fract_z
 _atom_site_occupancy
  Tb  Tb0  1  0.840266  0.496405  0.281956  1
  Tb  Tb1  1  0.159909  0.500720  0.784898  1
  Tb  Tb2  1  0.658428  0.998018  0.968251  1
  Tb  Tb3  1  0.004777  0.339760  0.532526  1
  Tb  Tb4  1  0.998002  0.658638  0.031744  1
  Ho  Ho5  1  0.340618  0.003799  0.467392  1
  Ho  Ho6  1  0.497104  0.840958  0.717867  1
  Ho  Ho7  1  0.499846  0.159353  0.215015  1
  Ti  Ti8  1  0.175288  0.827839  0.248740  1
  Ti  Ti9  1  0.827335  0.174774  0.751242  1
  Ti  Ti10  1  0.673536  0.674201  0.500077  1
  Ti  Ti11  1  0.151391  0.003810  0.875782  1
  Ti  Ti12  1  0.492446  0.656257  0.125900  1
  Ti  Ti13  1  0.506920  0.348411  0.628041  1
  Ti  Ti14  1  0.656099  0.492392  0.874104  1
  Ti  Ti15  1  0.348462  0.507209  0.371874  1
  Ti  Ti16  1  0.847783  0.993874  0.375462  1
  Ti  Ti17  1  0.004185  0.151110  0.124131  1
  Ti  Ti18  1  0.993817  0.847951  0.624527  1
  Si  Si19  1  0.203003  0.130125  0.685593  1
  Si  Si20  1  0.374028  0.699445  0.934477  1
  Si  Si21  1  0.629521  0.296153  0.434720  1
  Si  Si22  1  0.698577  0.373390  0.065658  1
  Si  Si23  1  0.297446  0.631453  0.565319  1
  Si  Si24  1  0.796265  0.870331  0.184558  1
  Si  Si25  1  0.132019  0.201669  0.314361  1
  Si  Si26  1  0.869030  0.797019  0.815267  1
  Si  Si27  1  0.287243  0.953730  0.064784  1
  Si  Si28  1  0.546129  0.792972  0.315707  1
  Si  Si29  1  0.449955  0.209209  0.817748  1
  Si  Si30  1  0.791355  0.547292  0.684345  1
  Si  Si31  1  0.210606  0.449324  0.182081  1
  Si  Si32  1  0.707851  0.047237  0.565752  1
  Si  Si33  1  0.953126  0.286768  0.935452  1
  Si  Si34  1  0.048428  0.709530  0.434366  1
  Ru  Ru35  1  0.329205  0.328873  0.000280  1
