# generated using pymatgen
data_DyPaTiGaIr2
_symmetry_space_group_name_H-M   'P 1'
_cell_length_a   4.20070000
_cell_length_b   7.00736400
_cell_length_c   8.09408600
_cell_angle_alpha   90.00000000
_cell_angle_beta   90.00000000
_cell_angle_gamma   90.00000000
_symmetry_Int_Tables_number   1
_chemical_formula_structural   DyPaTiGaIr2
_chemical_formula_sum   'Dy2 Pa2 Ti2 Ga2 Ir4'
_cell_volume   238.25617151
_cell_formula_units_Z   2
loop_
 _symmetry_equiv_pos_site_id
 _symmetry_equiv_pos_as_xyz
  1  'x, y, z'
loop_
 _atom_site_type_symbol
 _atom_site_label
 _atom_site_symmetry_multiplicity
 _atom_site_fract_x
 _atom_site_fract_y
 _atom_site_fract_z
 _atom_site_occupancy
  Dy  Dy0  1  0.750000  0.038022  0.676895  1
  Dy  Dy1  1  0.750000  0.538022  0.823105  1
  Pa  Pa2  1  0.250000  0.976471  0.320187  1
  Pa  Pa3  1  0.250000  0.476471  0.179813  1
  Ti  Ti4  1  0.750000  0.621854  0.449390  1
  Ti  Ti5  1  0.750000  0.121854  0.050610  1
  Ga  Ga6  1  0.250000  0.358025  0.575998  1
  Ga  Ga7  1  0.250000  0.858025  0.924002  1
  Ir  Ir8  1  0.250000  0.244419  0.904094  1
  Ir  Ir9  1  0.250000  0.744419  0.595906  1
  Ir  Ir10  1  0.750000  0.761208  0.141082  1
  Ir  Ir11  1  0.750000  0.261208  0.358918  1
