# generated using pymatgen
data_Li4Ca(ThSi2)3
_symmetry_space_group_name_H-M   'P 1'
_cell_length_a   9.45413906
_cell_length_b   9.45413851
_cell_length_c   6.78016000
_cell_angle_alpha   90.00000000
_cell_angle_beta   90.00000000
_cell_angle_gamma   152.83791308
_symmetry_Int_Tables_number   1
_chemical_formula_structural   Li4Ca(ThSi2)3
_chemical_formula_sum   'Li4 Ca1 Th3 Si6'
_cell_volume   276.65180736
_cell_formula_units_Z   1
loop_
 _symmetry_equiv_pos_site_id
 _symmetry_equiv_pos_as_xyz
  1  'x, y, z'
loop_
 _atom_site_type_symbol
 _atom_site_label
 _atom_site_symmetry_multiplicity
 _atom_site_fract_x
 _atom_site_fract_y
 _atom_site_fract_z
 _atom_site_occupancy
  Li  Li0  1  0.189974  0.810026  0.067575  1
  Li  Li1  1  0.189974  0.810026  0.432425  1
  Li  Li2  1  0.811941  0.188059  0.943489  1
  Li  Li3  1  0.811941  0.188059  0.556511  1
  Ca  Ca4  1  0.342365  0.657635  0.250000  1
  Th  Th5  1  0.657530  0.342470  0.750000  1
  Th  Th6  1  0.550277  0.449723  0.250000  1
  Th  Th7  1  0.448404  0.551596  0.750000  1
  Si  Si8  1  0.715309  0.284691  0.250000  1
  Si  Si9  1  0.277546  0.722454  0.750000  1
  Si  Si10  1  0.060264  0.939736  0.928818  1
  Si  Si11  1  0.942106  0.057894  0.071270  1
  Si  Si12  1  0.942106  0.057894  0.428730  1
  Si  Si13  1  0.060264  0.939736  0.571182  1
