# generated using pymatgen
data_Th3Al2ZnCu3
_symmetry_space_group_name_H-M   'P 1'
_cell_length_a   7.04427252
_cell_length_b   7.04427306
_cell_length_c   4.27062000
_cell_angle_alpha   90.00000000
_cell_angle_beta   90.00000000
_cell_angle_gamma   119.62215132
_symmetry_Int_Tables_number   1
_chemical_formula_structural   Th3Al2ZnCu3
_chemical_formula_sum   'Th3 Al2 Zn1 Cu3'
_cell_volume   184.21919869
_cell_formula_units_Z   1
loop_
 _symmetry_equiv_pos_site_id
 _symmetry_equiv_pos_as_xyz
  1  'x, y, z'
loop_
 _atom_site_type_symbol
 _atom_site_label
 _atom_site_symmetry_multiplicity
 _atom_site_fract_x
 _atom_site_fract_y
 _atom_site_fract_z
 _atom_site_occupancy
  Th  Th0  1  0.425223  0.425223  0.500000  1
  Th  Th1  1  0.577193  0.995895  0.500000  1
  Th  Th2  1  0.995895  0.577193  0.500000  1
  Al  Al3  1  0.232906  0.004061  0.000000  1
  Al  Al4  1  0.004061  0.232906  0.000000  1
  Zn  Zn5  1  0.762421  0.762421  0.000000  1
  Cu  Cu6  1  0.667354  0.327150  0.000000  1
  Cu  Cu7  1  0.327150  0.667354  0.000000  1
  Cu  Cu8  1  0.007796  0.007796  0.500000  1
