# generated using pymatgen
data_YbTm(Al3Ni)6
_symmetry_space_group_name_H-M   'P 1'
_cell_length_a   10.09986211
_cell_length_b   10.09986218
_cell_length_c   10.09986272
_cell_angle_alpha   42.31111443
_cell_angle_beta   42.31111574
_cell_angle_gamma   42.31111600
_symmetry_Int_Tables_number   1
_chemical_formula_structural   YbTm(Al3Ni)6
_chemical_formula_sum   'Yb1 Tm1 Al18 Ni6'
_cell_volume   422.56311300
_cell_formula_units_Z   1
loop_
 _symmetry_equiv_pos_site_id
 _symmetry_equiv_pos_as_xyz
  1  'x, y, z'
loop_
 _atom_site_type_symbol
 _atom_site_label
 _atom_site_symmetry_multiplicity
 _atom_site_fract_x
 _atom_site_fract_y
 _atom_site_fract_z
 _atom_site_occupancy
  Yb  Yb0  1  0.833232  0.833232  0.833232  1
  Tm  Tm1  1  0.166671  0.166671  0.166671  1
  Al  Al2  1  0.102407  0.432329  0.761912  1
  Al  Al3  1  0.432329  0.761912  0.102407  1
  Al  Al4  1  0.568152  0.897136  0.238025  1
  Al  Al5  1  0.947605  0.947605  0.947605  1
  Al  Al6  1  0.051943  0.051943  0.051943  1
  Al  Al7  1  0.292775  0.709635  0.497629  1
  Al  Al8  1  0.897136  0.238025  0.568152  1
  Al  Al9  1  0.387239  0.387239  0.387239  1
  Al  Al10  1  0.497629  0.292775  0.709635  1
  Al  Al11  1  0.238025  0.568152  0.897136  1
  Al  Al12  1  0.718778  0.718778  0.718778  1
  Al  Al13  1  0.613002  0.613002  0.613002  1
  Al  Al14  1  0.333729  0.000351  0.665936  1
  Al  Al15  1  0.709635  0.497629  0.292775  1
  Al  Al16  1  0.665936  0.333729  0.000351  1
  Al  Al17  1  0.281511  0.281511  0.281511  1
  Al  Al18  1  0.000351  0.665936  0.333729  1
  Al  Al19  1  0.761912  0.102407  0.432329  1
  Ni  Ni20  1  0.417619  0.078553  0.758415  1
  Ni  Ni21  1  0.580943  0.242105  0.922365  1
  Ni  Ni22  1  0.078553  0.758415  0.417619  1
  Ni  Ni23  1  0.758415  0.417619  0.078553  1
  Ni  Ni24  1  0.922365  0.580943  0.242105  1
  Ni  Ni25  1  0.242105  0.922365  0.580943  1
