# generated using pymatgen
data_CsK3(SbPt)4
_symmetry_space_group_name_H-M   'P 1'
_cell_length_a   7.23105933
_cell_length_b   7.23105863
_cell_length_c   7.23105916
_cell_angle_alpha   90.35487468
_cell_angle_beta   89.64513096
_cell_angle_gamma   90.35487954
_symmetry_Int_Tables_number   1
_chemical_formula_structural   CsK3(SbPt)4
_chemical_formula_sum   'Cs1 K3 Sb4 Pt4'
_cell_volume   378.07750131
_cell_formula_units_Z   1
loop_
 _symmetry_equiv_pos_site_id
 _symmetry_equiv_pos_as_xyz
  1  'x, y, z'
loop_
 _atom_site_type_symbol
 _atom_site_label
 _atom_site_symmetry_multiplicity
 _atom_site_fract_x
 _atom_site_fract_y
 _atom_site_fract_z
 _atom_site_occupancy
  Cs  Cs0  1  0.862840  0.637160  0.362840  1
  K  K1  1  0.635021  0.361219  0.863932  1
  K  K2  1  0.363932  0.864979  0.638781  1
  K  K3  1  0.138781  0.136068  0.135021  1
  Sb  Sb4  1  0.159714  0.340286  0.659714  1
  Sb  Sb5  1  0.655242  0.155192  0.345683  1
  Sb  Sb6  1  0.344808  0.654317  0.155242  1
  Sb  Sb7  1  0.845683  0.844758  0.844808  1
  Pt  Pt8  1  0.594990  0.905010  0.094990  1
  Pt  Pt9  1  0.101519  0.601306  0.898776  1
  Pt  Pt10  1  0.398776  0.398481  0.398694  1
  Pt  Pt11  1  0.898694  0.101224  0.601519  1
