# generated using pymatgen
data_Nd16MgHg3Ru4
_symmetry_space_group_name_H-M   'P 1'
_cell_length_a   9.93899797
_cell_length_b   9.93899817
_cell_length_c   9.93899830
_cell_angle_alpha   59.88654807
_cell_angle_beta   59.88654621
_cell_angle_gamma   59.88654772
_symmetry_Int_Tables_number   1
_chemical_formula_structural   Nd16MgHg3Ru4
_chemical_formula_sum   'Nd16 Mg1 Hg3 Ru4'
_cell_volume   692.45806675
_cell_formula_units_Z   1
loop_
 _symmetry_equiv_pos_site_id
 _symmetry_equiv_pos_as_xyz
  1  'x, y, z'
loop_
 _atom_site_type_symbol
 _atom_site_label
 _atom_site_symmetry_multiplicity
 _atom_site_fract_x
 _atom_site_fract_y
 _atom_site_fract_z
 _atom_site_occupancy
  Nd  Nd0  1  0.557822  0.557822  0.942327  1
  Nd  Nd1  1  0.187069  0.813085  0.187069  1
  Nd  Nd2  1  0.810473  0.810473  0.187795  1
  Nd  Nd3  1  0.187069  0.187069  0.813085  1
  Nd  Nd4  1  0.404801  0.786664  0.404801  1
  Nd  Nd5  1  0.810473  0.187795  0.810473  1
  Nd  Nd6  1  0.938431  0.938431  0.558881  1
  Nd  Nd7  1  0.813085  0.187069  0.187069  1
  Nd  Nd8  1  0.938431  0.558881  0.938431  1
  Nd  Nd9  1  0.786664  0.404801  0.404801  1
  Nd  Nd10  1  0.558881  0.938431  0.938431  1
  Nd  Nd11  1  0.187795  0.810473  0.810473  1
  Nd  Nd12  1  0.557822  0.942327  0.557822  1
  Nd  Nd13  1  0.402468  0.402468  0.402468  1
  Nd  Nd14  1  0.942327  0.557822  0.557822  1
  Nd  Nd15  1  0.404801  0.404801  0.786664  1
  Mg  Mg16  1  0.179942  0.179942  0.179942  1
  Hg  Hg17  1  0.165123  0.500041  0.165123  1
  Hg  Hg18  1  0.165123  0.165123  0.500041  1
  Hg  Hg19  1  0.500041  0.165123  0.165123  1
  Ru  Ru20  1  0.164509  0.612266  0.612266  1
  Ru  Ru21  1  0.612266  0.612266  0.164509  1
  Ru  Ru22  1  0.612317  0.612317  0.612317  1
  Ru  Ru23  1  0.612266  0.164509  0.612266  1
