# generated using pymatgen
data_Mn5V3CoSi3
_symmetry_space_group_name_H-M   'P 1'
_cell_length_a   3.99698100
_cell_length_b   5.66835200
_cell_length_c   11.95861000
_cell_angle_alpha   89.99935074
_cell_angle_beta   90.00023446
_cell_angle_gamma   89.99997556
_symmetry_Int_Tables_number   1
_chemical_formula_structural   Mn5V3CoSi3
_chemical_formula_sum   'Mn10 V6 Co2 Si6'
_cell_volume   270.93779887
_cell_formula_units_Z   2
loop_
 _symmetry_equiv_pos_site_id
 _symmetry_equiv_pos_as_xyz
  1  'x, y, z'
loop_
 _atom_site_type_symbol
 _atom_site_label
 _atom_site_symmetry_multiplicity
 _atom_site_fract_x
 _atom_site_fract_y
 _atom_site_fract_z
 _atom_site_occupancy
  Mn  Mn0  1  0.999887  0.250432  0.163073  1
  Mn  Mn1  1  0.999887  0.749570  0.163070  1
  Mn  Mn2  1  0.499879  0.249453  0.331836  1
  Mn  Mn3  1  0.499880  0.750552  0.331832  1
  Mn  Mn4  1  0.000001  0.249895  0.500005  1
  Mn  Mn5  1  0.999999  0.750104  0.499995  1
  Mn  Mn6  1  0.500120  0.249448  0.668168  1
  Mn  Mn7  1  0.500121  0.750547  0.668164  1
  Mn  Mn8  1  0.000113  0.250431  0.836930  1
  Mn  Mn9  1  0.000113  0.749569  0.836927  1
  V  V10  1  0.000000  0.500000  0.000000  1
  V  V11  1  0.499862  0.000004  0.171981  1
  V  V12  1  0.999867  0.500003  0.332970  1
  V  V13  1  0.500000  0.000000  0.500000  1
  V  V14  1  0.000133  0.499997  0.667030  1
  V  V15  1  0.500138  0.999996  0.828020  1
  Co  Co16  1  0.500000  0.251227  0.000000  1
  Co  Co17  1  0.500000  0.748774  0.000000  1
  Si  Si18  1  0.000000  0.000000  0.000000  1
  Si  Si19  1  0.499883  0.499992  0.166450  1
  Si  Si20  1  0.999872  0.000003  0.332604  1
  Si  Si21  1  0.500000  0.500000  0.500000  1
  Si  Si22  1  0.000127  0.999997  0.667396  1
  Si  Si23  1  0.500117  0.500008  0.833550  1
