# generated using pymatgen
data_Pr4CuB4Rh9
_symmetry_space_group_name_H-M   'P 1'
_cell_length_a   5.56213603
_cell_length_b   5.56213776
_cell_length_c   21.08521700
_cell_angle_alpha   90.00000000
_cell_angle_beta   90.00000000
_cell_angle_gamma   119.99268835
_symmetry_Int_Tables_number   1
_chemical_formula_structural   Pr4CuB4Rh9
_chemical_formula_sum   'Pr8 Cu2 B8 Rh18'
_cell_volume   564.96825614
_cell_formula_units_Z   2
loop_
 _symmetry_equiv_pos_site_id
 _symmetry_equiv_pos_as_xyz
  1  'x, y, z'
loop_
 _atom_site_type_symbol
 _atom_site_label
 _atom_site_symmetry_multiplicity
 _atom_site_fract_x
 _atom_site_fract_y
 _atom_site_fract_z
 _atom_site_occupancy
  Pr  Pr0  1  0.666752  0.333248  0.523322  1
  Pr  Pr1  1  0.333248  0.666752  0.476678  1
  Pr  Pr2  1  0.333248  0.666752  0.023322  1
  Pr  Pr3  1  0.666752  0.333248  0.976678  1
  Pr  Pr4  1  0.666707  0.333293  0.674555  1
  Pr  Pr5  1  0.333293  0.666707  0.325445  1
  Pr  Pr6  1  0.333293  0.666707  0.174555  1
  Pr  Pr7  1  0.666707  0.333293  0.825445  1
  Cu  Cu8  1  0.000000  0.000000  0.500000  1
  Cu  Cu9  1  0.000000  0.000000  0.000000  1
  B  B10  1  0.000108  0.999892  0.675388  1
  B  B11  1  0.999892  0.000108  0.324612  1
  B  B12  1  0.999892  0.000108  0.175388  1
  B  B13  1  0.000108  0.999892  0.824612  1
  B  B14  1  0.666617  0.333383  0.326487  1
  B  B15  1  0.333383  0.666617  0.673513  1
  B  B16  1  0.333383  0.666617  0.826487  1
  B  B17  1  0.666617  0.333383  0.173513  1
  Rh  Rh18  1  0.166861  0.333541  0.750000  1
  Rh  Rh19  1  0.166859  0.833141  0.750000  1
  Rh  Rh20  1  0.666459  0.833139  0.750000  1
  Rh  Rh21  1  0.833139  0.666459  0.250000  1
  Rh  Rh22  1  0.833141  0.166859  0.250000  1
  Rh  Rh23  1  0.333541  0.166861  0.250000  1
  Rh  Rh24  1  0.165852  0.331363  0.606699  1
  Rh  Rh25  1  0.165850  0.834150  0.606673  1
  Rh  Rh26  1  0.668637  0.834148  0.606699  1
  Rh  Rh27  1  0.834148  0.668637  0.393301  1
  Rh  Rh28  1  0.834150  0.165850  0.393327  1
  Rh  Rh29  1  0.331363  0.165852  0.393301  1
  Rh  Rh30  1  0.834148  0.668637  0.106699  1
  Rh  Rh31  1  0.834150  0.165850  0.106673  1
  Rh  Rh32  1  0.331363  0.165852  0.106699  1
  Rh  Rh33  1  0.165852  0.331363  0.893301  1
  Rh  Rh34  1  0.165850  0.834150  0.893327  1
  Rh  Rh35  1  0.668637  0.834148  0.893301  1
