# generated using pymatgen
data_HfZr9GaSiSn6
_symmetry_space_group_name_H-M   'P 1'
_cell_length_a   8.71590400
_cell_length_b   8.71590462
_cell_length_c   5.90473700
_cell_angle_alpha   90.00000000
_cell_angle_beta   90.00000000
_cell_angle_gamma   119.99999764
_symmetry_Int_Tables_number   1
_chemical_formula_structural   HfZr9GaSiSn6
_chemical_formula_sum   'Hf1 Zr9 Ga1 Si1 Sn6'
_cell_volume   388.46876778
_cell_formula_units_Z   1
loop_
 _symmetry_equiv_pos_site_id
 _symmetry_equiv_pos_as_xyz
  1  'x, y, z'
loop_
 _atom_site_type_symbol
 _atom_site_label
 _atom_site_symmetry_multiplicity
 _atom_site_fract_x
 _atom_site_fract_y
 _atom_site_fract_z
 _atom_site_occupancy
  Hf  Hf0  1  0.666667  0.333333  0.000000  1
  Zr  Zr1  1  0.333333  0.666667  0.000000  1
  Zr  Zr2  1  0.333333  0.666667  0.500000  1
  Zr  Zr3  1  0.666667  0.333333  0.500000  1
  Zr  Zr4  1  0.737740  0.737583  0.743868  1
  Zr  Zr5  1  0.262417  0.000157  0.743868  1
  Zr  Zr6  1  0.999843  0.262260  0.743868  1
  Zr  Zr7  1  0.262417  0.262260  0.256132  1
  Zr  Zr8  1  0.737740  0.000157  0.256132  1
  Zr  Zr9  1  0.999843  0.737583  0.256132  1
  Ga  Ga10  1  0.000000  0.000000  0.000000  1
  Si  Si11  1  0.000000  0.000000  0.500000  1
  Sn  Sn12  1  0.391484  0.391213  0.752327  1
  Sn  Sn13  1  0.608787  0.000272  0.752327  1
  Sn  Sn14  1  0.999728  0.608516  0.752327  1
  Sn  Sn15  1  0.608787  0.608516  0.247673  1
  Sn  Sn16  1  0.391484  0.000272  0.247673  1
  Sn  Sn17  1  0.999728  0.391213  0.247673  1
