# generated using pymatgen
data_Sc8Tc(B8Os)3
_symmetry_space_group_name_H-M   'P 1'
_cell_length_a   3.50362300
_cell_length_b   8.87558000
_cell_length_c   11.19592643
_cell_angle_alpha   89.98346334
_cell_angle_beta   90.00000000
_cell_angle_gamma   90.00000000
_symmetry_Int_Tables_number   1
_chemical_formula_structural   Sc8Tc(B8Os)3
_chemical_formula_sum   'Sc8 Tc1 B24 Os3'
_cell_volume   348.15619678
_cell_formula_units_Z   1
loop_
 _symmetry_equiv_pos_site_id
 _symmetry_equiv_pos_as_xyz
  1  'x, y, z'
loop_
 _atom_site_type_symbol
 _atom_site_label
 _atom_site_symmetry_multiplicity
 _atom_site_fract_x
 _atom_site_fract_y
 _atom_site_fract_z
 _atom_site_occupancy
  Sc  Sc0  1  0.000000  0.817960  0.084682  1
  Sc  Sc1  1  0.000000  0.184367  0.911321  1
  Sc  Sc2  1  0.000000  0.319209  0.417086  1
  Sc  Sc3  1  0.000000  0.678760  0.587148  1
  Sc  Sc4  1  0.000000  0.444150  0.126963  1
  Sc  Sc5  1  0.000000  0.554730  0.872262  1
  Sc  Sc6  1  0.000000  0.944005  0.373263  1
  Sc  Sc7  1  0.000000  0.056596  0.627051  1
  Tc  Tc8  1  0.000000  0.361674  0.679714  1
  B  B9  1  0.500000  0.053143  0.064736  1
  B  B10  1  0.500000  0.946575  0.934994  1
  B  B11  1  0.500000  0.553288  0.434915  1
  B  B12  1  0.500000  0.447209  0.564992  1
  B  B13  1  0.500000  0.252004  0.078438  1
  B  B14  1  0.500000  0.747620  0.921181  1
  B  B15  1  0.500000  0.751858  0.421708  1
  B  B16  1  0.500000  0.247971  0.578806  1
  B  B17  1  0.500000  0.293885  0.235669  1
  B  B18  1  0.500000  0.706050  0.764512  1
  B  B19  1  0.500000  0.794140  0.264586  1
  B  B20  1  0.500000  0.205687  0.735633  1
  B  B21  1  0.500000  0.129913  0.317914  1
  B  B22  1  0.500000  0.870306  0.682613  1
  B  B23  1  0.500000  0.629874  0.182187  1
  B  B24  1  0.500000  0.370295  0.817351  1
  B  B25  1  0.500000  0.479469  0.287241  1
  B  B26  1  0.500000  0.521089  0.712642  1
  B  B27  1  0.500000  0.979384  0.212710  1
  B  B28  1  0.500000  0.020679  0.787340  1
  B  B29  1  0.500000  0.101228  0.472030  1
  B  B30  1  0.500000  0.898280  0.528006  1
  B  B31  1  0.500000  0.601521  0.027859  1
  B  B32  1  0.500000  0.398428  0.972296  1
  Os  Os33  1  0.000000  0.138236  0.179682  1
  Os  Os34  1  0.000000  0.861478  0.820777  1
  Os  Os35  1  0.000000  0.638934  0.319692  1
