# generated using pymatgen
data_Hf18Re6RuW2S
_symmetry_space_group_name_H-M   'P 1'
_cell_length_a   8.63994200
_cell_length_b   8.63994314
_cell_length_c   8.54807000
_cell_angle_alpha   90.00000000
_cell_angle_beta   90.00000000
_cell_angle_gamma   120.00000329
_symmetry_Int_Tables_number   1
_chemical_formula_structural   Hf18Re6RuW2S
_chemical_formula_sum   'Hf18 Re6 Ru1 W2 S1'
_cell_volume   552.61211115
_cell_formula_units_Z   1
loop_
 _symmetry_equiv_pos_site_id
 _symmetry_equiv_pos_as_xyz
  1  'x, y, z'
loop_
 _atom_site_type_symbol
 _atom_site_label
 _atom_site_symmetry_multiplicity
 _atom_site_fract_x
 _atom_site_fract_y
 _atom_site_fract_z
 _atom_site_occupancy
  Hf  Hf0  1  0.197515  0.802485  0.445706  1
  Hf  Hf1  1  0.197515  0.395029  0.445706  1
  Hf  Hf2  1  0.604971  0.802485  0.445706  1
  Hf  Hf3  1  0.804842  0.195158  0.550717  1
  Hf  Hf4  1  0.804842  0.609686  0.550717  1
  Hf  Hf5  1  0.390314  0.195158  0.550717  1
  Hf  Hf6  1  0.804842  0.195158  0.949283  1
  Hf  Hf7  1  0.804842  0.609686  0.949283  1
  Hf  Hf8  1  0.390314  0.195158  0.949283  1
  Hf  Hf9  1  0.197515  0.802485  0.054294  1
  Hf  Hf10  1  0.197515  0.395029  0.054294  1
  Hf  Hf11  1  0.604971  0.802485  0.054294  1
  Hf  Hf12  1  0.542253  0.457747  0.250000  1
  Hf  Hf13  1  0.542253  0.084507  0.250000  1
  Hf  Hf14  1  0.915493  0.457747  0.250000  1
  Hf  Hf15  1  0.455165  0.544835  0.750000  1
  Hf  Hf16  1  0.455165  0.910329  0.750000  1
  Hf  Hf17  1  0.089671  0.544835  0.750000  1
  Re  Re18  1  0.888444  0.111556  0.250000  1
  Re  Re19  1  0.888444  0.776887  0.250000  1
  Re  Re20  1  0.223113  0.111556  0.250000  1
  Re  Re21  1  0.111186  0.888814  0.750000  1
  Re  Re22  1  0.111186  0.222371  0.750000  1
  Re  Re23  1  0.777629  0.888814  0.750000  1
  Ru  Ru24  1  0.333333  0.666667  0.250000  1
  W  W25  1  0.000000  0.000000  0.499476  1
  W  W26  1  0.000000  0.000000  0.000524  1
  S  S27  1  0.666667  0.333333  0.750000  1
