# generated using pymatgen
data_Sc8TiRe10Si16Ru
_symmetry_space_group_name_H-M   'P 1'
_cell_length_a   6.63241632
_cell_length_b   6.61996976
_cell_length_c   12.53279656
_cell_angle_alpha   90.00277796
_cell_angle_beta   90.08418966
_cell_angle_gamma   89.59407708
_symmetry_Int_Tables_number   1
_chemical_formula_structural   Sc8TiRe10Si16Ru
_chemical_formula_sum   'Sc8 Ti1 Re10 Si16 Ru1'
_cell_volume   550.25551726
_cell_formula_units_Z   1
loop_
 _symmetry_equiv_pos_site_id
 _symmetry_equiv_pos_as_xyz
  1  'x, y, z'
loop_
 _atom_site_type_symbol
 _atom_site_label
 _atom_site_symmetry_multiplicity
 _atom_site_fract_x
 _atom_site_fract_y
 _atom_site_fract_z
 _atom_site_occupancy
  Sc  Sc0  1  0.002866  0.658799  0.027511  1
  Sc  Sc1  1  0.991649  0.343911  0.535217  1
  Sc  Sc2  1  0.336879  0.998750  0.471011  1
  Sc  Sc3  1  0.156985  0.487125  0.782847  1
  Sc  Sc4  1  0.835439  0.509610  0.281094  1
  Sc  Sc5  1  0.487613  0.164322  0.217175  1
  Sc  Sc6  1  0.511378  0.841992  0.719599  1
  Sc  Sc7  1  0.652948  0.009128  0.966080  1
  Ti  Ti8  1  0.161386  0.839296  0.249696  1
  Re  Re9  1  0.330778  0.331332  0.999344  1
  Re  Re10  1  0.021917  0.806110  0.636719  1
  Re  Re11  1  0.985414  0.170475  0.136418  1
  Re  Re12  1  0.826336  0.015253  0.364723  1
  Re  Re13  1  0.318590  0.508605  0.374668  1
  Re  Re14  1  0.694787  0.512669  0.886982  1
  Re  Re15  1  0.487960  0.311919  0.612851  1
  Re  Re16  1  0.493558  0.681072  0.127078  1
  Re  Re17  1  0.200202  0.974636  0.860468  1
  Re  Re18  1  0.834970  0.164816  0.750886  1
  Si  Si19  1  0.022500  0.725334  0.444133  1
  Si  Si20  1  0.621306  0.306124  0.428779  1
  Si  Si21  1  0.384746  0.689365  0.931859  1
  Si  Si22  1  0.198546  0.119125  0.677367  1
  Si  Si23  1  0.308059  0.618779  0.567576  1
  Si  Si24  1  0.694697  0.377123  0.072089  1
  Si  Si25  1  0.791287  0.871651  0.178696  1
  Si  Si26  1  0.127819  0.208794  0.322133  1
  Si  Si27  1  0.978839  0.261949  0.940038  1
  Si  Si28  1  0.730778  0.023454  0.559866  1
  Si  Si29  1  0.201013  0.468152  0.182976  1
  Si  Si30  1  0.774269  0.522738  0.691719  1
  Si  Si31  1  0.478588  0.227125  0.808183  1
  Si  Si32  1  0.531394  0.798681  0.316838  1
  Si  Si33  1  0.273561  0.974210  0.055230  1
  Si  Si34  1  0.883760  0.802988  0.822215  1
  Ru  Ru35  1  0.667183  0.674588  0.499933  1
