# generated using pymatgen
data_Dy4Tc3B16Os
_symmetry_space_group_name_H-M   'P 1'
_cell_length_a   3.58944700
_cell_length_b   5.97291506
_cell_length_c   11.55940400
_cell_angle_alpha   90.09716405
_cell_angle_beta   90.00000000
_cell_angle_gamma   90.00000000
_symmetry_Int_Tables_number   1
_chemical_formula_structural   Dy4Tc3B16Os
_chemical_formula_sum   'Dy4 Tc3 B16 Os1'
_cell_volume   247.82704683
_cell_formula_units_Z   1
loop_
 _symmetry_equiv_pos_site_id
 _symmetry_equiv_pos_as_xyz
  1  'x, y, z'
loop_
 _atom_site_type_symbol
 _atom_site_label
 _atom_site_symmetry_multiplicity
 _atom_site_fract_x
 _atom_site_fract_y
 _atom_site_fract_z
 _atom_site_occupancy
  Dy  Dy0  1  0.000000  0.628705  0.350444  1
  Dy  Dy1  1  0.000000  0.372106  0.648639  1
  Dy  Dy2  1  0.000000  0.126779  0.151079  1
  Dy  Dy3  1  0.000000  0.873524  0.849501  1
  Tc  Tc4  1  0.000000  0.631344  0.086740  1
  Tc  Tc5  1  0.000000  0.368156  0.912162  1
  Tc  Tc6  1  0.000000  0.137728  0.410158  1
  B  B7  1  0.500000  0.786696  0.185048  1
  B  B8  1  0.500000  0.212435  0.814655  1
  B  B9  1  0.500000  0.287118  0.314902  1
  B  B10  1  0.500000  0.712544  0.685027  1
  B  B11  1  0.500000  0.864015  0.031619  1
  B  B12  1  0.500000  0.135562  0.967991  1
  B  B13  1  0.500000  0.364356  0.469637  1
  B  B14  1  0.500000  0.636901  0.531101  1
  B  B15  1  0.500000  0.887148  0.453294  1
  B  B16  1  0.500000  0.112719  0.547250  1
  B  B17  1  0.500000  0.386414  0.046924  1
  B  B18  1  0.500000  0.612949  0.952605  1
  B  B19  1  0.500000  0.974612  0.308334  1
  B  B20  1  0.500000  0.025596  0.691713  1
  B  B21  1  0.500000  0.477553  0.192139  1
  B  B22  1  0.500000  0.522938  0.807515  1
  Os  Os23  1  0.000000  0.862104  0.591523  1
