# generated using pymatgen
data_Li12GdTm3(BO3)8
_symmetry_space_group_name_H-M   'P 1'
_cell_length_a   6.44488554
_cell_length_b   8.64975198
_cell_length_c   9.87615997
_cell_angle_alpha   114.75506936
_cell_angle_beta   89.82412189
_cell_angle_gamma   89.90884036
_symmetry_Int_Tables_number   1
_chemical_formula_structural   Li12GdTm3(BO3)8
_chemical_formula_sum   'Li12 Gd1 Tm3 B8 O24'
_cell_volume   499.96472205
_cell_formula_units_Z   1
loop_
 _symmetry_equiv_pos_site_id
 _symmetry_equiv_pos_as_xyz
  1  'x, y, z'
loop_
 _atom_site_type_symbol
 _atom_site_label
 _atom_site_symmetry_multiplicity
 _atom_site_fract_x
 _atom_site_fract_y
 _atom_site_fract_z
 _atom_site_occupancy
  Li  Li0  1  0.439469  0.038769  0.333149  1
  Li  Li1  1  0.746033  0.124822  0.521328  1
  Li  Li2  1  0.754934  0.626376  0.020672  1
  Li  Li3  1  0.244948  0.373244  0.977257  1
  Li  Li4  1  0.220123  0.294171  0.459778  1
  Li  Li5  1  0.939494  0.460168  0.165412  1
  Li  Li6  1  0.560225  0.961428  0.667213  1
  Li  Li7  1  0.781466  0.704485  0.541473  1
  Li  Li8  1  0.253471  0.876710  0.479397  1
  Li  Li9  1  0.720825  0.202365  0.040246  1
  Li  Li10  1  0.279727  0.796289  0.959358  1
  Li  Li11  1  0.059733  0.540261  0.833554  1
  Gd  Gd12  1  0.473160  0.482159  0.300698  1
  Tm  Tm13  1  0.026260  0.982757  0.800833  1
  Tm  Tm14  1  0.528178  0.516640  0.700218  1
  Tm  Tm15  1  0.973673  0.016956  0.198108  1
  B  B16  1  0.337901  0.220284  0.680255  1
  B  B17  1  0.324483  0.159203  0.105742  1
  B  B18  1  0.665412  0.783694  0.320453  1
  B  B19  1  0.158857  0.720719  0.178398  1
  B  B20  1  0.828990  0.336618  0.393222  1
  B  B21  1  0.673652  0.837026  0.891359  1
  B  B22  1  0.837903  0.279646  0.819908  1
  B  B23  1  0.172650  0.663608  0.611430  1
  O  O24  1  0.285182  0.072644  0.693985  1
  O  O25  1  0.560637  0.787891  0.447180  1
  O  O26  1  0.203898  0.025691  0.012536  1
  O  O27  1  0.713836  0.931309  0.305852  1
  O  O28  1  0.177039  0.705993  0.763167  1
  O  O29  1  0.786361  0.427769  0.806464  1
  O  O30  1  0.444091  0.216770  0.554366  1
  O  O31  1  0.295491  0.383867  0.788719  1
  O  O32  1  0.054450  0.720128  0.053616  1
  O  O33  1  0.942874  0.282476  0.945606  1
  O  O34  1  0.713589  0.472876  0.490635  1
  O  O35  1  0.791978  0.972220  0.985561  1
  O  O36  1  0.561508  0.731200  0.936145  1
  O  O37  1  0.208712  0.571192  0.189274  1
  O  O38  1  0.203381  0.882547  0.287995  1
  O  O39  1  0.063505  0.768391  0.563811  1
  O  O40  1  0.680070  0.797868  0.739854  1
  O  O41  1  0.437368  0.262115  0.058311  1
  O  O42  1  0.820293  0.298431  0.241372  1
  O  O43  1  0.711147  0.621413  0.211640  1
  O  O44  1  0.795373  0.116635  0.711652  1
  O  O45  1  0.290569  0.525650  0.519678  1
  O  O46  1  0.940377  0.228998  0.435728  1
  O  O47  1  0.316705  0.197530  0.257389  1
