# generated using pymatgen
data_SrTb5(Si3Os)8
_symmetry_space_group_name_H-M   'P 1'
_cell_length_a   10.17538890
_cell_length_b   10.17538877
_cell_length_c   8.22118846
_cell_angle_alpha   90.06408877
_cell_angle_beta   89.93590678
_cell_angle_gamma   132.35252954
_symmetry_Int_Tables_number   1
_chemical_formula_structural   SrTb5(Si3Os)8
_chemical_formula_sum   'Sr1 Tb5 Si24 Os8'
_cell_volume   629.05530710
_cell_formula_units_Z   1
loop_
 _symmetry_equiv_pos_site_id
 _symmetry_equiv_pos_as_xyz
  1  'x, y, z'
loop_
 _atom_site_type_symbol
 _atom_site_label
 _atom_site_symmetry_multiplicity
 _atom_site_fract_x
 _atom_site_fract_y
 _atom_site_fract_z
 _atom_site_occupancy
  Sr  Sr0  1  0.001260  0.501260  0.750000  1
  Tb  Tb1  1  0.501709  0.001709  0.750000  1
  Tb  Tb2  1  0.998515  0.498515  0.250000  1
  Tb  Tb3  1  0.500763  0.000763  0.250000  1
  Tb  Tb4  1  0.000201  0.000270  0.999447  1
  Tb  Tb5  1  0.500270  0.500201  0.500553  1
  Si  Si6  1  0.793842  0.203620  0.499636  1
  Si  Si7  1  0.703620  0.293842  0.000364  1
  Si  Si8  1  0.206161  0.796840  0.498236  1
  Si  Si9  1  0.296840  0.706161  0.001764  1
  Si  Si10  1  0.668776  0.667350  0.166621  1
  Si  Si11  1  0.167350  0.168776  0.333379  1
  Si  Si12  1  0.832111  0.833928  0.667056  1
  Si  Si13  1  0.333928  0.332111  0.832944  1
  Si  Si14  1  0.844013  0.611033  0.000714  1
  Si  Si15  1  0.111033  0.344013  0.499286  1
  Si  Si16  1  0.655696  0.888625  0.495815  1
  Si  Si17  1  0.388625  0.155696  0.004185  1
  Si  Si18  1  0.153861  0.387914  0.008933  1
  Si  Si19  1  0.887914  0.653861  0.491067  1
  Si  Si20  1  0.126953  0.892300  0.729008  1
  Si  Si21  1  0.392300  0.626953  0.770992  1
  Si  Si22  1  0.378147  0.611385  0.227907  1
  Si  Si23  1  0.111385  0.878147  0.272093  1
  Si  Si24  1  0.879189  0.112371  0.273169  1
  Si  Si25  1  0.612371  0.379189  0.226831  1
  Si  Si26  1  0.616576  0.382148  0.771883  1
  Si  Si27  1  0.882148  0.116576  0.728117  1
  Si  Si28  1  0.611866  0.844227  0.994195  1
  Si  Si29  1  0.344227  0.111866  0.505805  1
  Os  Os30  1  0.626833  0.626429  0.872182  1
  Os  Os31  1  0.126429  0.126833  0.627818  1
  Os  Os32  1  0.373365  0.373989  0.126900  1
  Os  Os33  1  0.873989  0.873365  0.373100  1
  Os  Os34  1  0.171020  0.833027  0.003089  1
  Os  Os35  1  0.333027  0.671020  0.496911  1
  Os  Os36  1  0.828343  0.165346  0.003891  1
  Os  Os37  1  0.665346  0.328343  0.496109  1
