# generated using pymatgen
data_MgSc5B4(RuRh4)2
_symmetry_space_group_name_H-M   'P 1'
_cell_length_a   9.52472700
_cell_length_b   9.52472700
_cell_length_c   3.06651600
_cell_angle_alpha   90.00000000
_cell_angle_beta   90.00000000
_cell_angle_gamma   90.00000000
_symmetry_Int_Tables_number   1
_chemical_formula_structural   MgSc5B4(RuRh4)2
_chemical_formula_sum   'Mg1 Sc5 B4 Ru2 Rh8'
_cell_volume   278.19563302
_cell_formula_units_Z   1
loop_
 _symmetry_equiv_pos_site_id
 _symmetry_equiv_pos_as_xyz
  1  'x, y, z'
loop_
 _atom_site_type_symbol
 _atom_site_label
 _atom_site_symmetry_multiplicity
 _atom_site_fract_x
 _atom_site_fract_y
 _atom_site_fract_z
 _atom_site_occupancy
  Mg  Mg0  1  0.500000  0.500000  0.000000  1
  Sc  Sc1  1  0.672247  0.175497  0.000000  1
  Sc  Sc2  1  0.327753  0.824503  0.000000  1
  Sc  Sc3  1  0.175497  0.327753  0.000000  1
  Sc  Sc4  1  0.824503  0.672247  0.000000  1
  Sc  Sc5  1  0.000000  0.000000  0.000000  1
  B  B6  1  0.124330  0.618220  0.000000  1
  B  B7  1  0.875670  0.381780  0.000000  1
  B  B8  1  0.618220  0.875670  0.000000  1
  B  B9  1  0.381780  0.124330  0.000000  1
  Ru  Ru10  1  0.500000  0.000000  0.500000  1
  Ru  Ru11  1  0.000000  0.500000  0.500000  1
  Rh  Rh12  1  0.221852  0.073919  0.500000  1
  Rh  Rh13  1  0.778148  0.926081  0.500000  1
  Rh  Rh14  1  0.073919  0.778148  0.500000  1
  Rh  Rh15  1  0.719368  0.427479  0.500000  1
  Rh  Rh16  1  0.926081  0.221852  0.500000  1
  Rh  Rh17  1  0.280632  0.572521  0.500000  1
  Rh  Rh18  1  0.572521  0.719368  0.500000  1
  Rh  Rh19  1  0.427479  0.280632  0.500000  1
