# generated using pymatgen
data_Dy6ErCo6Sn22Au
_symmetry_space_group_name_H-M   'P 1'
_cell_length_a   9.65341113
_cell_length_b   9.65341134
_cell_length_c   9.94975714
_cell_angle_alpha   89.98317644
_cell_angle_beta   90.01682456
_cell_angle_gamma   120.00853970
_symmetry_Int_Tables_number   1
_chemical_formula_structural   Dy6ErCo6Sn22Au
_chemical_formula_sum   'Dy6 Er1 Co6 Sn22 Au1'
_cell_volume   802.91084512
_cell_formula_units_Z   1
loop_
 _symmetry_equiv_pos_site_id
 _symmetry_equiv_pos_as_xyz
  1  'x, y, z'
loop_
 _atom_site_type_symbol
 _atom_site_label
 _atom_site_symmetry_multiplicity
 _atom_site_fract_x
 _atom_site_fract_y
 _atom_site_fract_z
 _atom_site_occupancy
  Dy  Dy0  1  0.999984  0.000016  0.000025  1
  Dy  Dy1  1  0.521076  0.478924  0.693253  1
  Dy  Dy2  1  0.478981  0.957876  0.306516  1
  Dy  Dy3  1  0.521027  0.042115  0.693472  1
  Dy  Dy4  1  0.042124  0.521019  0.306516  1
  Dy  Dy5  1  0.957885  0.478973  0.693472  1
  Er  Er6  1  0.479187  0.520813  0.306593  1
  Co  Co7  1  0.832200  0.167800  0.196872  1
  Co  Co8  1  0.167841  0.832159  0.803193  1
  Co  Co9  1  0.831642  0.664099  0.197044  1
  Co  Co10  1  0.167821  0.335690  0.803132  1
  Co  Co11  1  0.335901  0.168358  0.197044  1
  Co  Co12  1  0.664310  0.832179  0.803132  1
  Sn  Sn13  1  0.346152  0.000142  0.000031  1
  Sn  Sn14  1  0.653905  0.000007  0.000071  1
  Sn  Sn15  1  0.999993  0.346095  0.000071  1
  Sn  Sn16  1  0.999858  0.653848  0.000031  1
  Sn  Sn17  1  0.653819  0.653752  0.000312  1
  Sn  Sn18  1  0.346248  0.346181  0.000312  1
  Sn  Sn19  1  0.333314  0.666686  0.817672  1
  Sn  Sn20  1  0.666505  0.333495  0.182385  1
  Sn  Sn21  1  0.783068  0.216932  0.453056  1
  Sn  Sn22  1  0.216905  0.783095  0.546905  1
  Sn  Sn23  1  0.782310  0.566118  0.452688  1
  Sn  Sn24  1  0.217254  0.433867  0.546466  1
  Sn  Sn25  1  0.433882  0.217690  0.452688  1
  Sn  Sn26  1  0.566133  0.782746  0.546466  1
  Sn  Sn27  1  0.333860  0.666140  0.119045  1
  Sn  Sn28  1  0.666641  0.333359  0.881618  1
  Sn  Sn29  1  0.113267  0.886733  0.277943  1
  Sn  Sn30  1  0.886700  0.113300  0.722003  1
  Sn  Sn31  1  0.113890  0.227020  0.277963  1
  Sn  Sn32  1  0.886792  0.773451  0.722027  1
  Sn  Sn33  1  0.772980  0.886110  0.277963  1
  Sn  Sn34  1  0.226549  0.113208  0.722027  1
  Au  Au35  1  0.999994  0.000006  0.499988  1
