# generated using pymatgen
data_Dy4Ho2ScCrO12
_symmetry_space_group_name_H-M   'P 1'
_cell_length_a   6.55230552
_cell_length_b   6.55083598
_cell_length_c   6.55011809
_cell_angle_alpha   92.78434470
_cell_angle_beta   92.76902879
_cell_angle_gamma   92.77637571
_symmetry_Int_Tables_number   1
_chemical_formula_structural   Dy4Ho2ScCrO12
_chemical_formula_sum   'Dy4 Ho2 Sc1 Cr1 O12'
_cell_volume   280.12779071
_cell_formula_units_Z   1
loop_
 _symmetry_equiv_pos_site_id
 _symmetry_equiv_pos_as_xyz
  1  'x, y, z'
loop_
 _atom_site_type_symbol
 _atom_site_label
 _atom_site_symmetry_multiplicity
 _atom_site_fract_x
 _atom_site_fract_y
 _atom_site_fract_z
 _atom_site_occupancy
  Dy  Dy0  1  0.743111  0.926721  0.435587  1
  Dy  Dy1  1  0.926649  0.436186  0.742964  1
  Dy  Dy2  1  0.435940  0.742753  0.927253  1
  Dy  Dy3  1  0.257614  0.073489  0.563893  1
  Ho  Ho4  1  0.073178  0.563612  0.257077  1
  Ho  Ho5  1  0.564163  0.257393  0.073361  1
  Sc  Sc6  1  0.000261  0.000419  0.000485  1
  Cr  Cr7  1  0.499943  0.499817  0.499638  1
  O  O8  1  0.587260  0.459033  0.799082  1
  O  O9  1  0.460434  0.798762  0.587708  1
  O  O10  1  0.799242  0.587301  0.459229  1
  O  O11  1  0.411438  0.538467  0.200601  1
  O  O12  1  0.539744  0.201247  0.410998  1
  O  O13  1  0.200681  0.412938  0.538559  1
  O  O14  1  0.068652  0.913603  0.308076  1
  O  O15  1  0.914486  0.308583  0.069693  1
  O  O16  1  0.691948  0.933196  0.084533  1
  O  O17  1  0.084728  0.692182  0.932868  1
  O  O18  1  0.932148  0.084909  0.692460  1
  O  O19  1  0.308379  0.069387  0.915934  1
