# generated using pymatgen
data_Pr3Ho3FeCl10
_symmetry_space_group_name_H-M   'P 1'
_cell_length_a   7.28868663
_cell_length_b   8.81900700
_cell_length_c   9.07507579
_cell_angle_alpha   109.36150971
_cell_angle_beta   97.52161594
_cell_angle_gamma   105.25369014
_symmetry_Int_Tables_number   1
_chemical_formula_structural   Pr3Ho3FeCl10
_chemical_formula_sum   'Pr3 Ho3 Fe1 Cl10'
_cell_volume   515.48662249
_cell_formula_units_Z   1
loop_
 _symmetry_equiv_pos_site_id
 _symmetry_equiv_pos_as_xyz
  1  'x, y, z'
loop_
 _atom_site_type_symbol
 _atom_site_label
 _atom_site_symmetry_multiplicity
 _atom_site_fract_x
 _atom_site_fract_y
 _atom_site_fract_z
 _atom_site_occupancy
  Pr  Pr0  1  0.030346  0.712247  0.908083  1
  Pr  Pr1  1  0.378568  0.153506  0.204697  1
  Pr  Pr2  1  0.964805  0.285133  0.087161  1
  Ho  Ho3  1  0.129999  0.050433  0.750232  1
  Ho  Ho4  1  0.632673  0.857057  0.806499  1
  Ho  Ho5  1  0.863144  0.943398  0.245845  1
  Fe  Fe6  1  0.999754  0.998850  0.000075  1
  Cl  Cl7  1  0.218149  0.758123  0.654065  1
  Cl  Cl8  1  0.636111  0.547316  0.721405  1
  Cl  Cl9  1  0.224386  0.075614  0.456989  1
  Cl  Cl10  1  0.806946  0.245670  0.355999  1
  Cl  Cl11  1  0.543337  0.163650  0.912500  1
  Cl  Cl12  1  0.760792  0.916746  0.550476  1
  Cl  Cl13  1  0.900743  0.635293  0.171438  1
  Cl  Cl14  1  0.352005  0.469481  0.275837  1
  Cl  Cl15  1  0.097681  0.361200  0.825239  1
  Cl  Cl16  1  0.460561  0.826281  0.073461  1
