# generated using pymatgen
data_S3N4
_symmetry_space_group_name_H-M   'P 1'
_cell_length_a   6.24498318
_cell_length_b   5.88736982
_cell_length_c   9.78374932
_cell_angle_alpha   65.22878473
_cell_angle_beta   74.47045227
_cell_angle_gamma   42.68409685
_symmetry_Int_Tables_number   1
_chemical_formula_structural   S3N4
_chemical_formula_sum   'S3 N4'
_cell_volume   220.95715327
_cell_formula_units_Z   1
loop_
 _symmetry_equiv_pos_site_id
 _symmetry_equiv_pos_as_xyz
  1  'x, y, z'
loop_
 _atom_site_type_symbol
 _atom_site_label
 _atom_site_symmetry_multiplicity
 _atom_site_fract_x
 _atom_site_fract_y
 _atom_site_fract_z
 _atom_site_occupancy
  S  S0  1  0.797679  0.734689  0.952752  1
  S  S1  1  0.044287  0.207650  0.009504  1
  S  S2  1  0.469163  0.911201  0.114313  1
  N  N3  1  0.322440  0.944443  0.629151  1
  N  N4  1  0.971974  0.904945  0.425402  1
  N  N5  1  0.077786  0.201091  0.632370  1
  N  N6  1  0.723421  0.118560  0.450839  1
