# generated using pymatgen
data_Zr12MnAlFe2(Ir2N)4
_symmetry_space_group_name_H-M   'P 1'
_cell_length_a   8.55138480
_cell_length_b   8.55138559
_cell_length_c   8.55138500
_cell_angle_alpha   60.26651882
_cell_angle_beta   60.26651578
_cell_angle_gamma   60.26651674
_symmetry_Int_Tables_number   1
_chemical_formula_structural   Zr12MnAlFe2(Ir2N)4
_chemical_formula_sum   'Zr12 Mn1 Al1 Fe2 Ir8 N4'
_cell_volume   444.84258651
_cell_formula_units_Z   1
loop_
 _symmetry_equiv_pos_site_id
 _symmetry_equiv_pos_as_xyz
  1  'x, y, z'
loop_
 _atom_site_type_symbol
 _atom_site_label
 _atom_site_symmetry_multiplicity
 _atom_site_fract_x
 _atom_site_fract_y
 _atom_site_fract_z
 _atom_site_occupancy
  Zr  Zr0  1  0.808354  0.808354  0.191281  1
  Zr  Zr1  1  0.193038  0.193038  0.807002  1
  Zr  Zr2  1  0.808122  0.191218  0.808675  1
  Zr  Zr3  1  0.192861  0.806715  0.192961  1
  Zr  Zr4  1  0.191218  0.808122  0.808675  1
  Zr  Zr5  1  0.806715  0.192861  0.192961  1
  Zr  Zr6  1  0.441646  0.441646  0.058719  1
  Zr  Zr7  1  0.056962  0.056962  0.442998  1
  Zr  Zr8  1  0.441878  0.058782  0.441325  1
  Zr  Zr9  1  0.057139  0.443285  0.057039  1
  Zr  Zr10  1  0.058782  0.441878  0.441325  1
  Zr  Zr11  1  0.443285  0.057139  0.057039  1
  Mn  Mn12  1  0.625000  0.625000  0.125000  1
  Al  Al13  1  0.625000  0.625000  0.625000  1
  Fe  Fe14  1  0.125000  0.625000  0.625000  1
  Fe  Fe15  1  0.625000  0.125000  0.625000  1
  Ir  Ir16  1  0.749343  0.415583  0.417295  1
  Ir  Ir17  1  0.415583  0.749343  0.417295  1
  Ir  Ir18  1  0.416360  0.416360  0.747684  1
  Ir  Ir19  1  0.416502  0.416502  0.418896  1
  Ir  Ir20  1  0.500657  0.834417  0.832705  1
  Ir  Ir21  1  0.834417  0.500657  0.832705  1
  Ir  Ir22  1  0.833640  0.833640  0.502316  1
  Ir  Ir23  1  0.833498  0.833498  0.831104  1
  N  N24  1  0.625000  0.125000  0.125000  1
  N  N25  1  0.125000  0.625000  0.125000  1
  N  N26  1  0.125000  0.125000  0.625000  1
  N  N27  1  0.125000  0.125000  0.125000  1
