# generated using pymatgen
data_Ca3Mn2Cu(PO4)4
_symmetry_space_group_name_H-M   'P 1'
_cell_length_a   4.95671300
_cell_length_b   9.06874056
_cell_length_c   17.15338577
_cell_angle_alpha   62.58868895
_cell_angle_beta   90.00000000
_cell_angle_gamma   90.00000000
_symmetry_Int_Tables_number   1
_chemical_formula_structural   Ca3Mn2Cu(PO4)4
_chemical_formula_sum   'Ca6 Mn4 Cu2 P8 O32'
_cell_volume   684.49269961
_cell_formula_units_Z   2
loop_
 _symmetry_equiv_pos_site_id
 _symmetry_equiv_pos_as_xyz
  1  'x, y, z'
loop_
 _atom_site_type_symbol
 _atom_site_label
 _atom_site_symmetry_multiplicity
 _atom_site_fract_x
 _atom_site_fract_y
 _atom_site_fract_z
 _atom_site_occupancy
  Ca  Ca0  1  0.469338  0.191005  0.266471  1
  Ca  Ca1  1  0.969338  0.808995  0.233529  1
  Ca  Ca2  1  0.530662  0.808995  0.733529  1
  Ca  Ca3  1  0.030662  0.191005  0.766471  1
  Ca  Ca4  1  0.000000  0.500000  0.500000  1
  Ca  Ca5  1  0.500000  0.500000  0.000000  1
  Mn  Mn6  1  0.481498  0.695888  0.122266  1
  Mn  Mn7  1  0.981498  0.304112  0.377734  1
  Mn  Mn8  1  0.518502  0.304112  0.877734  1
  Mn  Mn9  1  0.018502  0.695888  0.622266  1
  Cu  Cu10  1  0.000000  0.000000  0.000000  1
  Cu  Cu11  1  0.500000  0.000000  0.500000  1
  P  P12  1  0.015835  0.538307  0.841761  1
  P  P13  1  0.515835  0.461693  0.658239  1
  P  P14  1  0.984165  0.461693  0.158239  1
  P  P15  1  0.484165  0.538307  0.341761  1
  P  P16  1  0.989989  0.061418  0.595580  1
  P  P17  1  0.489989  0.938582  0.904420  1
  P  P18  1  0.010011  0.938582  0.404420  1
  P  P19  1  0.510011  0.061418  0.095580  1
  O  O20  1  0.958507  0.680596  0.746926  1
  O  O21  1  0.458507  0.319404  0.753074  1
  O  O22  1  0.041493  0.319404  0.253074  1
  O  O23  1  0.541493  0.680596  0.246926  1
  O  O24  1  0.170578  0.536674  0.357064  1
  O  O25  1  0.670578  0.463326  0.142936  1
  O  O26  1  0.829422  0.463326  0.642936  1
  O  O27  1  0.329422  0.536674  0.857064  1
  O  O28  1  0.937547  0.366219  0.847500  1
  O  O29  1  0.437547  0.633781  0.652500  1
  O  O30  1  0.062453  0.633781  0.152500  1
  O  O31  1  0.562453  0.366219  0.347500  1
  O  O32  1  0.859304  0.576785  0.906357  1
  O  O33  1  0.359304  0.423215  0.593643  1
  O  O34  1  0.140696  0.423215  0.093643  1
  O  O35  1  0.640696  0.576785  0.406357  1
  O  O36  1  0.799344  0.931982  0.583232  1
  O  O37  1  0.299344  0.068018  0.916768  1
  O  O38  1  0.200656  0.068018  0.416768  1
  O  O39  1  0.700656  0.931982  0.083232  1
  O  O40  1  0.588744  0.061953  0.181501  1
  O  O41  1  0.088744  0.938047  0.318499  1
  O  O42  1  0.411256  0.938047  0.818499  1
  O  O43  1  0.911256  0.061953  0.681501  1
  O  O44  1  0.959634  0.232444  0.514720  1
  O  O45  1  0.459634  0.767556  0.985280  1
  O  O46  1  0.040366  0.767556  0.485280  1
  O  O47  1  0.540366  0.232444  0.014720  1
  O  O48  1  0.217927  0.989482  0.101615  1
  O  O49  1  0.717927  0.010518  0.398385  1
  O  O50  1  0.782073  0.010518  0.898385  1
  O  O51  1  0.282073  0.989482  0.601615  1
