# generated using pymatgen
data_Tb15Ho5(SiBi2)4
_symmetry_space_group_name_H-M   'P 1'
_cell_length_a   12.11868610
_cell_length_b   9.19819601
_cell_length_c   8.07761007
_cell_angle_alpha   90.00444408
_cell_angle_beta   89.98588589
_cell_angle_gamma   90.00253184
_symmetry_Int_Tables_number   1
_chemical_formula_structural   Tb15Ho5(SiBi2)4
_chemical_formula_sum   'Tb15 Ho5 Si4 Bi8'
_cell_volume   900.41156778
_cell_formula_units_Z   1
loop_
 _symmetry_equiv_pos_site_id
 _symmetry_equiv_pos_as_xyz
  1  'x, y, z'
loop_
 _atom_site_type_symbol
 _atom_site_label
 _atom_site_symmetry_multiplicity
 _atom_site_fract_x
 _atom_site_fract_y
 _atom_site_fract_z
 _atom_site_occupancy
  Tb  Tb0  1  0.563383  0.948270  0.680373  1
  Tb  Tb1  1  0.936583  0.051726  0.180385  1
  Tb  Tb2  1  0.436542  0.448254  0.319618  1
  Tb  Tb3  1  0.936627  0.448324  0.180483  1
  Tb  Tb4  1  0.436565  0.051707  0.319568  1
  Tb  Tb5  1  0.063419  0.948094  0.819477  1
  Tb  Tb6  1  0.563420  0.551738  0.680425  1
  Tb  Tb7  1  0.211529  0.749838  0.164895  1
  Tb  Tb8  1  0.711607  0.749980  0.334888  1
  Tb  Tb9  1  0.788417  0.250001  0.834946  1
  Tb  Tb10  1  0.288364  0.250042  0.665156  1
  Tb  Tb11  1  0.295065  0.749875  0.635462  1
  Tb  Tb12  1  0.795435  0.749852  0.864508  1
  Tb  Tb13  1  0.704754  0.249940  0.364678  1
  Tb  Tb14  1  0.204712  0.249989  0.135340  1
  Ho  Ho15  1  0.063367  0.552106  0.820074  1
  Ho  Ho16  1  0.000947  0.749972  0.460026  1
  Ho  Ho17  1  0.500916  0.749973  0.040295  1
  Ho  Ho18  1  0.999092  0.250086  0.540247  1
  Ho  Ho19  1  0.499034  0.250009  0.959791  1
  Si  Si20  1  0.479935  0.750005  0.413598  1
  Si  Si21  1  0.980051  0.749495  0.086029  1
  Si  Si22  1  0.520066  0.249976  0.586451  1
  Si  Si23  1  0.020282  0.250908  0.913325  1
  Bi  Bi24  1  0.326361  0.510861  0.931735  1
  Bi  Bi25  1  0.826572  0.989077  0.568106  1
  Bi  Bi26  1  0.673477  0.010853  0.068089  1
  Bi  Bi27  1  0.173327  0.489137  0.432128  1
  Bi  Bi28  1  0.673490  0.489123  0.068076  1
  Bi  Bi29  1  0.173435  0.010816  0.431886  1
  Bi  Bi30  1  0.326554  0.989090  0.931884  1
  Bi  Bi31  1  0.826669  0.510885  0.568058  1
