# generated using pymatgen
data_ErTm6Lu(OsBr4)2
_symmetry_space_group_name_H-M   'P 1'
_cell_length_a   8.85610652
_cell_length_b   8.88077061
_cell_length_c   6.48158829
_cell_angle_alpha   89.46961226
_cell_angle_beta   89.57713924
_cell_angle_gamma   89.25421514
_symmetry_Int_Tables_number   1
_chemical_formula_structural   ErTm6Lu(OsBr4)2
_chemical_formula_sum   'Er1 Tm6 Lu1 Os2 Br8'
_cell_volume   509.69230596
_cell_formula_units_Z   1
loop_
 _symmetry_equiv_pos_site_id
 _symmetry_equiv_pos_as_xyz
  1  'x, y, z'
loop_
 _atom_site_type_symbol
 _atom_site_label
 _atom_site_symmetry_multiplicity
 _atom_site_fract_x
 _atom_site_fract_y
 _atom_site_fract_z
 _atom_site_occupancy
  Er  Er0  1  0.902582  0.752490  0.008946  1
  Tm  Tm1  1  0.752116  0.098277  0.989229  1
  Tm  Tm2  1  0.099042  0.752311  0.490160  1
  Tm  Tm3  1  0.902342  0.247428  0.510501  1
  Tm  Tm4  1  0.753194  0.903167  0.508806  1
  Tm  Tm5  1  0.247610  0.096018  0.492121  1
  Tm  Tm6  1  0.097112  0.246456  0.992074  1
  Lu  Lu7  1  0.244634  0.902891  0.011723  1
  Os  Os8  1  0.994628  0.004922  0.250771  1
  Os  Os9  1  0.005323  0.994875  0.750042  1
  Br  Br10  1  0.419943  0.817041  0.405018  1
  Br  Br11  1  0.580890  0.183635  0.591330  1
  Br  Br12  1  0.184425  0.581738  0.091385  1
  Br  Br13  1  0.816838  0.418980  0.908584  1
  Br  Br14  1  0.414742  0.188942  0.094187  1
  Br  Br15  1  0.583548  0.811387  0.904491  1
  Br  Br16  1  0.809985  0.585356  0.406418  1
  Br  Br17  1  0.191048  0.414084  0.594211  1
