# generated using pymatgen
data_Tb10SiAgPb6
_symmetry_space_group_name_H-M   'P 1'
_cell_length_a   9.28701000
_cell_length_b   9.28701036
_cell_length_c   6.83968200
_cell_angle_alpha   90.00000000
_cell_angle_beta   90.00000000
_cell_angle_gamma   119.99999872
_symmetry_Int_Tables_number   1
_chemical_formula_structural   Tb10SiAgPb6
_chemical_formula_sum   'Tb10 Si1 Ag1 Pb6'
_cell_volume   510.87939964
_cell_formula_units_Z   1
loop_
 _symmetry_equiv_pos_site_id
 _symmetry_equiv_pos_as_xyz
  1  'x, y, z'
loop_
 _atom_site_type_symbol
 _atom_site_label
 _atom_site_symmetry_multiplicity
 _atom_site_fract_x
 _atom_site_fract_y
 _atom_site_fract_z
 _atom_site_occupancy
  Tb  Tb0  1  0.253634  0.000000  0.230092  1
  Tb  Tb1  1  0.746366  0.000000  0.769908  1
  Tb  Tb2  1  0.000000  0.253634  0.230092  1
  Tb  Tb3  1  0.000000  0.746366  0.769908  1
  Tb  Tb4  1  0.746366  0.746366  0.230092  1
  Tb  Tb5  1  0.253634  0.253634  0.769908  1
  Tb  Tb6  1  0.333333  0.666667  0.000000  1
  Tb  Tb7  1  0.666667  0.333333  0.000000  1
  Tb  Tb8  1  0.666667  0.333333  0.500000  1
  Tb  Tb9  1  0.333333  0.666667  0.500000  1
  Si  Si10  1  0.000000  0.000000  0.000000  1
  Ag  Ag11  1  0.000000  0.000000  0.500000  1
  Pb  Pb12  1  0.607511  0.000000  0.250577  1
  Pb  Pb13  1  0.392489  0.000000  0.749423  1
  Pb  Pb14  1  0.000000  0.607511  0.250577  1
  Pb  Pb15  1  0.000000  0.392489  0.749423  1
  Pb  Pb16  1  0.392489  0.392489  0.250577  1
  Pb  Pb17  1  0.607511  0.607511  0.749423  1
