# generated using pymatgen
data_CrSb(NF10)2
_symmetry_space_group_name_H-M   'P 1'
_cell_length_a   5.70426595
_cell_length_b   7.61371224
_cell_length_c   9.04364396
_cell_angle_alpha   88.73113875
_cell_angle_beta   109.67210370
_cell_angle_gamma   96.50457985
_symmetry_Int_Tables_number   1
_chemical_formula_structural   CrSb(NF10)2
_chemical_formula_sum   'Cr1 Sb1 N2 F20'
_cell_volume   367.41251478
_cell_formula_units_Z   1
loop_
 _symmetry_equiv_pos_site_id
 _symmetry_equiv_pos_as_xyz
  1  'x, y, z'
loop_
 _atom_site_type_symbol
 _atom_site_label
 _atom_site_symmetry_multiplicity
 _atom_site_fract_x
 _atom_site_fract_y
 _atom_site_fract_z
 _atom_site_occupancy
  Cr  Cr0  1  0.994733  0.753385  0.293473  1
  Sb  Sb1  1  0.006045  0.245634  0.703935  1
  N  N2  1  0.296903  0.274449  0.217432  1
  N  N3  1  0.702092  0.726058  0.785847  1
  F  F4  1  0.062135  0.234759  0.214697  1
  F  F5  1  0.936568  0.764999  0.786450  1
  F  F6  1  0.371099  0.137968  0.159183  1
  F  F7  1  0.630937  0.862077  0.846208  1
  F  F8  1  0.933384  0.195906  0.895615  1
  F  F9  1  0.066597  0.799891  0.114468  1
  F  F10  1  0.077409  0.299679  0.515810  1
  F  F11  1  0.923850  0.706426  0.467922  1
  F  F12  1  0.782525  0.042112  0.605789  1
  F  F13  1  0.204738  0.944436  0.387384  1
  F  F14  1  0.281367  0.106562  0.780762  1
  F  F15  1  0.735570  0.882193  0.222765  1
  F  F16  1  0.216152  0.455011  0.806818  1
  F  F17  1  0.794271  0.556676  0.194458  1
  F  F18  1  0.728511  0.384554  0.637604  1
  F  F19  1  0.256572  0.624276  0.356195  1
  F  F20  1  0.692728  0.584267  0.874712  1
  F  F21  1  0.309381  0.416300  0.128840  1
  F  F22  1  0.546598  0.694129  0.638652  1
  F  F23  1  0.449834  0.308253  0.364979  1
