# generated using pymatgen
data_Ti4P4IrRh3
_symmetry_space_group_name_H-M   'P 1'
_cell_length_a   3.71395900
_cell_length_b   6.25982007
_cell_length_c   7.20542907
_cell_angle_alpha   90.12078943
_cell_angle_beta   90.00000000
_cell_angle_gamma   90.00000000
_symmetry_Int_Tables_number   1
_chemical_formula_structural   Ti4P4IrRh3
_chemical_formula_sum   'Ti4 P4 Ir1 Rh3'
_cell_volume   167.51659550
_cell_formula_units_Z   1
loop_
 _symmetry_equiv_pos_site_id
 _symmetry_equiv_pos_as_xyz
  1  'x, y, z'
loop_
 _atom_site_type_symbol
 _atom_site_label
 _atom_site_symmetry_multiplicity
 _atom_site_fract_x
 _atom_site_fract_y
 _atom_site_fract_z
 _atom_site_occupancy
  Ti  Ti0  1  0.250000  0.026848  0.824225  1
  Ti  Ti1  1  0.250000  0.529198  0.674465  1
  Ti  Ti2  1  0.750000  0.972095  0.175509  1
  Ti  Ti3  1  0.750000  0.471657  0.325883  1
  P  P4  1  0.250000  0.755908  0.375514  1
  P  P5  1  0.250000  0.255297  0.122693  1
  P  P6  1  0.750000  0.245776  0.624480  1
  P  P7  1  0.750000  0.744605  0.876656  1
  Ir  Ir8  1  0.250000  0.147428  0.435899  1
  Rh  Rh9  1  0.250000  0.645147  0.064764  1
  Rh  Rh10  1  0.750000  0.853477  0.564496  1
  Rh  Rh11  1  0.750000  0.352563  0.935417  1
