# generated using pymatgen
data_Tm5Sc15SiBi11
_symmetry_space_group_name_H-M   'P 1'
_cell_length_a   7.82602366
_cell_length_b   9.03450567
_cell_length_c   11.50291225
_cell_angle_alpha   90.04372070
_cell_angle_beta   89.80324970
_cell_angle_gamma   90.00328034
_symmetry_Int_Tables_number   1
_chemical_formula_structural   Tm5Sc15SiBi11
_chemical_formula_sum   'Tm5 Sc15 Si1 Bi11'
_cell_volume   813.29980914
_cell_formula_units_Z   1
loop_
 _symmetry_equiv_pos_site_id
 _symmetry_equiv_pos_as_xyz
  1  'x, y, z'
loop_
 _atom_site_type_symbol
 _atom_site_label
 _atom_site_symmetry_multiplicity
 _atom_site_fract_x
 _atom_site_fract_y
 _atom_site_fract_z
 _atom_site_occupancy
  Tm  Tm0  1  0.192304  0.249046  0.774482  1
  Tm  Tm1  1  0.813014  0.750411  0.218705  1
  Tm  Tm2  1  0.314806  0.750725  0.280074  1
  Tm  Tm3  1  0.667225  0.249810  0.707780  1
  Tm  Tm4  1  0.310796  0.548573  0.559906  1
  Sc  Sc5  1  0.034416  0.248661  0.510854  1
  Sc  Sc6  1  0.983767  0.751804  0.490571  1
  Sc  Sc7  1  0.481196  0.750272  0.011996  1
  Sc  Sc8  1  0.522162  0.249856  0.988535  1
  Sc  Sc9  1  0.353726  0.249971  0.296022  1
  Sc  Sc10  1  0.653953  0.750400  0.719641  1
  Sc  Sc11  1  0.147452  0.751606  0.779620  1
  Sc  Sc12  1  0.848499  0.249946  0.218237  1
  Sc  Sc13  1  0.194535  0.067795  0.062693  1
  Sc  Sc14  1  0.805475  0.933297  0.938678  1
  Sc  Sc15  1  0.310047  0.951362  0.559964  1
  Sc  Sc16  1  0.805285  0.566745  0.938939  1
  Sc  Sc17  1  0.682175  0.076330  0.443136  1
  Sc  Sc18  1  0.194422  0.432042  0.062925  1
  Sc  Sc19  1  0.682910  0.423109  0.443193  1
  Si  Si20  1  0.408318  0.244885  0.531032  1
  Bi  Bi21  1  0.599999  0.752594  0.463881  1
  Bi  Bi22  1  0.096685  0.749815  0.034727  1
  Bi  Bi23  1  0.907138  0.250145  0.961330  1
  Bi  Bi24  1  0.062113  0.008772  0.326989  1
  Bi  Bi25  1  0.935100  0.994704  0.672450  1
  Bi  Bi26  1  0.436405  0.990144  0.827569  1
  Bi  Bi27  1  0.932622  0.505792  0.673138  1
  Bi  Bi28  1  0.563135  0.010547  0.173164  1
  Bi  Bi29  1  0.060627  0.491584  0.326484  1
  Bi  Bi30  1  0.563007  0.489801  0.173613  1
  Bi  Bi31  1  0.436686  0.509455  0.829672  1
