# generated using pymatgen
data_KYb(TcP)4
_symmetry_space_group_name_H-M   'P 1'
_cell_length_a   4.05249400
_cell_length_b   4.05249400
_cell_length_c   11.49869900
_cell_angle_alpha   90.00000000
_cell_angle_beta   90.00000000
_cell_angle_gamma   90.00000000
_symmetry_Int_Tables_number   1
_chemical_formula_structural   KYb(TcP)4
_chemical_formula_sum   'K1 Yb1 Tc4 P4'
_cell_volume   188.83977169
_cell_formula_units_Z   1
loop_
 _symmetry_equiv_pos_site_id
 _symmetry_equiv_pos_as_xyz
  1  'x, y, z'
loop_
 _atom_site_type_symbol
 _atom_site_label
 _atom_site_symmetry_multiplicity
 _atom_site_fract_x
 _atom_site_fract_y
 _atom_site_fract_z
 _atom_site_occupancy
  K  K0  1  0.500000  0.500000  0.500000  1
  Yb  Yb1  1  0.000000  0.000000  0.000000  1
  Tc  Tc2  1  0.500000  0.000000  0.788103  1
  Tc  Tc3  1  0.000000  0.500000  0.788103  1
  Tc  Tc4  1  0.500000  0.000000  0.211897  1
  Tc  Tc5  1  0.000000  0.500000  0.211897  1
  P  P6  1  0.000000  0.000000  0.684089  1
  P  P7  1  0.000000  0.000000  0.315911  1
  P  P8  1  0.500000  0.500000  0.893652  1
  P  P9  1  0.500000  0.500000  0.106348  1
