# generated using pymatgen
data_DyErPa(InPt)3
_symmetry_space_group_name_H-M   'P 1'
_cell_length_a   7.64298428
_cell_length_b   7.62189784
_cell_length_c   3.92677200
_cell_angle_alpha   90.00000000
_cell_angle_beta   90.00000000
_cell_angle_gamma   120.17997821
_symmetry_Int_Tables_number   1
_chemical_formula_structural   DyErPa(InPt)3
_chemical_formula_sum   'Dy1 Er1 Pa1 In3 Pt3'
_cell_volume   197.74336441
_cell_formula_units_Z   1
loop_
 _symmetry_equiv_pos_site_id
 _symmetry_equiv_pos_as_xyz
  1  'x, y, z'
loop_
 _atom_site_type_symbol
 _atom_site_label
 _atom_site_symmetry_multiplicity
 _atom_site_fract_x
 _atom_site_fract_y
 _atom_site_fract_z
 _atom_site_occupancy
  Dy  Dy0  1  0.405894  0.403902  0.500000  1
  Er  Er1  1  0.001931  0.596345  0.500000  1
  Pa  Pa2  1  0.590490  0.999986  0.500000  1
  In  In3  1  0.742219  0.729866  0.000000  1
  In  In4  1  0.011875  0.270354  0.000000  1
  In  In5  1  0.247326  0.999577  0.000000  1
  Pt  Pt6  1  0.348875  0.685498  0.000000  1
  Pt  Pt7  1  0.665196  0.315111  0.000000  1
  Pt  Pt8  1  0.986192  0.999362  0.500000  1
