# generated using pymatgen
data_Y16In3AgIr4
_symmetry_space_group_name_H-M   'P 1'
_cell_length_a   9.68087030
_cell_length_b   9.68087053
_cell_length_c   9.68087079
_cell_angle_alpha   60.03776148
_cell_angle_beta   60.03775884
_cell_angle_gamma   60.03776315
_symmetry_Int_Tables_number   1
_chemical_formula_structural   Y16In3AgIr4
_chemical_formula_sum   'Y16 In3 Ag1 Ir4'
_cell_volume   642.09576918
_cell_formula_units_Z   1
loop_
 _symmetry_equiv_pos_site_id
 _symmetry_equiv_pos_as_xyz
  1  'x, y, z'
loop_
 _atom_site_type_symbol
 _atom_site_label
 _atom_site_symmetry_multiplicity
 _atom_site_fract_x
 _atom_site_fract_y
 _atom_site_fract_z
 _atom_site_occupancy
  Y  Y0  1  0.809263  0.190371  0.809263  1
  Y  Y1  1  0.935673  0.560812  0.560812  1
  Y  Y2  1  0.560812  0.935673  0.560812  1
  Y  Y3  1  0.808185  0.192207  0.192207  1
  Y  Y4  1  0.192207  0.808185  0.192207  1
  Y  Y5  1  0.349599  0.951097  0.349599  1
  Y  Y6  1  0.938444  0.938444  0.561004  1
  Y  Y7  1  0.561004  0.938444  0.938444  1
  Y  Y8  1  0.190371  0.809263  0.809263  1
  Y  Y9  1  0.349599  0.349599  0.951097  1
  Y  Y10  1  0.560812  0.560812  0.935673  1
  Y  Y11  1  0.349651  0.349651  0.349651  1
  Y  Y12  1  0.192207  0.192207  0.808185  1
  Y  Y13  1  0.809263  0.809263  0.190371  1
  Y  Y14  1  0.938444  0.561004  0.938444  1
  Y  Y15  1  0.951097  0.349599  0.349599  1
  In  In16  1  0.582995  0.254231  0.582995  1
  In  In17  1  0.582995  0.582995  0.254231  1
  In  In18  1  0.254231  0.582995  0.582995  1
  Ag  Ag19  1  0.583269  0.583269  0.583269  1
  Ir  Ir20  1  0.141433  0.141433  0.575566  1
  Ir  Ir21  1  0.575566  0.141433  0.141433  1
  Ir  Ir22  1  0.141433  0.575566  0.141433  1
  Ir  Ir23  1  0.141447  0.141447  0.141447  1
