# generated using pymatgen
data_BaPdBr6
_symmetry_space_group_name_H-M   'P 1'
_cell_length_a   7.04673960
_cell_length_b   7.04673998
_cell_length_c   11.44144821
_cell_angle_alpha   87.39832288
_cell_angle_beta   87.39833218
_cell_angle_gamma   70.85257922
_symmetry_Int_Tables_number   1
_chemical_formula_structural   BaPdBr6
_chemical_formula_sum   'Ba2 Pd2 Br12'
_cell_volume   535.87844639
_cell_formula_units_Z   2
loop_
 _symmetry_equiv_pos_site_id
 _symmetry_equiv_pos_as_xyz
  1  'x, y, z'
loop_
 _atom_site_type_symbol
 _atom_site_label
 _atom_site_symmetry_multiplicity
 _atom_site_fract_x
 _atom_site_fract_y
 _atom_site_fract_z
 _atom_site_occupancy
  Ba  Ba0  1  0.002009  0.997991  0.250000  1
  Ba  Ba1  1  0.997991  0.002009  0.750000  1
  Pd  Pd2  1  0.000000  0.500000  0.000000  1
  Pd  Pd3  1  0.500000  0.000000  0.500000  1
  Br  Br4  1  0.161586  0.505554  0.191038  1
  Br  Br5  1  0.494446  0.838414  0.308962  1
  Br  Br6  1  0.838414  0.494446  0.808962  1
  Br  Br7  1  0.505554  0.161586  0.691038  1
  Br  Br8  1  0.794603  0.867240  0.012333  1
  Br  Br9  1  0.132760  0.205397  0.487667  1
  Br  Br10  1  0.205397  0.132760  0.987667  1
  Br  Br11  1  0.867240  0.794603  0.512333  1
  Br  Br12  1  0.725208  0.404233  0.108682  1
  Br  Br13  1  0.595767  0.274792  0.391318  1
  Br  Br14  1  0.274792  0.595767  0.891318  1
  Br  Br15  1  0.404233  0.725208  0.608682  1
