# generated using pymatgen
data_Ho5Lu(Sc2Sb3)2
_symmetry_space_group_name_H-M   'P 1'
_cell_length_a   8.76095600
_cell_length_b   8.73956658
_cell_length_c   6.09433300
_cell_angle_alpha   90.00000000
_cell_angle_beta   90.00000000
_cell_angle_gamma   120.08099319
_symmetry_Int_Tables_number   1
_chemical_formula_structural   Ho5Lu(Sc2Sb3)2
_chemical_formula_sum   'Ho5 Lu1 Sc4 Sb6'
_cell_volume   403.77849271
_cell_formula_units_Z   1
loop_
 _symmetry_equiv_pos_site_id
 _symmetry_equiv_pos_as_xyz
  1  'x, y, z'
loop_
 _atom_site_type_symbol
 _atom_site_label
 _atom_site_symmetry_multiplicity
 _atom_site_fract_x
 _atom_site_fract_y
 _atom_site_fract_z
 _atom_site_occupancy
  Ho  Ho0  1  0.756041  0.756405  0.250000  1
  Ho  Ho1  1  0.999635  0.243595  0.250000  1
  Ho  Ho2  1  0.000695  0.755144  0.750000  1
  Ho  Ho3  1  0.245551  0.244856  0.750000  1
  Ho  Ho4  1  0.247342  0.000000  0.250000  1
  Lu  Lu5  1  0.753317  0.000000  0.750000  1
  Sc  Sc6  1  0.331979  0.665324  0.999928  1
  Sc  Sc7  1  0.666657  0.334676  0.500072  1
  Sc  Sc8  1  0.666657  0.334676  0.999928  1
  Sc  Sc9  1  0.331979  0.665324  0.500072  1
  Sb  Sb10  1  0.397099  0.000000  0.750000  1
  Sb  Sb11  1  0.395503  0.395765  0.250000  1
  Sb  Sb12  1  0.999738  0.604235  0.250000  1
  Sb  Sb13  1  0.997666  0.392224  0.750000  1
  Sb  Sb14  1  0.605443  0.607776  0.750000  1
  Sb  Sb15  1  0.604697  0.000000  0.250000  1
