# generated using pymatgen
data_Tb4Cd2Cu3Pt
_symmetry_space_group_name_H-M   'P 1'
_cell_length_a   7.61752434
_cell_length_b   7.61752434
_cell_length_c   3.74179200
_cell_angle_alpha   90.00000000
_cell_angle_beta   90.00000000
_cell_angle_gamma   90.31805772
_symmetry_Int_Tables_number   1
_chemical_formula_structural   Tb4Cd2Cu3Pt
_chemical_formula_sum   'Tb4 Cd2 Cu3 Pt1'
_cell_volume   217.12041080
_cell_formula_units_Z   1
loop_
 _symmetry_equiv_pos_site_id
 _symmetry_equiv_pos_as_xyz
  1  'x, y, z'
loop_
 _atom_site_type_symbol
 _atom_site_label
 _atom_site_symmetry_multiplicity
 _atom_site_fract_x
 _atom_site_fract_y
 _atom_site_fract_z
 _atom_site_occupancy
  Tb  Tb0  1  0.671953  0.171953  0.500000  1
  Tb  Tb1  1  0.323470  0.823470  0.500000  1
  Tb  Tb2  1  0.176847  0.331318  0.500000  1
  Tb  Tb3  1  0.831318  0.676847  0.500000  1
  Cd  Cd4  1  0.998177  0.006075  0.000000  1
  Cd  Cd5  1  0.506075  0.498177  0.000000  1
  Cu  Cu6  1  0.873440  0.373440  0.000000  1
  Cu  Cu7  1  0.617725  0.882174  0.000000  1
  Cu  Cu8  1  0.382174  0.117725  0.000000  1
  Pt  Pt9  1  0.118819  0.618819  0.000000  1
