# generated using pymatgen
data_LiTi3(MnRh3)2
_symmetry_space_group_name_H-M   'P 1'
_cell_length_a   4.34899900
_cell_length_b   6.08444600
_cell_length_c   12.98796900
_cell_angle_alpha   90.00000000
_cell_angle_beta   90.00008364
_cell_angle_gamma   90.00000000
_symmetry_Int_Tables_number   1
_chemical_formula_structural   LiTi3(MnRh3)2
_chemical_formula_sum   'Li2 Ti6 Mn4 Rh12'
_cell_volume   343.67788911
_cell_formula_units_Z   2
loop_
 _symmetry_equiv_pos_site_id
 _symmetry_equiv_pos_as_xyz
  1  'x, y, z'
loop_
 _atom_site_type_symbol
 _atom_site_label
 _atom_site_symmetry_multiplicity
 _atom_site_fract_x
 _atom_site_fract_y
 _atom_site_fract_z
 _atom_site_occupancy
  Li  Li0  1  0.999999  0.500000  0.000540  1
  Li  Li1  1  0.499966  0.000000  0.166171  1
  Ti  Ti2  1  0.000000  0.000000  0.001916  1
  Ti  Ti3  1  0.499978  0.500000  0.164783  1
  Ti  Ti4  1  0.999983  0.000000  0.329048  1
  Ti  Ti5  1  0.499997  0.500000  0.497710  1
  Ti  Ti6  1  0.000019  0.000000  0.668926  1
  Ti  Ti7  1  0.500020  0.500000  0.837628  1
  Mn  Mn8  1  0.999979  0.500000  0.331188  1
  Mn  Mn9  1  0.499999  0.000000  0.499411  1
  Mn  Mn10  1  0.000026  0.500000  0.667231  1
  Mn  Mn11  1  0.500018  0.000000  0.835487  1
  Rh  Rh12  1  0.500002  0.251295  0.001423  1
  Rh  Rh13  1  0.500002  0.748704  0.001423  1
  Rh  Rh14  1  0.999981  0.248769  0.165269  1
  Rh  Rh15  1  0.999981  0.751230  0.165269  1
  Rh  Rh16  1  0.499983  0.248323  0.332335  1
  Rh  Rh17  1  0.499983  0.751676  0.332335  1
  Rh  Rh18  1  0.999999  0.249147  0.499821  1
  Rh  Rh19  1  0.999999  0.750852  0.499821  1
  Rh  Rh20  1  0.500022  0.250206  0.666590  1
  Rh  Rh21  1  0.500022  0.749793  0.666590  1
  Rh  Rh22  1  0.000020  0.251536  0.834541  1
  Rh  Rh23  1  0.000020  0.748463  0.834541  1
