# generated using pymatgen
data_Y7Tm3Si5Ge
_symmetry_space_group_name_H-M   'P 1'
_cell_length_a   8.42945900
_cell_length_b   8.43189990
_cell_length_c   6.32140700
_cell_angle_alpha   90.00288120
_cell_angle_beta   90.00014725
_cell_angle_gamma   119.99241603
_symmetry_Int_Tables_number   1
_chemical_formula_structural   Y7Tm3Si5Ge
_chemical_formula_sum   'Y7 Tm3 Si5 Ge1'
_cell_volume   389.13716748
_cell_formula_units_Z   1
loop_
 _symmetry_equiv_pos_site_id
 _symmetry_equiv_pos_as_xyz
  1  'x, y, z'
loop_
 _atom_site_type_symbol
 _atom_site_label
 _atom_site_symmetry_multiplicity
 _atom_site_fract_x
 _atom_site_fract_y
 _atom_site_fract_z
 _atom_site_occupancy
  Y  Y0  1  0.998321  0.754785  0.749600  1
  Y  Y1  1  0.999634  0.243736  0.250424  1
  Y  Y2  1  0.756095  0.756062  0.250414  1
  Y  Y3  1  0.757376  0.000183  0.749594  1
  Y  Y4  1  0.243722  0.245012  0.749561  1
  Y  Y5  1  0.243531  0.000189  0.250404  1
  Y  Y6  1  0.333127  0.665415  0.000769  1
  Tm  Tm7  1  0.333138  0.665417  0.499237  1
  Tm  Tm8  1  0.667717  0.334589  0.000770  1
  Tm  Tm9  1  0.667726  0.334580  0.499232  1
  Si  Si10  1  0.395354  0.394217  0.251197  1
  Si  Si11  1  0.999117  0.604766  0.251157  1
  Si  Si12  1  0.998868  0.394368  0.748836  1
  Si  Si13  1  0.605500  0.604629  0.748829  1
  Si  Si14  1  0.605801  0.001009  0.251141  1
  Ge  Ge15  1  0.394973  0.001044  0.748837  1
