# generated using pymatgen
data_Sm2Tm2MgSn4
_symmetry_space_group_name_H-M   'P 1'
_cell_length_a   7.74487000
_cell_length_b   8.23941100
_cell_length_c   15.36111800
_cell_angle_alpha   90.00000000
_cell_angle_beta   90.00000000
_cell_angle_gamma   90.00000000
_symmetry_Int_Tables_number   1
_chemical_formula_structural   Sm2Tm2MgSn4
_chemical_formula_sum   'Sm8 Tm8 Mg4 Sn16'
_cell_volume   980.24158934
_cell_formula_units_Z   4
loop_
 _symmetry_equiv_pos_site_id
 _symmetry_equiv_pos_as_xyz
  1  'x, y, z'
loop_
 _atom_site_type_symbol
 _atom_site_label
 _atom_site_symmetry_multiplicity
 _atom_site_fract_x
 _atom_site_fract_y
 _atom_site_fract_z
 _atom_site_occupancy
  Sm  Sm0  1  0.506648  0.319254  0.905281  1
  Sm  Sm1  1  0.006648  0.180746  0.594719  1
  Sm  Sm2  1  0.493352  0.680746  0.405281  1
  Sm  Sm3  1  0.993352  0.819254  0.094719  1
  Sm  Sm4  1  0.493352  0.680746  0.094719  1
  Sm  Sm5  1  0.993352  0.819254  0.405281  1
  Sm  Sm6  1  0.506648  0.319254  0.594719  1
  Sm  Sm7  1  0.006648  0.180746  0.905281  1
  Tm  Tm8  1  0.348222  0.829308  0.873708  1
  Tm  Tm9  1  0.848222  0.670692  0.626292  1
  Tm  Tm10  1  0.651778  0.170692  0.373708  1
  Tm  Tm11  1  0.151778  0.329308  0.126292  1
  Tm  Tm12  1  0.651778  0.170692  0.126292  1
  Tm  Tm13  1  0.151778  0.329308  0.373708  1
  Tm  Tm14  1  0.348222  0.829308  0.626292  1
  Tm  Tm15  1  0.848222  0.670692  0.873708  1
  Mg  Mg16  1  0.178008  0.498136  0.750000  1
  Mg  Mg17  1  0.678008  0.001864  0.750000  1
  Mg  Mg18  1  0.821992  0.501864  0.250000  1
  Mg  Mg19  1  0.321992  0.998136  0.250000  1
  Sn  Sn20  1  0.314436  0.039182  0.037984  1
  Sn  Sn21  1  0.814436  0.460818  0.462016  1
  Sn  Sn22  1  0.685564  0.960818  0.537984  1
  Sn  Sn23  1  0.185564  0.539182  0.962016  1
  Sn  Sn24  1  0.685564  0.960818  0.962016  1
  Sn  Sn25  1  0.185564  0.539182  0.537984  1
  Sn  Sn26  1  0.314436  0.039182  0.462016  1
  Sn  Sn27  1  0.814436  0.460818  0.037984  1
  Sn  Sn28  1  0.541748  0.607310  0.750000  1
  Sn  Sn29  1  0.041748  0.892690  0.750000  1
  Sn  Sn30  1  0.458252  0.392690  0.250000  1
  Sn  Sn31  1  0.958252  0.107310  0.250000  1
  Sn  Sn32  1  0.314342  0.142072  0.750000  1
  Sn  Sn33  1  0.814342  0.357928  0.750000  1
  Sn  Sn34  1  0.685658  0.857928  0.250000  1
  Sn  Sn35  1  0.185658  0.642072  0.250000  1
