# generated using pymatgen
data_Pa3CrP2Os3
_symmetry_space_group_name_H-M   'P 1'
_cell_length_a   6.58504300
_cell_length_b   6.58504193
_cell_length_c   4.15931200
_cell_angle_alpha   90.00000000
_cell_angle_beta   90.00000000
_cell_angle_gamma   120.00001039
_symmetry_Int_Tables_number   1
_chemical_formula_structural   Pa3CrP2Os3
_chemical_formula_sum   'Pa3 Cr1 P2 Os3'
_cell_volume   156.19576167
_cell_formula_units_Z   1
loop_
 _symmetry_equiv_pos_site_id
 _symmetry_equiv_pos_as_xyz
  1  'x, y, z'
loop_
 _atom_site_type_symbol
 _atom_site_label
 _atom_site_symmetry_multiplicity
 _atom_site_fract_x
 _atom_site_fract_y
 _atom_site_fract_z
 _atom_site_occupancy
  Pa  Pa0  1  0.392928  0.392928  0.500000  1
  Pa  Pa1  1  0.607072  0.000000  0.500000  1
  Pa  Pa2  1  0.000000  0.607072  0.500000  1
  Cr  Cr3  1  0.000000  0.000000  0.500000  1
  P  P4  1  0.666667  0.333333  0.000000  1
  P  P5  1  0.333333  0.666667  0.000000  1
  Os  Os6  1  0.750962  0.750962  0.000000  1
  Os  Os7  1  0.249038  0.000000  0.000000  1
  Os  Os8  1  0.000000  0.249038  0.000000  1
