# generated using pymatgen
data_Ta8V2Ge6B
_symmetry_space_group_name_H-M   'P 1'
_cell_length_a   7.63380700
_cell_length_b   7.63380693
_cell_length_c   5.23125500
_cell_angle_alpha   90.00000000
_cell_angle_beta   90.00000000
_cell_angle_gamma   119.99999596
_symmetry_Int_Tables_number   1
_chemical_formula_structural   Ta8V2Ge6B
_chemical_formula_sum   'Ta8 V2 Ge6 B1'
_cell_volume   264.00909449
_cell_formula_units_Z   1
loop_
 _symmetry_equiv_pos_site_id
 _symmetry_equiv_pos_as_xyz
  1  'x, y, z'
loop_
 _atom_site_type_symbol
 _atom_site_label
 _atom_site_symmetry_multiplicity
 _atom_site_fract_x
 _atom_site_fract_y
 _atom_site_fract_z
 _atom_site_occupancy
  Ta  Ta0  1  0.000000  0.758348  0.251725  1
  Ta  Ta1  1  0.241652  0.241652  0.251725  1
  Ta  Ta2  1  0.758348  0.000000  0.251725  1
  Ta  Ta3  1  0.000000  0.241652  0.748275  1
  Ta  Ta4  1  0.758348  0.758348  0.748275  1
  Ta  Ta5  1  0.241652  0.000000  0.748275  1
  Ta  Ta6  1  0.333333  0.666667  0.500000  1
  Ta  Ta7  1  0.666667  0.333333  0.500000  1
  V  V8  1  0.666667  0.333333  0.000000  1
  V  V9  1  0.333333  0.666667  0.000000  1
  Ge  Ge10  1  0.000000  0.400406  0.232324  1
  Ge  Ge11  1  0.599594  0.599594  0.232324  1
  Ge  Ge12  1  0.400406  0.000000  0.232324  1
  Ge  Ge13  1  0.000000  0.599594  0.767676  1
  Ge  Ge14  1  0.400406  0.400406  0.767676  1
  Ge  Ge15  1  0.599594  0.000000  0.767676  1
  B  B16  1  0.000000  0.000000  0.500000  1
