# generated using pymatgen
data_Pr5GaSb2
_symmetry_space_group_name_H-M   'P 1'
_cell_length_a   8.24428300
_cell_length_b   9.52347300
_cell_length_c   12.59745800
_cell_angle_alpha   90.00000000
_cell_angle_beta   90.00000000
_cell_angle_gamma   90.00000000
_symmetry_Int_Tables_number   1
_chemical_formula_structural   Pr5GaSb2
_chemical_formula_sum   'Pr20 Ga4 Sb8'
_cell_volume   989.07941948
_cell_formula_units_Z   4
loop_
 _symmetry_equiv_pos_site_id
 _symmetry_equiv_pos_as_xyz
  1  'x, y, z'
loop_
 _atom_site_type_symbol
 _atom_site_label
 _atom_site_symmetry_multiplicity
 _atom_site_fract_x
 _atom_site_fract_y
 _atom_site_fract_z
 _atom_site_occupancy
  Pr  Pr0  1  0.664604  0.750000  0.717003  1
  Pr  Pr1  1  0.335396  0.250000  0.282997  1
  Pr  Pr2  1  0.164604  0.250000  0.782997  1
  Pr  Pr3  1  0.835396  0.750000  0.217003  1
  Pr  Pr4  1  0.143535  0.750000  0.790985  1
  Pr  Pr5  1  0.856465  0.250000  0.209015  1
  Pr  Pr6  1  0.643535  0.250000  0.709015  1
  Pr  Pr7  1  0.356465  0.750000  0.290985  1
  Pr  Pr8  1  0.530671  0.750000  0.002016  1
  Pr  Pr9  1  0.469329  0.250000  0.997984  1
  Pr  Pr10  1  0.030671  0.250000  0.497984  1
  Pr  Pr11  1  0.969329  0.750000  0.502016  1
  Pr  Pr12  1  0.808878  0.458332  0.936322  1
  Pr  Pr13  1  0.191122  0.541668  0.063678  1
  Pr  Pr14  1  0.308878  0.541668  0.563678  1
  Pr  Pr15  1  0.191122  0.958332  0.063678  1
  Pr  Pr16  1  0.691122  0.458332  0.436322  1
  Pr  Pr17  1  0.808878  0.041668  0.936322  1
  Pr  Pr18  1  0.691122  0.041668  0.436322  1
  Pr  Pr19  1  0.308878  0.958332  0.563678  1
  Ga  Ga20  1  0.922247  0.750000  0.980158  1
  Ga  Ga21  1  0.077753  0.250000  0.019842  1
  Ga  Ga22  1  0.422247  0.250000  0.519842  1
  Ga  Ga23  1  0.577753  0.750000  0.480158  1
  Sb  Sb24  1  0.929330  0.007804  0.674160  1
  Sb  Sb25  1  0.070670  0.992196  0.325840  1
  Sb  Sb26  1  0.429330  0.992196  0.825840  1
  Sb  Sb27  1  0.070670  0.507804  0.325840  1
  Sb  Sb28  1  0.570670  0.007804  0.174160  1
  Sb  Sb29  1  0.929330  0.492196  0.674160  1
  Sb  Sb30  1  0.570670  0.492196  0.174160  1
  Sb  Sb31  1  0.429330  0.507804  0.825840  1
