# generated using pymatgen
data_Dy3Y4Pu3(SiB4)4
_symmetry_space_group_name_H-M   'P 1'
_cell_length_a   7.23789708
_cell_length_b   7.23790735
_cell_length_c   8.11473500
_cell_angle_alpha   89.96940771
_cell_angle_beta   89.96947222
_cell_angle_gamma   89.82838597
_symmetry_Int_Tables_number   1
_chemical_formula_structural   Dy3Y4Pu3(SiB4)4
_chemical_formula_sum   'Dy3 Y4 Pu3 Si4 B16'
_cell_volume   425.10644912
_cell_formula_units_Z   1
loop_
 _symmetry_equiv_pos_site_id
 _symmetry_equiv_pos_as_xyz
  1  'x, y, z'
loop_
 _atom_site_type_symbol
 _atom_site_label
 _atom_site_symmetry_multiplicity
 _atom_site_fract_x
 _atom_site_fract_y
 _atom_site_fract_z
 _atom_site_occupancy
  Dy  Dy0  1  0.818250  0.681424  0.222701  1
  Dy  Dy1  1  0.818392  0.681556  0.777116  1
  Dy  Dy2  1  0.681662  0.181659  0.775635  1
  Y  Y3  1  0.181542  0.318400  0.777065  1
  Y  Y4  1  0.181411  0.318265  0.222753  1
  Y  Y5  1  0.002673  0.998789  0.498261  1
  Y  Y6  1  0.498804  0.502685  0.498260  1
  Pu  Pu7  1  0.683387  0.183382  0.229560  1
  Pu  Pu8  1  0.315928  0.815921  0.771088  1
  Pu  Pu9  1  0.316934  0.816930  0.228996  1
  Si  Si10  1  0.114472  0.614497  0.501285  1
  Si  Si11  1  0.883685  0.383710  0.498259  1
  Si  Si12  1  0.385913  0.115259  0.498971  1
  Si  Si13  1  0.615274  0.885899  0.498972  1
  B  B14  1  0.173969  0.038135  0.999499  1
  B  B15  1  0.826840  0.961397  0.000395  1
  B  B16  1  0.959315  0.172403  0.000111  1
  B  B17  1  0.327182  0.541609  0.999467  1
  B  B18  1  0.041568  0.827156  0.999466  1
  B  B19  1  0.672427  0.459355  0.000110  1
  B  B20  1  0.538172  0.673969  0.999500  1
  B  B21  1  0.461433  0.326838  0.000397  1
  B  B22  1  0.090548  0.590591  0.999785  1
  B  B23  1  0.909211  0.409250  0.001529  1
  B  B24  1  0.410586  0.089582  0.000698  1
  B  B25  1  0.589608  0.910560  0.000698  1
  B  B26  1  0.999866  0.999852  0.160855  1
  B  B27  1  0.001692  0.999335  0.838858  1
  B  B28  1  0.499370  0.501709  0.838858  1
  B  B29  1  0.499888  0.499883  0.160856  1
