# generated using pymatgen
data_Tb7ErHf3Si16Mo9
_symmetry_space_group_name_H-M   'P 1'
_cell_length_a   6.98608908
_cell_length_b   6.98613176
_cell_length_c   12.92862429
_cell_angle_alpha   89.95516126
_cell_angle_beta   90.07876263
_cell_angle_gamma   89.78383803
_symmetry_Int_Tables_number   1
_chemical_formula_structural   Tb7ErHf3Si16Mo9
_chemical_formula_sum   'Tb7 Er1 Hf3 Si16 Mo9'
_cell_volume   630.98577787
_cell_formula_units_Z   1
loop_
 _symmetry_equiv_pos_site_id
 _symmetry_equiv_pos_as_xyz
  1  'x, y, z'
loop_
 _atom_site_type_symbol
 _atom_site_label
 _atom_site_symmetry_multiplicity
 _atom_site_fract_x
 _atom_site_fract_y
 _atom_site_fract_z
 _atom_site_occupancy
  Tb  Tb0  1  0.004556  0.661065  0.720278  1
  Tb  Tb1  1  0.161147  0.497119  0.468107  1
  Tb  Tb2  1  0.500284  0.840856  0.031282  1
  Tb  Tb3  1  0.840731  0.500059  0.969154  1
  Tb  Tb4  1  0.497265  0.161277  0.531492  1
  Tb  Tb5  1  0.337291  0.000063  0.783450  1
  Tb  Tb6  1  0.661113  0.004601  0.279541  1
  Er  Er7  1  0.000930  0.337677  0.216706  1
  Hf  Hf8  1  0.832070  0.832089  0.499783  1
  Hf  Hf9  1  0.330322  0.668813  0.247662  1
  Hf  Hf10  1  0.668751  0.330265  0.752282  1
  Si  Si11  1  0.370290  0.294985  0.316267  1
  Si  Si12  1  0.626592  0.706405  0.817127  1
  Si  Si13  1  0.204719  0.872761  0.567477  1
  Si  Si14  1  0.124581  0.804099  0.935080  1
  Si  Si15  1  0.804958  0.125523  0.065919  1
  Si  Si16  1  0.872828  0.204807  0.431743  1
  Si  Si17  1  0.294913  0.371635  0.683373  1
  Si  Si18  1  0.707125  0.625833  0.182859  1
  Si  Si19  1  0.286445  0.046826  0.183256  1
  Si  Si20  1  0.709145  0.958461  0.688968  1
  Si  Si21  1  0.457147  0.790021  0.437661  1
  Si  Si22  1  0.211899  0.532505  0.058888  1
  Si  Si23  1  0.533160  0.212558  0.941775  1
  Si  Si24  1  0.790076  0.456986  0.562051  1
  Si  Si25  1  0.046182  0.287336  0.816910  1
  Si  Si26  1  0.958561  0.707812  0.310721  1
  Mo  Mo27  1  0.167329  0.168138  0.000551  1
  Mo  Mo28  1  0.160058  0.994508  0.374780  1
  Mo  Mo29  1  0.832924  0.003994  0.877403  1
  Mo  Mo30  1  0.506712  0.659812  0.626548  1
  Mo  Mo31  1  0.343883  0.497436  0.873703  1
  Mo  Mo32  1  0.497741  0.344064  0.126687  1
  Mo  Mo33  1  0.660308  0.506046  0.372930  1
  Mo  Mo34  1  0.994385  0.160665  0.624572  1
  Mo  Mo35  1  0.003581  0.832901  0.123011  1
