# generated using pymatgen
data_LuTh7(Si4Mo3)4
_symmetry_space_group_name_H-M   'P 1'
_cell_length_a   6.98556755
_cell_length_b   7.05677784
_cell_length_c   13.13455594
_cell_angle_alpha   89.93886839
_cell_angle_beta   89.99198345
_cell_angle_gamma   89.80000745
_symmetry_Int_Tables_number   1
_chemical_formula_structural   LuTh7(Si4Mo3)4
_chemical_formula_sum   'Lu1 Th7 Si16 Mo12'
_cell_volume   647.47147433
_cell_formula_units_Z   1
loop_
 _symmetry_equiv_pos_site_id
 _symmetry_equiv_pos_as_xyz
  1  'x, y, z'
loop_
 _atom_site_type_symbol
 _atom_site_label
 _atom_site_symmetry_multiplicity
 _atom_site_fract_x
 _atom_site_fract_y
 _atom_site_fract_z
 _atom_site_occupancy
  Lu  Lu0  1  0.993094  0.168123  0.096010  1
  Th  Th1  1  0.491732  0.337856  0.095672  1
  Th  Th2  1  0.991827  0.161676  0.404999  1
  Th  Th3  1  0.508603  0.663613  0.595536  1
  Th  Th4  1  0.005874  0.834543  0.906062  1
  Th  Th5  1  0.507554  0.663708  0.906982  1
  Th  Th6  1  0.009182  0.837559  0.594823  1
  Th  Th7  1  0.490338  0.334808  0.402374  1
  Si  Si8  1  0.655508  0.049421  0.548445  1
  Si  Si9  1  0.152471  0.446858  0.954208  1
  Si  Si10  1  0.336116  0.955826  0.049641  1
  Si  Si11  1  0.842759  0.548158  0.451392  1
  Si  Si12  1  0.348382  0.947787  0.449272  1
  Si  Si13  1  0.847772  0.541377  0.049457  1
  Si  Si14  1  0.657720  0.049053  0.954723  1
  Si  Si15  1  0.155639  0.451233  0.548025  1
  Si  Si16  1  0.538904  0.350913  0.751014  1
  Si  Si17  1  0.038941  0.147757  0.751247  1
  Si  Si18  1  0.461518  0.652248  0.252060  1
  Si  Si19  1  0.963630  0.859409  0.244898  1
  Si  Si20  1  0.815228  0.614747  0.750767  1
  Si  Si21  1  0.313755  0.884271  0.751147  1
  Si  Si22  1  0.179617  0.379220  0.247196  1
  Si  Si23  1  0.693659  0.117536  0.245451  1
  Mo  Mo24  1  0.831494  0.335660  0.625657  1
  Mo  Mo25  1  0.332008  0.163736  0.876234  1
  Mo  Mo26  1  0.167265  0.662463  0.125149  1
  Mo  Mo27  1  0.678461  0.840453  0.372553  1
  Mo  Mo28  1  0.162054  0.661896  0.372398  1
  Mo  Mo29  1  0.664524  0.835744  0.123649  1
  Mo  Mo30  1  0.831757  0.336346  0.875930  1
  Mo  Mo31  1  0.332022  0.162261  0.625609  1
  Mo  Mo32  1  0.670391  0.996891  0.752036  1
  Mo  Mo33  1  0.172079  0.501416  0.750510  1
  Mo  Mo34  1  0.329805  0.005544  0.249084  1
  Mo  Mo35  1  0.828315  0.499889  0.249790  1
