# generated using pymatgen
data_Er3(ReSi2)2
_symmetry_space_group_name_H-M   'P 1'
_cell_length_a   10.53016932
_cell_length_b   10.53016976
_cell_length_c   14.21521087
_cell_angle_alpha   55.25451285
_cell_angle_beta   55.25451246
_cell_angle_gamma   30.54907193
_symmetry_Int_Tables_number   1
_chemical_formula_structural   Er3(ReSi2)2
_chemical_formula_sum   'Er12 Re8 Si16'
_cell_volume   646.39563740
_cell_formula_units_Z   4
loop_
 _symmetry_equiv_pos_site_id
 _symmetry_equiv_pos_as_xyz
  1  'x, y, z'
loop_
 _atom_site_type_symbol
 _atom_site_label
 _atom_site_symmetry_multiplicity
 _atom_site_fract_x
 _atom_site_fract_y
 _atom_site_fract_z
 _atom_site_occupancy
  Er  Er0  1  0.751803  0.483052  0.048658  1
  Er  Er1  1  0.534798  0.306693  0.155825  1
  Er  Er2  1  0.516948  0.248197  0.451342  1
  Er  Er3  1  0.465202  0.693307  0.844175  1
  Er  Er4  1  0.293396  0.039416  0.137882  1
  Er  Er5  1  0.960584  0.706604  0.362118  1
  Er  Er6  1  0.706604  0.960584  0.862118  1
  Er  Er7  1  0.039416  0.293396  0.637882  1
  Er  Er8  1  0.248197  0.516948  0.951342  1
  Er  Er9  1  0.483052  0.751803  0.548658  1
  Er  Er10  1  0.306693  0.534798  0.655825  1
  Er  Er11  1  0.693307  0.465202  0.344175  1
  Re  Re12  1  0.641930  0.829930  0.281541  1
  Re  Re13  1  0.829930  0.641930  0.781541  1
  Re  Re14  1  0.358070  0.170070  0.718459  1
  Re  Re15  1  0.170070  0.358070  0.218459  1
  Re  Re16  1  0.136969  0.912479  0.076906  1
  Re  Re17  1  0.087521  0.863031  0.423094  1
  Re  Re18  1  0.863031  0.087521  0.923094  1
  Re  Re19  1  0.912479  0.136969  0.576906  1
  Si  Si20  1  0.904593  0.095407  0.250000  1
  Si  Si21  1  0.095407  0.904593  0.750000  1
  Si  Si22  1  0.344410  0.655590  0.250000  1
  Si  Si23  1  0.655590  0.344410  0.750000  1
  Si  Si24  1  0.001843  0.228350  0.876280  1
  Si  Si25  1  0.771650  0.998157  0.623720  1
  Si  Si26  1  0.998157  0.771650  0.123720  1
  Si  Si27  1  0.228350  0.001843  0.376280  1
  Si  Si28  1  0.607545  0.045791  0.075318  1
  Si  Si29  1  0.954209  0.392455  0.424682  1
  Si  Si30  1  0.392455  0.954209  0.924682  1
  Si  Si31  1  0.045791  0.607545  0.575318  1
  Si  Si32  1  0.385324  0.157547  0.382333  1
  Si  Si33  1  0.842453  0.614676  0.117667  1
  Si  Si34  1  0.614676  0.842453  0.617667  1
  Si  Si35  1  0.157547  0.385324  0.882333  1
