# generated using pymatgen
data_Tb11Ho9Si15Ru
_symmetry_space_group_name_H-M   'P 1'
_cell_length_a   7.38333613
_cell_length_b   7.76938917
_cell_length_c   14.57864340
_cell_angle_alpha   90.02375119
_cell_angle_beta   90.08574250
_cell_angle_gamma   90.03290571
_symmetry_Int_Tables_number   1
_chemical_formula_structural   Tb11Ho9Si15Ru
_chemical_formula_sum   'Tb11 Ho9 Si15 Ru1'
_cell_volume   836.28832515
_cell_formula_units_Z   1
loop_
 _symmetry_equiv_pos_site_id
 _symmetry_equiv_pos_as_xyz
  1  'x, y, z'
loop_
 _atom_site_type_symbol
 _atom_site_label
 _atom_site_symmetry_multiplicity
 _atom_site_fract_x
 _atom_site_fract_y
 _atom_site_fract_z
 _atom_site_occupancy
  Tb  Tb0  1  0.817001  0.677780  0.123209  1
  Tb  Tb1  1  0.671759  0.184828  0.874319  1
  Tb  Tb2  1  0.193728  0.325224  0.627245  1
  Tb  Tb3  1  0.522250  0.674624  0.594148  1
  Tb  Tb4  1  0.025081  0.817266  0.904001  1
  Tb  Tb5  1  0.473024  0.315237  0.097525  1
  Tb  Tb6  1  0.974744  0.182284  0.403532  1
  Tb  Tb7  1  0.474079  0.315322  0.402864  1
  Tb  Tb8  1  0.974609  0.182292  0.096537  1
  Tb  Tb9  1  0.521051  0.674373  0.905514  1
  Tb  Tb10  1  0.024920  0.816907  0.595824  1
  Ho  Ho11  1  0.672514  0.184388  0.625354  1
  Ho  Ho12  1  0.193485  0.325565  0.872588  1
  Ho  Ho13  1  0.317705  0.819676  0.124215  1
  Ho  Ho14  1  0.817467  0.677707  0.376645  1
  Ho  Ho15  1  0.318047  0.819909  0.376156  1
  Ho  Ho16  1  0.838721  0.514391  0.749911  1
  Ho  Ho17  1  0.354213  0.980401  0.749941  1
  Ho  Ho18  1  0.150061  0.483777  0.250097  1
  Ho  Ho19  1  0.649270  0.014143  0.250178  1
  Si  Si20  1  0.647225  0.970765  0.460334  1
  Si  Si21  1  0.151470  0.528464  0.039188  1
  Si  Si22  1  0.347352  0.026000  0.961200  1
  Si  Si23  1  0.855168  0.470105  0.538890  1
  Si  Si24  1  0.349827  0.025221  0.539046  1
  Si  Si25  1  0.858717  0.469743  0.959980  1
  Si  Si26  1  0.644761  0.971307  0.040062  1
  Si  Si27  1  0.149563  0.529397  0.460093  1
  Si  Si28  1  0.980782  0.102275  0.749748  1
  Si  Si29  1  0.521887  0.604228  0.250655  1
  Si  Si30  1  0.019953  0.894532  0.250556  1
  Si  Si31  1  0.740795  0.877381  0.749453  1
  Si  Si32  1  0.228809  0.633253  0.750687  1
  Si  Si33  1  0.266654  0.126555  0.250148  1
  Si  Si34  1  0.768743  0.372161  0.250527  1
  Ru  Ru35  1  0.484565  0.412522  0.749631  1
