# generated using pymatgen
data_Dy2Ho7Lu(CoSb2)2
_symmetry_space_group_name_H-M   'P 1'
_cell_length_a   7.83648534
_cell_length_b   8.74993755
_cell_length_c   12.15071400
_cell_angle_alpha   90.00000000
_cell_angle_beta   90.00000000
_cell_angle_gamma   89.93234370
_symmetry_Int_Tables_number   1
_chemical_formula_structural   Dy2Ho7Lu(CoSb2)2
_chemical_formula_sum   'Dy4 Ho14 Lu2 Co4 Sb8'
_cell_volume   833.15877926
_cell_formula_units_Z   2
loop_
 _symmetry_equiv_pos_site_id
 _symmetry_equiv_pos_as_xyz
  1  'x, y, z'
loop_
 _atom_site_type_symbol
 _atom_site_label
 _atom_site_symmetry_multiplicity
 _atom_site_fract_x
 _atom_site_fract_y
 _atom_site_fract_z
 _atom_site_occupancy
  Dy  Dy0  1  0.622797  0.749284  0.307468  1
  Dy  Dy1  1  0.877203  0.750716  0.807468  1
  Dy  Dy2  1  0.378596  0.250376  0.692559  1
  Dy  Dy3  1  0.121404  0.249624  0.192559  1
  Ho  Ho4  1  0.155045  0.750358  0.204002  1
  Ho  Ho5  1  0.344955  0.749642  0.704002  1
  Ho  Ho6  1  0.844264  0.249970  0.795864  1
  Ho  Ho7  1  0.655736  0.250030  0.295864  1
  Ho  Ho8  1  0.451573  0.750338  0.997920  1
  Ho  Ho9  1  0.048427  0.749662  0.497920  1
  Ho  Ho10  1  0.550515  0.249352  0.002143  1
  Ho  Ho11  1  0.949485  0.250648  0.502143  1
  Ho  Ho12  1  0.822184  0.536680  0.065834  1
  Ho  Ho13  1  0.677816  0.963320  0.565834  1
  Ho  Ho14  1  0.177251  0.036304  0.934551  1
  Ho  Ho15  1  0.322749  0.463696  0.434551  1
  Ho  Ho16  1  0.177851  0.463794  0.934396  1
  Ho  Ho17  1  0.322149  0.036206  0.434396  1
  Lu  Lu18  1  0.825264  0.963017  0.065476  1
  Lu  Lu19  1  0.674736  0.536983  0.565476  1
  Co  Co20  1  0.434926  0.749060  0.491545  1
  Co  Co21  1  0.065074  0.750940  0.991545  1
  Co  Co22  1  0.567810  0.250688  0.508935  1
  Co  Co23  1  0.932190  0.249312  0.008935  1
  Sb  Sb24  1  0.930057  0.508467  0.327581  1
  Sb  Sb25  1  0.569943  0.991533  0.827581  1
  Sb  Sb26  1  0.070572  0.008458  0.672193  1
  Sb  Sb27  1  0.429428  0.491542  0.172193  1
  Sb  Sb28  1  0.069028  0.491944  0.672108  1
  Sb  Sb29  1  0.430972  0.008056  0.172108  1
  Sb  Sb30  1  0.929263  0.991442  0.327424  1
  Sb  Sb31  1  0.570737  0.508558  0.827424  1
