# generated using pymatgen
data_Tb9Zn4
_symmetry_space_group_name_H-M   'P 1'
_cell_length_a   8.64054803
_cell_length_b   8.64054394
_cell_length_c   8.64055193
_cell_angle_alpha   94.97089690
_cell_angle_beta   94.97110823
_cell_angle_gamma   145.76099126
_symmetry_Int_Tables_number   1
_chemical_formula_structural   Tb9Zn4
_chemical_formula_sum   'Tb9 Zn4'
_cell_volume   346.87860311
_cell_formula_units_Z   1
loop_
 _symmetry_equiv_pos_site_id
 _symmetry_equiv_pos_as_xyz
  1  'x, y, z'
loop_
 _atom_site_type_symbol
 _atom_site_label
 _atom_site_symmetry_multiplicity
 _atom_site_fract_x
 _atom_site_fract_y
 _atom_site_fract_z
 _atom_site_occupancy
  Tb  Tb0  1  0.499999  0.499999  0.000000  1
  Tb  Tb1  1  0.182130  0.887530  0.069665  1
  Tb  Tb2  1  0.112466  0.182132  0.294601  1
  Tb  Tb3  1  0.881208  0.404420  0.285629  1
  Tb  Tb4  1  0.595578  0.881208  0.476788  1
  Tb  Tb5  1  0.404421  0.118791  0.523211  1
  Tb  Tb6  1  0.118791  0.595579  0.714371  1
  Tb  Tb7  1  0.887533  0.817867  0.705399  1
  Tb  Tb8  1  0.817869  0.112469  0.930335  1
  Zn  Zn9  1  0.390044  0.734732  0.124777  1
  Zn  Zn10  1  0.734731  0.609954  0.344688  1
  Zn  Zn11  1  0.265268  0.390045  0.655312  1
  Zn  Zn12  1  0.609955  0.265267  0.875223  1
