# generated using pymatgen
data_Eu6Re2N6O
_symmetry_space_group_name_H-M   'P 1'
_cell_length_a   6.89990081
_cell_length_b   6.89989981
_cell_length_c   6.89989973
_cell_angle_alpha   66.77262335
_cell_angle_beta   66.77262252
_cell_angle_gamma   66.77262446
_symmetry_Int_Tables_number   1
_chemical_formula_structural   Eu6Re2N6O
_chemical_formula_sum   'Eu6 Re2 N6 O1'
_cell_volume   266.07505795
_cell_formula_units_Z   1
loop_
 _symmetry_equiv_pos_site_id
 _symmetry_equiv_pos_as_xyz
  1  'x, y, z'
loop_
 _atom_site_type_symbol
 _atom_site_label
 _atom_site_symmetry_multiplicity
 _atom_site_fract_x
 _atom_site_fract_y
 _atom_site_fract_z
 _atom_site_occupancy
  Eu  Eu0  1  0.337438  0.180163  0.736338  1
  Eu  Eu1  1  0.180163  0.736338  0.337438  1
  Eu  Eu2  1  0.736338  0.337438  0.180163  1
  Eu  Eu3  1  0.662562  0.819837  0.263662  1
  Eu  Eu4  1  0.819837  0.263662  0.662562  1
  Eu  Eu5  1  0.263662  0.662562  0.819837  1
  Re  Re6  1  0.250003  0.250003  0.250003  1
  Re  Re7  1  0.749997  0.749997  0.749997  1
  N  N8  1  0.240884  0.014206  0.502616  1
  N  N9  1  0.014206  0.502616  0.240884  1
  N  N10  1  0.502616  0.240884  0.014206  1
  N  N11  1  0.759116  0.985794  0.497384  1
  N  N12  1  0.985794  0.497384  0.759116  1
  N  N13  1  0.497384  0.759116  0.985794  1
  O  O14  1  0.500000  0.500000  0.500000  1
