# generated using pymatgen
data_EuY2Tm(Si3Rh)2
_symmetry_space_group_name_H-M   'P 1'
_cell_length_a   8.20109800
_cell_length_b   8.19248785
_cell_length_c   8.01091600
_cell_angle_alpha   90.00000000
_cell_angle_beta   90.00000000
_cell_angle_gamma   119.96527342
_symmetry_Int_Tables_number   1
_chemical_formula_structural   EuY2Tm(Si3Rh)2
_chemical_formula_sum   'Eu2 Y4 Tm2 Si12 Rh4'
_cell_volume   466.28611425
_cell_formula_units_Z   2
loop_
 _symmetry_equiv_pos_site_id
 _symmetry_equiv_pos_as_xyz
  1  'x, y, z'
loop_
 _atom_site_type_symbol
 _atom_site_label
 _atom_site_symmetry_multiplicity
 _atom_site_fract_x
 _atom_site_fract_y
 _atom_site_fract_z
 _atom_site_occupancy
  Eu  Eu0  1  0.999790  0.999895  0.250000  1
  Eu  Eu1  1  0.000412  0.000206  0.750000  1
  Y  Y2  1  0.983329  0.491664  0.250000  1
  Y  Y3  1  0.493247  0.506710  0.750000  1
  Y  Y4  1  0.493247  0.986539  0.750000  1
  Y  Y5  1  0.013199  0.506600  0.750000  1
  Tm  Tm6  1  0.507252  0.492606  0.250000  1
  Tm  Tm7  1  0.507252  0.014645  0.250000  1
  Si  Si8  1  0.168102  0.832444  0.500734  1
  Si  Si9  1  0.168102  0.335658  0.500734  1
  Si  Si10  1  0.665054  0.832527  0.500079  1
  Si  Si11  1  0.832444  0.166904  0.498960  1
  Si  Si12  1  0.832444  0.665540  0.498960  1
  Si  Si13  1  0.334404  0.167202  0.497196  1
  Si  Si14  1  0.832444  0.166904  0.001040  1
  Si  Si15  1  0.832444  0.665540  0.001040  1
  Si  Si16  1  0.334404  0.167202  0.002804  1
  Si  Si17  1  0.168102  0.832444  0.999266  1
  Si  Si18  1  0.168102  0.335658  0.999266  1
  Si  Si19  1  0.665054  0.832527  0.999921  1
  Rh  Rh20  1  0.334740  0.667370  0.467731  1
  Rh  Rh21  1  0.665846  0.332922  0.519707  1
  Rh  Rh22  1  0.665846  0.332922  0.980293  1
  Rh  Rh23  1  0.334740  0.667370  0.032269  1
