# generated using pymatgen
data_La2ZnNi(GeH2)2
_symmetry_space_group_name_H-M   'P 1'
_cell_length_a   4.26747900
_cell_length_b   4.26747906
_cell_length_c   8.63287700
_cell_angle_alpha   90.00000000
_cell_angle_beta   90.00000000
_cell_angle_gamma   120.00000732
_symmetry_Int_Tables_number   1
_chemical_formula_structural   La2ZnNi(GeH2)2
_chemical_formula_sum   'La2 Zn1 Ni1 Ge2 H4'
_cell_volume   136.15354199
_cell_formula_units_Z   1
loop_
 _symmetry_equiv_pos_site_id
 _symmetry_equiv_pos_as_xyz
  1  'x, y, z'
loop_
 _atom_site_type_symbol
 _atom_site_label
 _atom_site_symmetry_multiplicity
 _atom_site_fract_x
 _atom_site_fract_y
 _atom_site_fract_z
 _atom_site_occupancy
  La  La0  1  0.000000  0.000000  0.488681  1
  La  La1  1  0.000000  0.000000  0.011319  1
  Zn  Zn2  1  0.333333  0.666667  0.750000  1
  Ni  Ni3  1  0.666667  0.333333  0.250000  1
  Ge  Ge4  1  0.666667  0.333333  0.750000  1
  Ge  Ge5  1  0.333333  0.666667  0.250000  1
  H  H6  1  0.666667  0.333333  0.069016  1
  H  H7  1  0.333333  0.666667  0.004493  1
  H  H8  1  0.666667  0.333333  0.430984  1
  H  H9  1  0.333333  0.666667  0.495507  1
