# generated using pymatgen
data_Hf4In2Co3Cu
_symmetry_space_group_name_H-M   'P 1'
_cell_length_a   7.23080477
_cell_length_b   7.23080477
_cell_length_c   6.54082800
_cell_angle_alpha   90.00000000
_cell_angle_beta   90.00000000
_cell_angle_gamma   90.87494367
_symmetry_Int_Tables_number   1
_chemical_formula_structural   Hf4In2Co3Cu
_chemical_formula_sum   'Hf8 In4 Co6 Cu2'
_cell_volume   341.94429435
_cell_formula_units_Z   2
loop_
 _symmetry_equiv_pos_site_id
 _symmetry_equiv_pos_as_xyz
  1  'x, y, z'
loop_
 _atom_site_type_symbol
 _atom_site_label
 _atom_site_symmetry_multiplicity
 _atom_site_fract_x
 _atom_site_fract_y
 _atom_site_fract_z
 _atom_site_occupancy
  Hf  Hf0  1  0.154948  0.180525  0.000000  1
  Hf  Hf1  1  0.819475  0.845052  0.000000  1
  Hf  Hf2  1  0.668693  0.331307  0.500000  1
  Hf  Hf3  1  0.355943  0.644057  0.500000  1
  Hf  Hf4  1  0.669465  0.330535  0.000000  1
  Hf  Hf5  1  0.349516  0.650484  0.000000  1
  Hf  Hf6  1  0.810766  0.841505  0.500000  1
  Hf  Hf7  1  0.158495  0.189234  0.500000  1
  In  In8  1  0.490121  0.001547  0.249621  1
  In  In9  1  0.490121  0.001547  0.750379  1
  In  In10  1  0.998453  0.509879  0.249621  1
  In  In11  1  0.998453  0.509879  0.750379  1
  Co  Co12  1  0.376272  0.367971  0.244565  1
  Co  Co13  1  0.632029  0.623728  0.755435  1
  Co  Co14  1  0.632029  0.623728  0.244565  1
  Co  Co15  1  0.881353  0.118647  0.747034  1
  Co  Co16  1  0.881353  0.118647  0.252966  1
  Co  Co17  1  0.376272  0.367971  0.755435  1
  Cu  Cu18  1  0.128121  0.871879  0.266046  1
  Cu  Cu19  1  0.128121  0.871879  0.733954  1
