# generated using pymatgen
data_Ho2Er6Cd2IrPd
_symmetry_space_group_name_H-M   'P 1'
_cell_length_a   9.58492609
_cell_length_b   9.58241140
_cell_length_c   9.54079033
_cell_angle_alpha   60.16100033
_cell_angle_beta   60.13479469
_cell_angle_gamma   60.41625200
_symmetry_Int_Tables_number   1
_chemical_formula_structural   Ho2Er6Cd2IrPd
_chemical_formula_sum   'Ho4 Er12 Cd4 Ir2 Pd2'
_cell_volume   622.95097575
_cell_formula_units_Z   2
loop_
 _symmetry_equiv_pos_site_id
 _symmetry_equiv_pos_as_xyz
  1  'x, y, z'
loop_
 _atom_site_type_symbol
 _atom_site_label
 _atom_site_symmetry_multiplicity
 _atom_site_fract_x
 _atom_site_fract_y
 _atom_site_fract_z
 _atom_site_occupancy
  Ho  Ho0  1  0.816561  0.187047  0.811607  1
  Ho  Ho1  1  0.187047  0.816561  0.184783  1
  Ho  Ho2  1  0.815725  0.815725  0.184275  1
  Ho  Ho3  1  0.186691  0.186691  0.813309  1
  Er  Er4  1  0.601717  0.600949  0.593849  1
  Er  Er5  1  0.600949  0.601717  0.203486  1
  Er  Er6  1  0.611297  0.187281  0.600917  1
  Er  Er7  1  0.187281  0.611297  0.600505  1
  Er  Er8  1  0.056491  0.440599  0.438496  1
  Er  Er9  1  0.440599  0.056491  0.064415  1
  Er  Er10  1  0.440747  0.056728  0.438569  1
  Er  Er11  1  0.056728  0.440747  0.063956  1
  Er  Er12  1  0.440558  0.440558  0.059442  1
  Er  Er13  1  0.062141  0.062141  0.437859  1
  Er  Er14  1  0.188323  0.815886  0.810328  1
  Er  Er15  1  0.815886  0.188323  0.185462  1
  Cd  Cd16  1  0.830949  0.829882  0.833525  1
  Cd  Cd17  1  0.829882  0.830949  0.505643  1
  Cd  Cd18  1  0.828919  0.505686  0.832732  1
  Cd  Cd19  1  0.505686  0.828919  0.832662  1
  Ir  Ir20  1  0.388415  0.822763  0.395102  1
  Ir  Ir21  1  0.822763  0.388415  0.393721  1
  Pd  Pd22  1  0.392021  0.392624  0.398017  1
  Pd  Pd23  1  0.392624  0.392021  0.817339  1
