# generated using pymatgen
data_Sm2CrTc16C3
_symmetry_space_group_name_H-M   'P 1'
_cell_length_a   6.97000742
_cell_length_b   6.98277461
_cell_length_c   6.98277576
_cell_angle_alpha   82.51156632
_cell_angle_beta   82.90100810
_cell_angle_gamma   82.90102214
_symmetry_Int_Tables_number   1
_chemical_formula_structural   Sm2CrTc16C3
_chemical_formula_sum   'Sm2 Cr1 Tc16 C3'
_cell_volume   332.36900548
_cell_formula_units_Z   1
loop_
 _symmetry_equiv_pos_site_id
 _symmetry_equiv_pos_as_xyz
  1  'x, y, z'
loop_
 _atom_site_type_symbol
 _atom_site_label
 _atom_site_symmetry_multiplicity
 _atom_site_fract_x
 _atom_site_fract_y
 _atom_site_fract_z
 _atom_site_occupancy
  Sm  Sm0  1  0.651404  0.651575  0.651575  1
  Sm  Sm1  1  0.348596  0.348425  0.348425  1
  Cr  Cr2  1  0.500000  0.000000  0.000000  1
  Tc  Tc3  1  0.000000  0.000000  0.500000  1
  Tc  Tc4  1  0.000000  0.500000  0.000000  1
  Tc  Tc5  1  0.718862  0.275418  0.000971  1
  Tc  Tc6  1  0.000000  0.722067  0.277933  1
  Tc  Tc7  1  0.281138  0.999029  0.724582  1
  Tc  Tc8  1  0.000000  0.277933  0.722067  1
  Tc  Tc9  1  0.718862  0.000971  0.275418  1
  Tc  Tc10  1  0.281138  0.724582  0.999029  1
  Tc  Tc11  1  0.348184  0.342988  0.867045  1
  Tc  Tc12  1  0.862166  0.348909  0.348909  1
  Tc  Tc13  1  0.348184  0.867045  0.342988  1
  Tc  Tc14  1  0.651816  0.657012  0.132955  1
  Tc  Tc15  1  0.137834  0.651091  0.651091  1
  Tc  Tc16  1  0.651816  0.132955  0.657012  1
  Tc  Tc17  1  0.901635  0.902533  0.902533  1
  Tc  Tc18  1  0.098365  0.097467  0.097467  1
  C  C19  1  0.500000  0.500000  0.000000  1
  C  C20  1  0.000000  0.500000  0.500000  1
  C  C21  1  0.500000  0.000000  0.500000  1
