# generated using pymatgen
data_BaSb2PtRh
_symmetry_space_group_name_H-M   'P 1'
_cell_length_a   4.80075200
_cell_length_b   4.80075200
_cell_length_c   10.58760100
_cell_angle_alpha   90.00000000
_cell_angle_beta   90.00000000
_cell_angle_gamma   90.00000000
_symmetry_Int_Tables_number   1
_chemical_formula_structural   BaSb2PtRh
_chemical_formula_sum   'Ba2 Sb4 Pt2 Rh2'
_cell_volume   244.01476704
_cell_formula_units_Z   2
loop_
 _symmetry_equiv_pos_site_id
 _symmetry_equiv_pos_as_xyz
  1  'x, y, z'
loop_
 _atom_site_type_symbol
 _atom_site_label
 _atom_site_symmetry_multiplicity
 _atom_site_fract_x
 _atom_site_fract_y
 _atom_site_fract_z
 _atom_site_occupancy
  Ba  Ba0  1  0.000000  0.500000  0.248149  1
  Ba  Ba1  1  0.500000  0.000000  0.751851  1
  Sb  Sb2  1  0.000000  0.000000  0.500000  1
  Sb  Sb3  1  0.500000  0.500000  0.500000  1
  Sb  Sb4  1  0.000000  0.500000  0.884116  1
  Sb  Sb5  1  0.500000  0.000000  0.115884  1
  Pt  Pt6  1  0.000000  0.500000  0.621396  1
  Pt  Pt7  1  0.500000  0.000000  0.378604  1
  Rh  Rh8  1  0.000000  0.000000  0.000000  1
  Rh  Rh9  1  0.500000  0.500000  0.000000  1
