# generated using pymatgen
data_Lu5Au3C
_symmetry_space_group_name_H-M   'P 1'
_cell_length_a   8.48370500
_cell_length_b   8.48370471
_cell_length_c   6.22240300
_cell_angle_alpha   90.00000000
_cell_angle_beta   90.00000000
_cell_angle_gamma   119.99999724
_symmetry_Int_Tables_number   1
_chemical_formula_structural   Lu5Au3C
_chemical_formula_sum   'Lu10 Au6 C2'
_cell_volume   387.84650407
_cell_formula_units_Z   2
loop_
 _symmetry_equiv_pos_site_id
 _symmetry_equiv_pos_as_xyz
  1  'x, y, z'
loop_
 _atom_site_type_symbol
 _atom_site_label
 _atom_site_symmetry_multiplicity
 _atom_site_fract_x
 _atom_site_fract_y
 _atom_site_fract_z
 _atom_site_occupancy
  Lu  Lu0  1  0.666667  0.333333  0.500000  1
  Lu  Lu1  1  0.333333  0.666667  0.500000  1
  Lu  Lu2  1  0.333333  0.666667  0.000000  1
  Lu  Lu3  1  0.666667  0.333333  0.000000  1
  Lu  Lu4  1  0.782819  0.782819  0.250000  1
  Lu  Lu5  1  0.217181  0.000000  0.250000  1
  Lu  Lu6  1  0.000000  0.217181  0.250000  1
  Lu  Lu7  1  0.217181  0.217181  0.750000  1
  Lu  Lu8  1  0.782819  0.000000  0.750000  1
  Lu  Lu9  1  0.000000  0.782819  0.750000  1
  Au  Au10  1  0.414453  0.414453  0.250000  1
  Au  Au11  1  0.585547  0.000000  0.250000  1
  Au  Au12  1  0.000000  0.585547  0.250000  1
  Au  Au13  1  0.585547  0.585547  0.750000  1
  Au  Au14  1  0.414453  0.000000  0.750000  1
  Au  Au15  1  0.000000  0.414453  0.750000  1
  C  C16  1  0.000000  0.000000  0.500000  1
  C  C17  1  0.000000  0.000000  0.000000  1
