# generated using pymatgen
data_Ta12ZnGa4Ni7N4
_symmetry_space_group_name_H-M   'P 1'
_cell_length_a   8.10524772
_cell_length_b   8.10389885
_cell_length_c   8.10389800
_cell_angle_alpha   60.00000348
_cell_angle_beta   60.00550844
_cell_angle_gamma   60.00551084
_symmetry_Int_Tables_number   1
_chemical_formula_structural   Ta12ZnGa4Ni7N4
_chemical_formula_sum   'Ta12 Zn1 Ga4 Ni7 N4'
_cell_volume   376.42238906
_cell_formula_units_Z   1
loop_
 _symmetry_equiv_pos_site_id
 _symmetry_equiv_pos_as_xyz
  1  'x, y, z'
loop_
 _atom_site_type_symbol
 _atom_site_label
 _atom_site_symmetry_multiplicity
 _atom_site_fract_x
 _atom_site_fract_y
 _atom_site_fract_z
 _atom_site_occupancy
  Ta  Ta0  1  0.817117  0.815110  0.183887  1
  Ta  Ta1  1  0.189337  0.193158  0.808752  1
  Ta  Ta2  1  0.817117  0.183887  0.815110  1
  Ta  Ta3  1  0.189337  0.808752  0.193158  1
  Ta  Ta4  1  0.189337  0.808752  0.808752  1
  Ta  Ta5  1  0.817117  0.183887  0.183887  1
  Ta  Ta6  1  0.441856  0.440499  0.058823  1
  Ta  Ta7  1  0.061790  0.066868  0.435671  1
  Ta  Ta8  1  0.441856  0.058823  0.440499  1
  Ta  Ta9  1  0.061790  0.435671  0.066868  1
  Ta  Ta10  1  0.061790  0.435671  0.435671  1
  Ta  Ta11  1  0.441856  0.058823  0.058823  1
  Zn  Zn12  1  0.731282  0.422906  0.422906  1
  Ga  Ga13  1  0.125215  0.624928  0.624928  1
  Ga  Ga14  1  0.623029  0.117704  0.629634  1
  Ga  Ga15  1  0.623029  0.629634  0.117704  1
  Ga  Ga16  1  0.623029  0.629634  0.629634  1
  Ni  Ni17  1  0.413238  0.758449  0.414156  1
  Ni  Ni18  1  0.413238  0.414156  0.758449  1
  Ni  Ni19  1  0.413238  0.414156  0.414156  1
  Ni  Ni20  1  0.489598  0.836801  0.836801  1
  Ni  Ni21  1  0.835668  0.495956  0.834188  1
  Ni  Ni22  1  0.835668  0.834188  0.495956  1
  Ni  Ni23  1  0.835668  0.834188  0.834188  1
  N  N24  1  0.621688  0.126104  0.126104  1
  N  N25  1  0.128704  0.625379  0.122959  1
  N  N26  1  0.128704  0.122959  0.625379  1
  N  N27  1  0.128704  0.122959  0.122959  1
