# generated using pymatgen
data_Nb8Si2Sn4Au
_symmetry_space_group_name_H-M   'P 1'
_cell_length_a   5.04370615
_cell_length_b   7.92187457
_cell_length_c   7.92179013
_cell_angle_alpha   95.81032216
_cell_angle_beta   108.56178638
_cell_angle_gamma   71.43641841
_symmetry_Int_Tables_number   1
_chemical_formula_structural   Nb8Si2Sn4Au
_chemical_formula_sum   'Nb8 Si2 Sn4 Au1'
_cell_volume   284.44329444
_cell_formula_units_Z   1
loop_
 _symmetry_equiv_pos_site_id
 _symmetry_equiv_pos_as_xyz
  1  'x, y, z'
loop_
 _atom_site_type_symbol
 _atom_site_label
 _atom_site_symmetry_multiplicity
 _atom_site_fract_x
 _atom_site_fract_y
 _atom_site_fract_z
 _atom_site_occupancy
  Nb  Nb0  1  0.412860  0.876942  0.716238  1
  Nb  Nb1  1  0.573560  0.123065  0.283758  1
  Nb  Nb2  1  0.926437  0.283762  0.123058  1
  Nb  Nb3  1  0.087133  0.716242  0.876935  1
  Nb  Nb4  1  0.710117  0.716266  0.122980  1
  Nb  Nb5  1  0.303408  0.283727  0.877021  1
  Nb  Nb6  1  0.789885  0.122979  0.716273  1
  Nb  Nb7  1  0.196597  0.877020  0.283734  1
  Si  Si8  1  0.250000  0.000000  0.000000  1
  Si  Si9  1  0.750000  0.000000  0.000000  1
  Sn  Sn10  1  0.380766  0.499999  0.196333  1
  Sn  Sn11  1  0.684455  0.499999  0.803668  1
  Sn  Sn12  1  0.815567  0.803667  0.500001  1
  Sn  Sn13  1  0.119213  0.196332  0.500001  1
  Au  Au14  1  0.250001  0.499999  0.500001  1
