# generated using pymatgen
data_Hf3Zr6NiMo4
_symmetry_space_group_name_H-M   'P 1'
_cell_length_a   8.47537802
_cell_length_b   8.76656082
_cell_length_c   8.76656117
_cell_angle_alpha   119.99150270
_cell_angle_beta   90.00616788
_cell_angle_gamma   89.99382880
_symmetry_Int_Tables_number   1
_chemical_formula_structural   Hf3Zr6NiMo4
_chemical_formula_sum   'Hf6 Zr12 Ni2 Mo8'
_cell_volume   564.13806389
_cell_formula_units_Z   2
loop_
 _symmetry_equiv_pos_site_id
 _symmetry_equiv_pos_as_xyz
  1  'x, y, z'
loop_
 _atom_site_type_symbol
 _atom_site_label
 _atom_site_symmetry_multiplicity
 _atom_site_fract_x
 _atom_site_fract_y
 _atom_site_fract_z
 _atom_site_occupancy
  Hf  Hf0  1  0.057236  0.199195  0.398379  1
  Hf  Hf1  1  0.057218  0.199203  0.800797  1
  Hf  Hf2  1  0.057236  0.601621  0.800805  1
  Hf  Hf3  1  0.942764  0.800805  0.601621  1
  Hf  Hf4  1  0.942782  0.800797  0.199203  1
  Hf  Hf5  1  0.942764  0.398379  0.199195  1
  Zr  Zr6  1  0.557558  0.800620  0.601240  1
  Zr  Zr7  1  0.557525  0.800615  0.199385  1
  Zr  Zr8  1  0.557558  0.398760  0.199380  1
  Zr  Zr9  1  0.442442  0.199380  0.398760  1
  Zr  Zr10  1  0.442475  0.199385  0.800615  1
  Zr  Zr11  1  0.442442  0.601240  0.800620  1
  Zr  Zr12  1  0.752823  0.457464  0.914905  1
  Zr  Zr13  1  0.752805  0.457435  0.542565  1
  Zr  Zr14  1  0.752823  0.085095  0.542536  1
  Zr  Zr15  1  0.247177  0.542536  0.085095  1
  Zr  Zr16  1  0.247195  0.542565  0.457435  1
  Zr  Zr17  1  0.247177  0.914905  0.457464  1
  Ni  Ni18  1  0.753440  0.666676  0.333324  1
  Ni  Ni19  1  0.246560  0.333324  0.666676  1
  Mo  Mo20  1  0.751609  0.110859  0.221724  1
  Mo  Mo21  1  0.751563  0.110888  0.889112  1
  Mo  Mo22  1  0.751609  0.778276  0.889141  1
  Mo  Mo23  1  0.248391  0.889141  0.778276  1
  Mo  Mo24  1  0.248437  0.889112  0.110888  1
  Mo  Mo25  1  0.248391  0.221724  0.110859  1
  Mo  Mo26  1  0.500000  0.000000  0.000000  1
  Mo  Mo27  1  0.000000  0.000000  0.000000  1
