# generated using pymatgen
data_Rb(CdH6)2
_symmetry_space_group_name_H-M   'P 1'
_cell_length_a   5.11676188
_cell_length_b   9.85265152
_cell_length_c   10.69779310
_cell_angle_alpha   141.02087272
_cell_angle_beta   73.91395514
_cell_angle_gamma   119.62479476
_symmetry_Int_Tables_number   1
_chemical_formula_structural   Rb(CdH6)2
_chemical_formula_sum   'Rb1 Cd2 H12'
_cell_volume   289.18134200
_cell_formula_units_Z   1
loop_
 _symmetry_equiv_pos_site_id
 _symmetry_equiv_pos_as_xyz
  1  'x, y, z'
loop_
 _atom_site_type_symbol
 _atom_site_label
 _atom_site_symmetry_multiplicity
 _atom_site_fract_x
 _atom_site_fract_y
 _atom_site_fract_z
 _atom_site_occupancy
  Rb  Rb0  1  0.543315  0.467704  0.233757  1
  Cd  Cd1  1  0.126815  0.136868  0.407141  1
  Cd  Cd2  1  0.772470  0.280754  0.384931  1
  H  H3  1  0.937265  0.376839  0.268018  1
  H  H4  1  0.459995  0.805501  0.882669  1
  H  H5  1  0.442794  0.013091  0.708099  1
  H  H6  1  0.861315  0.900323  0.716100  1
  H  H7  1  0.939287  0.950333  0.680273  1
  H  H8  1  0.572372  0.938170  0.971982  1
  H  H9  1  0.889258  0.899077  0.378341  1
  H  H10  1  0.176558  0.589275  0.209566  1
  H  H11  1  0.996813  0.527277  0.887406  1
  H  H12  1  0.262191  0.688808  0.222548  1
  H  H13  1  0.934139  0.463742  0.788810  1
  H  H14  1  0.564214  0.067505  0.681546  1
