# generated using pymatgen
data_Tm5LuBi2Ru
_symmetry_space_group_name_H-M   'P 1'
_cell_length_a   8.22420200
_cell_length_b   8.22356164
_cell_length_c   4.17448200
_cell_angle_alpha   90.00000000
_cell_angle_beta   90.00000000
_cell_angle_gamma   120.00256788
_symmetry_Int_Tables_number   1
_chemical_formula_structural   Tm5LuBi2Ru
_chemical_formula_sum   'Tm5 Lu1 Bi2 Ru1'
_cell_volume   244.49822295
_cell_formula_units_Z   1
loop_
 _symmetry_equiv_pos_site_id
 _symmetry_equiv_pos_as_xyz
  1  'x, y, z'
loop_
 _atom_site_type_symbol
 _atom_site_label
 _atom_site_symmetry_multiplicity
 _atom_site_fract_x
 _atom_site_fract_y
 _atom_site_fract_z
 _atom_site_occupancy
  Tm  Tm0  1  0.000045  0.233410  0.000000  1
  Tm  Tm1  1  0.766635  0.766590  0.000000  1
  Tm  Tm2  1  0.613770  0.000000  0.500001  1
  Tm  Tm3  1  0.385876  0.385676  0.500001  1
  Tm  Tm4  1  0.000201  0.614324  0.500001  1
  Lu  Lu5  1  0.232822  0.000000  0.000000  1
  Bi  Bi6  1  0.666214  0.332898  0.000000  1
  Bi  Bi7  1  0.333316  0.667102  0.000000  1
  Ru  Ru8  1  0.001120  0.000000  0.500001  1
