# generated using pymatgen
data_Al2AgAu7
_symmetry_space_group_name_H-M   'P 1'
_cell_length_a   7.03345914
_cell_length_b   7.09411406
_cell_length_c   7.01961873
_cell_angle_alpha   90.21996079
_cell_angle_beta   90.38824273
_cell_angle_gamma   90.37788094
_symmetry_Int_Tables_number   1
_chemical_formula_structural   Al2AgAu7
_chemical_formula_sum   'Al4 Ag2 Au14'
_cell_volume   350.23372891
_cell_formula_units_Z   2
loop_
 _symmetry_equiv_pos_site_id
 _symmetry_equiv_pos_as_xyz
  1  'x, y, z'
loop_
 _atom_site_type_symbol
 _atom_site_label
 _atom_site_symmetry_multiplicity
 _atom_site_fract_x
 _atom_site_fract_y
 _atom_site_fract_z
 _atom_site_occupancy
  Al  Al0  1  0.062605  0.064553  0.063002  1
  Al  Al1  1  0.434291  0.937605  0.563144  1
  Al  Al2  1  0.565002  0.433793  0.936471  1
  Al  Al3  1  0.938247  0.560993  0.437820  1
  Ag  Ag4  1  0.788563  0.950836  0.383368  1
  Ag  Ag5  1  0.384432  0.789223  0.953193  1
  Au  Au6  1  0.680831  0.685308  0.683207  1
  Au  Au7  1  0.816726  0.315695  0.183151  1
  Au  Au8  1  0.181554  0.816406  0.316502  1
  Au  Au9  1  0.315899  0.181300  0.816860  1
  Au  Au10  1  0.949513  0.387144  0.785003  1
  Au  Au11  1  0.552890  0.614597  0.285664  1
  Au  Au12  1  0.885153  0.715236  0.050561  1
  Au  Au13  1  0.050797  0.884355  0.713037  1
  Au  Au14  1  0.113605  0.214321  0.448515  1
  Au  Au15  1  0.613537  0.284447  0.551080  1
  Au  Au16  1  0.448808  0.112225  0.215357  1
  Au  Au17  1  0.287687  0.552575  0.616912  1
  Au  Au18  1  0.216263  0.450179  0.112493  1
  Au  Au19  1  0.713599  0.049208  0.884659  1
