# generated using pymatgen
data_La11Tb2PrIr6
_symmetry_space_group_name_H-M   'P 1'
_cell_length_a   10.23909300
_cell_length_b   10.22288716
_cell_length_c   6.55623300
_cell_angle_alpha   89.91655223
_cell_angle_beta   90.00000000
_cell_angle_gamma   120.05245677
_symmetry_Int_Tables_number   1
_chemical_formula_structural   La11Tb2PrIr6
_chemical_formula_sum   'La11 Tb2 Pr1 Ir6'
_cell_volume   594.00437693
_cell_formula_units_Z   1
loop_
 _symmetry_equiv_pos_site_id
 _symmetry_equiv_pos_as_xyz
  1  'x, y, z'
loop_
 _atom_site_type_symbol
 _atom_site_label
 _atom_site_symmetry_multiplicity
 _atom_site_fract_x
 _atom_site_fract_y
 _atom_site_fract_z
 _atom_site_occupancy
  La  La0  1  0.127512  0.873147  0.248303  1
  La  La1  1  0.745637  0.873147  0.248303  1
  La  La2  1  0.126694  0.253387  0.247785  1
  La  La3  1  0.871962  0.126369  0.748573  1
  La  La4  1  0.254405  0.126369  0.748573  1
  La  La5  1  0.873522  0.747048  0.747492  1
  La  La6  1  0.539238  0.461941  0.434420  1
  La  La7  1  0.922704  0.461941  0.434420  1
  La  La8  1  0.538816  0.077633  0.435418  1
  La  La9  1  0.461153  0.539706  0.933832  1
  La  La10  1  0.078553  0.539706  0.933832  1
  Tb  Tb11  1  0.334041  0.668083  0.481858  1
  Tb  Tb12  1  0.666073  0.332146  0.981714  1
  Pr  Pr13  1  0.461389  0.922777  0.937804  1
  Ir  Ir14  1  0.811601  0.188353  0.191427  1
  Ir  Ir15  1  0.376752  0.188353  0.191427  1
  Ir  Ir16  1  0.811430  0.622860  0.189022  1
  Ir  Ir17  1  0.186019  0.810163  0.688430  1
  Ir  Ir18  1  0.624144  0.810163  0.688430  1
  Ir  Ir19  1  0.188353  0.376705  0.691024  1
