# generated using pymatgen
data_K4Sc2MnVF14
_symmetry_space_group_name_H-M   'P 1'
_cell_length_a   7.96443503
_cell_length_b   7.96443430
_cell_length_c   7.92870524
_cell_angle_alpha   120.63209628
_cell_angle_beta   117.30841563
_cell_angle_gamma   92.06541881
_symmetry_Int_Tables_number   1
_chemical_formula_structural   K4Sc2MnVF14
_chemical_formula_sum   'K4 Sc2 Mn1 V1 F14'
_cell_volume   359.78623252
_cell_formula_units_Z   1
loop_
 _symmetry_equiv_pos_site_id
 _symmetry_equiv_pos_as_xyz
  1  'x, y, z'
loop_
 _atom_site_type_symbol
 _atom_site_label
 _atom_site_symmetry_multiplicity
 _atom_site_fract_x
 _atom_site_fract_y
 _atom_site_fract_z
 _atom_site_occupancy
  K  K0  1  0.500000  0.500000  0.000000  1
  K  K1  1  0.000000  0.000000  0.000000  1
  K  K2  1  0.000000  0.500000  0.000000  1
  K  K3  1  0.000000  0.000000  0.500000  1
  Sc  Sc4  1  0.000000  0.500000  0.500000  1
  Sc  Sc5  1  0.500000  0.000000  0.500000  1
  Mn  Mn6  1  0.500000  0.500000  0.500000  1
  V  V7  1  0.500000  0.000000  0.000000  1
  F  F8  1  0.874171  0.589258  0.285075  1
  F  F9  1  0.195816  0.910904  0.285075  1
  F  F10  1  0.188820  0.805106  0.762113  1
  F  F11  1  0.456038  0.695510  0.380861  1
  F  F12  1  0.457008  0.073293  0.762113  1
  F  F13  1  0.185351  0.424823  0.380861  1
  F  F14  1  0.814649  0.575177  0.619139  1
  F  F15  1  0.542992  0.926707  0.237887  1
  F  F16  1  0.543962  0.304490  0.619139  1
  F  F17  1  0.811180  0.194894  0.237887  1
  F  F18  1  0.399573  0.249103  0.148677  1
  F  F19  1  0.125829  0.410742  0.714925  1
  F  F20  1  0.804184  0.089096  0.714925  1
  F  F21  1  0.600427  0.750897  0.851323  1
