# generated using pymatgen
data_SrSn6Ir3Ru
_symmetry_space_group_name_H-M   'P 1'
_cell_length_a   7.02963983
_cell_length_b   7.02963970
_cell_length_c   6.98315521
_cell_angle_alpha   119.47549954
_cell_angle_beta   119.47550259
_cell_angle_gamma   91.27940838
_symmetry_Int_Tables_number   1
_chemical_formula_structural   SrSn6Ir3Ru
_chemical_formula_sum   'Sr1 Sn6 Ir3 Ru1'
_cell_volume   245.09328550
_cell_formula_units_Z   1
loop_
 _symmetry_equiv_pos_site_id
 _symmetry_equiv_pos_as_xyz
  1  'x, y, z'
loop_
 _atom_site_type_symbol
 _atom_site_label
 _atom_site_symmetry_multiplicity
 _atom_site_fract_x
 _atom_site_fract_y
 _atom_site_fract_z
 _atom_site_occupancy
  Sr  Sr0  1  0.001329  0.001329  0.000510  1
  Sn  Sn1  1  0.472060  0.127099  0.005094  1
  Sn  Sn2  1  0.127099  0.472060  0.005094  1
  Sn  Sn3  1  0.874527  0.874527  0.346380  1
  Sn  Sn4  1  0.530982  0.530982  0.652303  1
  Sn  Sn5  1  0.995556  0.500143  0.501109  1
  Sn  Sn6  1  0.500143  0.995556  0.501109  1
  Ir  Ir7  1  0.402244  0.757197  0.997632  1
  Ir  Ir8  1  0.757197  0.402244  0.997632  1
  Ir  Ir9  1  0.248273  0.248273  0.654458  1
  Ru  Ru10  1  0.590590  0.590590  0.338680  1
