# generated using pymatgen
data_Lu2ScIn3CuAu2
_symmetry_space_group_name_H-M   'P 1'
_cell_length_a   7.62165200
_cell_length_b   7.63907937
_cell_length_c   3.75670700
_cell_angle_alpha   90.00000000
_cell_angle_beta   90.00000000
_cell_angle_gamma   119.92456238
_symmetry_Int_Tables_number   1
_chemical_formula_structural   Lu2ScIn3CuAu2
_chemical_formula_sum   'Lu2 Sc1 In3 Cu1 Au2'
_cell_volume   189.56481217
_cell_formula_units_Z   1
loop_
 _symmetry_equiv_pos_site_id
 _symmetry_equiv_pos_as_xyz
  1  'x, y, z'
loop_
 _atom_site_type_symbol
 _atom_site_label
 _atom_site_symmetry_multiplicity
 _atom_site_fract_x
 _atom_site_fract_y
 _atom_site_fract_z
 _atom_site_occupancy
  Lu  Lu0  1  0.000000  0.402839  0.500000  1
  Lu  Lu1  1  0.597160  0.597161  0.500000  1
  Sc  Sc2  1  0.400826  0.000000  0.500000  1
  In  In3  1  0.745263  0.000000  0.000000  1
  In  In4  1  0.003424  0.750262  0.000000  1
  In  In5  1  0.253163  0.249738  0.000000  1
  Cu  Cu6  1  0.001422  0.000000  0.500000  1
  Au  Au7  1  0.334054  0.669368  0.000000  1
  Au  Au8  1  0.664687  0.330632  0.000000  1
