# generated using pymatgen
data_Tb3MgCd2Ga2Ag
_symmetry_space_group_name_H-M   'P 1'
_cell_length_a   7.39937068
_cell_length_b   7.39936903
_cell_length_c   4.36231100
_cell_angle_alpha   90.00000000
_cell_angle_beta   90.00000000
_cell_angle_gamma   120.18013011
_symmetry_Int_Tables_number   1
_chemical_formula_structural   Tb3MgCd2Ga2Ag
_chemical_formula_sum   'Tb3 Mg1 Cd2 Ga2 Ag1'
_cell_volume   206.46458620
_cell_formula_units_Z   1
loop_
 _symmetry_equiv_pos_site_id
 _symmetry_equiv_pos_as_xyz
  1  'x, y, z'
loop_
 _atom_site_type_symbol
 _atom_site_label
 _atom_site_symmetry_multiplicity
 _atom_site_fract_x
 _atom_site_fract_y
 _atom_site_fract_z
 _atom_site_occupancy
  Tb  Tb0  1  0.577004  0.000542  0.000000  1
  Tb  Tb1  1  0.000542  0.577004  0.000000  1
  Tb  Tb2  1  0.419528  0.419528  0.000000  1
  Mg  Mg3  1  0.757916  0.757916  0.500000  1
  Cd  Cd4  1  0.250461  0.998745  0.500000  1
  Cd  Cd5  1  0.998745  0.250461  0.500000  1
  Ga  Ga6  1  0.337443  0.666190  0.500000  1
  Ga  Ga7  1  0.666190  0.337443  0.500000  1
  Ag  Ag8  1  0.992171  0.992171  0.000000  1
