# generated using pymatgen
data_Dy5ScGe5P7Ir18
_symmetry_space_group_name_H-M   'P 1'
_cell_length_a   12.95995383
_cell_length_b   13.07350899
_cell_length_c   3.96807300
_cell_angle_alpha   90.00000000
_cell_angle_beta   90.00000000
_cell_angle_gamma   120.50380046
_symmetry_Int_Tables_number   1
_chemical_formula_structural   Dy5ScGe5P7Ir18
_chemical_formula_sum   'Dy5 Sc1 Ge5 P7 Ir18'
_cell_volume   579.26687740
_cell_formula_units_Z   1
loop_
 _symmetry_equiv_pos_site_id
 _symmetry_equiv_pos_as_xyz
  1  'x, y, z'
loop_
 _atom_site_type_symbol
 _atom_site_label
 _atom_site_symmetry_multiplicity
 _atom_site_fract_x
 _atom_site_fract_y
 _atom_site_fract_z
 _atom_site_occupancy
  Dy  Dy0  1  0.327048  0.661249  0.500000  1
  Dy  Dy1  1  0.670332  0.335103  0.500000  1
  Dy  Dy2  1  0.999424  0.815029  0.000000  1
  Dy  Dy3  1  0.182445  0.182814  0.000000  1
  Dy  Dy4  1  0.815562  0.998841  0.000000  1
  Sc  Sc5  1  0.999230  0.441284  0.500000  1
  Ge  Ge6  1  0.998994  0.643629  0.500000  1
  Ge  Ge7  1  0.361134  0.358119  0.500000  1
  Ge  Ge8  1  0.638718  0.998377  0.500000  1
  Ge  Ge9  1  0.514571  0.681997  0.000000  1
  Ge  Ge10  1  0.315336  0.833984  0.000000  1
  P  P11  1  0.167082  0.478791  0.000000  1
  P  P12  1  0.485615  0.178415  0.000000  1
  P  P13  1  0.695190  0.518439  0.000000  1
  P  P14  1  0.827633  0.310735  0.000000  1
  P  P15  1  0.997025  0.175750  0.500000  1
  P  P16  1  0.823602  0.821822  0.500000  1
  P  P17  1  0.179443  0.003513  0.500000  1
  Ir  Ir18  1  0.518366  0.873582  0.000000  1
  Ir  Ir19  1  0.131013  0.634771  0.000000  1
  Ir  Ir20  1  0.350675  0.481233  0.000000  1
  Ir  Ir21  1  0.499985  0.367421  0.000000  1
  Ir  Ir22  1  0.868563  0.505583  0.000000  1
  Ir  Ir23  1  0.635050  0.134404  0.000000  1
  Ir  Ir24  1  0.546456  0.553259  0.500000  1
  Ir  Ir25  1  0.448225  0.998082  0.500000  1
  Ir  Ir26  1  0.996868  0.273281  0.000000  1
  Ir  Ir27  1  0.723070  0.718685  0.000000  1
  Ir  Ir28  1  0.283645  0.010851  0.000000  1
  Ir  Ir29  1  0.633884  0.806493  0.500000  1
  Ir  Ir30  1  0.193304  0.831333  0.500000  1
  Ir  Ir31  1  0.174638  0.372270  0.500000  1
  Ir  Ir32  1  0.386685  0.180559  0.500000  1
  Ir  Ir33  1  0.792148  0.620676  0.500000  1
  Ir  Ir34  1  0.818620  0.198125  0.500000  1
  Ir  Ir35  1  0.000417  0.001502  0.500000  1
