# generated using pymatgen
data_Dy7Y2Ho3Os4
_symmetry_space_group_name_H-M   'P 1'
_cell_length_a   6.31807026
_cell_length_b   7.39784107
_cell_length_c   9.06907632
_cell_angle_alpha   89.99365124
_cell_angle_beta   90.02962713
_cell_angle_gamma   90.01426179
_symmetry_Int_Tables_number   1
_chemical_formula_structural   Dy7Y2Ho3Os4
_chemical_formula_sum   'Dy7 Y2 Ho3 Os4'
_cell_volume   423.88927696
_cell_formula_units_Z   1
loop_
 _symmetry_equiv_pos_site_id
 _symmetry_equiv_pos_as_xyz
  1  'x, y, z'
loop_
 _atom_site_type_symbol
 _atom_site_label
 _atom_site_symmetry_multiplicity
 _atom_site_fract_x
 _atom_site_fract_y
 _atom_site_fract_z
 _atom_site_occupancy
  Dy  Dy0  1  0.331323  0.675590  0.062510  1
  Dy  Dy1  1  0.168556  0.175478  0.437568  1
  Dy  Dy2  1  0.668353  0.324532  0.563324  1
  Dy  Dy3  1  0.831751  0.824519  0.936527  1
  Dy  Dy4  1  0.668390  0.324397  0.936672  1
  Dy  Dy5  1  0.130607  0.460684  0.749930  1
  Dy  Dy6  1  0.369375  0.960553  0.749918  1
  Y  Y7  1  0.870636  0.538568  0.250121  1
  Y  Y8  1  0.629412  0.038445  0.250063  1
  Ho  Ho9  1  0.831681  0.824461  0.563371  1
  Ho  Ho10  1  0.331356  0.675509  0.437578  1
  Ho  Ho11  1  0.168600  0.175441  0.062504  1
  Os  Os12  1  0.043856  0.884102  0.250180  1
  Os  Os13  1  0.456011  0.384164  0.249960  1
  Os  Os14  1  0.960596  0.116628  0.750102  1
  Os  Os15  1  0.539495  0.616933  0.749672  1
