# generated using pymatgen
data_V5SiRu10
_symmetry_space_group_name_H-M   'P 1'
_cell_length_a   4.10394300
_cell_length_b   5.26475330
_cell_length_c   10.13134355
_cell_angle_alpha   89.05134900
_cell_angle_beta   90.00000000
_cell_angle_gamma   90.00000000
_symmetry_Int_Tables_number   1
_chemical_formula_structural   V5SiRu10
_chemical_formula_sum   'V5 Si1 Ru10'
_cell_volume   218.87031203
_cell_formula_units_Z   1
loop_
 _symmetry_equiv_pos_site_id
 _symmetry_equiv_pos_as_xyz
  1  'x, y, z'
loop_
 _atom_site_type_symbol
 _atom_site_label
 _atom_site_symmetry_multiplicity
 _atom_site_fract_x
 _atom_site_fract_y
 _atom_site_fract_z
 _atom_site_occupancy
  V  V0  1  0.000000  0.500000  0.500000  1
  V  V1  1  0.500000  0.857309  0.358615  1
  V  V2  1  0.500000  0.142691  0.641385  1
  V  V3  1  0.500000  0.349629  0.139268  1
  V  V4  1  0.500000  0.650371  0.860732  1
  Si  Si5  1  0.000000  0.000000  0.000000  1
  Ru  Ru6  1  0.000000  0.500000  0.000000  1
  Ru  Ru7  1  0.000000  0.000000  0.500000  1
  Ru  Ru8  1  0.000000  0.626322  0.265210  1
  Ru  Ru9  1  0.000000  0.373678  0.734790  1
  Ru  Ru10  1  0.000000  0.122933  0.229902  1
  Ru  Ru11  1  0.000000  0.877067  0.770098  1
  Ru  Ru12  1  0.500000  0.826907  0.110228  1
  Ru  Ru13  1  0.500000  0.173093  0.889772  1
  Ru  Ru14  1  0.500000  0.323920  0.391532  1
  Ru  Ru15  1  0.500000  0.676080  0.608468  1
