# generated using pymatgen
data_Lu6AlNiRu
_symmetry_space_group_name_H-M   'P 1'
_cell_length_a   8.19264299
_cell_length_b   8.19264287
_cell_length_c   8.19264269
_cell_angle_alpha   113.11712327
_cell_angle_beta   111.15285411
_cell_angle_gamma   104.27231256
_symmetry_Int_Tables_number   1
_chemical_formula_structural   Lu6AlNiRu
_chemical_formula_sum   'Lu12 Al2 Ni2 Ru2'
_cell_volume   420.58314930
_cell_formula_units_Z   2
loop_
 _symmetry_equiv_pos_site_id
 _symmetry_equiv_pos_as_xyz
  1  'x, y, z'
loop_
 _atom_site_type_symbol
 _atom_site_label
 _atom_site_symmetry_multiplicity
 _atom_site_fract_x
 _atom_site_fract_y
 _atom_site_fract_z
 _atom_site_occupancy
  Lu  Lu0  1  0.436518  0.242141  0.194377  1
  Lu  Lu1  1  0.563482  0.757859  0.805623  1
  Lu  Lu2  1  0.047764  0.242141  0.805623  1
  Lu  Lu3  1  0.952236  0.757859  0.194377  1
  Lu  Lu4  1  0.181912  0.283450  0.465362  1
  Lu  Lu5  1  0.818088  0.716550  0.534638  1
  Lu  Lu6  1  0.181912  0.716550  0.898461  1
  Lu  Lu7  1  0.818088  0.283450  0.101539  1
  Lu  Lu8  1  0.329265  0.640573  0.311307  1
  Lu  Lu9  1  0.670735  0.359427  0.688693  1
  Lu  Lu10  1  0.329265  0.017959  0.688693  1
  Lu  Lu11  1  0.670735  0.982041  0.311307  1
  Al  Al12  1  0.500000  0.500000  0.000000  1
  Al  Al13  1  0.000000  0.000000  0.000000  1
  Ni  Ni14  1  0.121146  0.621146  0.500000  1
  Ni  Ni15  1  0.878854  0.378854  0.500000  1
  Ru  Ru16  1  0.324100  0.000000  0.324100  1
  Ru  Ru17  1  0.675900  0.000000  0.675900  1
