# generated using pymatgen
data_TmSc(Mn2P)4
_symmetry_space_group_name_H-M   'P 1'
_cell_length_a   6.89391234
_cell_length_b   6.89391208
_cell_length_c   3.67856400
_cell_angle_alpha   90.00000000
_cell_angle_beta   90.00000000
_cell_angle_gamma   89.38469247
_symmetry_Int_Tables_number   1
_chemical_formula_structural   TmSc(Mn2P)4
_chemical_formula_sum   'Tm1 Sc1 Mn8 P4'
_cell_volume   174.81744562
_cell_formula_units_Z   1
loop_
 _symmetry_equiv_pos_site_id
 _symmetry_equiv_pos_as_xyz
  1  'x, y, z'
loop_
 _atom_site_type_symbol
 _atom_site_label
 _atom_site_symmetry_multiplicity
 _atom_site_fract_x
 _atom_site_fract_y
 _atom_site_fract_z
 _atom_site_occupancy
  Tm  Tm0  1  0.500000  0.500000  0.000000  1
  Sc  Sc1  1  0.000000  0.000000  0.500000  1
  Mn  Mn2  1  0.587670  0.152426  0.500000  1
  Mn  Mn3  1  0.412330  0.847574  0.500000  1
  Mn  Mn4  1  0.083377  0.344058  0.000000  1
  Mn  Mn5  1  0.916623  0.655942  0.000000  1
  Mn  Mn6  1  0.152426  0.587670  0.500000  1
  Mn  Mn7  1  0.847574  0.412330  0.500000  1
  Mn  Mn8  1  0.344058  0.083377  0.000000  1
  Mn  Mn9  1  0.655942  0.916623  0.000000  1
  P  P10  1  0.718155  0.718155  0.500000  1
  P  P11  1  0.281845  0.281845  0.500000  1
  P  P12  1  0.210622  0.789378  0.000000  1
  P  P13  1  0.789378  0.210622  0.000000  1
