# generated using pymatgen
data_Tm2Pa2ReB12W
_symmetry_space_group_name_H-M   'P 1'
_cell_length_a   3.71896900
_cell_length_b   9.14535540
_cell_length_c   11.51038476
_cell_angle_alpha   89.93653568
_cell_angle_beta   90.00000000
_cell_angle_gamma   90.00000000
_symmetry_Int_Tables_number   1
_chemical_formula_structural   Tm2Pa2ReB12W
_chemical_formula_sum   'Tm4 Pa4 Re2 B24 W2'
_cell_volume   391.48283135
_cell_formula_units_Z   2
loop_
 _symmetry_equiv_pos_site_id
 _symmetry_equiv_pos_as_xyz
  1  'x, y, z'
loop_
 _atom_site_type_symbol
 _atom_site_label
 _atom_site_symmetry_multiplicity
 _atom_site_fract_x
 _atom_site_fract_y
 _atom_site_fract_z
 _atom_site_occupancy
  Tm  Tm0  1  0.000000  0.945574  0.374187  1
  Tm  Tm1  1  0.000000  0.054426  0.625813  1
  Tm  Tm2  1  0.000000  0.445370  0.125742  1
  Tm  Tm3  1  0.000000  0.554630  0.874258  1
  Pa  Pa4  1  0.000000  0.322024  0.414014  1
  Pa  Pa5  1  0.000000  0.677976  0.585986  1
  Pa  Pa6  1  0.000000  0.820761  0.087360  1
  Pa  Pa7  1  0.000000  0.179239  0.912640  1
  Re  Re8  1  0.000000  0.138245  0.177960  1
  Re  Re9  1  0.000000  0.861755  0.822040  1
  B  B10  1  0.500000  0.553341  0.433057  1
  B  B11  1  0.500000  0.446659  0.566943  1
  B  B12  1  0.500000  0.053738  0.067176  1
  B  B13  1  0.500000  0.946262  0.932824  1
  B  B14  1  0.500000  0.749217  0.420580  1
  B  B15  1  0.500000  0.250783  0.579420  1
  B  B16  1  0.500000  0.249454  0.080315  1
  B  B17  1  0.500000  0.750546  0.919685  1
  B  B18  1  0.500000  0.794286  0.264747  1
  B  B19  1  0.500000  0.205714  0.735253  1
  B  B20  1  0.500000  0.292368  0.234437  1
  B  B21  1  0.500000  0.707632  0.765563  1
  B  B22  1  0.500000  0.632709  0.184009  1
  B  B23  1  0.500000  0.367291  0.815991  1
  B  B24  1  0.500000  0.131714  0.314894  1
  B  B25  1  0.500000  0.868286  0.685106  1
  B  B26  1  0.500000  0.982872  0.213399  1
  B  B27  1  0.500000  0.017128  0.786601  1
  B  B28  1  0.500000  0.481473  0.286319  1
  B  B29  1  0.500000  0.518527  0.713681  1
  B  B30  1  0.500000  0.608356  0.029339  1
  B  B31  1  0.500000  0.391644  0.970661  1
  B  B32  1  0.500000  0.107786  0.469372  1
  B  B33  1  0.500000  0.892214  0.530628  1
  W  W34  1  0.000000  0.638762  0.320810  1
  W  W35  1  0.000000  0.361238  0.679190  1
