# generated using pymatgen
data_Rb4Al3GaI16
_symmetry_space_group_name_H-M   'P 1'
_cell_length_a   8.36005838
_cell_length_b   8.86032187
_cell_length_c   16.96854556
_cell_angle_alpha   85.48371813
_cell_angle_beta   90.01386871
_cell_angle_gamma   89.99742050
_symmetry_Int_Tables_number   1
_chemical_formula_structural   Rb4Al3GaI16
_chemical_formula_sum   'Rb4 Al3 Ga1 I16'
_cell_volume   1253.00507753
_cell_formula_units_Z   1
loop_
 _symmetry_equiv_pos_site_id
 _symmetry_equiv_pos_as_xyz
  1  'x, y, z'
loop_
 _atom_site_type_symbol
 _atom_site_label
 _atom_site_symmetry_multiplicity
 _atom_site_fract_x
 _atom_site_fract_y
 _atom_site_fract_z
 _atom_site_occupancy
  Rb  Rb0  1  0.501269  0.257308  0.640275  1
  Rb  Rb1  1  0.001873  0.742414  0.859870  1
  Rb  Rb2  1  0.498664  0.742702  0.359907  1
  Rb  Rb3  1  0.998557  0.257399  0.140062  1
  Al  Al4  1  0.357307  0.246514  0.360574  1
  Al  Al5  1  0.857268  0.753630  0.139301  1
  Al  Al6  1  0.642731  0.753665  0.639461  1
  Ga  Ga7  1  0.142751  0.245976  0.860695  1
  I  I8  1  0.865827  0.144467  0.908039  1
  I  I9  1  0.368417  0.854359  0.592244  1
  I  I10  1  0.131524  0.854367  0.092397  1
  I  I11  1  0.631513  0.145475  0.407521  1
  I  I12  1  0.391050  0.406602  0.228526  1
  I  I13  1  0.890968  0.593588  0.271464  1
  I  I14  1  0.608664  0.594090  0.771745  1
  I  I15  1  0.108541  0.407701  0.727408  1
  I  I16  1  0.661189  0.970816  0.158461  1
  I  I17  1  0.161152  0.029409  0.341398  1
  I  I18  1  0.340838  0.027297  0.841304  1
  I  I19  1  0.838871  0.970887  0.658485  1
  I  I20  1  0.243371  0.415401  0.463844  1
  I  I21  1  0.743019  0.584831  0.036044  1
  I  I22  1  0.756915  0.584510  0.536299  1
  I  I23  1  0.257722  0.416590  0.964676  1
