# generated using pymatgen
data_Y2BeIr2
_symmetry_space_group_name_H-M   'P 1'
_cell_length_a   5.54973696
_cell_length_b   5.54973717
_cell_length_c   5.54973757
_cell_angle_alpha   140.27558513
_cell_angle_beta   116.61532677
_cell_angle_gamma   77.45975340
_symmetry_Int_Tables_number   1
_chemical_formula_structural   Y2BeIr2
_chemical_formula_sum   'Y2 Be1 Ir2'
_cell_volume   95.20427139
_cell_formula_units_Z   1
loop_
 _symmetry_equiv_pos_site_id
 _symmetry_equiv_pos_as_xyz
  1  'x, y, z'
loop_
 _atom_site_type_symbol
 _atom_site_label
 _atom_site_symmetry_multiplicity
 _atom_site_fract_x
 _atom_site_fract_y
 _atom_site_fract_z
 _atom_site_occupancy
  Y  Y0  1  0.696457  0.196457  0.500000  1
  Y  Y1  1  0.303542  0.803544  0.500001  1
  Be  Be2  1  0.000000  0.000000  0.000000  1
  Ir  Ir3  1  0.756373  0.500000  0.256373  1
  Ir  Ir4  1  0.243627  0.500001  0.743628  1
