# generated using pymatgen
data_Dy2Y3Er3(CdIr)2
_symmetry_space_group_name_H-M   'P 1'
_cell_length_a   9.61343704
_cell_length_b   9.61343633
_cell_length_c   9.61343700
_cell_angle_alpha   60.00000112
_cell_angle_beta   60.00000359
_cell_angle_gamma   60.00000191
_symmetry_Int_Tables_number   1
_chemical_formula_structural   Dy2Y3Er3(CdIr)2
_chemical_formula_sum   'Dy4 Y6 Er6 Cd4 Ir4'
_cell_volume   628.23343949
_cell_formula_units_Z   2
loop_
 _symmetry_equiv_pos_site_id
 _symmetry_equiv_pos_as_xyz
  1  'x, y, z'
loop_
 _atom_site_type_symbol
 _atom_site_label
 _atom_site_symmetry_multiplicity
 _atom_site_fract_x
 _atom_site_fract_y
 _atom_site_fract_z
 _atom_site_occupancy
  Dy  Dy0  1  0.348920  0.348920  0.348920  1
  Dy  Dy1  1  0.348920  0.348920  0.953242  1
  Dy  Dy2  1  0.348920  0.953242  0.348920  1
  Dy  Dy3  1  0.953242  0.348920  0.348920  1
  Y  Y4  1  0.938582  0.561418  0.561418  1
  Y  Y5  1  0.561418  0.938582  0.938582  1
  Y  Y6  1  0.561418  0.938582  0.561418  1
  Y  Y7  1  0.938582  0.561418  0.938582  1
  Y  Y8  1  0.561418  0.561418  0.938582  1
  Y  Y9  1  0.938582  0.938582  0.561418  1
  Er  Er10  1  0.811269  0.188731  0.188731  1
  Er  Er11  1  0.188731  0.811269  0.811269  1
  Er  Er12  1  0.188731  0.811269  0.188731  1
  Er  Er13  1  0.811269  0.188731  0.811269  1
  Er  Er14  1  0.188731  0.188731  0.811269  1
  Er  Er15  1  0.811269  0.811269  0.188731  1
  Cd  Cd16  1  0.580658  0.580658  0.580658  1
  Cd  Cd17  1  0.580658  0.580658  0.258026  1
  Cd  Cd18  1  0.580658  0.258026  0.580658  1
  Cd  Cd19  1  0.258026  0.580658  0.580658  1
  Ir  Ir20  1  0.141224  0.141224  0.141224  1
  Ir  Ir21  1  0.141224  0.141224  0.576329  1
  Ir  Ir22  1  0.141224  0.576329  0.141224  1
  Ir  Ir23  1  0.576329  0.141224  0.141224  1
