# generated using pymatgen
data_U(TeI)2
_symmetry_space_group_name_H-M   'P 1'
_cell_length_a   8.05485084
_cell_length_b   8.05485095
_cell_length_c   8.05716313
_cell_angle_alpha   81.07320921
_cell_angle_beta   81.07321061
_cell_angle_gamma   122.53021934
_symmetry_Int_Tables_number   1
_chemical_formula_structural   U(TeI)2
_chemical_formula_sum   'U2 Te4 I4'
_cell_volume   417.14898956
_cell_formula_units_Z   2
loop_
 _symmetry_equiv_pos_site_id
 _symmetry_equiv_pos_as_xyz
  1  'x, y, z'
loop_
 _atom_site_type_symbol
 _atom_site_label
 _atom_site_symmetry_multiplicity
 _atom_site_fract_x
 _atom_site_fract_y
 _atom_site_fract_z
 _atom_site_occupancy
  U  U0  1  0.856367  0.143633  0.500000  1
  U  U1  1  0.143633  0.856367  0.500000  1
  Te  Te2  1  0.114084  0.114084  0.180689  1
  Te  Te3  1  0.885916  0.885916  0.819311  1
  Te  Te4  1  0.671297  0.671297  0.608265  1
  Te  Te5  1  0.328703  0.328703  0.391735  1
  I  I6  1  0.021820  0.441123  0.740987  1
  I  I7  1  0.558877  0.978180  0.259013  1
  I  I8  1  0.978180  0.558877  0.259013  1
  I  I9  1  0.441123  0.021820  0.740987  1
