# generated using pymatgen
data_Nd5Dy3Si12(IrRh)2
_symmetry_space_group_name_H-M   'P 1'
_cell_length_a   8.22301800
_cell_length_b   8.22301931
_cell_length_c   8.20773700
_cell_angle_alpha   90.00000000
_cell_angle_beta   90.00000000
_cell_angle_gamma   119.99999472
_symmetry_Int_Tables_number   1
_chemical_formula_structural   Nd5Dy3Si12(IrRh)2
_chemical_formula_sum   'Nd5 Dy3 Si12 Ir2 Rh2'
_cell_volume   480.63637767
_cell_formula_units_Z   1
loop_
 _symmetry_equiv_pos_site_id
 _symmetry_equiv_pos_as_xyz
  1  'x, y, z'
loop_
 _atom_site_type_symbol
 _atom_site_label
 _atom_site_symmetry_multiplicity
 _atom_site_fract_x
 _atom_site_fract_y
 _atom_site_fract_z
 _atom_site_occupancy
  Nd  Nd0  1  0.000000  0.000000  0.248916  1
  Nd  Nd1  1  0.000000  0.000000  0.751076  1
  Nd  Nd2  1  0.504779  0.495221  0.250241  1
  Nd  Nd3  1  0.504779  0.009558  0.250241  1
  Nd  Nd4  1  0.990442  0.495221  0.250241  1
  Dy  Dy5  1  0.492546  0.507454  0.749700  1
  Dy  Dy6  1  0.492546  0.985090  0.749700  1
  Dy  Dy7  1  0.014910  0.507454  0.749700  1
  Si  Si8  1  0.166912  0.833088  0.506196  1
  Si  Si9  1  0.166912  0.333825  0.506196  1
  Si  Si10  1  0.666175  0.833088  0.506196  1
  Si  Si11  1  0.831751  0.168249  0.503938  1
  Si  Si12  1  0.831751  0.663501  0.503938  1
  Si  Si13  1  0.336499  0.168249  0.503938  1
  Si  Si14  1  0.831705  0.168295  0.997209  1
  Si  Si15  1  0.831705  0.663408  0.997209  1
  Si  Si16  1  0.336592  0.168295  0.997209  1
  Si  Si17  1  0.166702  0.833298  0.993426  1
  Si  Si18  1  0.166702  0.333405  0.993426  1
  Si  Si19  1  0.666595  0.833298  0.993426  1
  Ir  Ir20  1  0.333333  0.666667  0.491825  1
  Ir  Ir21  1  0.666667  0.333333  0.539692  1
  Rh  Rh22  1  0.666667  0.333333  0.953608  1
  Rh  Rh23  1  0.333333  0.666667  0.012754  1
