# generated using pymatgen
data_PaAlFe6Re5
_symmetry_space_group_name_H-M   'P 1'
_cell_length_a   6.56855034
_cell_length_b   6.56855119
_cell_length_c   6.56855060
_cell_angle_alpha   137.45021705
_cell_angle_beta   97.18162587
_cell_angle_gamma   97.94919411
_symmetry_Int_Tables_number   1
_chemical_formula_structural   PaAlFe6Re5
_chemical_formula_sum   'Pa1 Al1 Fe6 Re5'
_cell_volume   178.58168162
_cell_formula_units_Z   1
loop_
 _symmetry_equiv_pos_site_id
 _symmetry_equiv_pos_as_xyz
  1  'x, y, z'
loop_
 _atom_site_type_symbol
 _atom_site_label
 _atom_site_symmetry_multiplicity
 _atom_site_fract_x
 _atom_site_fract_y
 _atom_site_fract_z
 _atom_site_occupancy
  Pa  Pa0  1  0.000328  0.000328  0.000000  1
  Al  Al1  1  0.207080  0.707080  0.500000  1
  Fe  Fe2  1  0.494825  0.998058  0.997170  1
  Fe  Fe3  1  0.494825  0.497655  0.496767  1
  Fe  Fe4  1  0.000887  0.998058  0.503233  1
  Fe  Fe5  1  0.000887  0.497655  0.002830  1
  Fe  Fe6  1  0.225647  0.499093  0.726554  1
  Fe  Fe7  1  0.772539  0.499093  0.273446  1
  Re  Re8  1  0.359116  0.359116  0.000000  1
  Re  Re9  1  0.649337  0.649337  0.000000  1
  Re  Re10  1  0.642143  0.997918  0.644225  1
  Re  Re11  1  0.353694  0.997918  0.355775  1
  Re  Re12  1  0.798692  0.298692  0.500000  1
