# generated using pymatgen
data_Y4Si12Ni17Pt3
_symmetry_space_group_name_H-M   'P 1'
_cell_length_a   18.81891771
_cell_length_b   3.79994600
_cell_length_c   6.80577432
_cell_angle_alpha   90.00000000
_cell_angle_beta   89.90836902
_cell_angle_gamma   90.00000000
_symmetry_Int_Tables_number   1
_chemical_formula_structural   Y4Si12Ni17Pt3
_chemical_formula_sum   'Y4 Si12 Ni17 Pt3'
_cell_volume   486.68622775
_cell_formula_units_Z   1
loop_
 _symmetry_equiv_pos_site_id
 _symmetry_equiv_pos_as_xyz
  1  'x, y, z'
loop_
 _atom_site_type_symbol
 _atom_site_label
 _atom_site_symmetry_multiplicity
 _atom_site_fract_x
 _atom_site_fract_y
 _atom_site_fract_z
 _atom_site_occupancy
  Y  Y0  1  0.641351  0.250000  0.619806  1
  Y  Y1  1  0.140179  0.250000  0.871057  1
  Y  Y2  1  0.360440  0.750000  0.370427  1
  Y  Y3  1  0.857288  0.750000  0.130519  1
  Si  Si4  1  0.913778  0.250000  0.418078  1
  Si  Si5  1  0.416136  0.250000  0.082688  1
  Si  Si6  1  0.084296  0.750000  0.583911  1
  Si  Si7  1  0.585709  0.750000  0.914390  1
  Si  Si8  1  0.735187  0.250000  0.130353  1
  Si  Si9  1  0.237001  0.250000  0.383237  1
  Si  Si10  1  0.263842  0.750000  0.882856  1
  Si  Si11  1  0.760400  0.750000  0.610913  1
  Si  Si12  1  0.928585  0.250000  0.848510  1
  Si  Si13  1  0.432473  0.250000  0.649176  1
  Si  Si14  1  0.068364  0.750000  0.151486  1
  Si  Si15  1  0.574770  0.750000  0.342495  1
  Ni  Ni16  1  0.698688  0.750000  0.313678  1
  Ni  Ni17  1  0.992513  0.250000  0.135670  1
  Ni  Ni18  1  0.496129  0.250000  0.362159  1
  Ni  Ni19  1  0.004565  0.750000  0.864686  1
  Ni  Ni20  1  0.508296  0.750000  0.631032  1
  Ni  Ni21  1  0.515372  0.250000  0.884397  1
  Ni  Ni22  1  0.012899  0.250000  0.615105  1
  Ni  Ni23  1  0.487443  0.750000  0.114529  1
  Ni  Ni24  1  0.984956  0.750000  0.386733  1
  Ni  Ni25  1  0.613805  0.250000  0.142221  1
  Ni  Ni26  1  0.111222  0.250000  0.359918  1
  Ni  Ni27  1  0.389615  0.750000  0.858493  1
  Ni  Ni28  1  0.885814  0.750000  0.639987  1
  Ni  Ni29  1  0.792889  0.250000  0.425582  1
  Ni  Ni30  1  0.295423  0.250000  0.078516  1
  Ni  Ni31  1  0.204903  0.750000  0.578564  1
  Ni  Ni32  1  0.704763  0.750000  0.931548  1
  Pt  Pt33  1  0.800115  0.250000  0.819023  1
  Pt  Pt34  1  0.303833  0.250000  0.683928  1
  Pt  Pt35  1  0.196963  0.750000  0.184332  1
