# generated using pymatgen
data_Nd2Fe3Re14C3
_symmetry_space_group_name_H-M   'P 1'
_cell_length_a   6.95732679
_cell_length_b   6.95732625
_cell_length_c   6.95732605
_cell_angle_alpha   82.75201650
_cell_angle_beta   82.75201121
_cell_angle_gamma   82.75200855
_symmetry_Int_Tables_number   1
_chemical_formula_structural   Nd2Fe3Re14C3
_chemical_formula_sum   'Nd2 Fe3 Re14 C3'
_cell_volume   329.31846838
_cell_formula_units_Z   1
loop_
 _symmetry_equiv_pos_site_id
 _symmetry_equiv_pos_as_xyz
  1  'x, y, z'
loop_
 _atom_site_type_symbol
 _atom_site_label
 _atom_site_symmetry_multiplicity
 _atom_site_fract_x
 _atom_site_fract_y
 _atom_site_fract_z
 _atom_site_occupancy
  Nd  Nd0  1  0.648775  0.648775  0.648775  1
  Nd  Nd1  1  0.351225  0.351225  0.351225  1
  Fe  Fe2  1  0.000000  0.000000  0.500000  1
  Fe  Fe3  1  0.500000  0.000000  0.000000  1
  Fe  Fe4  1  0.000000  0.500000  0.000000  1
  Re  Re5  1  0.722509  0.277491  0.000000  1
  Re  Re6  1  0.000000  0.722509  0.277491  1
  Re  Re7  1  0.277491  0.000000  0.722509  1
  Re  Re8  1  0.000000  0.277491  0.722509  1
  Re  Re9  1  0.722509  0.000000  0.277491  1
  Re  Re10  1  0.277491  0.722509  0.000000  1
  Re  Re11  1  0.345730  0.345730  0.861593  1
  Re  Re12  1  0.861593  0.345730  0.345730  1
  Re  Re13  1  0.345730  0.861593  0.345730  1
  Re  Re14  1  0.654270  0.654270  0.138407  1
  Re  Re15  1  0.138407  0.654270  0.654270  1
  Re  Re16  1  0.654270  0.138407  0.654270  1
  Re  Re17  1  0.898355  0.898355  0.898355  1
  Re  Re18  1  0.101645  0.101645  0.101645  1
  C  C19  1  0.500000  0.500000  0.000000  1
  C  C20  1  0.000000  0.500000  0.500000  1
  C  C21  1  0.500000  0.000000  0.500000  1
