# generated using pymatgen
data_Sm2H(PdPt2)2
_symmetry_space_group_name_H-M   'P 1'
_cell_length_a   5.93029311
_cell_length_b   5.93029297
_cell_length_c   5.96362800
_cell_angle_alpha   59.81387918
_cell_angle_beta   59.81388001
_cell_angle_gamma   60.05437542
_symmetry_Int_Tables_number   1
_chemical_formula_structural   Sm2H(PdPt2)2
_chemical_formula_sum   'Sm2 H1 Pd2 Pt4'
_cell_volume   147.94404482
_cell_formula_units_Z   1
loop_
 _symmetry_equiv_pos_site_id
 _symmetry_equiv_pos_as_xyz
  1  'x, y, z'
loop_
 _atom_site_type_symbol
 _atom_site_label
 _atom_site_symmetry_multiplicity
 _atom_site_fract_x
 _atom_site_fract_y
 _atom_site_fract_z
 _atom_site_occupancy
  Sm  Sm0  1  0.250011  0.250011  0.250122  1
  Sm  Sm1  1  0.749989  0.749989  0.750144  1
  H  H2  1  0.500000  0.500000  0.499831  1
  Pd  Pd3  1  0.751754  0.248246  0.752014  1
  Pd  Pd4  1  0.248246  0.751754  0.752014  1
  Pt  Pt5  1  0.752678  0.247322  0.247568  1
  Pt  Pt6  1  0.247322  0.752678  0.247568  1
  Pt  Pt7  1  0.751562  0.751562  0.248808  1
  Pt  Pt8  1  0.248438  0.248438  0.751931  1
