# generated using pymatgen
data_Er13Tm7Sn7Pb9
_symmetry_space_group_name_H-M   'P 1'
_cell_length_a   8.09063135
_cell_length_b   8.13908026
_cell_length_c   15.44206800
_cell_angle_alpha   90.00239145
_cell_angle_beta   90.00011567
_cell_angle_gamma   90.03126438
_symmetry_Int_Tables_number   1
_chemical_formula_structural   Er13Tm7Sn7Pb9
_chemical_formula_sum   'Er13 Tm7 Sn7 Pb9'
_cell_volume   1016.86462600
_cell_formula_units_Z   1
loop_
 _symmetry_equiv_pos_site_id
 _symmetry_equiv_pos_as_xyz
  1  'x, y, z'
loop_
 _atom_site_type_symbol
 _atom_site_label
 _atom_site_symmetry_multiplicity
 _atom_site_fract_x
 _atom_site_fract_y
 _atom_site_fract_z
 _atom_site_occupancy
  Er  Er0  1  0.119646  0.337392  0.123011  1
  Er  Er1  1  0.619772  0.161170  0.122879  1
  Er  Er2  1  0.119605  0.337341  0.377022  1
  Er  Er3  1  0.380185  0.838462  0.623388  1
  Er  Er4  1  0.880520  0.661064  0.876481  1
  Er  Er5  1  0.537940  0.324862  0.895846  1
  Er  Er6  1  0.038440  0.174604  0.604353  1
  Er  Er7  1  0.464691  0.675189  0.397154  1
  Er  Er8  1  0.959846  0.827107  0.101601  1
  Er  Er9  1  0.464681  0.675156  0.102835  1
  Er  Er10  1  0.959848  0.827112  0.398484  1
  Er  Er11  1  0.537982  0.324900  0.604085  1
  Er  Er12  1  0.038453  0.174539  0.895603  1
  Tm  Tm13  1  0.380142  0.838516  0.876575  1
  Tm  Tm14  1  0.880428  0.661026  0.623524  1
  Tm  Tm15  1  0.619806  0.161094  0.377141  1
  Tm  Tm16  1  0.210926  0.503608  0.750003  1
  Tm  Tm17  1  0.710872  0.996274  0.749995  1
  Tm  Tm18  1  0.787245  0.494728  0.250035  1
  Tm  Tm19  1  0.291262  0.006606  0.250027  1
  Sn  Sn20  1  0.575656  0.623036  0.750017  1
  Sn  Sn21  1  0.075868  0.876394  0.749976  1
  Sn  Sn22  1  0.425019  0.376098  0.250064  1
  Sn  Sn23  1  0.924025  0.122051  0.250034  1
  Sn  Sn24  1  0.346147  0.149324  0.750037  1
  Sn  Sn25  1  0.846084  0.350817  0.749961  1
  Sn  Sn26  1  0.654979  0.850325  0.250035  1
  Pb  Pb27  1  0.280406  0.031555  0.040862  1
  Pb  Pb28  1  0.781480  0.467366  0.459183  1
  Pb  Pb29  1  0.718525  0.968421  0.541951  1
  Pb  Pb30  1  0.219176  0.531659  0.958718  1
  Pb  Pb31  1  0.718314  0.968439  0.957943  1
  Pb  Pb32  1  0.218905  0.531523  0.541286  1
  Pb  Pb33  1  0.280518  0.031709  0.458993  1
  Pb  Pb34  1  0.781487  0.467412  0.040896  1
  Pb  Pb35  1  0.151118  0.653119  0.249998  1
