# generated using pymatgen
data_SrPdF6
_symmetry_space_group_name_H-M   'P 1'
_cell_length_a   6.05118702
_cell_length_b   6.05118607
_cell_length_c   6.05118515
_cell_angle_alpha   54.68327403
_cell_angle_beta   54.68328418
_cell_angle_gamma   54.68327352
_symmetry_Int_Tables_number   1
_chemical_formula_structural   SrPdF6
_chemical_formula_sum   'Sr1 Pd1 F6'
_cell_volume   137.27107819
_cell_formula_units_Z   1
loop_
 _symmetry_equiv_pos_site_id
 _symmetry_equiv_pos_as_xyz
  1  'x, y, z'
loop_
 _atom_site_type_symbol
 _atom_site_label
 _atom_site_symmetry_multiplicity
 _atom_site_fract_x
 _atom_site_fract_y
 _atom_site_fract_z
 _atom_site_occupancy
  Sr  Sr0  1  0.000000  0.000000  0.000000  1
  Pd  Pd1  1  0.500000  0.500000  0.500000  1
  F  F2  1  0.142190  0.713133  0.424168  1
  F  F3  1  0.424168  0.142190  0.713133  1
  F  F4  1  0.286867  0.575832  0.857810  1
  F  F5  1  0.575832  0.857810  0.286867  1
  F  F6  1  0.857810  0.286867  0.575832  1
  F  F7  1  0.713133  0.424168  0.142190  1
