# generated using pymatgen
data_Ho9Tm(GaCo5)2
_symmetry_space_group_name_H-M   'P 1'
_cell_length_a   5.44288880
_cell_length_b   5.44288812
_cell_length_c   20.45188100
_cell_angle_alpha   90.00000000
_cell_angle_beta   90.00000000
_cell_angle_gamma   136.73700731
_symmetry_Int_Tables_number   1
_chemical_formula_structural   Ho9Tm(GaCo5)2
_chemical_formula_sum   'Ho9 Tm1 Ga2 Co10'
_cell_volume   415.24400002
_cell_formula_units_Z   1
loop_
 _symmetry_equiv_pos_site_id
 _symmetry_equiv_pos_as_xyz
  1  'x, y, z'
loop_
 _atom_site_type_symbol
 _atom_site_label
 _atom_site_symmetry_multiplicity
 _atom_site_fract_x
 _atom_site_fract_y
 _atom_site_fract_z
 _atom_site_occupancy
  Ho  Ho0  1  0.291086  0.708914  0.066040  1
  Ho  Ho1  1  0.998233  0.001767  0.842846  1
  Ho  Ho2  1  0.711591  0.288409  0.750000  1
  Ho  Ho3  1  0.708959  0.291041  0.565839  1
  Ho  Ho4  1  0.001545  0.998455  0.342336  1
  Ho  Ho5  1  0.998233  0.001767  0.657154  1
  Ho  Ho6  1  0.708959  0.291041  0.934161  1
  Ho  Ho7  1  0.001545  0.998455  0.157664  1
  Ho  Ho8  1  0.291086  0.708914  0.433960  1
  Tm  Tm9  1  0.287400  0.712600  0.250000  1
  Ga  Ga10  1  0.999986  0.000014  0.499958  1
  Ga  Ga11  1  0.999986  0.000014  0.000042  1
  Co  Co12  1  0.294434  0.705566  0.654475  1
  Co  Co13  1  0.582274  0.417726  0.441344  1
  Co  Co14  1  0.414499  0.585501  0.750000  1
  Co  Co15  1  0.417925  0.582075  0.941409  1
  Co  Co16  1  0.586501  0.413499  0.250000  1
  Co  Co17  1  0.417925  0.582075  0.558591  1
  Co  Co18  1  0.705561  0.294439  0.345297  1
  Co  Co19  1  0.705561  0.294439  0.154703  1
  Co  Co20  1  0.582274  0.417726  0.058656  1
  Co  Co21  1  0.294434  0.705566  0.845525  1
