# generated using pymatgen
data_Nd3Zn3Ag2Ru
_symmetry_space_group_name_H-M   'P 1'
_cell_length_a   7.61416300
_cell_length_b   7.61416261
_cell_length_c   3.99761800
_cell_angle_alpha   90.00000000
_cell_angle_beta   90.00000000
_cell_angle_gamma   119.99999619
_symmetry_Int_Tables_number   1
_chemical_formula_structural   Nd3Zn3Ag2Ru
_chemical_formula_sum   'Nd3 Zn3 Ag2 Ru1'
_cell_volume   200.71334898
_cell_formula_units_Z   1
loop_
 _symmetry_equiv_pos_site_id
 _symmetry_equiv_pos_as_xyz
  1  'x, y, z'
loop_
 _atom_site_type_symbol
 _atom_site_label
 _atom_site_symmetry_multiplicity
 _atom_site_fract_x
 _atom_site_fract_y
 _atom_site_fract_z
 _atom_site_occupancy
  Nd  Nd0  1  0.424219  0.400454  0.500000  1
  Nd  Nd1  1  0.599546  0.023765  0.500000  1
  Nd  Nd2  1  0.976235  0.575781  0.500000  1
  Zn  Zn3  1  0.747152  0.734926  0.000000  1
  Zn  Zn4  1  0.265074  0.012226  0.000000  1
  Zn  Zn5  1  0.987774  0.252848  0.000000  1
  Ag  Ag6  1  0.333333  0.666667  0.000000  1
  Ag  Ag7  1  0.000000  0.000000  0.500000  1
  Ru  Ru8  1  0.666667  0.333333  0.000000  1
