# generated using pymatgen
data_YEr3Al18(OsRh2)2
_symmetry_space_group_name_H-M   'P 1'
_cell_length_a   7.51011489
_cell_length_b   7.51316500
_cell_length_c   9.47442600
_cell_angle_alpha   90.00000000
_cell_angle_beta   90.00000000
_cell_angle_gamma   118.51374688
_symmetry_Int_Tables_number   1
_chemical_formula_structural   YEr3Al18(OsRh2)2
_chemical_formula_sum   'Y1 Er3 Al18 Os2 Rh4'
_cell_volume   469.74733963
_cell_formula_units_Z   1
loop_
 _symmetry_equiv_pos_site_id
 _symmetry_equiv_pos_as_xyz
  1  'x, y, z'
loop_
 _atom_site_type_symbol
 _atom_site_label
 _atom_site_symmetry_multiplicity
 _atom_site_fract_x
 _atom_site_fract_y
 _atom_site_fract_z
 _atom_site_occupancy
  Y  Y0  1  0.992968  0.679729  0.750000  1
  Er  Er1  1  0.006683  0.318777  0.250000  1
  Er  Er2  1  0.680541  0.993061  0.750000  1
  Er  Er3  1  0.318872  0.006882  0.250000  1
  Al  Al4  1  0.134500  0.134844  0.750000  1
  Al  Al5  1  0.865547  0.866024  0.250000  1
  Al  Al6  1  0.002438  0.337839  0.574278  1
  Al  Al7  1  0.997757  0.661715  0.423900  1
  Al  Al8  1  0.997757  0.661715  0.076100  1
  Al  Al9  1  0.338437  0.002753  0.925638  1
  Al  Al10  1  0.002438  0.337839  0.925722  1
  Al  Al11  1  0.661687  0.997991  0.075409  1
  Al  Al12  1  0.661687  0.997991  0.424591  1
  Al  Al13  1  0.338437  0.002753  0.574362  1
  Al  Al14  1  0.331873  0.331895  0.045920  1
  Al  Al15  1  0.668390  0.668714  0.955622  1
  Al  Al16  1  0.668390  0.668714  0.544378  1
  Al  Al17  1  0.331873  0.331895  0.454080  1
  Al  Al18  1  0.342127  0.554566  0.750000  1
  Al  Al19  1  0.658474  0.444526  0.250000  1
  Al  Al20  1  0.554062  0.340251  0.750000  1
  Al  Al21  1  0.444666  0.658832  0.250000  1
  Os  Os22  1  0.000355  0.000460  0.499432  1
  Os  Os23  1  0.000355  0.000460  0.000568  1
  Rh  Rh24  1  0.671937  0.328042  0.499765  1
  Rh  Rh25  1  0.327906  0.671845  0.499807  1
  Rh  Rh26  1  0.327906  0.671845  0.000193  1
  Rh  Rh27  1  0.671937  0.328042  0.000235  1
