# generated using pymatgen
data_YErTm2(LuPt)4
_symmetry_space_group_name_H-M   'P 1'
_cell_length_a   4.73256600
_cell_length_b   7.07837017
_cell_length_c   8.60064706
_cell_angle_alpha   89.93195989
_cell_angle_beta   90.00000000
_cell_angle_gamma   90.00000000
_symmetry_Int_Tables_number   1
_chemical_formula_structural   YErTm2(LuPt)4
_chemical_formula_sum   'Y1 Er1 Tm2 Lu4 Pt4'
_cell_volume   288.11161671
_cell_formula_units_Z   1
loop_
 _symmetry_equiv_pos_site_id
 _symmetry_equiv_pos_as_xyz
  1  'x, y, z'
loop_
 _atom_site_type_symbol
 _atom_site_label
 _atom_site_symmetry_multiplicity
 _atom_site_fract_x
 _atom_site_fract_y
 _atom_site_fract_z
 _atom_site_occupancy
  Y  Y0  1  0.750000  0.512965  0.828708  1
  Er  Er1  1  0.750000  0.012926  0.668743  1
  Tm  Tm2  1  0.250000  0.986842  0.330105  1
  Tm  Tm3  1  0.250000  0.486798  0.170153  1
  Lu  Lu4  1  0.250000  0.355810  0.576015  1
  Lu  Lu5  1  0.250000  0.857004  0.923420  1
  Lu  Lu6  1  0.750000  0.643871  0.422099  1
  Lu  Lu7  1  0.750000  0.143043  0.078092  1
  Pt  Pt8  1  0.250000  0.253783  0.906632  1
  Pt  Pt9  1  0.250000  0.755457  0.593803  1
  Pt  Pt10  1  0.750000  0.745646  0.097696  1
  Pt  Pt11  1  0.750000  0.245857  0.404533  1
