# generated using pymatgen
data_Ba2CdIn3Pt2
_symmetry_space_group_name_H-M   'P 1'
_cell_length_a   6.21850441
_cell_length_b   6.21850437
_cell_length_c   8.22996774
_cell_angle_alpha   89.96047317
_cell_angle_beta   90.03952866
_cell_angle_gamma   136.48905281
_symmetry_Int_Tables_number   1
_chemical_formula_structural   Ba2CdIn3Pt2
_chemical_formula_sum   'Ba2 Cd1 In3 Pt2'
_cell_volume   219.11369951
_cell_formula_units_Z   1
loop_
 _symmetry_equiv_pos_site_id
 _symmetry_equiv_pos_as_xyz
  1  'x, y, z'
loop_
 _atom_site_type_symbol
 _atom_site_label
 _atom_site_symmetry_multiplicity
 _atom_site_fract_x
 _atom_site_fract_y
 _atom_site_fract_z
 _atom_site_occupancy
  Ba  Ba0  1  0.444520  0.555480  0.747641  1
  Ba  Ba1  1  0.555544  0.444456  0.251842  1
  Cd  Cd2  1  0.159912  0.840088  0.556676  1
  In  In3  1  0.839967  0.160033  0.058414  1
  In  In4  1  0.159979  0.840021  0.939337  1
  In  In5  1  0.837631  0.162369  0.445111  1
  Pt  Pt6  1  0.724814  0.275186  0.755170  1
  Pt  Pt7  1  0.277634  0.722366  0.245810  1
