# generated using pymatgen
data_Er2Mn2Fe10P7
_symmetry_space_group_name_H-M   'P 1'
_cell_length_a   8.99184509
_cell_length_b   9.00138234
_cell_length_c   3.62716800
_cell_angle_alpha   90.00000000
_cell_angle_beta   90.00000000
_cell_angle_gamma   119.85597084
_symmetry_Int_Tables_number   1
_chemical_formula_structural   Er2Mn2Fe10P7
_chemical_formula_sum   'Er2 Mn2 Fe10 P7'
_cell_volume   254.61548147
_cell_formula_units_Z   1
loop_
 _symmetry_equiv_pos_site_id
 _symmetry_equiv_pos_as_xyz
  1  'x, y, z'
loop_
 _atom_site_type_symbol
 _atom_site_label
 _atom_site_symmetry_multiplicity
 _atom_site_fract_x
 _atom_site_fract_y
 _atom_site_fract_z
 _atom_site_occupancy
  Er  Er0  1  0.331665  0.664013  0.000000  1
  Er  Er1  1  0.000130  0.002026  0.500000  1
  Mn  Mn2  1  0.770868  0.551549  0.500000  1
  Mn  Mn3  1  0.449353  0.215215  0.500000  1
  Fe  Fe4  1  0.033998  0.276358  0.000000  1
  Fe  Fe5  1  0.723163  0.759954  0.000000  1
  Fe  Fe6  1  0.241271  0.964090  0.000000  1
  Fe  Fe7  1  0.546662  0.058438  0.000000  1
  Fe  Fe8  1  0.942074  0.489655  0.000000  1
  Fe  Fe9  1  0.513608  0.452507  0.000000  1
  Fe  Fe10  1  0.617620  0.899740  0.500000  1
  Fe  Fe11  1  0.100897  0.717476  0.500000  1
  Fe  Fe12  1  0.281238  0.382896  0.500000  1
  Fe  Fe13  1  0.783888  0.237469  0.500000  1
  P  P14  1  0.778971  0.035190  0.000000  1
  P  P15  1  0.968219  0.748703  0.000000  1
  P  P16  1  0.252522  0.222365  0.000000  1
  P  P17  1  0.377398  0.924100  0.500000  1
  P  P18  1  0.066489  0.443009  0.500000  1
  P  P19  1  0.550015  0.623316  0.500000  1
  P  P20  1  0.669949  0.331933  0.000000  1
