# generated using pymatgen
data_Dy2LuGa5Ni
_symmetry_space_group_name_H-M   'P 1'
_cell_length_a   6.83938283
_cell_length_b   6.90909234
_cell_length_c   4.21731500
_cell_angle_alpha   90.00000000
_cell_angle_beta   90.00000000
_cell_angle_gamma   120.33775043
_symmetry_Int_Tables_number   1
_chemical_formula_structural   Dy2LuGa5Ni
_chemical_formula_sum   'Dy2 Lu1 Ga5 Ni1'
_cell_volume   171.99523768
_cell_formula_units_Z   1
loop_
 _symmetry_equiv_pos_site_id
 _symmetry_equiv_pos_as_xyz
  1  'x, y, z'
loop_
 _atom_site_type_symbol
 _atom_site_label
 _atom_site_symmetry_multiplicity
 _atom_site_fract_x
 _atom_site_fract_y
 _atom_site_fract_z
 _atom_site_occupancy
  Dy  Dy0  1  0.594926  0.002209  0.500000  1
  Dy  Dy1  1  0.405074  0.407284  0.500000  1
  Lu  Lu2  1  0.000000  0.598050  0.500000  1
  Ga  Ga3  1  0.235200  0.999083  0.000000  1
  Ga  Ga4  1  0.000000  0.235796  0.000000  1
  Ga  Ga5  1  0.670754  0.335980  0.000000  1
  Ga  Ga6  1  0.329246  0.665226  0.000000  1
  Ga  Ga7  1  0.764800  0.763883  0.000000  1
  Ni  Ni8  1  0.000000  0.992490  0.500000  1
