# generated using pymatgen
data_La7Yb(PrIr)12
_symmetry_space_group_name_H-M   'P 1'
_cell_length_a   11.39031630
_cell_length_b   11.39707440
_cell_length_c   6.58823497
_cell_angle_alpha   89.91334713
_cell_angle_beta   89.98166419
_cell_angle_gamma   90.07041536
_symmetry_Int_Tables_number   1
_chemical_formula_structural   La7Yb(PrIr)12
_chemical_formula_sum   'La7 Yb1 Pr12 Ir12'
_cell_volume   855.25850291
_cell_formula_units_Z   1
loop_
 _symmetry_equiv_pos_site_id
 _symmetry_equiv_pos_as_xyz
  1  'x, y, z'
loop_
 _atom_site_type_symbol
 _atom_site_label
 _atom_site_symmetry_multiplicity
 _atom_site_fract_x
 _atom_site_fract_y
 _atom_site_fract_z
 _atom_site_occupancy
  La  La0  1  0.286264  0.089671  0.385916  1
  La  La1  1  0.289757  0.910102  0.885740  1
  La  La2  1  0.710068  0.090629  0.885664  1
  La  La3  1  0.714158  0.910755  0.386072  1
  La  La4  1  0.591453  0.790051  0.884239  1
  La  La5  1  0.589350  0.209219  0.383544  1
  La  La6  1  0.410145  0.790575  0.383404  1
  Yb  Yb7  1  0.999965  0.000006  0.500243  1
  Pr  Pr8  1  0.408954  0.210312  0.882914  1
  Pr  Pr9  1  0.208030  0.411303  0.617715  1
  Pr  Pr10  1  0.208341  0.589540  0.116550  1
  Pr  Pr11  1  0.791621  0.410264  0.116282  1
  Pr  Pr12  1  0.792296  0.588271  0.617224  1
  Pr  Pr13  1  0.911030  0.708804  0.115396  1
  Pr  Pr14  1  0.912281  0.287791  0.615099  1
  Pr  Pr15  1  0.087770  0.712158  0.615111  1
  Pr  Pr16  1  0.089170  0.291092  0.115121  1
  Pr  Pr17  1  0.999987  0.000155  0.000000  1
  Pr  Pr18  1  0.499718  0.499535  0.999979  1
  Pr  Pr19  1  0.500136  0.499861  0.500703  1
  Ir  Ir20  1  0.844468  0.154031  0.246386  1
  Ir  Ir21  1  0.844378  0.845850  0.750993  1
  Ir  Ir22  1  0.155346  0.153997  0.750592  1
  Ir  Ir23  1  0.155606  0.845992  0.246365  1
  Ir  Ir24  1  0.654157  0.344722  0.747694  1
  Ir  Ir25  1  0.653721  0.655647  0.250002  1
  Ir  Ir26  1  0.346063  0.344958  0.251286  1
  Ir  Ir27  1  0.345647  0.655227  0.747411  1
  Ir  Ir28  1  0.499954  0.999949  0.117903  1
  Ir  Ir29  1  0.500218  0.999467  0.616266  1
  Ir  Ir30  1  0.000085  0.500016  0.883425  1
  Ir  Ir31  1  0.999861  0.500050  0.384759  1
