# generated using pymatgen
data_Nd2NiIrRh2
_symmetry_space_group_name_H-M   'P 1'
_cell_length_a   5.45143576
_cell_length_b   5.46365789
_cell_length_c   5.27651705
_cell_angle_alpha   58.81964991
_cell_angle_beta   58.62672582
_cell_angle_gamma   59.92579211
_symmetry_Int_Tables_number   1
_chemical_formula_structural   Nd2NiIrRh2
_chemical_formula_sum   'Nd2 Ni1 Ir1 Rh2'
_cell_volume   108.87626914
_cell_formula_units_Z   1
loop_
 _symmetry_equiv_pos_site_id
 _symmetry_equiv_pos_as_xyz
  1  'x, y, z'
loop_
 _atom_site_type_symbol
 _atom_site_label
 _atom_site_symmetry_multiplicity
 _atom_site_fract_x
 _atom_site_fract_y
 _atom_site_fract_z
 _atom_site_occupancy
  Nd  Nd0  1  0.999721  0.998083  0.004112  1
  Nd  Nd1  1  0.250279  0.251917  0.245888  1
  Ni  Ni2  1  0.625000  0.625000  0.125000  1
  Ir  Ir3  1  0.125000  0.625000  0.625000  1
  Rh  Rh4  1  0.625000  0.625000  0.625000  1
  Rh  Rh5  1  0.625000  0.125000  0.625000  1
