# generated using pymatgen
data_La5Pr2Nd(CdPd)2
_symmetry_space_group_name_H-M   'P 1'
_cell_length_a   10.16169347
_cell_length_b   10.16169373
_cell_length_c   10.16350000
_cell_angle_alpha   59.99411981
_cell_angle_beta   59.99411895
_cell_angle_gamma   60.01175951
_symmetry_Int_Tables_number   1
_chemical_formula_structural   La5Pr2Nd(CdPd)2
_chemical_formula_sum   'La10 Pr4 Nd2 Cd4 Pd4'
_cell_volume   742.09661702
_cell_formula_units_Z   2
loop_
 _symmetry_equiv_pos_site_id
 _symmetry_equiv_pos_as_xyz
  1  'x, y, z'
loop_
 _atom_site_type_symbol
 _atom_site_label
 _atom_site_symmetry_multiplicity
 _atom_site_fract_x
 _atom_site_fract_y
 _atom_site_fract_z
 _atom_site_occupancy
  La  La0  1  0.351160  0.351160  0.350951  1
  La  La1  1  0.351160  0.351160  0.946730  1
  La  La2  1  0.350951  0.946730  0.351160  1
  La  La3  1  0.946730  0.350951  0.351160  1
  La  La4  1  0.805917  0.194083  0.194083  1
  La  La5  1  0.194083  0.805917  0.805917  1
  La  La6  1  0.194083  0.805917  0.194083  1
  La  La7  1  0.805917  0.194083  0.805917  1
  La  La8  1  0.194027  0.194027  0.805973  1
  La  La9  1  0.805973  0.805973  0.194027  1
  Pr  Pr10  1  0.934189  0.565811  0.565811  1
  Pr  Pr11  1  0.565811  0.934189  0.934189  1
  Pr  Pr12  1  0.565811  0.934189  0.565811  1
  Pr  Pr13  1  0.934189  0.565811  0.934189  1
  Nd  Nd14  1  0.565562  0.565562  0.934438  1
  Nd  Nd15  1  0.934438  0.934438  0.565562  1
  Cd  Cd16  1  0.580211  0.580211  0.580464  1
  Cd  Cd17  1  0.580211  0.580211  0.259114  1
  Cd  Cd18  1  0.580464  0.259114  0.580211  1
  Cd  Cd19  1  0.259114  0.580464  0.580211  1
  Pd  Pd20  1  0.142921  0.142921  0.143209  1
  Pd  Pd21  1  0.142921  0.142921  0.570946  1
  Pd  Pd22  1  0.143209  0.570946  0.142921  1
  Pd  Pd23  1  0.570946  0.143209  0.142921  1
