# generated using pymatgen
data_La4TbTm5Ga8
_symmetry_space_group_name_H-M   'P 1'
_cell_length_a   7.98003764
_cell_length_b   7.97950554
_cell_length_c   14.78881400
_cell_angle_alpha   90.05390302
_cell_angle_beta   89.84649380
_cell_angle_gamma   90.00214773
_symmetry_Int_Tables_number   1
_chemical_formula_structural   La4TbTm5Ga8
_chemical_formula_sum   'La8 Tb2 Tm10 Ga16'
_cell_volume   941.69988177
_cell_formula_units_Z   2
loop_
 _symmetry_equiv_pos_site_id
 _symmetry_equiv_pos_as_xyz
  1  'x, y, z'
loop_
 _atom_site_type_symbol
 _atom_site_label
 _atom_site_symmetry_multiplicity
 _atom_site_fract_x
 _atom_site_fract_y
 _atom_site_fract_z
 _atom_site_occupancy
  La  La0  1  0.989204  0.640043  0.041091  1
  La  La1  1  0.010491  0.359563  0.540375  1
  La  La2  1  0.640802  0.988131  0.958814  1
  La  La3  1  0.140048  0.510788  0.789916  1
  La  La4  1  0.859597  0.489314  0.291648  1
  La  La5  1  0.512172  0.141568  0.209937  1
  La  La6  1  0.488407  0.858490  0.708945  1
  La  La7  1  0.357730  0.011855  0.459869  1
  Tb  Tb8  1  0.507171  0.641245  0.126481  1
  Tb  Tb9  1  0.140850  0.993066  0.874306  1
  Tm  Tm10  1  0.358433  0.495074  0.374563  1
  Tm  Tm11  1  0.858145  0.005632  0.376845  1
  Tm  Tm12  1  0.993595  0.142611  0.124848  1
  Tm  Tm13  1  0.004757  0.857306  0.624005  1
  Tm  Tm14  1  0.643460  0.506217  0.874235  1
  Tm  Tm15  1  0.494631  0.358541  0.624929  1
  Tm  Tm16  1  0.680528  0.681608  0.500469  1
  Tm  Tm17  1  0.817731  0.181658  0.749622  1
  Tm  Tm18  1  0.181110  0.820276  0.250376  1
  Tm  Tm19  1  0.319162  0.318162  0.999594  1
  Ga  Ga20  1  0.064291  0.715193  0.437215  1
  Ga  Ga21  1  0.935780  0.285779  0.937000  1
  Ga  Ga22  1  0.714367  0.064489  0.562919  1
  Ga  Ga23  1  0.214198  0.434708  0.187994  1
  Ga  Ga24  1  0.784890  0.563206  0.686303  1
  Ga  Ga25  1  0.436988  0.215628  0.811718  1
  Ga  Ga26  1  0.564772  0.787012  0.314619  1
  Ga  Ga27  1  0.285544  0.936727  0.063416  1
  Ga  Ga28  1  0.846893  0.796608  0.808720  1
  Ga  Ga29  1  0.150900  0.203096  0.311733  1
  Ga  Ga30  1  0.800136  0.849705  0.191286  1
  Ga  Ga31  1  0.297070  0.651177  0.560717  1
  Ga  Ga32  1  0.703340  0.347234  0.059602  1
  Ga  Ga33  1  0.650391  0.296863  0.438922  1
  Ga  Ga34  1  0.348844  0.700407  0.939700  1
  Ga  Ga35  1  0.203571  0.151018  0.687272  1
