# generated using pymatgen
data_Yb12Sm4MgCd3Ru4
_symmetry_space_group_name_H-M   'P 1'
_cell_length_a   9.87753401
_cell_length_b   9.90180263
_cell_length_c   9.90180300
_cell_angle_alpha   59.99999542
_cell_angle_beta   59.91868677
_cell_angle_gamma   59.91869297
_symmetry_Int_Tables_number   1
_chemical_formula_structural   Yb12Sm4MgCd3Ru4
_chemical_formula_sum   'Yb12 Sm4 Mg1 Cd3 Ru4'
_cell_volume   683.95452053
_cell_formula_units_Z   1
loop_
 _symmetry_equiv_pos_site_id
 _symmetry_equiv_pos_as_xyz
  1  'x, y, z'
loop_
 _atom_site_type_symbol
 _atom_site_label
 _atom_site_symmetry_multiplicity
 _atom_site_fract_x
 _atom_site_fract_y
 _atom_site_fract_z
 _atom_site_occupancy
  Yb  Yb0  1  0.947981  0.549458  0.549458  1
  Yb  Yb1  1  0.549362  0.950584  0.950584  1
  Yb  Yb2  1  0.549362  0.950584  0.549470  1
  Yb  Yb3  1  0.947981  0.549458  0.953104  1
  Yb  Yb4  1  0.549362  0.549470  0.950584  1
  Yb  Yb5  1  0.947981  0.953104  0.549458  1
  Yb  Yb6  1  0.806511  0.193363  0.193363  1
  Yb  Yb7  1  0.192581  0.807889  0.807889  1
  Yb  Yb8  1  0.192581  0.807889  0.191642  1
  Yb  Yb9  1  0.806511  0.193363  0.806763  1
  Yb  Yb10  1  0.192581  0.191642  0.807889  1
  Yb  Yb11  1  0.806511  0.806763  0.193363  1
  Sm  Sm12  1  0.341158  0.341408  0.341408  1
  Sm  Sm13  1  0.341158  0.341408  0.976024  1
  Sm  Sm14  1  0.341158  0.976024  0.341408  1
  Sm  Sm15  1  0.974258  0.341913  0.341913  1
  Mg  Mg16  1  0.273464  0.575512  0.575512  1
  Cd  Cd17  1  0.579801  0.582167  0.582167  1
  Cd  Cd18  1  0.579801  0.582167  0.255864  1
  Cd  Cd19  1  0.579801  0.255864  0.582167  1
  Ru  Ru20  1  0.137010  0.137034  0.137034  1
  Ru  Ru21  1  0.137010  0.137034  0.588921  1
  Ru  Ru22  1  0.137010  0.588921  0.137034  1
  Ru  Ru23  1  0.589064  0.136978  0.136978  1
