# generated using pymatgen
data_V3ReP4
_symmetry_space_group_name_H-M   'P 1'
_cell_length_a   3.16433100
_cell_length_b   5.51686315
_cell_length_c   6.17469363
_cell_angle_alpha   90.03528779
_cell_angle_beta   90.00000000
_cell_angle_gamma   90.00000000
_symmetry_Int_Tables_number   1
_chemical_formula_structural   V3ReP4
_chemical_formula_sum   'V3 Re1 P4'
_cell_volume   107.79272446
_cell_formula_units_Z   1
loop_
 _symmetry_equiv_pos_site_id
 _symmetry_equiv_pos_as_xyz
  1  'x, y, z'
loop_
 _atom_site_type_symbol
 _atom_site_label
 _atom_site_symmetry_multiplicity
 _atom_site_fract_x
 _atom_site_fract_y
 _atom_site_fract_z
 _atom_site_occupancy
  V  V0  1  0.000000  0.505874  0.441913  1
  V  V1  1  0.000000  0.007858  0.559694  1
  V  V2  1  0.500000  0.992172  0.938714  1
  Re  Re3  1  0.500000  0.492030  0.062306  1
  P  P4  1  0.500000  0.312280  0.684144  1
  P  P5  1  0.500000  0.818849  0.317094  1
  P  P6  1  0.000000  0.690125  0.810544  1
  P  P7  1  0.000000  0.180813  0.185591  1
