# generated using pymatgen
data_Nb3Si2OsC
_symmetry_space_group_name_H-M   'P 1'
_cell_length_a   8.22253099
_cell_length_b   8.22254899
_cell_length_c   8.22224705
_cell_angle_alpha   59.99666062
_cell_angle_beta   59.99539082
_cell_angle_gamma   59.99680751
_symmetry_Int_Tables_number   1
_chemical_formula_structural   Nb3Si2OsC
_chemical_formula_sum   'Nb12 Si8 Os4 C4'
_cell_volume   393.05284389
_cell_formula_units_Z   4
loop_
 _symmetry_equiv_pos_site_id
 _symmetry_equiv_pos_as_xyz
  1  'x, y, z'
loop_
 _atom_site_type_symbol
 _atom_site_label
 _atom_site_symmetry_multiplicity
 _atom_site_fract_x
 _atom_site_fract_y
 _atom_site_fract_z
 _atom_site_occupancy
  Nb  Nb0  1  0.688919  0.311040  0.688966  1
  Nb  Nb1  1  0.938951  0.561074  0.561041  1
  Nb  Nb2  1  0.561036  0.938943  0.938968  1
  Nb  Nb3  1  0.938935  0.561027  0.938980  1
  Nb  Nb4  1  0.561056  0.561042  0.938981  1
  Nb  Nb5  1  0.938941  0.938962  0.561016  1
  Nb  Nb6  1  0.688944  0.688958  0.311019  1
  Nb  Nb7  1  0.311049  0.688926  0.688959  1
  Nb  Nb8  1  0.688964  0.311057  0.311032  1
  Nb  Nb9  1  0.311059  0.311038  0.688984  1
  Nb  Nb10  1  0.561081  0.938960  0.561034  1
  Nb  Nb11  1  0.311065  0.688973  0.311020  1
  Si  Si12  1  0.336210  0.336204  0.336222  1
  Si  Si13  1  0.258634  0.913789  0.913772  1
  Si  Si14  1  0.913783  0.258635  0.913775  1
  Si  Si15  1  0.913777  0.913786  0.258638  1
  Si  Si16  1  0.336217  0.991365  0.336225  1
  Si  Si17  1  0.336223  0.336214  0.991362  1
  Si  Si18  1  0.991366  0.336211  0.336228  1
  Si  Si19  1  0.913790  0.913796  0.913778  1
  Os  Os20  1  0.125000  0.125000  0.125000  1
  Os  Os21  1  0.625000  0.125000  0.125000  1
  Os  Os22  1  0.125000  0.625000  0.125000  1
  Os  Os23  1  0.125000  0.125000  0.625000  1
  C  C24  1  0.625000  0.625000  0.625000  1
  C  C25  1  0.125000  0.625000  0.625000  1
  C  C26  1  0.625000  0.125000  0.625000  1
  C  C27  1  0.625000  0.625000  0.125000  1
