# generated using pymatgen
data_Mn3AlHg4(AsO5)4
_symmetry_space_group_name_H-M   'P 1'
_cell_length_a   6.27868359
_cell_length_b   8.27165830
_cell_length_c   8.53625603
_cell_angle_alpha   89.32693409
_cell_angle_beta   88.55194324
_cell_angle_gamma   91.59374749
_symmetry_Int_Tables_number   1
_chemical_formula_structural   Mn3AlHg4(AsO5)4
_chemical_formula_sum   'Mn3 Al1 Hg4 As4 O20'
_cell_volume   442.98411744
_cell_formula_units_Z   1
loop_
 _symmetry_equiv_pos_site_id
 _symmetry_equiv_pos_as_xyz
  1  'x, y, z'
loop_
 _atom_site_type_symbol
 _atom_site_label
 _atom_site_symmetry_multiplicity
 _atom_site_fract_x
 _atom_site_fract_y
 _atom_site_fract_z
 _atom_site_occupancy
  Mn  Mn0  1  0.250602  0.249886  0.499645  1
  Mn  Mn1  1  0.750220  0.250059  0.500254  1
  Mn  Mn2  1  0.749960  0.749810  0.000316  1
  Al  Al3  1  0.249961  0.750312  0.999698  1
  Hg  Hg4  1  0.006452  0.818725  0.661748  1
  Hg  Hg5  1  0.502185  0.175581  0.162574  1
  Hg  Hg6  1  0.997799  0.324624  0.837251  1
  Hg  Hg7  1  0.493566  0.680704  0.338345  1
  As  As8  1  0.485608  0.072826  0.791154  1
  As  As9  1  0.003597  0.922828  0.286227  1
  As  As10  1  0.498173  0.577015  0.713846  1
  As  As11  1  0.012391  0.427435  0.208872  1
  O  O12  1  0.474331  0.890520  0.892109  1
  O  O13  1  0.001678  0.102850  0.383917  1
  O  O14  1  0.497867  0.396900  0.616220  1
  O  O15  1  0.025969  0.609578  0.107662  1
  O  O16  1  0.493024  0.228779  0.926189  1
  O  O17  1  0.006925  0.766189  0.424679  1
  O  O18  1  0.503522  0.733654  0.575159  1
  O  O19  1  0.995289  0.271638  0.074014  1
  O  O20  1  0.718430  0.089601  0.680035  1
  O  O21  1  0.772659  0.901308  0.180572  1
  O  O22  1  0.272741  0.595401  0.830540  1
  O  O23  1  0.239188  0.404502  0.316241  1
  O  O24  1  0.260857  0.093338  0.681155  1
  O  O25  1  0.227232  0.906535  0.167410  1
  O  O26  1  0.727328  0.596409  0.821715  1
  O  O27  1  0.781830  0.412889  0.322645  1
  O  O28  1  0.010348  0.840312  0.903962  1
  O  O29  1  0.500922  0.154113  0.405216  1
  O  O30  1  0.000916  0.345891  0.594586  1
  O  O31  1  0.488432  0.659787  0.096043  1
