# generated using pymatgen
data_TbLu3V4F28
_symmetry_space_group_name_H-M   'P 1'
_cell_length_a   5.47563304
_cell_length_b   8.71222229
_cell_length_c   11.67729998
_cell_angle_alpha   64.30091567
_cell_angle_beta   90.01184522
_cell_angle_gamma   89.99948585
_symmetry_Int_Tables_number   1
_chemical_formula_structural   TbLu3V4F28
_chemical_formula_sum   'Tb1 Lu3 V4 F28'
_cell_volume   501.96214164
_cell_formula_units_Z   1
loop_
 _symmetry_equiv_pos_site_id
 _symmetry_equiv_pos_as_xyz
  1  'x, y, z'
loop_
 _atom_site_type_symbol
 _atom_site_label
 _atom_site_symmetry_multiplicity
 _atom_site_fract_x
 _atom_site_fract_y
 _atom_site_fract_z
 _atom_site_occupancy
  Tb  Tb0  1  0.243145  0.809838  0.773173  1
  Lu  Lu1  1  0.256861  0.808074  0.273910  1
  Lu  Lu2  1  0.742027  0.200782  0.722934  1
  Lu  Lu3  1  0.756951  0.194516  0.224398  1
  V  V4  1  0.753053  0.725247  0.051589  1
  V  V5  1  0.247593  0.271555  0.952730  1
  V  V6  1  0.253795  0.273630  0.451017  1
  V  V7  1  0.748765  0.727251  0.544099  1
  F  F8  1  0.961694  0.704717  0.424416  1
  F  F9  1  0.039101  0.295364  0.570848  1
  F  F10  1  0.461664  0.294750  0.072034  1
  F  F11  1  0.541672  0.704354  0.930728  1
  F  F12  1  0.480846  0.731734  0.151515  1
  F  F13  1  0.520568  0.269142  0.852293  1
  F  F14  1  0.983174  0.264191  0.351516  1
  F  F15  1  0.021165  0.731431  0.642453  1
  F  F16  1  0.966375  0.746768  0.174385  1
  F  F17  1  0.034229  0.249006  0.829651  1
  F  F18  1  0.466567  0.248968  0.329398  1
  F  F19  1  0.543094  0.746372  0.669506  1
  F  F20  1  0.762606  0.490362  0.142325  1
  F  F21  1  0.232659  0.504474  0.861412  1
  F  F22  1  0.263871  0.506146  0.359814  1
  F  F23  1  0.736349  0.492641  0.636519  1
  F  F24  1  0.967520  0.284906  0.047404  1
  F  F25  1  0.031215  0.711871  0.957691  1
  F  F26  1  0.465889  0.714108  0.450942  1
  F  F27  1  0.533684  0.287187  0.545071  1
  F  F28  1  0.746214  0.956438  0.456429  1
  F  F29  1  0.255621  0.043085  0.543219  1
  F  F30  1  0.246802  0.041910  0.042176  1
  F  F31  1  0.753460  0.953782  0.963931  1
  F  F32  1  0.559279  0.980620  0.235865  1
  F  F33  1  0.438415  0.031293  0.766014  1
  F  F34  1  0.059232  0.021634  0.263136  1
  F  F35  1  0.924842  0.981852  0.735462  1
