# generated using pymatgen
data_Cs4Na2ErLuSb4
_symmetry_space_group_name_H-M   'P 1'
_cell_length_a   10.33229203
_cell_length_b   10.33229212
_cell_length_c   10.33229245
_cell_angle_alpha   136.70745304
_cell_angle_beta   62.47737404
_cell_angle_gamma   137.24277664
_symmetry_Int_Tables_number   1
_chemical_formula_structural   Cs4Na2ErLuSb4
_chemical_formula_sum   'Cs4 Na2 Er1 Lu1 Sb4'
_cell_volume   507.26552591
_cell_formula_units_Z   1
loop_
 _symmetry_equiv_pos_site_id
 _symmetry_equiv_pos_as_xyz
  1  'x, y, z'
loop_
 _atom_site_type_symbol
 _atom_site_label
 _atom_site_symmetry_multiplicity
 _atom_site_fract_x
 _atom_site_fract_y
 _atom_site_fract_z
 _atom_site_occupancy
  Cs  Cs0  1  0.324787  0.776167  0.098223  1
  Cs  Cs1  1  0.175213  0.273437  0.451381  1
  Cs  Cs2  1  0.822057  0.723833  0.548620  1
  Cs  Cs3  1  0.677944  0.226563  0.901777  1
  Na  Na4  1  0.750000  0.250000  0.500000  1
  Na  Na5  1  0.250000  0.750000  0.500000  1
  Er  Er6  1  0.750000  0.750000  0.000000  1
  Lu  Lu7  1  0.250000  0.250000  0.000000  1
  Sb  Sb8  1  0.909252  0.224376  0.129627  1
  Sb  Sb9  1  0.590748  0.720376  0.315125  1
  Sb  Sb10  1  0.405252  0.275624  0.684876  1
  Sb  Sb11  1  0.094748  0.779624  0.870373  1
