# generated using pymatgen
data_NaTbNd(B3Rh4)2
_symmetry_space_group_name_H-M   'P 1'
_cell_length_a   9.89336631
_cell_length_b   9.04791668
_cell_length_c   5.59600902
_cell_angle_alpha   81.30914311
_cell_angle_beta   64.69467470
_cell_angle_gamma   33.99617790
_symmetry_Int_Tables_number   1
_chemical_formula_structural   NaTbNd(B3Rh4)2
_chemical_formula_sum   'Na1 Tb1 Nd1 B6 Rh8'
_cell_volume   231.83183889
_cell_formula_units_Z   1
loop_
 _symmetry_equiv_pos_site_id
 _symmetry_equiv_pos_as_xyz
  1  'x, y, z'
loop_
 _atom_site_type_symbol
 _atom_site_label
 _atom_site_symmetry_multiplicity
 _atom_site_fract_x
 _atom_site_fract_y
 _atom_site_fract_z
 _atom_site_occupancy
  Na  Na0  1  0.312686  0.312686  0.687314  1
  Tb  Tb1  1  0.491166  0.491166  0.508834  1
  Nd  Nd2  1  0.682987  0.682987  0.317013  1
  B  B3  1  0.670072  0.989529  0.010471  1
  B  B4  1  0.989529  0.670072  0.329928  1
  B  B5  1  0.332609  0.014713  0.985287  1
  B  B6  1  0.014713  0.332609  0.667391  1
  B  B7  1  0.167920  0.833485  0.166515  1
  B  B8  1  0.833485  0.167920  0.832080  1
  Rh  Rh9  1  0.585062  0.585062  0.914938  1
  Rh  Rh10  1  0.913434  0.913434  0.086566  1
  Rh  Rh11  1  0.415304  0.415304  0.084696  1
  Rh  Rh12  1  0.085062  0.085062  0.414938  1
  Rh  Rh13  1  0.915304  0.915304  0.584696  1
  Rh  Rh14  1  0.252214  0.252214  0.247786  1
  Rh  Rh15  1  0.086238  0.086238  0.913762  1
  Rh  Rh16  1  0.752214  0.752214  0.747786  1
