# generated using pymatgen
data_Hf6Ti15AlIr7
_symmetry_space_group_name_H-M   'P 1'
_cell_length_a   8.92117924
_cell_length_b   8.93076527
_cell_length_c   8.93076600
_cell_angle_alpha   60.00000469
_cell_angle_beta   59.96445335
_cell_angle_gamma   59.96446133
_symmetry_Int_Tables_number   1
_chemical_formula_structural   Hf6Ti15AlIr7
_chemical_formula_sum   'Hf6 Ti15 Al1 Ir7'
_cell_volume   502.86469282
_cell_formula_units_Z   1
loop_
 _symmetry_equiv_pos_site_id
 _symmetry_equiv_pos_as_xyz
  1  'x, y, z'
loop_
 _atom_site_type_symbol
 _atom_site_label
 _atom_site_symmetry_multiplicity
 _atom_site_fract_x
 _atom_site_fract_y
 _atom_site_fract_z
 _atom_site_occupancy
  Hf  Hf0  1  0.683567  0.317477  0.317477  1
  Hf  Hf1  1  0.314580  0.684810  0.684810  1
  Hf  Hf2  1  0.314580  0.684810  0.315800  1
  Hf  Hf3  1  0.683567  0.317477  0.681480  1
  Hf  Hf4  1  0.314580  0.315800  0.684810  1
  Hf  Hf5  1  0.683567  0.681480  0.317477  1
  Ti  Ti6  1  0.330777  0.330695  0.330695  1
  Ti  Ti7  1  0.667780  0.667799  0.667799  1
  Ti  Ti8  1  0.330777  0.330695  0.007832  1
  Ti  Ti9  1  0.330777  0.007832  0.330695  1
  Ti  Ti10  1  0.667780  0.667799  0.996622  1
  Ti  Ti11  1  0.667780  0.996622  0.667799  1
  Ti  Ti12  1  0.007483  0.330839  0.330839  1
  Ti  Ti13  1  0.989717  0.670094  0.670094  1
  Ti  Ti14  1  0.122726  0.115593  0.115593  1
  Ti  Ti15  1  0.881119  0.882684  0.882684  1
  Ti  Ti16  1  0.122726  0.115593  0.646089  1
  Ti  Ti17  1  0.122726  0.646089  0.115593  1
  Ti  Ti18  1  0.881119  0.882684  0.353514  1
  Ti  Ti19  1  0.881119  0.353514  0.882684  1
  Ti  Ti20  1  0.646601  0.117800  0.117800  1
  Al  Al21  1  0.358815  0.880395  0.880395  1
  Ir  Ir22  1  0.498073  0.999729  0.999729  1
  Ir  Ir23  1  0.000427  0.500113  0.500113  1
  Ir  Ir24  1  0.000427  0.500113  0.999347  1
  Ir  Ir25  1  0.498073  0.999729  0.502469  1
  Ir  Ir26  1  0.000427  0.999347  0.500113  1
  Ir  Ir27  1  0.498073  0.502469  0.999729  1
  Ir  Ir28  1  0.000241  0.999920  0.999920  1
