# generated using pymatgen
data_La8Al8OsPt7
_symmetry_space_group_name_H-M   'P 1'
_cell_length_a   4.29416800
_cell_length_b   7.31124092
_cell_length_c   16.69657741
_cell_angle_alpha   89.48803899
_cell_angle_beta   90.00000000
_cell_angle_gamma   90.00000000
_symmetry_Int_Tables_number   1
_chemical_formula_structural   La8Al8OsPt7
_chemical_formula_sum   'La8 Al8 Os1 Pt7'
_cell_volume   524.17975536
_cell_formula_units_Z   1
loop_
 _symmetry_equiv_pos_site_id
 _symmetry_equiv_pos_as_xyz
  1  'x, y, z'
loop_
 _atom_site_type_symbol
 _atom_site_label
 _atom_site_symmetry_multiplicity
 _atom_site_fract_x
 _atom_site_fract_y
 _atom_site_fract_z
 _atom_site_occupancy
  La  La0  1  0.250000  0.511583  0.776678  1
  La  La1  1  0.750000  0.490001  0.223921  1
  La  La2  1  0.750000  0.989307  0.277342  1
  La  La3  1  0.250000  0.017769  0.717542  1
  La  La4  1  0.250000  0.645358  0.559634  1
  La  La5  1  0.750000  0.344651  0.444186  1
  La  La6  1  0.750000  0.854132  0.059096  1
  La  La7  1  0.250000  0.144551  0.939638  1
  Al  Al8  1  0.250000  0.663564  0.353193  1
  Al  Al9  1  0.750000  0.336849  0.645683  1
  Al  Al10  1  0.750000  0.836053  0.851650  1
  Al  Al11  1  0.250000  0.165505  0.146739  1
  Al  Al12  1  0.250000  0.508348  0.061696  1
  Al  Al13  1  0.750000  0.492087  0.938328  1
  Al  Al14  1  0.750000  0.991815  0.560761  1
  Al  Al15  1  0.250000  0.008996  0.440678  1
  Os  Os16  1  0.250000  0.209069  0.573399  1
  Pt  Pt17  1  0.250000  0.775010  0.180313  1
  Pt  Pt18  1  0.750000  0.226201  0.820664  1
  Pt  Pt19  1  0.750000  0.725401  0.681408  1
  Pt  Pt20  1  0.250000  0.276187  0.318822  1
  Pt  Pt21  1  0.250000  0.707010  0.929745  1
  Pt  Pt22  1  0.750000  0.292965  0.070538  1
  Pt  Pt23  1  0.750000  0.787589  0.428345  1
