# generated using pymatgen
data_Ce2Nd4ErTh(Si3Pd)4
_symmetry_space_group_name_H-M   'P 1'
_cell_length_a   8.23647283
_cell_length_b   8.22123519
_cell_length_c   8.43574700
_cell_angle_alpha   90.00000000
_cell_angle_beta   90.00000000
_cell_angle_gamma   119.88053232
_symmetry_Int_Tables_number   1
_chemical_formula_structural   Ce2Nd4ErTh(Si3Pd)4
_chemical_formula_sum   'Ce2 Nd4 Er1 Th1 Si12 Pd4'
_cell_volume   495.28375321
_cell_formula_units_Z   1
loop_
 _symmetry_equiv_pos_site_id
 _symmetry_equiv_pos_as_xyz
  1  'x, y, z'
loop_
 _atom_site_type_symbol
 _atom_site_label
 _atom_site_symmetry_multiplicity
 _atom_site_fract_x
 _atom_site_fract_y
 _atom_site_fract_z
 _atom_site_occupancy
  Ce  Ce0  1  0.000003  0.000059  0.750000  1
  Ce  Ce1  1  0.000041  0.999978  0.250000  1
  Nd  Nd2  1  0.499628  0.500244  0.250000  1
  Nd  Nd3  1  0.999240  0.499614  0.750000  1
  Nd  Nd4  1  0.000652  0.500339  0.250000  1
  Nd  Nd5  1  0.499576  0.999330  0.250000  1
  Er  Er6  1  0.500409  0.000730  0.750000  1
  Th  Th7  1  0.500429  0.499612  0.750000  1
  Si  Si8  1  0.834277  0.165450  0.997838  1
  Si  Si9  1  0.165720  0.834528  0.997170  1
  Si  Si10  1  0.328360  0.163478  0.997880  1
  Si  Si11  1  0.165720  0.834528  0.502830  1
  Si  Si12  1  0.671608  0.836497  0.997268  1
  Si  Si13  1  0.834277  0.165450  0.502162  1
  Si  Si14  1  0.835517  0.670114  0.001009  1
  Si  Si15  1  0.671608  0.836497  0.502732  1
  Si  Si16  1  0.164511  0.329958  0.000281  1
  Si  Si17  1  0.328360  0.163478  0.502120  1
  Si  Si18  1  0.164511  0.329958  0.499719  1
  Si  Si19  1  0.835517  0.670114  0.498991  1
  Pd  Pd20  1  0.663412  0.330897  0.993086  1
  Pd  Pd21  1  0.336605  0.669126  0.990978  1
  Pd  Pd22  1  0.336605  0.669126  0.509022  1
  Pd  Pd23  1  0.663412  0.330897  0.506914  1
