# generated using pymatgen
data_La13PrPd5Rh
_symmetry_space_group_name_H-M   'P 1'
_cell_length_a   10.35576385
_cell_length_b   10.35576312
_cell_length_c   6.60410712
_cell_angle_alpha   89.98794216
_cell_angle_beta   90.01206165
_cell_angle_gamma   120.06695877
_symmetry_Int_Tables_number   1
_chemical_formula_structural   La13PrPd5Rh
_chemical_formula_sum   'La13 Pr1 Pd5 Rh1'
_cell_volume   612.93659415
_cell_formula_units_Z   1
loop_
 _symmetry_equiv_pos_site_id
 _symmetry_equiv_pos_as_xyz
  1  'x, y, z'
loop_
 _atom_site_type_symbol
 _atom_site_label
 _atom_site_symmetry_multiplicity
 _atom_site_fract_x
 _atom_site_fract_y
 _atom_site_fract_z
 _atom_site_occupancy
  La  La0  1  0.668683  0.331317  0.960227  1
  La  La1  1  0.126772  0.873228  0.245171  1
  La  La2  1  0.749034  0.880260  0.243623  1
  La  La3  1  0.119740  0.250966  0.243623  1
  La  La4  1  0.873001  0.126999  0.751956  1
  La  La5  1  0.252904  0.125938  0.745989  1
  La  La6  1  0.874062  0.747096  0.745989  1
  La  La7  1  0.537795  0.462205  0.443088  1
  La  La8  1  0.920811  0.455877  0.439011  1
  La  La9  1  0.544123  0.079189  0.439011  1
  La  La10  1  0.461689  0.538311  0.942350  1
  La  La11  1  0.076712  0.537614  0.941465  1
  La  La12  1  0.462386  0.923288  0.941465  1
  Pr  Pr13  1  0.333127  0.666873  0.453437  1
  Pd  Pd14  1  0.375370  0.188073  0.190765  1
  Pd  Pd15  1  0.811927  0.624630  0.190765  1
  Pd  Pd16  1  0.187858  0.812142  0.691934  1
  Pd  Pd17  1  0.624374  0.812157  0.691556  1
  Pd  Pd18  1  0.187843  0.375626  0.691556  1
  Rh  Rh19  1  0.811791  0.188209  0.192810  1
