# generated using pymatgen
data_Cs2Sr(NbBr3)6
_symmetry_space_group_name_H-M   'P 1'
_cell_length_a   11.09891363
_cell_length_b   11.09891409
_cell_length_c   11.09891269
_cell_angle_alpha   54.88075290
_cell_angle_beta   54.88075302
_cell_angle_gamma   54.88075211
_symmetry_Int_Tables_number   1
_chemical_formula_structural   Cs2Sr(NbBr3)6
_chemical_formula_sum   'Cs2 Sr1 Nb6 Br18'
_cell_volume   851.56899674
_cell_formula_units_Z   1
loop_
 _symmetry_equiv_pos_site_id
 _symmetry_equiv_pos_as_xyz
  1  'x, y, z'
loop_
 _atom_site_type_symbol
 _atom_site_label
 _atom_site_symmetry_multiplicity
 _atom_site_fract_x
 _atom_site_fract_y
 _atom_site_fract_z
 _atom_site_occupancy
  Cs  Cs0  1  0.722964  0.722964  0.722964  1
  Cs  Cs1  1  0.277036  0.277036  0.277036  1
  Sr  Sr2  1  0.000000  0.000000  0.000000  1
  Nb  Nb3  1  0.576565  0.360230  0.692492  1
  Nb  Nb4  1  0.360230  0.692492  0.576565  1
  Nb  Nb5  1  0.692492  0.576565  0.360230  1
  Nb  Nb6  1  0.639770  0.307508  0.423435  1
  Nb  Nb7  1  0.423435  0.639770  0.307508  1
  Nb  Nb8  1  0.307508  0.423435  0.639770  1
  Br  Br9  1  0.905067  0.359645  0.233193  1
  Br  Br10  1  0.829885  0.422132  0.565366  1
  Br  Br11  1  0.766807  0.094933  0.640355  1
  Br  Br12  1  0.094933  0.640355  0.766807  1
  Br  Br13  1  0.676878  0.172736  0.959452  1
  Br  Br14  1  0.233193  0.905067  0.359645  1
  Br  Br15  1  0.434634  0.170115  0.577868  1
  Br  Br16  1  0.640355  0.766807  0.094933  1
  Br  Br17  1  0.577868  0.434634  0.170115  1
  Br  Br18  1  0.040548  0.323122  0.827264  1
  Br  Br19  1  0.565366  0.829885  0.422132  1
  Br  Br20  1  0.359645  0.233193  0.905067  1
  Br  Br21  1  0.959452  0.676878  0.172736  1
  Br  Br22  1  0.170115  0.577868  0.434634  1
  Br  Br23  1  0.827264  0.040548  0.323122  1
  Br  Br24  1  0.422132  0.565366  0.829885  1
  Br  Br25  1  0.172736  0.959452  0.676878  1
  Br  Br26  1  0.323122  0.827264  0.040548  1
