# generated using pymatgen
data_La(CrS2)3
_symmetry_space_group_name_H-M   'P 1'
_cell_length_a   6.07839167
_cell_length_b   6.07839159
_cell_length_c   6.91353500
_cell_angle_alpha   98.47231887
_cell_angle_beta   98.47232830
_cell_angle_gamma   120.04923115
_symmetry_Int_Tables_number   1
_chemical_formula_structural   La(CrS2)3
_chemical_formula_sum   'La1 Cr3 S6'
_cell_volume   211.27026788
_cell_formula_units_Z   1
loop_
 _symmetry_equiv_pos_site_id
 _symmetry_equiv_pos_as_xyz
  1  'x, y, z'
loop_
 _atom_site_type_symbol
 _atom_site_label
 _atom_site_symmetry_multiplicity
 _atom_site_fract_x
 _atom_site_fract_y
 _atom_site_fract_z
 _atom_site_occupancy
  La  La0  1  0.000000  0.000000  0.500000  1
  Cr  Cr1  1  0.836113  0.163888  0.000000  1
  Cr  Cr2  1  0.500001  0.500001  0.000000  1
  Cr  Cr3  1  0.163888  0.836113  0.000000  1
  S  S4  1  0.237596  0.237596  0.199147  1
  S  S5  1  0.900147  0.563100  0.198539  1
  S  S6  1  0.563100  0.900147  0.198539  1
  S  S7  1  0.436899  0.099853  0.801460  1
  S  S8  1  0.099853  0.436899  0.801460  1
  S  S9  1  0.762405  0.762405  0.800852  1
