# generated using pymatgen
data_Yb8Si16Mo11Os
_symmetry_space_group_name_H-M   'P 1'
_cell_length_a   6.74752800
_cell_length_b   6.92151404
_cell_length_c   13.08019100
_cell_angle_alpha   90.00000000
_cell_angle_beta   90.00000000
_cell_angle_gamma   90.00647334
_symmetry_Int_Tables_number   1
_chemical_formula_structural   Yb8Si16Mo11Os
_chemical_formula_sum   'Yb8 Si16 Mo11 Os1'
_cell_volume   610.88559278
_cell_formula_units_Z   1
loop_
 _symmetry_equiv_pos_site_id
 _symmetry_equiv_pos_as_xyz
  1  'x, y, z'
loop_
 _atom_site_type_symbol
 _atom_site_label
 _atom_site_symmetry_multiplicity
 _atom_site_fract_x
 _atom_site_fract_y
 _atom_site_fract_z
 _atom_site_occupancy
  Yb  Yb0  1  0.496358  0.334489  0.091385  1
  Yb  Yb1  1  0.997645  0.164414  0.408788  1
  Yb  Yb2  1  0.502060  0.666484  0.590651  1
  Yb  Yb3  1  0.002691  0.833391  0.908994  1
  Yb  Yb4  1  0.502060  0.666484  0.909349  1
  Yb  Yb5  1  0.002691  0.833391  0.591006  1
  Yb  Yb6  1  0.496358  0.334489  0.408615  1
  Yb  Yb7  1  0.997645  0.164414  0.091212  1
  Si  Si8  1  0.801960  0.630390  0.750000  1
  Si  Si9  1  0.301215  0.869125  0.750000  1
  Si  Si10  1  0.188890  0.370677  0.250000  1
  Si  Si11  1  0.696747  0.134860  0.250000  1
  Si  Si12  1  0.536769  0.373731  0.750000  1
  Si  Si13  1  0.034807  0.126507  0.750000  1
  Si  Si14  1  0.469076  0.628299  0.250000  1
  Si  Si15  1  0.961025  0.863455  0.250000  1
  Si  Si16  1  0.658081  0.044765  0.545163  1
  Si  Si17  1  0.158085  0.456040  0.955821  1
  Si  Si18  1  0.343666  0.957463  0.046974  1
  Si  Si19  1  0.842531  0.544103  0.451075  1
  Si  Si20  1  0.343666  0.957463  0.453026  1
  Si  Si21  1  0.842531  0.544103  0.048925  1
  Si  Si22  1  0.658081  0.044765  0.954837  1
  Si  Si23  1  0.158085  0.456040  0.544179  1
  Mo  Mo24  1  0.661747  0.009809  0.750000  1
  Mo  Mo25  1  0.163331  0.489936  0.750000  1
  Mo  Mo26  1  0.337929  0.994332  0.250000  1
  Mo  Mo27  1  0.836604  0.331274  0.626763  1
  Mo  Mo28  1  0.335920  0.169459  0.871978  1
  Mo  Mo29  1  0.166544  0.670946  0.128491  1
  Mo  Mo30  1  0.668137  0.834789  0.371466  1
  Mo  Mo31  1  0.166544  0.670946  0.371509  1
  Mo  Mo32  1  0.668137  0.834789  0.128534  1
  Mo  Mo33  1  0.836604  0.331274  0.873237  1
  Mo  Mo34  1  0.335920  0.169459  0.628022  1
  Os  Os35  1  0.829854  0.493640  0.250000  1
