# generated using pymatgen
data_Ho3U3(Co7B2)2
_symmetry_space_group_name_H-M   'P 1'
_cell_length_a   4.97831600
_cell_length_b   4.97831589
_cell_length_c   13.97484700
_cell_angle_alpha   90.00000000
_cell_angle_beta   90.00000000
_cell_angle_gamma   120.00000071
_symmetry_Int_Tables_number   1
_chemical_formula_structural   Ho3U3(Co7B2)2
_chemical_formula_sum   'Ho3 U3 Co14 B4'
_cell_volume   299.94567302
_cell_formula_units_Z   1
loop_
 _symmetry_equiv_pos_site_id
 _symmetry_equiv_pos_as_xyz
  1  'x, y, z'
loop_
 _atom_site_type_symbol
 _atom_site_label
 _atom_site_symmetry_multiplicity
 _atom_site_fract_x
 _atom_site_fract_y
 _atom_site_fract_z
 _atom_site_occupancy
  Ho  Ho0  1  0.333333  0.666667  0.252256  1
  Ho  Ho1  1  0.666667  0.333333  0.747186  1
  Ho  Ho2  1  0.333333  0.666667  0.034882  1
  U  U3  1  0.666667  0.333333  0.525154  1
  U  U4  1  0.666667  0.333333  0.967058  1
  U  U5  1  0.333333  0.666667  0.475722  1
  Co  Co6  1  0.000000  0.000000  0.998886  1
  Co  Co7  1  0.000000  0.000000  0.500330  1
  Co  Co8  1  0.834832  0.669663  0.145492  1
  Co  Co9  1  0.164831  0.835169  0.645377  1
  Co  Co10  1  0.670338  0.835169  0.645377  1
  Co  Co11  1  0.330337  0.165168  0.145492  1
  Co  Co12  1  0.834832  0.165168  0.145492  1
  Co  Co13  1  0.164990  0.329982  0.853586  1
  Co  Co14  1  0.164990  0.835010  0.853586  1
  Co  Co15  1  0.164831  0.329662  0.645377  1
  Co  Co16  1  0.670018  0.835010  0.853586  1
  Co  Co17  1  0.330040  0.165020  0.355127  1
  Co  Co18  1  0.834980  0.669960  0.355127  1
  Co  Co19  1  0.834980  0.165020  0.355127  1
  B  B20  1  0.000000  0.000000  0.249779  1
  B  B21  1  0.000000  0.000000  0.750427  1
  B  B22  1  0.333333  0.666667  0.749611  1
  B  B23  1  0.666667  0.333333  0.249964  1
