# generated using pymatgen
data_Er3Tm2NiSb2
_symmetry_space_group_name_H-M   'P 1'
_cell_length_a   7.82024200
_cell_length_b   8.74174400
_cell_length_c   12.05090200
_cell_angle_alpha   90.00000000
_cell_angle_beta   90.00000000
_cell_angle_gamma   90.00000000
_symmetry_Int_Tables_number   1
_chemical_formula_structural   Er3Tm2NiSb2
_chemical_formula_sum   'Er12 Tm8 Ni4 Sb8'
_cell_volume   823.83043369
_cell_formula_units_Z   4
loop_
 _symmetry_equiv_pos_site_id
 _symmetry_equiv_pos_as_xyz
  1  'x, y, z'
loop_
 _atom_site_type_symbol
 _atom_site_label
 _atom_site_symmetry_multiplicity
 _atom_site_fract_x
 _atom_site_fract_y
 _atom_site_fract_z
 _atom_site_occupancy
  Er  Er0  1  0.155956  0.750000  0.206516  1
  Er  Er1  1  0.344044  0.750000  0.706516  1
  Er  Er2  1  0.844044  0.250000  0.793484  1
  Er  Er3  1  0.655956  0.250000  0.293484  1
  Er  Er4  1  0.454632  0.750000  0.999574  1
  Er  Er5  1  0.045368  0.750000  0.499574  1
  Er  Er6  1  0.545368  0.250000  0.000426  1
  Er  Er7  1  0.954632  0.250000  0.500426  1
  Er  Er8  1  0.625407  0.750000  0.305387  1
  Er  Er9  1  0.874593  0.750000  0.805387  1
  Er  Er10  1  0.374593  0.250000  0.694613  1
  Er  Er11  1  0.125407  0.250000  0.194613  1
  Tm  Tm12  1  0.820992  0.539192  0.066326  1
  Tm  Tm13  1  0.679008  0.960808  0.566326  1
  Tm  Tm14  1  0.179008  0.039192  0.933674  1
  Tm  Tm15  1  0.320992  0.460808  0.433674  1
  Tm  Tm16  1  0.179008  0.460808  0.933674  1
  Tm  Tm17  1  0.320992  0.039192  0.433674  1
  Tm  Tm18  1  0.820992  0.960808  0.066326  1
  Tm  Tm19  1  0.679008  0.539192  0.566326  1
  Ni  Ni20  1  0.431244  0.750000  0.490272  1
  Ni  Ni21  1  0.068756  0.750000  0.990272  1
  Ni  Ni22  1  0.568756  0.250000  0.509728  1
  Ni  Ni23  1  0.931244  0.250000  0.009728  1
  Sb  Sb24  1  0.929724  0.508015  0.327630  1
  Sb  Sb25  1  0.570276  0.991985  0.827630  1
  Sb  Sb26  1  0.070276  0.008015  0.672370  1
  Sb  Sb27  1  0.429724  0.491985  0.172370  1
  Sb  Sb28  1  0.070276  0.491985  0.672370  1
  Sb  Sb29  1  0.429724  0.008015  0.172370  1
  Sb  Sb30  1  0.929724  0.991985  0.327630  1
  Sb  Sb31  1  0.570276  0.508015  0.827630  1
