# generated using pymatgen
data_Sm6AlRuI6
_symmetry_space_group_name_H-M   'P 1'
_cell_length_a   4.15571800
_cell_length_b   9.29593947
_cell_length_c   12.53555216
_cell_angle_alpha   85.86428143
_cell_angle_beta   90.00000000
_cell_angle_gamma   90.00000000
_symmetry_Int_Tables_number   1
_chemical_formula_structural   Sm6AlRuI6
_chemical_formula_sum   'Sm6 Al1 Ru1 I6'
_cell_volume   483.00369645
_cell_formula_units_Z   1
loop_
 _symmetry_equiv_pos_site_id
 _symmetry_equiv_pos_as_xyz
  1  'x, y, z'
loop_
 _atom_site_type_symbol
 _atom_site_label
 _atom_site_symmetry_multiplicity
 _atom_site_fract_x
 _atom_site_fract_y
 _atom_site_fract_z
 _atom_site_occupancy
  Sm  Sm0  1  0.750000  0.152249  0.138303  1
  Sm  Sm1  1  0.250000  0.829714  0.859686  1
  Sm  Sm2  1  0.750000  0.091043  0.678261  1
  Sm  Sm3  1  0.250000  0.907869  0.320994  1
  Sm  Sm4  1  0.250000  0.278282  0.896747  1
  Sm  Sm5  1  0.750000  0.757563  0.102735  1
  Al  Al6  1  0.750000  0.035545  0.923355  1
  Ru  Ru7  1  0.250000  0.959996  0.081159  1
  I  I8  1  0.250000  0.343149  0.644518  1
  I  I9  1  0.750000  0.651604  0.360063  1
  I  I10  1  0.750000  0.145436  0.402442  1
  I  I11  1  0.250000  0.851697  0.607206  1
  I  I12  1  0.250000  0.431805  0.126566  1
  I  I13  1  0.750000  0.564049  0.857967  1
