# generated using pymatgen
data_Ho8Er12Si15P
_symmetry_space_group_name_H-M   'P 1'
_cell_length_a   7.40626202
_cell_length_b   7.59367937
_cell_length_c   14.47571431
_cell_angle_alpha   89.79264836
_cell_angle_beta   86.87308187
_cell_angle_gamma   90.01866022
_symmetry_Int_Tables_number   1
_chemical_formula_structural   Ho8Er12Si15P
_chemical_formula_sum   'Ho8 Er12 Si15 P1'
_cell_volume   812.90790879
_cell_formula_units_Z   1
loop_
 _symmetry_equiv_pos_site_id
 _symmetry_equiv_pos_as_xyz
  1  'x, y, z'
loop_
 _atom_site_type_symbol
 _atom_site_label
 _atom_site_symmetry_multiplicity
 _atom_site_fract_x
 _atom_site_fract_y
 _atom_site_fract_z
 _atom_site_occupancy
  Ho  Ho0  1  0.021167  0.183072  0.099525  1
  Ho  Ho1  1  0.979347  0.817658  0.899801  1
  Ho  Ho2  1  0.480019  0.682377  0.900528  1
  Ho  Ho3  1  0.998573  0.819194  0.597598  1
  Ho  Ho4  1  0.520360  0.318554  0.099081  1
  Ho  Ho5  1  0.998334  0.176929  0.401164  1
  Ho  Ho6  1  0.498594  0.317132  0.401850  1
  Ho  Ho7  1  0.501065  0.679822  0.597349  1
  Er  Er8  1  0.169681  0.507524  0.747237  1
  Er  Er9  1  0.830569  0.493242  0.254337  1
  Er  Er10  1  0.329078  0.006720  0.253887  1
  Er  Er11  1  0.670424  0.992864  0.746007  1
  Er  Er12  1  0.351301  0.171585  0.620620  1
  Er  Er13  1  0.647895  0.832291  0.378370  1
  Er  Er14  1  0.148984  0.661932  0.384558  1
  Er  Er15  1  0.671189  0.821507  0.123194  1
  Er  Er16  1  0.855502  0.333767  0.618047  1
  Er  Er17  1  0.328890  0.178468  0.876264  1
  Er  Er18  1  0.829191  0.321545  0.876526  1
  Er  Er19  1  0.170843  0.678922  0.122726  1
  Si  Si20  1  0.043559  0.108574  0.750138  1
  Si  Si21  1  0.956938  0.890702  0.249216  1
  Si  Si22  1  0.454649  0.607786  0.249503  1
  Si  Si23  1  0.544995  0.392033  0.749799  1
  Si  Si24  1  0.287613  0.870873  0.750975  1
  Si  Si25  1  0.713367  0.129183  0.247998  1
  Si  Si26  1  0.213014  0.371529  0.248882  1
  Si  Si27  1  0.787856  0.628731  0.750844  1
  Si  Si28  1  0.793515  0.534414  0.457063  1
  Si  Si29  1  0.301564  0.963787  0.459217  1
  Si  Si30  1  0.849878  0.530147  0.040205  1
  Si  Si31  1  0.696074  0.036570  0.541680  1
  Si  Si32  1  0.150070  0.470979  0.958973  1
  Si  Si33  1  0.649228  0.029644  0.958887  1
  Si  Si34  1  0.350920  0.971304  0.040947  1
  P  P35  1  0.205759  0.468635  0.547004  1
