# generated using pymatgen
data_YbPrEu2(YSe2)8
_symmetry_space_group_name_H-M   'P 1'
_cell_length_a   4.08362800
_cell_length_b   13.58764744
_cell_length_c   13.87328575
_cell_angle_alpha   89.94688449
_cell_angle_beta   90.00000000
_cell_angle_gamma   90.00000000
_symmetry_Int_Tables_number   1
_chemical_formula_structural   YbPrEu2(YSe2)8
_chemical_formula_sum   'Yb1 Pr1 Eu2 Y8 Se16'
_cell_volume   769.78525385
_cell_formula_units_Z   1
loop_
 _symmetry_equiv_pos_site_id
 _symmetry_equiv_pos_as_xyz
  1  'x, y, z'
loop_
 _atom_site_type_symbol
 _atom_site_label
 _atom_site_symmetry_multiplicity
 _atom_site_fract_x
 _atom_site_fract_y
 _atom_site_fract_z
 _atom_site_occupancy
  Yb  Yb0  1  0.750000  0.131209  0.082003  1
  Pr  Pr1  1  0.750000  0.631260  0.414922  1
  Eu  Eu2  1  0.250000  0.365931  0.585318  1
  Eu  Eu3  1  0.250000  0.868850  0.915671  1
  Y  Y4  1  0.250000  0.105537  0.415860  1
  Y  Y5  1  0.250000  0.605390  0.081053  1
  Y  Y6  1  0.750000  0.894861  0.581460  1
  Y  Y7  1  0.750000  0.391826  0.919898  1
  Y  Y8  1  0.250000  0.148700  0.800479  1
  Y  Y9  1  0.250000  0.649336  0.702799  1
  Y  Y10  1  0.750000  0.855026  0.198852  1
  Y  Y11  1  0.750000  0.349141  0.297973  1
  Se  Se12  1  0.250000  0.213139  0.234899  1
  Se  Se13  1  0.250000  0.716000  0.264064  1
  Se  Se14  1  0.750000  0.784909  0.761549  1
  Se  Se15  1  0.750000  0.285788  0.738951  1
  Se  Se16  1  0.250000  0.256725  0.977825  1
  Se  Se17  1  0.250000  0.757682  0.524457  1
  Se  Se18  1  0.750000  0.740890  0.026194  1
  Se  Se19  1  0.750000  0.240731  0.474039  1
  Se  Se20  1  0.250000  0.469775  0.382105  1
  Se  Se21  1  0.250000  0.972895  0.117316  1
  Se  Se22  1  0.750000  0.532816  0.614496  1
  Se  Se23  1  0.750000  0.032898  0.886244  1
  Se  Se24  1  0.250000  0.037219  0.619058  1
  Se  Se25  1  0.250000  0.535374  0.881080  1
  Se  Se26  1  0.750000  0.962150  0.381464  1
  Se  Se27  1  0.750000  0.463943  0.119968  1
