# generated using pymatgen
data_PrNd(ZnPb)2
_symmetry_space_group_name_H-M   'P 1'
_cell_length_a   4.69157600
_cell_length_b   4.69157463
_cell_length_c   16.69966800
_cell_angle_alpha   90.00000000
_cell_angle_beta   90.00000000
_cell_angle_gamma   119.99999553
_symmetry_Int_Tables_number   1
_chemical_formula_structural   PrNd(ZnPb)2
_chemical_formula_sum   'Pr2 Nd2 Zn4 Pb4'
_cell_volume   318.32875737
_cell_formula_units_Z   2
loop_
 _symmetry_equiv_pos_site_id
 _symmetry_equiv_pos_as_xyz
  1  'x, y, z'
loop_
 _atom_site_type_symbol
 _atom_site_label
 _atom_site_symmetry_multiplicity
 _atom_site_fract_x
 _atom_site_fract_y
 _atom_site_fract_z
 _atom_site_occupancy
  Pr  Pr0  1  0.000000  0.000000  0.000000  1
  Pr  Pr1  1  0.000000  0.000000  0.500000  1
  Nd  Nd2  1  0.000000  0.000000  0.250000  1
  Nd  Nd3  1  0.000000  0.000000  0.750000  1
  Zn  Zn4  1  0.333334  0.666668  0.163069  1
  Zn  Zn5  1  0.333334  0.666668  0.336931  1
  Zn  Zn6  1  0.666668  0.333334  0.663069  1
  Zn  Zn7  1  0.666668  0.333334  0.836931  1
  Pb  Pb8  1  0.666668  0.333334  0.113226  1
  Pb  Pb9  1  0.666668  0.333334  0.386774  1
  Pb  Pb10  1  0.333334  0.666668  0.613226  1
  Pb  Pb11  1  0.333334  0.666668  0.886774  1
