# generated using pymatgen
data_PrPa(Tl2Te3)2
_symmetry_space_group_name_H-M   'P 1'
_cell_length_a   8.11983437
_cell_length_b   8.11983415
_cell_length_c   8.77285100
_cell_angle_alpha   80.98869702
_cell_angle_beta   80.98869726
_cell_angle_gamma   120.02230064
_symmetry_Int_Tables_number   1
_chemical_formula_structural   PrPa(Tl2Te3)2
_chemical_formula_sum   'Pr1 Pa1 Tl4 Te6'
_cell_volume   475.58032491
_cell_formula_units_Z   1
loop_
 _symmetry_equiv_pos_site_id
 _symmetry_equiv_pos_as_xyz
  1  'x, y, z'
loop_
 _atom_site_type_symbol
 _atom_site_label
 _atom_site_symmetry_multiplicity
 _atom_site_fract_x
 _atom_site_fract_y
 _atom_site_fract_z
 _atom_site_occupancy
  Pr  Pr0  1  0.832376  0.167624  0.000000  1
  Pa  Pa1  1  0.167513  0.832487  0.000000  1
  Tl  Tl2  1  0.500011  0.499989  0.000000  1
  Tl  Tl3  1  0.656881  0.343119  0.500000  1
  Tl  Tl4  1  0.342045  0.657955  0.500000  1
  Tl  Tl5  1  0.001344  0.998656  0.500000  1
  Te  Te6  1  0.804957  0.786610  0.210827  1
  Te  Te7  1  0.213390  0.195043  0.789173  1
  Te  Te8  1  0.406721  0.047697  0.219817  1
  Te  Te9  1  0.555798  0.933340  0.781956  1
  Te  Te10  1  0.952303  0.593279  0.780183  1
  Te  Te11  1  0.066660  0.444202  0.218044  1
