# generated using pymatgen
data_Lu3ZnSn3IrPt
_symmetry_space_group_name_H-M   'P 1'
_cell_length_a   7.37771100
_cell_length_b   7.37771235
_cell_length_c   4.06121400
_cell_angle_alpha   90.00000000
_cell_angle_beta   90.00000000
_cell_angle_gamma   119.99998944
_symmetry_Int_Tables_number   1
_chemical_formula_structural   Lu3ZnSn3IrPt
_chemical_formula_sum   'Lu3 Zn1 Sn3 Ir1 Pt1'
_cell_volume   191.43877662
_cell_formula_units_Z   1
loop_
 _symmetry_equiv_pos_site_id
 _symmetry_equiv_pos_as_xyz
  1  'x, y, z'
loop_
 _atom_site_type_symbol
 _atom_site_label
 _atom_site_symmetry_multiplicity
 _atom_site_fract_x
 _atom_site_fract_y
 _atom_site_fract_z
 _atom_site_occupancy
  Lu  Lu0  1  0.985622  0.390292  0.500000  1
  Lu  Lu1  1  0.609708  0.595330  0.500000  1
  Lu  Lu2  1  0.404670  0.014378  0.500000  1
  Zn  Zn3  1  0.333333  0.666667  0.000000  1
  Sn  Sn4  1  0.007735  0.746141  0.000000  1
  Sn  Sn5  1  0.253859  0.261594  0.000000  1
  Sn  Sn6  1  0.738406  0.992265  0.000000  1
  Ir  Ir7  1  0.000000  0.000000  0.500000  1
  Pt  Pt8  1  0.666667  0.333333  0.000000  1
