# generated using pymatgen
data_TbErTmTaO7
_symmetry_space_group_name_H-M   'P 1'
_cell_length_a   6.44546937
_cell_length_b   6.44546878
_cell_length_c   7.45351329
_cell_angle_alpha   90.02068926
_cell_angle_beta   90.02067461
_cell_angle_gamma   108.71473629
_symmetry_Int_Tables_number   1
_chemical_formula_structural   TbErTmTaO7
_chemical_formula_sum   'Tb2 Er2 Tm2 Ta2 O14'
_cell_volume   293.27738994
_cell_formula_units_Z   2
loop_
 _symmetry_equiv_pos_site_id
 _symmetry_equiv_pos_as_xyz
  1  'x, y, z'
loop_
 _atom_site_type_symbol
 _atom_site_label
 _atom_site_symmetry_multiplicity
 _atom_site_fract_x
 _atom_site_fract_y
 _atom_site_fract_z
 _atom_site_occupancy
  Tb  Tb0  1  0.531930  0.531777  0.500319  1
  Tb  Tb1  1  0.468223  0.468070  0.999681  1
  Er  Er2  1  0.465382  0.999477  0.257743  1
  Er  Er3  1  0.000523  0.534618  0.242257  1
  Tm  Tm4  1  0.998763  0.465843  0.742766  1
  Tm  Tm5  1  0.534157  0.001237  0.757234  1
  Ta  Ta6  1  0.003377  0.003355  0.500336  1
  Ta  Ta7  1  0.996645  0.996623  0.999664  1
  O  O8  1  0.070119  0.929881  0.250000  1
  O  O9  1  0.051724  0.311195  0.456977  1
  O  O10  1  0.080739  0.328816  0.025239  1
  O  O11  1  0.359039  0.640961  0.250000  1
  O  O12  1  0.367368  0.632632  0.750000  1
  O  O13  1  0.329109  0.080055  0.973081  1
  O  O14  1  0.312707  0.054653  0.543739  1
  O  O15  1  0.688805  0.948276  0.043023  1
  O  O16  1  0.671184  0.919261  0.474761  1
  O  O17  1  0.631364  0.368636  0.250000  1
  O  O18  1  0.642773  0.357227  0.750000  1
  O  O19  1  0.919945  0.670891  0.526919  1
  O  O20  1  0.945347  0.687293  0.956261  1
  O  O21  1  0.930777  0.069223  0.750000  1
