# generated using pymatgen
data_Sm8SnPd17Pt7
_symmetry_space_group_name_H-M   'P 1'
_cell_length_a   8.49667500
_cell_length_b   8.49867400
_cell_length_c   8.49578800
_cell_angle_alpha   90.00000000
_cell_angle_beta   90.00000000
_cell_angle_gamma   90.00000000
_symmetry_Int_Tables_number   1
_chemical_formula_structural   Sm8SnPd17Pt7
_chemical_formula_sum   'Sm8 Sn1 Pd17 Pt7'
_cell_volume   613.48485222
_cell_formula_units_Z   1
loop_
 _symmetry_equiv_pos_site_id
 _symmetry_equiv_pos_as_xyz
  1  'x, y, z'
loop_
 _atom_site_type_symbol
 _atom_site_label
 _atom_site_symmetry_multiplicity
 _atom_site_fract_x
 _atom_site_fract_y
 _atom_site_fract_z
 _atom_site_occupancy
  Sm  Sm0  1  0.252580  0.253023  0.252647  1
  Sm  Sm1  1  0.747493  0.747278  0.747568  1
  Sm  Sm2  1  0.747493  0.747278  0.252432  1
  Sm  Sm3  1  0.747493  0.252722  0.747568  1
  Sm  Sm4  1  0.252580  0.253023  0.747353  1
  Sm  Sm5  1  0.252580  0.746977  0.252647  1
  Sm  Sm6  1  0.252580  0.746977  0.747353  1
  Sm  Sm7  1  0.747493  0.252722  0.252432  1
  Sn  Sn8  1  0.999943  0.000000  0.000000  1
  Pd  Pd9  1  0.500091  0.000000  0.265621  1
  Pd  Pd10  1  0.265688  0.000000  0.500000  1
  Pd  Pd11  1  0.500091  0.000000  0.734379  1
  Pd  Pd12  1  0.734217  0.000000  0.500000  1
  Pd  Pd13  1  0.999977  0.500000  0.265372  1
  Pd  Pd14  1  0.999977  0.500000  0.734628  1
  Pd  Pd15  1  0.745639  0.500000  0.500000  1
  Pd  Pd16  1  0.499879  0.254636  0.500000  1
  Pd  Pd17  1  0.499879  0.745364  0.500000  1
  Pd  Pd18  1  0.499933  0.500000  0.254852  1
  Pd  Pd19  1  0.499933  0.500000  0.745148  1
  Pd  Pd20  1  0.310246  0.000000  0.000000  1
  Pd  Pd21  1  0.689946  0.000000  0.000000  1
  Pd  Pd22  1  0.999956  0.310076  0.000000  1
  Pd  Pd23  1  0.999956  0.689924  0.000000  1
  Pd  Pd24  1  0.999911  0.000000  0.309979  1
  Pd  Pd25  1  0.999911  0.000000  0.690021  1
  Pt  Pt26  1  0.264779  0.500000  0.000000  1
  Pt  Pt27  1  0.735051  0.500000  0.000000  1
  Pt  Pt28  1  0.000142  0.264909  0.500000  1
  Pt  Pt29  1  0.500087  0.264640  0.000000  1
  Pt  Pt30  1  0.000142  0.735091  0.500000  1
  Pt  Pt31  1  0.500087  0.735360  0.000000  1
  Pt  Pt32  1  0.254247  0.500000  0.500000  1
