# generated using pymatgen
data_Y20Cd6FePd
_symmetry_space_group_name_H-M   'P 1'
_cell_length_a   9.67429600
_cell_length_b   9.67429591
_cell_length_c   9.80620400
_cell_angle_alpha   90.00000000
_cell_angle_beta   90.00000000
_cell_angle_gamma   120.00000030
_symmetry_Int_Tables_number   1
_chemical_formula_structural   Y20Cd6FePd
_chemical_formula_sum   'Y20 Cd6 Fe1 Pd1'
_cell_volume   794.82275594
_cell_formula_units_Z   1
loop_
 _symmetry_equiv_pos_site_id
 _symmetry_equiv_pos_as_xyz
  1  'x, y, z'
loop_
 _atom_site_type_symbol
 _atom_site_label
 _atom_site_symmetry_multiplicity
 _atom_site_fract_x
 _atom_site_fract_y
 _atom_site_fract_z
 _atom_site_occupancy
  Y  Y0  1  0.212137  0.787863  0.935462  1
  Y  Y1  1  0.212137  0.424273  0.935462  1
  Y  Y2  1  0.575727  0.787863  0.935462  1
  Y  Y3  1  0.792504  0.207496  0.058217  1
  Y  Y4  1  0.792504  0.585009  0.058217  1
  Y  Y5  1  0.414991  0.207496  0.058217  1
  Y  Y6  1  0.792504  0.207496  0.441783  1
  Y  Y7  1  0.792504  0.585009  0.441783  1
  Y  Y8  1  0.414991  0.207496  0.441783  1
  Y  Y9  1  0.212137  0.787863  0.564538  1
  Y  Y10  1  0.212137  0.424273  0.564538  1
  Y  Y11  1  0.575727  0.787863  0.564538  1
  Y  Y12  1  0.540947  0.459053  0.750000  1
  Y  Y13  1  0.540947  0.081893  0.750000  1
  Y  Y14  1  0.918107  0.459053  0.750000  1
  Y  Y15  1  0.456451  0.543549  0.250000  1
  Y  Y16  1  0.456451  0.912902  0.250000  1
  Y  Y17  1  0.087098  0.543549  0.250000  1
  Y  Y18  1  0.000000  0.000000  0.000904  1
  Y  Y19  1  0.000000  0.000000  0.499096  1
  Cd  Cd20  1  0.884773  0.115227  0.750000  1
  Cd  Cd21  1  0.884773  0.769547  0.750000  1
  Cd  Cd22  1  0.230453  0.115227  0.750000  1
  Cd  Cd23  1  0.115637  0.884363  0.250000  1
  Cd  Cd24  1  0.115637  0.231272  0.250000  1
  Cd  Cd25  1  0.768728  0.884363  0.250000  1
  Fe  Fe26  1  0.333333  0.666667  0.750000  1
  Pd  Pd27  1  0.666667  0.333333  0.250000  1
