# generated using pymatgen
data_Ho8Zr11TiSi15As
_symmetry_space_group_name_H-M   'P 1'
_cell_length_a   7.32420086
_cell_length_b   7.31236539
_cell_length_c   13.45689603
_cell_angle_alpha   90.04409116
_cell_angle_beta   89.61080989
_cell_angle_gamma   89.95787002
_symmetry_Int_Tables_number   1
_chemical_formula_structural   Ho8Zr11TiSi15As
_chemical_formula_sum   'Ho8 Zr11 Ti1 Si15 As1'
_cell_volume   720.69707653
_cell_formula_units_Z   1
loop_
 _symmetry_equiv_pos_site_id
 _symmetry_equiv_pos_as_xyz
  1  'x, y, z'
loop_
 _atom_site_type_symbol
 _atom_site_label
 _atom_site_symmetry_multiplicity
 _atom_site_fract_x
 _atom_site_fract_y
 _atom_site_fract_z
 _atom_site_occupancy
  Ho  Ho0  1  0.345758  0.002826  0.465163  1
  Ho  Ho1  1  0.496357  0.847027  0.714771  1
  Ho  Ho2  1  0.503521  0.153699  0.213995  1
  Ho  Ho3  1  0.846184  0.496862  0.287298  1
  Ho  Ho4  1  0.153232  0.503047  0.784499  1
  Ho  Ho5  1  0.657579  0.993163  0.963863  1
  Ho  Ho6  1  0.999849  0.347932  0.534304  1
  Ho  Ho7  1  0.998003  0.653687  0.036113  1
  Zr  Zr8  1  0.324720  0.324423  0.999617  1
  Zr  Zr9  1  0.175409  0.824908  0.250919  1
  Zr  Zr10  1  0.824620  0.173828  0.748563  1
  Zr  Zr11  1  0.674789  0.677156  0.501354  1
  Zr  Zr12  1  0.150426  0.004676  0.873376  1
  Zr  Zr13  1  0.497208  0.646898  0.124550  1
  Zr  Zr14  1  0.503355  0.353038  0.626799  1
  Zr  Zr15  1  0.651305  0.500045  0.875145  1
  Zr  Zr16  1  0.350650  0.504489  0.376947  1
  Zr  Zr17  1  0.851638  0.998475  0.374735  1
  Zr  Zr18  1  0.003550  0.146564  0.125242  1
  Ti  Ti19  1  0.987828  0.848589  0.623115  1
  Si  Si20  1  0.359850  0.705820  0.931954  1
  Si  Si21  1  0.637826  0.294528  0.434287  1
  Si  Si22  1  0.707269  0.359998  0.067203  1
  Si  Si23  1  0.287181  0.641827  0.570314  1
  Si  Si24  1  0.793700  0.859558  0.183540  1
  Si  Si25  1  0.140575  0.206650  0.317892  1
  Si  Si26  1  0.863551  0.796701  0.811904  1
  Si  Si27  1  0.296984  0.948662  0.062381  1
  Si  Si28  1  0.550357  0.796138  0.313333  1
  Si  Si29  1  0.460561  0.204944  0.818235  1
  Si  Si30  1  0.798510  0.554133  0.685274  1
  Si  Si31  1  0.204025  0.449121  0.188099  1
  Si  Si32  1  0.706961  0.047606  0.563870  1
  Si  Si33  1  0.951144  0.296329  0.936355  1
  Si  Si34  1  0.049139  0.708211  0.440679  1
  As  As35  1  0.196389  0.128444  0.674311  1
