# generated using pymatgen
data_SrPr5NdCoI12
_symmetry_space_group_name_H-M   'P 1'
_cell_length_a   9.99689295
_cell_length_b   10.10474553
_cell_length_c   10.09773538
_cell_angle_alpha   106.38959931
_cell_angle_beta   106.46404285
_cell_angle_gamma   106.05976731
_symmetry_Int_Tables_number   1
_chemical_formula_structural   SrPr5NdCoI12
_chemical_formula_sum   'Sr1 Pr5 Nd1 Co1 I12'
_cell_volume   865.09594187
_cell_formula_units_Z   1
loop_
 _symmetry_equiv_pos_site_id
 _symmetry_equiv_pos_as_xyz
  1  'x, y, z'
loop_
 _atom_site_type_symbol
 _atom_site_label
 _atom_site_symmetry_multiplicity
 _atom_site_fract_x
 _atom_site_fract_y
 _atom_site_fract_z
 _atom_site_occupancy
  Sr  Sr0  1  0.500416  0.500093  0.499922  1
  Pr  Pr1  1  0.020114  0.097149  0.301952  1
  Pr  Pr2  1  0.096013  0.300036  0.020831  1
  Pr  Pr3  1  0.285726  0.019381  0.091527  1
  Pr  Pr4  1  0.903899  0.699934  0.979443  1
  Pr  Pr5  1  0.714023  0.980317  0.907560  1
  Nd  Nd6  1  0.979735  0.903224  0.700151  1
  Co  Co7  1  0.999833  0.999965  0.000017  1
  I  I8  1  0.546617  0.629765  0.854633  1
  I  I9  1  0.453213  0.370222  0.144983  1
  I  I10  1  0.320739  0.927313  0.775061  1
  I  I11  1  0.372766  0.144381  0.451894  1
  I  I12  1  0.926580  0.774994  0.322353  1
  I  I13  1  0.676487  0.071994  0.222882  1
  I  I14  1  0.072886  0.223048  0.678630  1
  I  I15  1  0.772757  0.320758  0.925593  1
  I  I16  1  0.227146  0.679223  0.074154  1
  I  I17  1  0.858659  0.549707  0.629368  1
  I  I18  1  0.142807  0.452594  0.370967  1
  I  I19  1  0.629586  0.855901  0.548078  1
