# generated using pymatgen
data_TbThNi2Hg
_symmetry_space_group_name_H-M   'P 1'
_cell_length_a   7.51789367
_cell_length_b   7.51789371
_cell_length_c   3.67002700
_cell_angle_alpha   90.00000000
_cell_angle_beta   90.00000000
_cell_angle_gamma   92.76695725
_symmetry_Int_Tables_number   1
_chemical_formula_structural   TbThNi2Hg
_chemical_formula_sum   'Tb2 Th2 Ni4 Hg2'
_cell_volume   207.18342050
_cell_formula_units_Z   2
loop_
 _symmetry_equiv_pos_site_id
 _symmetry_equiv_pos_as_xyz
  1  'x, y, z'
loop_
 _atom_site_type_symbol
 _atom_site_label
 _atom_site_symmetry_multiplicity
 _atom_site_fract_x
 _atom_site_fract_y
 _atom_site_fract_z
 _atom_site_occupancy
  Tb  Tb0  1  0.173413  0.326587  0.500000  1
  Tb  Tb1  1  0.826587  0.673413  0.500000  1
  Th  Th2  1  0.676284  0.176284  0.500000  1
  Th  Th3  1  0.323716  0.823716  0.500000  1
  Ni  Ni4  1  0.121913  0.621913  0.000000  1
  Ni  Ni5  1  0.878087  0.378087  0.000000  1
  Ni  Ni6  1  0.617615  0.882385  0.000000  1
  Ni  Ni7  1  0.382385  0.117615  0.000000  1
  Hg  Hg8  1  0.000000  0.000000  0.000000  1
  Hg  Hg9  1  0.500000  0.500000  0.000000  1
