# generated using pymatgen
data_Ba4Dy(ReO6)2
_symmetry_space_group_name_H-M   'P 1'
_cell_length_a   10.13967081
_cell_length_b   10.13967130
_cell_length_c   10.13967168
_cell_angle_alpha   33.81253718
_cell_angle_beta   33.81253164
_cell_angle_gamma   33.81253951
_symmetry_Int_Tables_number   1
_chemical_formula_structural   Ba4Dy(ReO6)2
_chemical_formula_sum   'Ba4 Dy1 Re2 O12'
_cell_volume   287.66866729
_cell_formula_units_Z   1
loop_
 _symmetry_equiv_pos_site_id
 _symmetry_equiv_pos_as_xyz
  1  'x, y, z'
loop_
 _atom_site_type_symbol
 _atom_site_label
 _atom_site_symmetry_multiplicity
 _atom_site_fract_x
 _atom_site_fract_y
 _atom_site_fract_z
 _atom_site_occupancy
  Ba  Ba0  1  0.711543  0.711543  0.711543  1
  Ba  Ba1  1  0.288457  0.288457  0.288457  1
  Ba  Ba2  1  0.866081  0.866081  0.866081  1
  Ba  Ba3  1  0.133919  0.133919  0.133919  1
  Dy  Dy4  1  0.000000  0.000000  0.000000  1
  Re  Re5  1  0.578837  0.578837  0.578837  1
  Re  Re6  1  0.421163  0.421163  0.421163  1
  O  O7  1  0.224272  0.686342  0.224272  1
  O  O8  1  0.224272  0.224272  0.686342  1
  O  O9  1  0.686342  0.224272  0.224272  1
  O  O10  1  0.775728  0.313658  0.775728  1
  O  O11  1  0.775728  0.775728  0.313658  1
  O  O12  1  0.313658  0.775728  0.775728  1
  O  O13  1  0.388759  0.858651  0.388759  1
  O  O14  1  0.388759  0.388759  0.858651  1
  O  O15  1  0.858651  0.388759  0.388759  1
  O  O16  1  0.611241  0.141349  0.611241  1
  O  O17  1  0.611241  0.611241  0.141349  1
  O  O18  1  0.141349  0.611241  0.611241  1
