# generated using pymatgen
data_Cs4Li2YTmSb4
_symmetry_space_group_name_H-M   'P 1'
_cell_length_a   11.56378587
_cell_length_b   11.56378044
_cell_length_c   7.34302200
_cell_angle_alpha   90.00000000
_cell_angle_beta   90.00000000
_cell_angle_gamma   101.11686231
_symmetry_Int_Tables_number   1
_chemical_formula_structural   Cs4Li2YTmSb4
_chemical_formula_sum   'Cs8 Li4 Y2 Tm2 Sb8'
_cell_volume   963.49211388
_cell_formula_units_Z   2
loop_
 _symmetry_equiv_pos_site_id
 _symmetry_equiv_pos_as_xyz
  1  'x, y, z'
loop_
 _atom_site_type_symbol
 _atom_site_label
 _atom_site_symmetry_multiplicity
 _atom_site_fract_x
 _atom_site_fract_y
 _atom_site_fract_z
 _atom_site_occupancy
  Cs  Cs0  1  0.571698  0.928302  0.750000  1
  Cs  Cs1  1  0.928302  0.571698  0.250000  1
  Cs  Cs2  1  0.427641  0.072359  0.250000  1
  Cs  Cs3  1  0.072359  0.427641  0.750000  1
  Cs  Cs4  1  0.674162  0.322976  0.778447  1
  Cs  Cs5  1  0.825838  0.177024  0.278447  1
  Cs  Cs6  1  0.322976  0.674162  0.221553  1
  Cs  Cs7  1  0.177024  0.825838  0.721553  1
  Li  Li8  1  0.620296  0.620297  0.000000  1
  Li  Li9  1  0.879704  0.879703  0.500000  1
  Li  Li10  1  0.377449  0.377449  0.000000  1
  Li  Li11  1  0.122551  0.122551  0.500000  1
  Y  Y12  1  0.870447  0.870447  0.000000  1
  Y  Y13  1  0.629553  0.629553  0.500000  1
  Tm  Tm14  1  0.130421  0.130421  0.000000  1
  Tm  Tm15  1  0.369579  0.369579  0.500000  1
  Sb  Sb16  1  0.338599  0.161400  0.750000  1
  Sb  Sb17  1  0.161401  0.338600  0.250000  1
  Sb  Sb18  1  0.659889  0.840111  0.250000  1
  Sb  Sb19  1  0.840111  0.659889  0.750000  1
  Sb  Sb20  1  0.913804  0.089550  0.762306  1
  Sb  Sb21  1  0.586196  0.410450  0.262306  1
  Sb  Sb22  1  0.089550  0.913804  0.237694  1
  Sb  Sb23  1  0.410450  0.586196  0.737694  1
