# generated using pymatgen
data_Sm3Fe2Sb3O14
_symmetry_space_group_name_H-M   'P 1'
_cell_length_a   7.28021386
_cell_length_b   7.27284201
_cell_length_c   7.25485545
_cell_angle_alpha   117.63322578
_cell_angle_beta   62.42399593
_cell_angle_gamma   117.47143093
_symmetry_Int_Tables_number   1
_chemical_formula_structural   Sm3Fe2Sb3O14
_chemical_formula_sum   'Sm3 Fe2 Sb3 O14'
_cell_volume   286.39405567
_cell_formula_units_Z   1
loop_
 _symmetry_equiv_pos_site_id
 _symmetry_equiv_pos_as_xyz
  1  'x, y, z'
loop_
 _atom_site_type_symbol
 _atom_site_label
 _atom_site_symmetry_multiplicity
 _atom_site_fract_x
 _atom_site_fract_y
 _atom_site_fract_z
 _atom_site_occupancy
  Sm  Sm0  1  0.999992  0.499994  0.999997  1
  Sm  Sm1  1  0.500005  0.000004  0.000001  1
  Sm  Sm2  1  0.499994  0.499995  0.499989  1
  Fe  Fe3  1  0.499936  0.500004  0.000010  1
  Fe  Fe4  1  0.000062  0.000053  0.500009  1
  Sb  Sb5  1  0.499990  0.999998  0.499983  1
  Sb  Sb6  1  0.000019  0.499985  0.500015  1
  Sb  Sb7  1  0.999994  0.999996  0.999999  1
  O  O8  1  0.615632  0.385137  0.113353  1
  O  O9  1  0.384351  0.614868  0.886624  1
  O  O10  1  0.074535  0.320212  0.178837  1
  O  O11  1  0.679455  0.923492  0.178141  1
  O  O12  1  0.677992  0.322375  0.582256  1
  O  O13  1  0.925453  0.679770  0.821170  1
  O  O14  1  0.320547  0.076486  0.821853  1
  O  O15  1  0.322004  0.677622  0.417766  1
  O  O16  1  0.647072  0.905055  0.593397  1
  O  O17  1  0.095004  0.352631  0.593114  1
  O  O18  1  0.093462  0.906884  0.149240  1
  O  O19  1  0.352973  0.094946  0.406592  1
  O  O20  1  0.904989  0.647386  0.406883  1
  O  O21  1  0.906539  0.093111  0.850769  1
