# generated using pymatgen
data_Sr6GdLu(BO3)6
_symmetry_space_group_name_H-M   'P 1'
_cell_length_a   7.91341849
_cell_length_b   7.91341709
_cell_length_c   7.91341692
_cell_angle_alpha   105.04976787
_cell_angle_beta   105.04976888
_cell_angle_gamma   105.04976851
_symmetry_Int_Tables_number   1
_chemical_formula_structural   Sr6GdLu(BO3)6
_chemical_formula_sum   'Sr6 Gd1 Lu1 B6 O18'
_cell_volume   432.78752601
_cell_formula_units_Z   1
loop_
 _symmetry_equiv_pos_site_id
 _symmetry_equiv_pos_as_xyz
  1  'x, y, z'
loop_
 _atom_site_type_symbol
 _atom_site_label
 _atom_site_symmetry_multiplicity
 _atom_site_fract_x
 _atom_site_fract_y
 _atom_site_fract_z
 _atom_site_occupancy
  Sr  Sr0  1  0.361439  0.734634  0.858280  1
  Sr  Sr1  1  0.858280  0.361439  0.734634  1
  Sr  Sr2  1  0.734634  0.858280  0.361439  1
  Sr  Sr3  1  0.638561  0.265366  0.141720  1
  Sr  Sr4  1  0.141720  0.638561  0.265366  1
  Sr  Sr5  1  0.265366  0.141720  0.638561  1
  Gd  Gd6  1  0.000000  0.000000  0.000000  1
  Lu  Lu7  1  0.500000  0.500000  0.500000  1
  B  B8  1  0.706270  0.610789  0.957591  1
  B  B9  1  0.957591  0.706270  0.610789  1
  B  B10  1  0.610789  0.957591  0.706270  1
  B  B11  1  0.042409  0.293730  0.389211  1
  B  B12  1  0.389211  0.042409  0.293730  1
  B  B13  1  0.293730  0.389211  0.042409  1
  O  O14  1  0.045398  0.810068  0.522991  1
  O  O15  1  0.522991  0.045398  0.810068  1
  O  O16  1  0.441424  0.493334  0.212094  1
  O  O17  1  0.493334  0.212094  0.441424  1
  O  O18  1  0.212094  0.441424  0.493334  1
  O  O19  1  0.787906  0.558576  0.506666  1
  O  O20  1  0.558576  0.506666  0.787906  1
  O  O21  1  0.506666  0.787906  0.558576  1
  O  O22  1  0.257995  0.197969  0.968513  1
  O  O23  1  0.197969  0.968513  0.257995  1
  O  O24  1  0.968513  0.257995  0.197969  1
  O  O25  1  0.742005  0.802031  0.031487  1
  O  O26  1  0.802031  0.031487  0.742005  1
  O  O27  1  0.031487  0.742005  0.802031  1
  O  O28  1  0.189932  0.477009  0.954602  1
  O  O29  1  0.477009  0.954602  0.189932  1
  O  O30  1  0.954602  0.189932  0.477009  1
  O  O31  1  0.810068  0.522991  0.045398  1
