# generated using pymatgen
data_HoErCBr
_symmetry_space_group_name_H-M   'P 1'
_cell_length_a   3.66897300
_cell_length_b   3.66897204
_cell_length_c   14.05583700
_cell_angle_alpha   90.00000000
_cell_angle_beta   90.00000000
_cell_angle_gamma   119.99999967
_symmetry_Int_Tables_number   1
_chemical_formula_structural   HoErCBr
_chemical_formula_sum   'Ho2 Er2 C2 Br2'
_cell_volume   163.86124975
_cell_formula_units_Z   2
loop_
 _symmetry_equiv_pos_site_id
 _symmetry_equiv_pos_as_xyz
  1  'x, y, z'
loop_
 _atom_site_type_symbol
 _atom_site_label
 _atom_site_symmetry_multiplicity
 _atom_site_fract_x
 _atom_site_fract_y
 _atom_site_fract_z
 _atom_site_occupancy
  Ho  Ho0  1  0.666667  0.333333  0.910660  1
  Ho  Ho1  1  0.333333  0.666667  0.410660  1
  Er  Er2  1  0.333333  0.666667  0.089380  1
  Er  Er3  1  0.666667  0.333333  0.589380  1
  C  C4  1  0.000000  0.000000  0.001369  1
  C  C5  1  0.000000  0.000000  0.501369  1
  Br  Br6  1  0.333333  0.666667  0.748590  1
  Br  Br7  1  0.666667  0.333333  0.248590  1
