# generated using pymatgen
data_Ca2In4IrPt
_symmetry_space_group_name_H-M   'P 1'
_cell_length_a   5.66428452
_cell_length_b   5.66428394
_cell_length_c   8.17341100
_cell_angle_alpha   90.00000000
_cell_angle_beta   90.00000000
_cell_angle_gamma   135.01303431
_symmetry_Int_Tables_number   1
_chemical_formula_structural   Ca2In4IrPt
_chemical_formula_sum   'Ca2 In4 Ir1 Pt1'
_cell_volume   185.38713595
_cell_formula_units_Z   1
loop_
 _symmetry_equiv_pos_site_id
 _symmetry_equiv_pos_as_xyz
  1  'x, y, z'
loop_
 _atom_site_type_symbol
 _atom_site_label
 _atom_site_symmetry_multiplicity
 _atom_site_fract_x
 _atom_site_fract_y
 _atom_site_fract_z
 _atom_site_occupancy
  Ca  Ca0  1  0.932762  0.067238  0.750000  1
  Ca  Ca1  1  0.067679  0.932321  0.250000  1
  In  In2  1  0.646257  0.353743  0.946608  1
  In  In3  1  0.646257  0.353743  0.553392  1
  In  In4  1  0.353372  0.646628  0.047697  1
  In  In5  1  0.353372  0.646628  0.452303  1
  Ir  Ir6  1  0.218771  0.781229  0.750000  1
  Pt  Pt7  1  0.781529  0.218471  0.250000  1
