# generated using pymatgen
data_TbHoCo5Ni5P6
_symmetry_space_group_name_H-M   'P 1'
_cell_length_a   3.68137800
_cell_length_b   10.27974900
_cell_length_c   11.82170200
_cell_angle_alpha   90.00000000
_cell_angle_beta   90.00000000
_cell_angle_gamma   90.00000000
_symmetry_Int_Tables_number   1
_chemical_formula_structural   TbHoCo5Ni5P6
_chemical_formula_sum   'Tb2 Ho2 Co10 Ni10 P12'
_cell_volume   447.37625612
_cell_formula_units_Z   2
loop_
 _symmetry_equiv_pos_site_id
 _symmetry_equiv_pos_as_xyz
  1  'x, y, z'
loop_
 _atom_site_type_symbol
 _atom_site_label
 _atom_site_symmetry_multiplicity
 _atom_site_fract_x
 _atom_site_fract_y
 _atom_site_fract_z
 _atom_site_occupancy
  Tb  Tb0  1  0.750000  0.418780  0.296717  1
  Tb  Tb1  1  0.750000  0.081220  0.796717  1
  Ho  Ho2  1  0.250000  0.581483  0.704038  1
  Ho  Ho3  1  0.250000  0.918517  0.204038  1
  Co  Co4  1  0.750000  0.776691  0.824519  1
  Co  Co5  1  0.750000  0.723309  0.324519  1
  Co  Co6  1  0.250000  0.878419  0.697717  1
  Co  Co7  1  0.250000  0.621581  0.197717  1
  Co  Co8  1  0.750000  0.119185  0.301570  1
  Co  Co9  1  0.750000  0.380815  0.801570  1
  Co  Co10  1  0.250000  0.467352  0.932684  1
  Co  Co11  1  0.250000  0.032648  0.432684  1
  Co  Co12  1  0.750000  0.534365  0.066718  1
  Co  Co13  1  0.750000  0.965635  0.566718  1
  Ni  Ni14  1  0.250000  0.711689  0.988784  1
  Ni  Ni15  1  0.250000  0.788311  0.488784  1
  Ni  Ni16  1  0.750000  0.286008  0.009601  1
  Ni  Ni17  1  0.750000  0.213992  0.509601  1
  Ni  Ni18  1  0.250000  0.408885  0.486965  1
  Ni  Ni19  1  0.250000  0.091115  0.986965  1
  Ni  Ni20  1  0.750000  0.592519  0.514890  1
  Ni  Ni21  1  0.750000  0.907481  0.014890  1
  Ni  Ni22  1  0.250000  0.223886  0.175788  1
  Ni  Ni23  1  0.250000  0.276114  0.675788  1
  P  P24  1  0.250000  0.425356  0.112838  1
  P  P25  1  0.250000  0.074644  0.612838  1
  P  P26  1  0.750000  0.578782  0.885930  1
  P  P27  1  0.750000  0.921218  0.385930  1
  P  P28  1  0.250000  0.272139  0.867796  1
  P  P29  1  0.250000  0.227861  0.367796  1
  P  P30  1  0.750000  0.729479  0.135111  1
  P  P31  1  0.750000  0.770521  0.635111  1
  P  P32  1  0.250000  0.606864  0.387772  1
  P  P33  1  0.250000  0.893136  0.887772  1
  P  P34  1  0.750000  0.397942  0.610564  1
  P  P35  1  0.750000  0.102058  0.110564  1
