# generated using pymatgen
data_Rb3Bi(IO3)6
_symmetry_space_group_name_H-M   'P 1'
_cell_length_a   7.30004061
_cell_length_b   7.31607916
_cell_length_c   11.05054375
_cell_angle_alpha   87.56011417
_cell_angle_beta   107.24193392
_cell_angle_gamma   107.80513967
_symmetry_Int_Tables_number   1
_chemical_formula_structural   Rb3Bi(IO3)6
_chemical_formula_sum   'Rb3 Bi1 I6 O18'
_cell_volume   535.91345126
_cell_formula_units_Z   1
loop_
 _symmetry_equiv_pos_site_id
 _symmetry_equiv_pos_as_xyz
  1  'x, y, z'
loop_
 _atom_site_type_symbol
 _atom_site_label
 _atom_site_symmetry_multiplicity
 _atom_site_fract_x
 _atom_site_fract_y
 _atom_site_fract_z
 _atom_site_occupancy
  Rb  Rb0  1  0.000000  0.000000  0.000000  1
  Rb  Rb1  1  0.833255  0.031129  0.602797  1
  Rb  Rb2  1  0.166745  0.968871  0.397203  1
  Bi  Bi3  1  0.500000  0.500000  0.000000  1
  I  I4  1  0.035871  0.477384  0.193391  1
  I  I5  1  0.964129  0.522616  0.806609  1
  I  I6  1  0.564270  0.966776  0.195827  1
  I  I7  1  0.435730  0.033224  0.804173  1
  I  I8  1  0.419428  0.555171  0.631926  1
  I  I9  1  0.580572  0.444829  0.368074  1
  O  O10  1  0.851001  0.546801  0.054962  1
  O  O11  1  0.148999  0.453199  0.945038  1
  O  O12  1  0.954500  0.550254  0.319285  1
  O  O13  1  0.045500  0.449746  0.680715  1
  O  O14  1  0.927370  0.215364  0.184559  1
  O  O15  1  0.072630  0.784636  0.815441  1
  O  O16  1  0.580155  0.831051  0.060885  1
  O  O17  1  0.419845  0.168949  0.939115  1
  O  O18  1  0.300199  0.856303  0.189710  1
  O  O19  1  0.699801  0.143697  0.810290  1
  O  O20  1  0.693475  0.848603  0.327649  1
  O  O21  1  0.306525  0.151397  0.672351  1
  O  O22  1  0.537315  0.613510  0.806261  1
  O  O23  1  0.462685  0.386490  0.193739  1
  O  O24  1  0.664234  0.571894  0.606048  1
  O  O25  1  0.335766  0.428106  0.393952  1
  O  O26  1  0.406157  0.795669  0.591822  1
  O  O27  1  0.593843  0.204331  0.408178  1
