# generated using pymatgen
data_Pr3Be2(AsPd5)4
_symmetry_space_group_name_H-M   'P 1'
_cell_length_a   8.91269220
_cell_length_b   8.78445309
_cell_length_c   8.78445267
_cell_angle_alpha   60.96819955
_cell_angle_beta   59.51589711
_cell_angle_gamma   59.51590403
_symmetry_Int_Tables_number   1
_chemical_formula_structural   Pr3Be2(AsPd5)4
_chemical_formula_sum   'Pr3 Be2 As4 Pd20'
_cell_volume   486.11099560
_cell_formula_units_Z   1
loop_
 _symmetry_equiv_pos_site_id
 _symmetry_equiv_pos_as_xyz
  1  'x, y, z'
loop_
 _atom_site_type_symbol
 _atom_site_label
 _atom_site_symmetry_multiplicity
 _atom_site_fract_x
 _atom_site_fract_y
 _atom_site_fract_z
 _atom_site_occupancy
  Pr  Pr0  1  0.250000  0.250000  0.250000  1
  Pr  Pr1  1  0.750000  0.750000  0.750000  1
  Pr  Pr2  1  0.000000  0.000000  0.000000  1
  Be  Be3  1  0.731750  0.268250  0.268250  1
  Be  Be4  1  0.268250  0.731750  0.731750  1
  As  As5  1  0.266621  0.733379  0.266621  1
  As  As6  1  0.733379  0.266621  0.733379  1
  As  As7  1  0.266621  0.266621  0.733379  1
  As  As8  1  0.733379  0.733379  0.266621  1
  Pd  Pd9  1  0.395150  0.379681  0.379681  1
  Pd  Pd10  1  0.604850  0.620319  0.620319  1
  Pd  Pd11  1  0.379681  0.395150  0.845486  1
  Pd  Pd12  1  0.379681  0.845486  0.395150  1
  Pd  Pd13  1  0.620319  0.604850  0.154514  1
  Pd  Pd14  1  0.620319  0.154514  0.604850  1
  Pd  Pd15  1  0.845486  0.379681  0.379681  1
  Pd  Pd16  1  0.154514  0.620319  0.620319  1
  Pd  Pd17  1  0.348756  0.000000  0.000000  1
  Pd  Pd18  1  0.651244  0.000000  0.000000  1
  Pd  Pd19  1  0.000000  0.348756  0.651244  1
  Pd  Pd20  1  0.000000  0.651244  0.348756  1
  Pd  Pd21  1  0.988747  0.346278  0.011253  1
  Pd  Pd22  1  0.653722  0.011253  0.346278  1
  Pd  Pd23  1  0.011253  0.653722  0.988747  1
  Pd  Pd24  1  0.346278  0.988747  0.653722  1
  Pd  Pd25  1  0.988747  0.011253  0.346278  1
  Pd  Pd26  1  0.011253  0.988747  0.653722  1
  Pd  Pd27  1  0.653722  0.346278  0.011253  1
  Pd  Pd28  1  0.346278  0.653722  0.988747  1
