# generated using pymatgen
data_HfZr2HgC2
_symmetry_space_group_name_H-M   'P 1'
_cell_length_a   3.34585300
_cell_length_b   3.34585351
_cell_length_c   20.25933000
_cell_angle_alpha   90.00000000
_cell_angle_beta   90.00000000
_cell_angle_gamma   120.00000481
_symmetry_Int_Tables_number   1
_chemical_formula_structural   HfZr2HgC2
_chemical_formula_sum   'Hf2 Zr4 Hg2 C4'
_cell_volume   196.41265609
_cell_formula_units_Z   2
loop_
 _symmetry_equiv_pos_site_id
 _symmetry_equiv_pos_as_xyz
  1  'x, y, z'
loop_
 _atom_site_type_symbol
 _atom_site_label
 _atom_site_symmetry_multiplicity
 _atom_site_fract_x
 _atom_site_fract_y
 _atom_site_fract_z
 _atom_site_occupancy
  Hf  Hf0  1  0.000000  0.000000  0.000000  1
  Hf  Hf1  1  0.000000  0.000000  0.500000  1
  Zr  Zr2  1  0.333333  0.666666  0.126741  1
  Zr  Zr3  1  0.333333  0.666666  0.373259  1
  Zr  Zr4  1  0.666665  0.333333  0.626741  1
  Zr  Zr5  1  0.666665  0.333333  0.873259  1
  Hg  Hg6  1  0.000000  0.000000  0.250000  1
  Hg  Hg7  1  0.000000  0.000000  0.750000  1
  C  C8  1  0.666665  0.333333  0.067558  1
  C  C9  1  0.666665  0.333333  0.432442  1
  C  C10  1  0.333333  0.666666  0.567558  1
  C  C11  1  0.333333  0.666666  0.932442  1
