# generated using pymatgen
data_Tb3Dy4Er(CdPt)2
_symmetry_space_group_name_H-M   'P 1'
_cell_length_a   9.69899154
_cell_length_b   9.69899133
_cell_length_c   9.69554800
_cell_angle_alpha   60.01175009
_cell_angle_beta   60.01175079
_cell_angle_gamma   59.97650738
_symmetry_Int_Tables_number   1
_chemical_formula_structural   Tb3Dy4Er(CdPt)2
_chemical_formula_sum   'Tb6 Dy8 Er2 Cd4 Pt4'
_cell_volume   644.92681165
_cell_formula_units_Z   2
loop_
 _symmetry_equiv_pos_site_id
 _symmetry_equiv_pos_as_xyz
  1  'x, y, z'
loop_
 _atom_site_type_symbol
 _atom_site_label
 _atom_site_symmetry_multiplicity
 _atom_site_fract_x
 _atom_site_fract_y
 _atom_site_fract_z
 _atom_site_occupancy
  Tb  Tb0  1  0.935784  0.564216  0.564216  1
  Tb  Tb1  1  0.564216  0.935784  0.935784  1
  Tb  Tb2  1  0.564216  0.935784  0.564216  1
  Tb  Tb3  1  0.935784  0.564216  0.935784  1
  Tb  Tb4  1  0.564241  0.564241  0.935759  1
  Tb  Tb5  1  0.935759  0.935759  0.564241  1
  Dy  Dy6  1  0.351696  0.351696  0.351985  1
  Dy  Dy7  1  0.351696  0.351696  0.944623  1
  Dy  Dy8  1  0.351985  0.944623  0.351696  1
  Dy  Dy9  1  0.944623  0.351985  0.351696  1
  Dy  Dy10  1  0.810671  0.189329  0.189329  1
  Dy  Dy11  1  0.189329  0.810671  0.810671  1
  Dy  Dy12  1  0.189329  0.810671  0.189329  1
  Dy  Dy13  1  0.810671  0.189329  0.810671  1
  Er  Er14  1  0.189823  0.189823  0.810177  1
  Er  Er15  1  0.810177  0.810177  0.189823  1
  Cd  Cd16  1  0.581587  0.581587  0.581345  1
  Cd  Cd17  1  0.581587  0.581587  0.255481  1
  Cd  Cd18  1  0.581345  0.255481  0.581587  1
  Cd  Cd19  1  0.255481  0.581345  0.581587  1
  Pt  Pt20  1  0.143247  0.143247  0.142807  1
  Pt  Pt21  1  0.143247  0.143247  0.570699  1
  Pt  Pt22  1  0.142807  0.570699  0.143247  1
  Pt  Pt23  1  0.570699  0.142807  0.143247  1
