# generated using pymatgen
data_Ho8AlInPd23
_symmetry_space_group_name_H-M   'P 1'
_cell_length_a   8.21442000
_cell_length_b   8.43720700
_cell_length_c   8.43090100
_cell_angle_alpha   90.00000000
_cell_angle_beta   90.00000000
_cell_angle_gamma   90.00000000
_symmetry_Int_Tables_number   1
_chemical_formula_structural   Ho8AlInPd23
_chemical_formula_sum   'Ho8 Al1 In1 Pd23'
_cell_volume   584.31844842
_cell_formula_units_Z   1
loop_
 _symmetry_equiv_pos_site_id
 _symmetry_equiv_pos_as_xyz
  1  'x, y, z'
loop_
 _atom_site_type_symbol
 _atom_site_label
 _atom_site_symmetry_multiplicity
 _atom_site_fract_x
 _atom_site_fract_y
 _atom_site_fract_z
 _atom_site_occupancy
  Ho  Ho0  1  0.251405  0.241025  0.265572  1
  Ho  Ho1  1  0.747587  0.746780  0.747101  1
  Ho  Ho2  1  0.747587  0.746780  0.252899  1
  Ho  Ho3  1  0.747587  0.253220  0.747101  1
  Ho  Ho4  1  0.251405  0.241025  0.734428  1
  Ho  Ho5  1  0.251405  0.758975  0.265572  1
  Ho  Ho6  1  0.251405  0.758975  0.734428  1
  Ho  Ho7  1  0.747587  0.253220  0.252899  1
  Al  Al8  1  0.999656  0.000000  0.000000  1
  In  In9  1  0.265051  0.500000  0.000000  1
  Pd  Pd10  1  0.741263  0.500000  0.000000  1
  Pd  Pd11  1  0.997763  0.258438  0.500000  1
  Pd  Pd12  1  0.496120  0.257910  0.000000  1
  Pd  Pd13  1  0.997763  0.741562  0.500000  1
  Pd  Pd14  1  0.496120  0.742090  0.000000  1
  Pd  Pd15  1  0.501901  0.000000  0.259254  1
  Pd  Pd16  1  0.259092  0.000000  0.500000  1
  Pd  Pd17  1  0.501901  0.000000  0.740746  1
  Pd  Pd18  1  0.740462  0.000000  0.500000  1
  Pd  Pd19  1  0.003463  0.500000  0.259499  1
  Pd  Pd20  1  0.003463  0.500000  0.740501  1
  Pd  Pd21  1  0.252647  0.500000  0.500000  1
  Pd  Pd22  1  0.747349  0.500000  0.500000  1
  Pd  Pd23  1  0.502201  0.253065  0.500000  1
  Pd  Pd24  1  0.502201  0.746935  0.500000  1
  Pd  Pd25  1  0.496172  0.500000  0.254763  1
  Pd  Pd26  1  0.496172  0.500000  0.745237  1
  Pd  Pd27  1  0.288932  0.000000  0.000000  1
  Pd  Pd28  1  0.710136  0.000000  0.000000  1
  Pd  Pd29  1  0.005036  0.286267  0.000000  1
  Pd  Pd30  1  0.005036  0.713733  0.000000  1
  Pd  Pd31  1  0.997064  0.000000  0.286340  1
  Pd  Pd32  1  0.997064  0.000000  0.713660  1
