# generated using pymatgen
data_Al4CrCuS8
_symmetry_space_group_name_H-M   'P 1'
_cell_length_a   7.06512935
_cell_length_b   7.06512871
_cell_length_c   7.06512793
_cell_angle_alpha   60.00167554
_cell_angle_beta   60.00168277
_cell_angle_gamma   60.00167758
_symmetry_Int_Tables_number   1
_chemical_formula_structural   Al4CrCuS8
_chemical_formula_sum   'Al4 Cr1 Cu1 S8'
_cell_volume   249.38007823
_cell_formula_units_Z   1
loop_
 _symmetry_equiv_pos_site_id
 _symmetry_equiv_pos_as_xyz
  1  'x, y, z'
loop_
 _atom_site_type_symbol
 _atom_site_label
 _atom_site_symmetry_multiplicity
 _atom_site_fract_x
 _atom_site_fract_y
 _atom_site_fract_z
 _atom_site_occupancy
  Al  Al0  1  0.375169  0.375169  0.375169  1
  Al  Al1  1  0.518945  0.993370  0.993370  1
  Al  Al2  1  0.993370  0.993370  0.518945  1
  Al  Al3  1  0.993370  0.518945  0.993370  1
  Cr  Cr4  1  0.995193  0.995193  0.995193  1
  Cu  Cu5  1  0.624468  0.624468  0.624468  1
  S  S6  1  0.227437  0.758024  0.758024  1
  S  S7  1  0.758024  0.758024  0.227437  1
  S  S8  1  0.758024  0.227437  0.758024  1
  S  S9  1  0.756673  0.756673  0.756673  1
  S  S10  1  0.774893  0.241392  0.241392  1
  S  S11  1  0.241392  0.241392  0.774893  1
  S  S12  1  0.241392  0.774893  0.241392  1
  S  S13  1  0.241650  0.241650  0.241650  1
