# generated using pymatgen
data_Tb15YCd4Ni3Os
_symmetry_space_group_name_H-M   'P 1'
_cell_length_a   9.62075051
_cell_length_b   9.62075053
_cell_length_c   9.62163139
_cell_angle_alpha   59.58850499
_cell_angle_beta   59.58849772
_cell_angle_gamma   59.60426608
_symmetry_Int_Tables_number   1
_chemical_formula_structural   Tb15YCd4Ni3Os
_chemical_formula_sum   'Tb15 Y1 Cd4 Ni3 Os1'
_cell_volume   623.91120098
_cell_formula_units_Z   1
loop_
 _symmetry_equiv_pos_site_id
 _symmetry_equiv_pos_as_xyz
  1  'x, y, z'
loop_
 _atom_site_type_symbol
 _atom_site_label
 _atom_site_symmetry_multiplicity
 _atom_site_fract_x
 _atom_site_fract_y
 _atom_site_fract_z
 _atom_site_occupancy
  Tb  Tb0  1  0.597913  0.597913  0.597777  1
  Tb  Tb1  1  0.600710  0.600710  0.203442  1
  Tb  Tb2  1  0.600655  0.203436  0.600769  1
  Tb  Tb3  1  0.203436  0.600655  0.600769  1
  Tb  Tb4  1  0.060058  0.438453  0.438618  1
  Tb  Tb5  1  0.436827  0.061045  0.061099  1
  Tb  Tb6  1  0.438453  0.060058  0.438618  1
  Tb  Tb7  1  0.061045  0.436827  0.061099  1
  Tb  Tb8  1  0.438578  0.438578  0.059968  1
  Tb  Tb9  1  0.061124  0.061124  0.436900  1
  Tb  Tb10  1  0.186182  0.815484  0.815466  1
  Tb  Tb11  1  0.807389  0.188750  0.188607  1
  Tb  Tb12  1  0.815484  0.186182  0.815466  1
  Tb  Tb13  1  0.188750  0.807389  0.188607  1
  Tb  Tb14  1  0.815557  0.815557  0.186010  1
  Y  Y15  1  0.188588  0.188588  0.807588  1
  Cd  Cd16  1  0.830260  0.830260  0.830291  1
  Cd  Cd17  1  0.830176  0.830176  0.506103  1
  Cd  Cd18  1  0.830308  0.506040  0.830183  1
  Cd  Cd19  1  0.506040  0.830308  0.830183  1
  Ni  Ni20  1  0.392292  0.392292  0.824671  1
  Ni  Ni21  1  0.392336  0.824645  0.392354  1
  Ni  Ni22  1  0.824645  0.392336  0.392354  1
  Os  Os23  1  0.393195  0.393195  0.393055  1
