# generated using pymatgen
data_Ca2Y3Pb3Cl
_symmetry_space_group_name_H-M   'P 1'
_cell_length_a   9.18418100
_cell_length_b   9.16610144
_cell_length_c   6.95594900
_cell_angle_alpha   90.00000000
_cell_angle_beta   90.00000000
_cell_angle_gamma   120.06526558
_symmetry_Int_Tables_number   1
_chemical_formula_structural   Ca2Y3Pb3Cl
_chemical_formula_sum   'Ca4 Y6 Pb6 Cl2'
_cell_volume   506.78776378
_cell_formula_units_Z   2
loop_
 _symmetry_equiv_pos_site_id
 _symmetry_equiv_pos_as_xyz
  1  'x, y, z'
loop_
 _atom_site_type_symbol
 _atom_site_label
 _atom_site_symmetry_multiplicity
 _atom_site_fract_x
 _atom_site_fract_y
 _atom_site_fract_z
 _atom_site_occupancy
  Ca  Ca0  1  0.998928  0.253098  0.250000  1
  Ca  Ca1  1  0.001072  0.746902  0.750000  1
  Ca  Ca2  1  0.745830  0.746902  0.250000  1
  Ca  Ca3  1  0.254170  0.253098  0.750000  1
  Y  Y4  1  0.255193  0.000000  0.250000  1
  Y  Y5  1  0.744807  0.000000  0.750000  1
  Y  Y6  1  0.332845  0.665690  0.000000  1
  Y  Y7  1  0.667155  0.334310  0.000000  1
  Y  Y8  1  0.667155  0.334310  0.500000  1
  Y  Y9  1  0.332845  0.665690  0.500000  1
  Pb  Pb10  1  0.600665  0.000000  0.250000  1
  Pb  Pb11  1  0.399335  0.000000  0.750000  1
  Pb  Pb12  1  0.003143  0.606610  0.250000  1
  Pb  Pb13  1  0.996857  0.393390  0.750000  1
  Pb  Pb14  1  0.396533  0.393390  0.250000  1
  Pb  Pb15  1  0.603467  0.606610  0.750000  1
  Cl  Cl16  1  0.000000  0.000000  0.000000  1
  Cl  Cl17  1  0.000000  0.000000  0.500000  1
