# generated using pymatgen
data_YbCe4Dy(Cu3Sb4)2
_symmetry_space_group_name_H-M   'P 1'
_cell_length_a   8.42606340
_cell_length_b   8.42606295
_cell_length_c   8.42606339
_cell_angle_alpha   109.73285614
_cell_angle_beta   108.94923289
_cell_angle_gamma   109.73283267
_symmetry_Int_Tables_number   1
_chemical_formula_structural   YbCe4Dy(Cu3Sb4)2
_chemical_formula_sum   'Yb1 Ce4 Dy1 Cu6 Sb8'
_cell_volume   460.49533534
_cell_formula_units_Z   1
loop_
 _symmetry_equiv_pos_site_id
 _symmetry_equiv_pos_as_xyz
  1  'x, y, z'
loop_
 _atom_site_type_symbol
 _atom_site_label
 _atom_site_symmetry_multiplicity
 _atom_site_fract_x
 _atom_site_fract_y
 _atom_site_fract_z
 _atom_site_occupancy
  Yb  Yb0  1  0.625000  0.750000  0.375000  1
  Ce  Ce1  1  0.249344  0.126292  0.875544  1
  Ce  Ce2  1  0.749252  0.373708  0.623052  1
  Ce  Ce3  1  0.124456  0.873800  0.250748  1
  Ce  Ce4  1  0.376948  0.626200  0.750656  1
  Dy  Dy5  1  0.875000  0.250000  0.125000  1
  Cu  Cu6  1  0.375000  0.250000  0.625000  1
  Cu  Cu7  1  0.125000  0.750000  0.875000  1
  Cu  Cu8  1  0.250985  0.619759  0.369965  1
  Cu  Cu9  1  0.750206  0.880241  0.131226  1
  Cu  Cu10  1  0.630035  0.381020  0.249794  1
  Cu  Cu11  1  0.868774  0.118980  0.749015  1
  Sb  Sb12  1  0.661016  0.502583  0.001702  1
  Sb  Sb13  1  0.499119  0.997417  0.658433  1
  Sb  Sb14  1  0.001484  0.657462  0.497851  1
  Sb  Sb15  1  0.840388  0.842538  0.844021  1
  Sb  Sb16  1  0.502149  0.003633  0.159612  1
  Sb  Sb17  1  0.155979  0.496367  0.998516  1
  Sb  Sb18  1  0.998298  0.159314  0.500881  1
  Sb  Sb19  1  0.341567  0.340686  0.338984  1
