# generated using pymatgen
data_Ba4Pr7ErS16
_symmetry_space_group_name_H-M   'P 1'
_cell_length_a   4.13670700
_cell_length_b   12.43520508
_cell_length_c   14.89772700
_cell_angle_alpha   90.00654272
_cell_angle_beta   90.00000000
_cell_angle_gamma   90.00000000
_symmetry_Int_Tables_number   1
_chemical_formula_structural   Ba4Pr7ErS16
_chemical_formula_sum   'Ba4 Pr7 Er1 S16'
_cell_volume   766.35098865
_cell_formula_units_Z   1
loop_
 _symmetry_equiv_pos_site_id
 _symmetry_equiv_pos_as_xyz
  1  'x, y, z'
loop_
 _atom_site_type_symbol
 _atom_site_label
 _atom_site_symmetry_multiplicity
 _atom_site_fract_x
 _atom_site_fract_y
 _atom_site_fract_z
 _atom_site_occupancy
  Ba  Ba0  1  0.250000  0.750719  0.342938  1
  Ba  Ba1  1  0.250000  0.249486  0.160917  1
  Ba  Ba2  1  0.750000  0.245654  0.654507  1
  Ba  Ba3  1  0.750000  0.750155  0.841703  1
  Pr  Pr4  1  0.250000  0.412271  0.396363  1
  Pr  Pr5  1  0.250000  0.919490  0.109064  1
  Pr  Pr6  1  0.750000  0.580920  0.606780  1
  Pr  Pr7  1  0.750000  0.083647  0.894489  1
  Pr  Pr8  1  0.250000  0.425823  0.895153  1
  Pr  Pr9  1  0.250000  0.929970  0.600952  1
  Pr  Pr10  1  0.750000  0.572524  0.106348  1
  Er  Er11  1  0.750000  0.073467  0.392741  1
  S  S12  1  0.250000  0.214845  0.820890  1
  S  S13  1  0.250000  0.717453  0.673931  1
  S  S14  1  0.750000  0.784949  0.179130  1
  S  S15  1  0.750000  0.277436  0.326335  1
  S  S16  1  0.250000  0.135215  0.511506  1
  S  S17  1  0.250000  0.634997  0.980230  1
  S  S18  1  0.750000  0.874382  0.472920  1
  S  S19  1  0.750000  0.363574  0.021269  1
  S  S20  1  0.250000  0.508416  0.220207  1
  S  S21  1  0.250000  0.016404  0.286902  1
  S  S22  1  0.750000  0.490657  0.782747  1
  S  S23  1  0.750000  0.990281  0.716442  1
  S  S24  1  0.250000  0.422965  0.584334  1
  S  S25  1  0.250000  0.925167  0.919234  1
  S  S26  1  0.750000  0.572807  0.418494  1
  S  S27  1  0.750000  0.076326  0.083471  1
