# generated using pymatgen
data_TbYHo2(Sn5Rh3)2
_symmetry_space_group_name_H-M   'P 1'
_cell_length_a   13.47130343
_cell_length_b   13.47130251
_cell_length_c   7.27674214
_cell_angle_alpha   89.97769149
_cell_angle_beta   90.02230809
_cell_angle_gamma   161.09596855
_symmetry_Int_Tables_number   1
_chemical_formula_structural   TbYHo2(Sn5Rh3)2
_chemical_formula_sum   'Tb1 Y1 Ho2 Sn10 Rh6'
_cell_volume   427.83834250
_cell_formula_units_Z   1
loop_
 _symmetry_equiv_pos_site_id
 _symmetry_equiv_pos_as_xyz
  1  'x, y, z'
loop_
 _atom_site_type_symbol
 _atom_site_label
 _atom_site_symmetry_multiplicity
 _atom_site_fract_x
 _atom_site_fract_y
 _atom_site_fract_z
 _atom_site_occupancy
  Tb  Tb0  1  0.172569  0.827431  0.744714  1
  Y  Y1  1  0.827478  0.172522  0.244866  1
  Ho  Ho2  1  0.475992  0.524008  0.762727  1
  Ho  Ho3  1  0.524002  0.475998  0.262706  1
  Sn  Sn4  1  0.880875  0.119125  0.769904  1
  Sn  Sn5  1  0.119138  0.880862  0.269823  1
  Sn  Sn6  1  0.704593  0.295407  0.450205  1
  Sn  Sn7  1  0.295407  0.704593  0.950340  1
  Sn  Sn8  1  0.596271  0.403729  0.885827  1
  Sn  Sn9  1  0.403665  0.596335  0.385672  1
  Sn  Sn10  1  0.952562  0.047438  0.101927  1
  Sn  Sn11  1  0.047430  0.952570  0.602032  1
  Sn  Sn12  1  0.290760  0.709240  0.522293  1
  Sn  Sn13  1  0.709232  0.290768  0.022488  1
  Rh  Rh14  1  0.050086  0.949914  0.982353  1
  Rh  Rh15  1  0.949926  0.050074  0.482334  1
  Rh  Rh16  1  0.777109  0.222891  0.735356  1
  Rh  Rh17  1  0.222899  0.777101  0.235326  1
  Rh  Rh18  1  0.394117  0.605883  0.016520  1
  Rh  Rh19  1  0.605889  0.394111  0.516586  1
