# generated using pymatgen
data_Eu4Re11Si8Tc5
_symmetry_space_group_name_H-M   'P 1'
_cell_length_a   4.17361300
_cell_length_b   7.31836279
_cell_length_c   15.51674100
_cell_angle_alpha   89.95990747
_cell_angle_beta   90.00000000
_cell_angle_gamma   90.00000000
_symmetry_Int_Tables_number   1
_chemical_formula_structural   Eu4Re11Si8Tc5
_chemical_formula_sum   'Eu4 Re11 Si8 Tc5'
_cell_volume   473.94343964
_cell_formula_units_Z   1
loop_
 _symmetry_equiv_pos_site_id
 _symmetry_equiv_pos_as_xyz
  1  'x, y, z'
loop_
 _atom_site_type_symbol
 _atom_site_label
 _atom_site_symmetry_multiplicity
 _atom_site_fract_x
 _atom_site_fract_y
 _atom_site_fract_z
 _atom_site_occupancy
  Eu  Eu0  1  0.000000  0.578339  0.118597  1
  Eu  Eu1  1  0.000000  0.421866  0.881641  1
  Eu  Eu2  1  0.500000  0.078438  0.382058  1
  Eu  Eu3  1  0.500000  0.921714  0.618204  1
  Re  Re4  1  0.000000  0.267609  0.679893  1
  Re  Re5  1  0.500000  0.232112  0.179744  1
  Re  Re6  1  0.500000  0.767635  0.820187  1
  Re  Re7  1  0.000000  0.437293  0.417798  1
  Re  Re8  1  0.000000  0.563484  0.581321  1
  Re  Re9  1  0.500000  0.935867  0.082041  1
  Re  Re10  1  0.500000  0.063608  0.918538  1
  Re  Re11  1  0.000000  0.991711  0.204590  1
  Re  Re12  1  0.000000  0.008555  0.794666  1
  Re  Re13  1  0.500000  0.488832  0.295024  1
  Re  Re14  1  0.500000  0.508643  0.705352  1
  Si  Si15  1  0.000000  0.826109  0.475426  1
  Si  Si16  1  0.000000  0.174132  0.524242  1
  Si  Si17  1  0.500000  0.327015  0.024195  1
  Si  Si18  1  0.500000  0.673443  0.975787  1
  Si  Si19  1  0.000000  0.292259  0.273848  1
  Si  Si20  1  0.000000  0.707268  0.725938  1
  Si  Si21  1  0.500000  0.791382  0.227150  1
  Si  Si22  1  0.500000  0.207233  0.774023  1
  Tc  Tc23  1  0.000000  0.140800  0.051087  1
  Tc  Tc24  1  0.000000  0.859858  0.949225  1
  Tc  Tc25  1  0.500000  0.640023  0.448404  1
  Tc  Tc26  1  0.500000  0.360149  0.550901  1
  Tc  Tc27  1  0.000000  0.734624  0.320118  1
