# generated using pymatgen
data_Tb4Tm16SiBi11
_symmetry_space_group_name_H-M   'P 1'
_cell_length_a   8.12041640
_cell_length_b   9.38352300
_cell_length_c   11.89054000
_cell_angle_alpha   90.00000000
_cell_angle_beta   90.20185890
_cell_angle_gamma   90.00000000
_symmetry_Int_Tables_number   1
_chemical_formula_structural   Tb4Tm16SiBi11
_chemical_formula_sum   'Tb4 Tm16 Si1 Bi11'
_cell_volume   906.03109975
_cell_formula_units_Z   1
loop_
 _symmetry_equiv_pos_site_id
 _symmetry_equiv_pos_as_xyz
  1  'x, y, z'
loop_
 _atom_site_type_symbol
 _atom_site_label
 _atom_site_symmetry_multiplicity
 _atom_site_fract_x
 _atom_site_fract_y
 _atom_site_fract_z
 _atom_site_occupancy
  Tb  Tb0  1  0.315217  0.250000  0.218949  1
  Tb  Tb1  1  0.813208  0.250000  0.281407  1
  Tb  Tb2  1  0.668249  0.750000  0.791132  1
  Tb  Tb3  1  0.191046  0.750000  0.723520  1
  Tm  Tm4  1  0.354877  0.750000  0.204622  1
  Tm  Tm5  1  0.851523  0.750000  0.282758  1
  Tm  Tm6  1  0.649482  0.250000  0.783037  1
  Tm  Tm7  1  0.147989  0.250000  0.718979  1
  Tm  Tm8  1  0.681732  0.573230  0.054873  1
  Tm  Tm9  1  0.192527  0.933699  0.438656  1
  Tm  Tm10  1  0.311452  0.048374  0.940540  1
  Tm  Tm11  1  0.807840  0.434672  0.560188  1
  Tm  Tm12  1  0.311452  0.451626  0.940540  1
  Tm  Tm13  1  0.807840  0.065328  0.560188  1
  Tm  Tm14  1  0.681732  0.926770  0.054873  1
  Tm  Tm15  1  0.192527  0.566301  0.438656  1
  Tm  Tm16  1  0.476763  0.250000  0.488840  1
  Tm  Tm17  1  0.980766  0.250000  0.009429  1
  Tm  Tm18  1  0.525144  0.750000  0.511669  1
  Tm  Tm19  1  0.037503  0.750000  0.989412  1
  Si  Si20  1  0.407589  0.750000  0.964883  1
  Bi  Bi21  1  0.906437  0.750000  0.543285  1
  Bi  Bi22  1  0.595972  0.250000  0.040255  1
  Bi  Bi23  1  0.095864  0.250000  0.459930  1
  Bi  Bi24  1  0.564668  0.993594  0.325594  1
  Bi  Bi25  1  0.064106  0.504692  0.173933  1
  Bi  Bi26  1  0.434943  0.493768  0.673865  1
  Bi  Bi27  1  0.933920  0.002852  0.826299  1
  Bi  Bi28  1  0.434943  0.006232  0.673865  1
  Bi  Bi29  1  0.933920  0.497148  0.826299  1
  Bi  Bi30  1  0.564668  0.506406  0.325594  1
  Bi  Bi31  1  0.064106  0.995308  0.173933  1
