# generated using pymatgen
data_Dy3Tm7InPb5
_symmetry_space_group_name_H-M   'P 1'
_cell_length_a   6.60243200
_cell_length_b   8.97187166
_cell_length_c   8.97192508
_cell_angle_alpha   119.99980452
_cell_angle_beta   90.00003972
_cell_angle_gamma   89.99993176
_symmetry_Int_Tables_number   1
_chemical_formula_structural   Dy3Tm7InPb5
_chemical_formula_sum   'Dy3 Tm7 In1 Pb5'
_cell_volume   460.26093500
_cell_formula_units_Z   1
loop_
 _symmetry_equiv_pos_site_id
 _symmetry_equiv_pos_as_xyz
  1  'x, y, z'
loop_
 _atom_site_type_symbol
 _atom_site_label
 _atom_site_symmetry_multiplicity
 _atom_site_fract_x
 _atom_site_fract_y
 _atom_site_fract_z
 _atom_site_occupancy
  Dy  Dy0  1  0.249997  0.763475  0.000000  1
  Dy  Dy1  1  0.250001  0.236622  0.236840  1
  Dy  Dy2  1  0.250001  0.999782  0.763160  1
  Tm  Tm3  1  0.502250  0.336332  0.670075  1
  Tm  Tm4  1  0.502250  0.666257  0.329925  1
  Tm  Tm5  1  0.997749  0.666279  0.329929  1
  Tm  Tm6  1  0.997749  0.336350  0.670071  1
  Tm  Tm7  1  0.749995  0.237743  0.000000  1
  Tm  Tm8  1  0.750001  0.762745  0.767285  1
  Tm  Tm9  1  0.750001  0.995460  0.232715  1
  In  In10  1  0.750001  0.602703  0.000000  1
  Pb  Pb11  1  0.750003  0.393745  0.394353  1
  Pb  Pb12  1  0.750003  0.999392  0.605647  1
  Pb  Pb13  1  0.249990  0.397367  0.000000  1
  Pb  Pb14  1  0.250004  0.604151  0.602554  1
  Pb  Pb15  1  0.250004  0.001598  0.397446  1
