# generated using pymatgen
data_Lu4Re5Os3
_symmetry_space_group_name_H-M   'P 1'
_cell_length_a   5.32547394
_cell_length_b   5.32547424
_cell_length_c   8.92094400
_cell_angle_alpha   90.00000000
_cell_angle_beta   90.00000000
_cell_angle_gamma   121.22225952
_symmetry_Int_Tables_number   1
_chemical_formula_structural   Lu4Re5Os3
_chemical_formula_sum   'Lu4 Re5 Os3'
_cell_volume   216.35963358
_cell_formula_units_Z   1
loop_
 _symmetry_equiv_pos_site_id
 _symmetry_equiv_pos_as_xyz
  1  'x, y, z'
loop_
 _atom_site_type_symbol
 _atom_site_label
 _atom_site_symmetry_multiplicity
 _atom_site_fract_x
 _atom_site_fract_y
 _atom_site_fract_z
 _atom_site_occupancy
  Lu  Lu0  1  0.334773  0.665227  0.436066  1
  Lu  Lu1  1  0.665588  0.334412  0.563112  1
  Lu  Lu2  1  0.665588  0.334412  0.936888  1
  Lu  Lu3  1  0.334773  0.665227  0.063934  1
  Re  Re4  1  0.169566  0.340713  0.750000  1
  Re  Re5  1  0.171749  0.828251  0.750000  1
  Re  Re6  1  0.338576  0.170577  0.250000  1
  Re  Re7  1  0.829423  0.661424  0.250000  1
  Re  Re8  1  0.659287  0.830434  0.750000  1
  Os  Os9  1  0.002928  0.997072  0.000944  1
  Os  Os10  1  0.824820  0.175180  0.250000  1
  Os  Os11  1  0.002928  0.997072  0.499056  1
