# generated using pymatgen
data_PrNd11Ir3AuBr12
_symmetry_space_group_name_H-M   'P 1'
_cell_length_a   10.57936685
_cell_length_b   10.57936836
_cell_length_c   10.58391801
_cell_angle_alpha   109.82283902
_cell_angle_beta   109.82283771
_cell_angle_gamma   109.75268332
_symmetry_Int_Tables_number   1
_chemical_formula_structural   PrNd11Ir3AuBr12
_chemical_formula_sum   'Pr1 Nd11 Ir3 Au1 Br12'
_cell_volume   900.64073736
_cell_formula_units_Z   1
loop_
 _symmetry_equiv_pos_site_id
 _symmetry_equiv_pos_as_xyz
  1  'x, y, z'
loop_
 _atom_site_type_symbol
 _atom_site_label
 _atom_site_symmetry_multiplicity
 _atom_site_fract_x
 _atom_site_fract_y
 _atom_site_fract_z
 _atom_site_occupancy
  Pr  Pr0  1  0.234368  0.265632  0.750000  1
  Nd  Nd1  1  0.472346  0.493618  0.231145  1
  Nd  Nd2  1  0.750140  0.233949  0.266222  1
  Nd  Nd3  1  0.749670  0.014195  0.485469  1
  Nd  Nd4  1  0.230944  0.472366  0.493388  1
  Nd  Nd5  1  0.266051  0.749860  0.233778  1
  Nd  Nd6  1  0.027634  0.269056  0.006612  1
  Nd  Nd7  1  0.006382  0.027654  0.268855  1
  Nd  Nd8  1  0.485805  0.750330  0.014531  1
  Nd  Nd9  1  0.493543  0.230871  0.472119  1
  Nd  Nd10  1  0.014247  0.485753  0.750000  1
  Nd  Nd11  1  0.269129  0.006457  0.027881  1
  Ir  Ir12  1  0.501076  0.998924  0.250000  1
  Ir  Ir13  1  0.998325  0.249980  0.500470  1
  Ir  Ir14  1  0.250020  0.501675  0.999530  1
  Au  Au15  1  0.250003  0.249997  0.250000  1
  Br  Br16  1  0.250012  0.756157  0.743902  1
  Br  Br17  1  0.508393  0.503399  0.752667  1
  Br  Br18  1  0.992133  0.747336  0.997224  1
  Br  Br19  1  0.743843  0.249988  0.756098  1
  Br  Br20  1  0.996601  0.991607  0.747333  1
  Br  Br21  1  0.250009  0.996970  0.502099  1
  Br  Br22  1  0.752664  0.507867  0.502776  1
  Br  Br23  1  0.503030  0.249991  0.997901  1
  Br  Br24  1  0.756116  0.743884  0.250000  1
  Br  Br25  1  0.747330  0.997239  0.992137  1
  Br  Br26  1  0.997427  0.502573  0.250000  1
  Br  Br27  1  0.502761  0.752670  0.507863  1
