# generated using pymatgen
data_Dy4Ho(SiB4)2
_symmetry_space_group_name_H-M   'P 1'
_cell_length_a   7.22489900
_cell_length_b   7.22489900
_cell_length_c   8.08233000
_cell_angle_alpha   90.00000000
_cell_angle_beta   90.00000000
_cell_angle_gamma   90.00000000
_symmetry_Int_Tables_number   1
_chemical_formula_structural   Dy4Ho(SiB4)2
_chemical_formula_sum   'Dy8 Ho2 Si4 B16'
_cell_volume   421.89088178
_cell_formula_units_Z   2
loop_
 _symmetry_equiv_pos_site_id
 _symmetry_equiv_pos_as_xyz
  1  'x, y, z'
loop_
 _atom_site_type_symbol
 _atom_site_label
 _atom_site_symmetry_multiplicity
 _atom_site_fract_x
 _atom_site_fract_y
 _atom_site_fract_z
 _atom_site_occupancy
  Dy  Dy0  1  0.680312  0.180312  0.224489  1
  Dy  Dy1  1  0.319688  0.819688  0.775511  1
  Dy  Dy2  1  0.319688  0.819688  0.224489  1
  Dy  Dy3  1  0.819688  0.680312  0.224489  1
  Dy  Dy4  1  0.819688  0.680312  0.775511  1
  Dy  Dy5  1  0.680312  0.180312  0.775511  1
  Dy  Dy6  1  0.180312  0.319688  0.775511  1
  Dy  Dy7  1  0.180312  0.319688  0.224489  1
  Ho  Ho8  1  0.000000  0.000000  0.500000  1
  Ho  Ho9  1  0.500000  0.500000  0.500000  1
  Si  Si10  1  0.115149  0.615149  0.500000  1
  Si  Si11  1  0.884851  0.384851  0.500000  1
  Si  Si12  1  0.384851  0.115149  0.500000  1
  Si  Si13  1  0.615149  0.884851  0.500000  1
  B  B14  1  0.172358  0.039060  0.000000  1
  B  B15  1  0.827642  0.960940  0.000000  1
  B  B16  1  0.960940  0.172358  0.000000  1
  B  B17  1  0.327642  0.539060  0.000000  1
  B  B18  1  0.039060  0.827642  0.000000  1
  B  B19  1  0.672358  0.460940  0.000000  1
  B  B20  1  0.539060  0.672358  0.000000  1
  B  B21  1  0.460940  0.327642  0.000000  1
  B  B22  1  0.089895  0.589895  0.000000  1
  B  B23  1  0.910105  0.410105  0.000000  1
  B  B24  1  0.410105  0.089895  0.000000  1
  B  B25  1  0.589895  0.910105  0.000000  1
  B  B26  1  0.000000  0.000000  0.162522  1
  B  B27  1  0.000000  0.000000  0.837478  1
  B  B28  1  0.500000  0.500000  0.837478  1
  B  B29  1  0.500000  0.500000  0.162522  1
