# generated using pymatgen
data_Sc7Te8
_symmetry_space_group_name_H-M   'P 1'
_cell_length_a   7.96396468
_cell_length_b   7.96396387
_cell_length_c   9.88606988
_cell_angle_alpha   54.65464565
_cell_angle_beta   54.65465205
_cell_angle_gamma   63.58711611
_symmetry_Int_Tables_number   1
_chemical_formula_structural   Sc7Te8
_chemical_formula_sum   'Sc7 Te8'
_cell_volume   411.41939300
_cell_formula_units_Z   1
loop_
 _symmetry_equiv_pos_site_id
 _symmetry_equiv_pos_as_xyz
  1  'x, y, z'
loop_
 _atom_site_type_symbol
 _atom_site_label
 _atom_site_symmetry_multiplicity
 _atom_site_fract_x
 _atom_site_fract_y
 _atom_site_fract_z
 _atom_site_occupancy
  Sc  Sc0  1  0.735227  0.264773  0.500000  1
  Sc  Sc1  1  0.264773  0.735227  0.500000  1
  Sc  Sc2  1  0.500000  0.000000  0.500000  1
  Sc  Sc3  1  0.000000  0.500000  0.500000  1
  Sc  Sc4  1  0.745269  0.745269  0.007582  1
  Sc  Sc5  1  0.254731  0.254731  0.992418  1
  Sc  Sc6  1  0.000000  0.000000  0.000000  1
  Te  Te7  1  0.960884  0.960884  0.334317  1
  Te  Te8  1  0.039116  0.039116  0.665683  1
  Te  Te9  1  0.542771  0.043714  0.165061  1
  Te  Te10  1  0.457229  0.956286  0.834939  1
  Te  Te11  1  0.956286  0.457229  0.834939  1
  Te  Te12  1  0.043714  0.542771  0.165061  1
  Te  Te13  1  0.455671  0.455671  0.325121  1
  Te  Te14  1  0.544329  0.544329  0.674879  1
