# generated using pymatgen
data_Ba8Yb4Mn3WN16
_symmetry_space_group_name_H-M   'P 1'
_cell_length_a   10.65940317
_cell_length_b   10.35882208
_cell_length_c   7.89880753
_cell_angle_alpha   69.96135733
_cell_angle_beta   65.63935713
_cell_angle_gamma   44.11955379
_symmetry_Int_Tables_number   1
_chemical_formula_structural   Ba8Yb4Mn3WN16
_chemical_formula_sum   'Ba8 Yb4 Mn3 W1 N16'
_cell_volume   551.62334316
_cell_formula_units_Z   1
loop_
 _symmetry_equiv_pos_site_id
 _symmetry_equiv_pos_as_xyz
  1  'x, y, z'
loop_
 _atom_site_type_symbol
 _atom_site_label
 _atom_site_symmetry_multiplicity
 _atom_site_fract_x
 _atom_site_fract_y
 _atom_site_fract_z
 _atom_site_occupancy
  Ba  Ba0  1  0.569106  0.914918  0.937716  1
  Ba  Ba1  1  0.937716  0.578260  0.569106  1
  Ba  Ba2  1  0.322155  0.674444  0.673147  1
  Ba  Ba3  1  0.102848  0.120476  0.884748  1
  Ba  Ba4  1  0.133439  0.147797  0.365760  1
  Ba  Ba5  1  0.365760  0.353004  0.133439  1
  Ba  Ba6  1  0.673147  0.330254  0.322155  1
  Ba  Ba7  1  0.884748  0.891928  0.102848  1
  Yb  Yb8  1  0.348781  0.323808  0.664159  1
  Yb  Yb9  1  0.893245  0.928471  0.598555  1
  Yb  Yb10  1  0.664159  0.663253  0.348781  1
  Yb  Yb11  1  0.598555  0.579728  0.893245  1
  Mn  Mn12  1  0.492914  0.007086  0.492914  1
  Mn  Mn13  1  0.006825  0.493175  0.006825  1
  Mn  Mn14  1  0.757521  0.242479  0.757521  1
  W  W15  1  0.242998  0.757002  0.242998  1
  N  N16  1  0.007759  0.651773  0.832863  1
  N  N17  1  0.705690  0.280608  0.985615  1
  N  N18  1  0.643973  0.015597  0.513627  1
  N  N19  1  0.513627  0.826805  0.643973  1
  N  N20  1  0.241518  0.585668  0.430805  1
  N  N21  1  0.741785  0.420120  0.602329  1
  N  N22  1  0.985615  0.028086  0.705690  1
  N  N23  1  0.546849  0.969354  0.264350  1
  N  N24  1  0.430805  0.742008  0.241518  1
  N  N25  1  0.968835  0.545316  0.220669  1
  N  N26  1  0.288013  0.700551  0.011406  1
  N  N27  1  0.832863  0.507606  0.007759  1
  N  N28  1  0.220669  0.265181  0.968835  1
  N  N29  1  0.602329  0.235764  0.741785  1
  N  N30  1  0.264350  0.219448  0.546849  1
  N  N31  1  0.011406  0.000029  0.288013  1
