# generated using pymatgen
data_Cr12SiNi7N4
_symmetry_space_group_name_H-M   'P 1'
_cell_length_a   6.25541084
_cell_length_b   6.25541084
_cell_length_c   6.25541084
_cell_angle_alpha   89.89918405
_cell_angle_beta   89.89918405
_cell_angle_gamma   89.89918405
_symmetry_Int_Tables_number   1
_chemical_formula_structural   Cr12SiNi7N4
_chemical_formula_sum   'Cr12 Si1 Ni7 N4'
_cell_volume   244.77412120
_cell_formula_units_Z   1
loop_
 _symmetry_equiv_pos_site_id
 _symmetry_equiv_pos_as_xyz
  1  'x, y, z'
loop_
 _atom_site_type_symbol
 _atom_site_label
 _atom_site_symmetry_multiplicity
 _atom_site_fract_x
 _atom_site_fract_y
 _atom_site_fract_z
 _atom_site_occupancy
  Cr  Cr0  1  0.206226  0.457837  0.127848  1
  Cr  Cr1  1  0.457837  0.127848  0.206226  1
  Cr  Cr2  1  0.947694  0.377808  0.787549  1
  Cr  Cr3  1  0.875755  0.702522  0.046761  1
  Cr  Cr4  1  0.127848  0.206226  0.457837  1
  Cr  Cr5  1  0.787549  0.947694  0.377808  1
  Cr  Cr6  1  0.702522  0.046761  0.875755  1
  Cr  Cr7  1  0.046761  0.875755  0.702522  1
  Cr  Cr8  1  0.627608  0.298413  0.545069  1
  Cr  Cr9  1  0.545069  0.627608  0.298413  1
  Cr  Cr10  1  0.377808  0.787549  0.947694  1
  Cr  Cr11  1  0.298413  0.545069  0.627608  1
  Si  Si12  1  0.071423  0.071423  0.071423  1
  Ni  Ni13  1  0.309289  0.180741  0.825551  1
  Ni  Ni14  1  0.825551  0.309289  0.180741  1
  Ni  Ni15  1  0.180741  0.825551  0.309289  1
  Ni  Ni16  1  0.430995  0.934779  0.568067  1
  Ni  Ni17  1  0.568067  0.430995  0.934779  1
  Ni  Ni18  1  0.934779  0.568067  0.430995  1
  Ni  Ni19  1  0.685400  0.685400  0.685400  1
  N  N20  1  0.376829  0.376829  0.376829  1
  N  N21  1  0.620848  0.872350  0.122639  1
  N  N22  1  0.122639  0.620848  0.872350  1
  N  N23  1  0.872350  0.122639  0.620848  1
