# generated using pymatgen
data_TmLuFe7Si4Tc
_symmetry_space_group_name_H-M   'P 1'
_cell_length_a   6.68752693
_cell_length_b   7.38369946
_cell_length_c   3.85228600
_cell_angle_alpha   90.00000000
_cell_angle_beta   90.00000000
_cell_angle_gamma   90.11364701
_symmetry_Int_Tables_number   1
_chemical_formula_structural   TmLuFe7Si4Tc
_chemical_formula_sum   'Tm1 Lu1 Fe7 Si4 Tc1'
_cell_volume   190.22045797
_cell_formula_units_Z   1
loop_
 _symmetry_equiv_pos_site_id
 _symmetry_equiv_pos_as_xyz
  1  'x, y, z'
loop_
 _atom_site_type_symbol
 _atom_site_label
 _atom_site_symmetry_multiplicity
 _atom_site_fract_x
 _atom_site_fract_y
 _atom_site_fract_z
 _atom_site_occupancy
  Tm  Tm0  1  0.498340  0.496615  0.500000  1
  Lu  Lu1  1  0.000754  0.999294  0.000000  1
  Fe  Fe2  1  0.341135  0.105976  0.500000  1
  Fe  Fe3  1  0.146346  0.602933  0.000000  1
  Fe  Fe4  1  0.854250  0.394029  0.000000  1
  Fe  Fe5  1  0.928534  0.654149  0.500000  1
  Fe  Fe6  1  0.077904  0.349864  0.500000  1
  Fe  Fe7  1  0.574636  0.158454  0.000000  1
  Fe  Fe8  1  0.424341  0.843630  0.000000  1
  Si  Si9  1  0.771649  0.205468  0.500000  1
  Si  Si10  1  0.235128  0.799641  0.500000  1
  Si  Si11  1  0.262932  0.299603  0.000000  1
  Si  Si12  1  0.740114  0.691210  0.000000  1
  Tc  Tc13  1  0.643937  0.899133  0.500000  1
