# generated using pymatgen
data_Pr5Sn2Ru3
_symmetry_space_group_name_H-M   'P 1'
_cell_length_a   8.78319954
_cell_length_b   8.78319917
_cell_length_c   8.78319900
_cell_angle_alpha   109.47122024
_cell_angle_beta   109.47121940
_cell_angle_gamma   109.47122271
_symmetry_Int_Tables_number   1
_chemical_formula_structural   Pr5Sn2Ru3
_chemical_formula_sum   'Pr10 Sn4 Ru6'
_cell_volume   521.59847118
_cell_formula_units_Z   2
loop_
 _symmetry_equiv_pos_site_id
 _symmetry_equiv_pos_as_xyz
  1  'x, y, z'
loop_
 _atom_site_type_symbol
 _atom_site_label
 _atom_site_symmetry_multiplicity
 _atom_site_fract_x
 _atom_site_fract_y
 _atom_site_fract_z
 _atom_site_occupancy
  Pr  Pr0  1  0.250000  0.686509  0.436509  1
  Pr  Pr1  1  0.750000  0.813491  0.063491  1
  Pr  Pr2  1  0.436509  0.250000  0.686509  1
  Pr  Pr3  1  0.686509  0.436509  0.250000  1
  Pr  Pr4  1  0.063491  0.750000  0.813491  1
  Pr  Pr5  1  0.813491  0.063491  0.750000  1
  Pr  Pr6  1  0.207200  0.207200  0.207200  1
  Pr  Pr7  1  0.500000  0.000000  0.292800  1
  Pr  Pr8  1  0.292800  0.500000  0.000000  1
  Pr  Pr9  1  0.000000  0.292800  0.500000  1
  Sn  Sn10  1  0.596169  0.596169  0.596169  1
  Sn  Sn11  1  0.500000  0.000000  0.903831  1
  Sn  Sn12  1  0.903831  0.500000  0.000000  1
  Sn  Sn13  1  0.000000  0.903831  0.500000  1
  Ru  Ru14  1  0.250000  0.129158  0.879158  1
  Ru  Ru15  1  0.750000  0.370842  0.620842  1
  Ru  Ru16  1  0.879157  0.250000  0.129158  1
  Ru  Ru17  1  0.129158  0.879157  0.250000  1
  Ru  Ru18  1  0.620842  0.750000  0.370842  1
  Ru  Ru19  1  0.370842  0.620842  0.750000  1
