# generated using pymatgen
data_TbEr5Ti2(Al11Ru4)2
_symmetry_space_group_name_H-M   'P 1'
_cell_length_a   8.84908800
_cell_length_b   8.84553753
_cell_length_c   9.53233901
_cell_angle_alpha   89.99655427
_cell_angle_beta   90.00000000
_cell_angle_gamma   120.01327861
_symmetry_Int_Tables_number   1
_chemical_formula_structural   TbEr5Ti2(Al11Ru4)2
_chemical_formula_sum   'Tb1 Er5 Ti2 Al22 Ru8'
_cell_volume   646.09254105
_cell_formula_units_Z   1
loop_
 _symmetry_equiv_pos_site_id
 _symmetry_equiv_pos_as_xyz
  1  'x, y, z'
loop_
 _atom_site_type_symbol
 _atom_site_label
 _atom_site_symmetry_multiplicity
 _atom_site_fract_x
 _atom_site_fract_y
 _atom_site_fract_z
 _atom_site_occupancy
  Tb  Tb0  1  0.194051  0.388103  0.250684  1
  Er  Er1  1  0.805536  0.611071  0.749507  1
  Er  Er2  1  0.611227  0.805669  0.250555  1
  Er  Er3  1  0.389049  0.194494  0.749489  1
  Er  Er4  1  0.194441  0.805669  0.250555  1
  Er  Er5  1  0.805447  0.194494  0.749489  1
  Ti  Ti6  1  0.333453  0.666906  0.997223  1
  Ti  Ti7  1  0.666669  0.333338  0.002478  1
  Al  Al8  1  0.666691  0.333380  0.517868  1
  Al  Al9  1  0.333511  0.667023  0.482399  1
  Al  Al10  1  0.161413  0.322826  0.577915  1
  Al  Al11  1  0.838572  0.677145  0.422395  1
  Al  Al12  1  0.677185  0.838593  0.577671  1
  Al  Al13  1  0.840789  0.681577  0.077638  1
  Al  Al14  1  0.322933  0.161229  0.422517  1
  Al  Al15  1  0.159190  0.318380  0.921947  1
  Al  Al16  1  0.161409  0.838593  0.577671  1
  Al  Al17  1  0.318498  0.159036  0.077543  1
  Al  Al18  1  0.838296  0.161229  0.422517  1
  Al  Al19  1  0.681577  0.840782  0.922242  1
  Al  Al20  1  0.840539  0.159036  0.077543  1
  Al  Al21  1  0.159205  0.840782  0.922242  1
  Al  Al22  1  0.560694  0.121388  0.252069  1
  Al  Al23  1  0.439260  0.878521  0.747926  1
  Al  Al24  1  0.878096  0.439364  0.252084  1
  Al  Al25  1  0.121460  0.560756  0.747920  1
  Al  Al26  1  0.561268  0.439364  0.252084  1
  Al  Al27  1  0.439296  0.560756  0.747920  1
  Al  Al28  1  0.999740  0.999480  0.250456  1
  Al  Al29  1  0.000011  0.000022  0.749516  1
  Ru  Ru30  1  0.500091  0.000181  0.000011  1
  Ru  Ru31  1  0.999715  0.500140  0.999734  1
  Ru  Ru32  1  0.500083  0.000165  0.500017  1
  Ru  Ru33  1  0.500425  0.500140  0.999734  1
  Ru  Ru34  1  0.999800  0.500156  0.500220  1
  Ru  Ru35  1  0.500356  0.500156  0.500220  1
  Ru  Ru36  1  0.000024  0.000048  0.000050  1
  Ru  Ru37  1  0.000001  0.000002  0.499951  1
