# generated using pymatgen
data_Ac2Dy(SnRh)3
_symmetry_space_group_name_H-M   'P 1'
_cell_length_a   7.66918311
_cell_length_b   7.55763657
_cell_length_c   4.25227300
_cell_angle_alpha   90.00000000
_cell_angle_beta   90.00000000
_cell_angle_gamma   119.51999957
_symmetry_Int_Tables_number   1
_chemical_formula_structural   Ac2Dy(SnRh)3
_chemical_formula_sum   'Ac2 Dy1 Sn3 Rh3'
_cell_volume   214.47033140
_cell_formula_units_Z   1
loop_
 _symmetry_equiv_pos_site_id
 _symmetry_equiv_pos_as_xyz
  1  'x, y, z'
loop_
 _atom_site_type_symbol
 _atom_site_label
 _atom_site_symmetry_multiplicity
 _atom_site_fract_x
 _atom_site_fract_y
 _atom_site_fract_z
 _atom_site_occupancy
  Ac  Ac0  1  0.415039  0.416803  0.500000  1
  Ac  Ac1  1  0.584961  0.001764  0.500000  1
  Dy  Dy2  1  0.000000  0.591581  0.500000  1
  Sn  Sn3  1  0.764208  0.751107  0.000000  1
  Sn  Sn4  1  0.235792  0.986900  0.000000  1
  Sn  Sn5  1  0.000000  0.257883  0.000000  1
  Rh  Rh6  1  0.677546  0.340392  0.000000  1
  Rh  Rh7  1  0.322454  0.662847  0.000000  1
  Rh  Rh8  1  0.000000  0.990723  0.500000  1
