# generated using pymatgen
data_GdLuReB6
_symmetry_space_group_name_H-M   'P 1'
_cell_length_a   3.63142500
_cell_length_b   9.07794400
_cell_length_c   11.44185000
_cell_angle_alpha   90.00000000
_cell_angle_beta   90.00000000
_cell_angle_gamma   90.00000000
_symmetry_Int_Tables_number   1
_chemical_formula_structural   GdLuReB6
_chemical_formula_sum   'Gd4 Lu4 Re4 B24'
_cell_volume   377.19057158
_cell_formula_units_Z   4
loop_
 _symmetry_equiv_pos_site_id
 _symmetry_equiv_pos_as_xyz
  1  'x, y, z'
loop_
 _atom_site_type_symbol
 _atom_site_label
 _atom_site_symmetry_multiplicity
 _atom_site_fract_x
 _atom_site_fract_y
 _atom_site_fract_z
 _atom_site_occupancy
  Gd  Gd0  1  0.000000  0.323411  0.413814  1
  Gd  Gd1  1  0.000000  0.676589  0.586186  1
  Gd  Gd2  1  0.000000  0.823411  0.086186  1
  Gd  Gd3  1  0.000000  0.176589  0.913814  1
  Lu  Lu4  1  0.000000  0.944065  0.370833  1
  Lu  Lu5  1  0.000000  0.055935  0.629167  1
  Lu  Lu6  1  0.000000  0.444065  0.129167  1
  Lu  Lu7  1  0.000000  0.555935  0.870833  1
  Re  Re8  1  0.000000  0.639474  0.320424  1
  Re  Re9  1  0.000000  0.360526  0.679576  1
  Re  Re10  1  0.000000  0.139474  0.179576  1
  Re  Re11  1  0.000000  0.860526  0.820424  1
  B  B12  1  0.500000  0.553516  0.433292  1
  B  B13  1  0.500000  0.446484  0.566708  1
  B  B14  1  0.500000  0.053516  0.066708  1
  B  B15  1  0.500000  0.946484  0.933292  1
  B  B16  1  0.500000  0.750720  0.419346  1
  B  B17  1  0.500000  0.249280  0.580654  1
  B  B18  1  0.500000  0.250720  0.080654  1
  B  B19  1  0.500000  0.749280  0.919346  1
  B  B20  1  0.500000  0.793826  0.265489  1
  B  B21  1  0.500000  0.206174  0.734511  1
  B  B22  1  0.500000  0.293826  0.234511  1
  B  B23  1  0.500000  0.706174  0.765489  1
  B  B24  1  0.500000  0.630902  0.184777  1
  B  B25  1  0.500000  0.369098  0.815223  1
  B  B26  1  0.500000  0.130902  0.315223  1
  B  B27  1  0.500000  0.869098  0.684777  1
  B  B28  1  0.500000  0.981699  0.212355  1
  B  B29  1  0.500000  0.018301  0.787645  1
  B  B30  1  0.500000  0.481699  0.287645  1
  B  B31  1  0.500000  0.518301  0.712355  1
  B  B32  1  0.500000  0.599269  0.027707  1
  B  B33  1  0.500000  0.400731  0.972293  1
  B  B34  1  0.500000  0.099269  0.472293  1
  B  B35  1  0.500000  0.900731  0.527707  1
