# generated using pymatgen
data_Nb6GeBiSe12
_symmetry_space_group_name_H-M   'P 1'
_cell_length_a   6.10097500
_cell_length_b   6.10097546
_cell_length_c   14.64571400
_cell_angle_alpha   90.00000000
_cell_angle_beta   90.00000000
_cell_angle_gamma   120.00001379
_symmetry_Int_Tables_number   1
_chemical_formula_structural   Nb6GeBiSe12
_chemical_formula_sum   'Nb6 Ge1 Bi1 Se12'
_cell_volume   472.10613458
_cell_formula_units_Z   1
loop_
 _symmetry_equiv_pos_site_id
 _symmetry_equiv_pos_as_xyz
  1  'x, y, z'
loop_
 _atom_site_type_symbol
 _atom_site_label
 _atom_site_symmetry_multiplicity
 _atom_site_fract_x
 _atom_site_fract_y
 _atom_site_fract_z
 _atom_site_occupancy
  Nb  Nb0  1  0.333333  0.666667  0.254774  1
  Nb  Nb1  1  0.000000  0.000000  0.252219  1
  Nb  Nb2  1  0.000000  0.000000  0.747781  1
  Nb  Nb3  1  0.333333  0.666667  0.745226  1
  Nb  Nb4  1  0.666667  0.333333  0.745226  1
  Nb  Nb5  1  0.666667  0.333333  0.254774  1
  Ge  Ge6  1  0.000000  0.000000  0.500000  1
  Bi  Bi7  1  0.000000  0.000000  0.000000  1
  Se  Se8  1  0.000000  0.666088  0.632294  1
  Se  Se9  1  0.000000  0.656298  0.859798  1
  Se  Se10  1  0.000000  0.343702  0.140202  1
  Se  Se11  1  0.000000  0.333912  0.367706  1
  Se  Se12  1  0.333912  0.333912  0.632294  1
  Se  Se13  1  0.343702  0.343702  0.859798  1
  Se  Se14  1  0.656298  0.656298  0.140202  1
  Se  Se15  1  0.666088  0.666088  0.367706  1
  Se  Se16  1  0.343702  0.000000  0.140202  1
  Se  Se17  1  0.333912  0.000000  0.367706  1
  Se  Se18  1  0.666088  0.000000  0.632294  1
  Se  Se19  1  0.656298  0.000000  0.859798  1
