# generated using pymatgen
data_Lu8B24OsRu3
_symmetry_space_group_name_H-M   'P 1'
_cell_length_a   3.59244800
_cell_length_b   9.02707242
_cell_length_c   11.39186353
_cell_angle_alpha   89.96502471
_cell_angle_beta   90.00000000
_cell_angle_gamma   90.00000000
_symmetry_Int_Tables_number   1
_chemical_formula_structural   Lu8B24OsRu3
_chemical_formula_sum   'Lu8 B24 Os1 Ru3'
_cell_volume   369.42995745
_cell_formula_units_Z   1
loop_
 _symmetry_equiv_pos_site_id
 _symmetry_equiv_pos_as_xyz
  1  'x, y, z'
loop_
 _atom_site_type_symbol
 _atom_site_label
 _atom_site_symmetry_multiplicity
 _atom_site_fract_x
 _atom_site_fract_y
 _atom_site_fract_z
 _atom_site_occupancy
  Lu  Lu0  1  0.000000  0.321392  0.414128  1
  Lu  Lu1  1  0.000000  0.678787  0.585743  1
  Lu  Lu2  1  0.000000  0.821026  0.086156  1
  Lu  Lu3  1  0.000000  0.178478  0.914197  1
  Lu  Lu4  1  0.000000  0.944433  0.373068  1
  Lu  Lu5  1  0.000000  0.056276  0.627392  1
  Lu  Lu6  1  0.000000  0.443605  0.126651  1
  Lu  Lu7  1  0.000000  0.556202  0.872611  1
  B  B8  1  0.500000  0.553458  0.434004  1
  B  B9  1  0.500000  0.446251  0.566234  1
  B  B10  1  0.500000  0.053648  0.066063  1
  B  B11  1  0.500000  0.946278  0.933903  1
  B  B12  1  0.500000  0.749244  0.420602  1
  B  B13  1  0.500000  0.250889  0.579438  1
  B  B14  1  0.500000  0.248885  0.079279  1
  B  B15  1  0.500000  0.750918  0.920622  1
  B  B16  1  0.500000  0.792555  0.265540  1
  B  B17  1  0.500000  0.207747  0.734523  1
  B  B18  1  0.500000  0.292220  0.234344  1
  B  B19  1  0.500000  0.707775  0.765519  1
  B  B20  1  0.500000  0.631254  0.184280  1
  B  B21  1  0.500000  0.368582  0.815763  1
  B  B22  1  0.500000  0.131506  0.315806  1
  B  B23  1  0.500000  0.868640  0.684248  1
  B  B24  1  0.500000  0.981989  0.212940  1
  B  B25  1  0.500000  0.018115  0.787067  1
  B  B26  1  0.500000  0.481562  0.286969  1
  B  B27  1  0.500000  0.518107  0.712997  1
  B  B28  1  0.500000  0.605812  0.029103  1
  B  B29  1  0.500000  0.393840  0.970551  1
  B  B30  1  0.500000  0.106111  0.470836  1
  B  B31  1  0.500000  0.894281  0.529370  1
  Os  Os32  1  0.000000  0.637911  0.320926  1
  Ru  Ru33  1  0.000000  0.362143  0.678972  1
  Ru  Ru34  1  0.000000  0.138013  0.179249  1
  Ru  Ru35  1  0.000000  0.862070  0.820907  1
