# generated using pymatgen
data_Tb6Dy2Sc12Si15Au
_symmetry_space_group_name_H-M   'P 1'
_cell_length_a   7.13488756
_cell_length_b   7.39129155
_cell_length_c   14.08100915
_cell_angle_alpha   89.92448325
_cell_angle_beta   89.69717316
_cell_angle_gamma   90.18310151
_symmetry_Int_Tables_number   1
_chemical_formula_structural   Tb6Dy2Sc12Si15Au
_chemical_formula_sum   'Tb6 Dy2 Sc12 Si15 Au1'
_cell_volume   742.56175399
_cell_formula_units_Z   1
loop_
 _symmetry_equiv_pos_site_id
 _symmetry_equiv_pos_as_xyz
  1  'x, y, z'
loop_
 _atom_site_type_symbol
 _atom_site_label
 _atom_site_symmetry_multiplicity
 _atom_site_fract_x
 _atom_site_fract_y
 _atom_site_fract_z
 _atom_site_occupancy
  Tb  Tb0  1  0.012428  0.175228  0.097565  1
  Tb  Tb1  1  0.987319  0.825331  0.903402  1
  Tb  Tb2  1  0.487099  0.676336  0.903299  1
  Tb  Tb3  1  0.987979  0.828066  0.597748  1
  Tb  Tb4  1  0.512232  0.324160  0.096646  1
  Tb  Tb5  1  0.010659  0.173996  0.399887  1
  Dy  Dy6  1  0.510504  0.324609  0.400753  1
  Dy  Dy7  1  0.490864  0.676093  0.599125  1
  Sc  Sc8  1  0.162534  0.501128  0.750975  1
  Sc  Sc9  1  0.837855  0.498541  0.250793  1
  Sc  Sc10  1  0.338227  0.000572  0.249352  1
  Sc  Sc11  1  0.663728  0.996535  0.750874  1
  Sc  Sc12  1  0.337850  0.176080  0.625622  1
  Sc  Sc13  1  0.667010  0.823612  0.373840  1
  Sc  Sc14  1  0.169202  0.673332  0.373605  1
  Sc  Sc15  1  0.670314  0.824174  0.125079  1
  Sc  Sc16  1  0.827944  0.325669  0.625251  1
  Sc  Sc17  1  0.328701  0.175203  0.875926  1
  Sc  Sc18  1  0.829978  0.322606  0.875827  1
  Sc  Sc19  1  0.169543  0.676675  0.125024  1
  Si  Si20  1  0.035140  0.119640  0.750614  1
  Si  Si21  1  0.966429  0.883050  0.249402  1
  Si  Si22  1  0.466589  0.616408  0.248552  1
  Si  Si23  1  0.534982  0.384162  0.752196  1
  Si  Si24  1  0.284949  0.874774  0.750651  1
  Si  Si25  1  0.713022  0.127093  0.249028  1
  Si  Si26  1  0.214783  0.372062  0.248295  1
  Si  Si27  1  0.786733  0.626391  0.752335  1
  Si  Si28  1  0.835324  0.537339  0.459353  1
  Si  Si29  1  0.341751  0.963153  0.460130  1
  Si  Si30  1  0.844136  0.535645  0.038975  1
  Si  Si31  1  0.657048  0.036155  0.537951  1
  Si  Si32  1  0.155322  0.464237  0.961508  1
  Si  Si33  1  0.656433  0.035067  0.960909  1
  Si  Si34  1  0.343413  0.964177  0.039339  1
  Au  Au35  1  0.161973  0.462702  0.540170  1
