# generated using pymatgen
data_Sc4Cr2ReTc5
_symmetry_space_group_name_H-M   'P 1'
_cell_length_a   5.13938502
_cell_length_b   5.22715941
_cell_length_c   8.56821800
_cell_angle_alpha   90.00000000
_cell_angle_beta   90.00000000
_cell_angle_gamma   120.49106667
_symmetry_Int_Tables_number   1
_chemical_formula_structural   Sc4Cr2ReTc5
_chemical_formula_sum   'Sc4 Cr2 Re1 Tc5'
_cell_volume   198.34793095
_cell_formula_units_Z   1
loop_
 _symmetry_equiv_pos_site_id
 _symmetry_equiv_pos_as_xyz
  1  'x, y, z'
loop_
 _atom_site_type_symbol
 _atom_site_label
 _atom_site_symmetry_multiplicity
 _atom_site_fract_x
 _atom_site_fract_y
 _atom_site_fract_z
 _atom_site_occupancy
  Sc  Sc0  1  0.334442  0.666740  0.438042  1
  Sc  Sc1  1  0.665531  0.332962  0.938473  1
  Sc  Sc2  1  0.665531  0.332962  0.561527  1
  Sc  Sc3  1  0.334442  0.666740  0.061958  1
  Cr  Cr4  1  0.662196  0.831129  0.750000  1
  Cr  Cr5  1  0.336993  0.168399  0.250000  1
  Re  Re6  1  0.824523  0.654440  0.250000  1
  Tc  Tc7  1  0.822527  0.171833  0.250000  1
  Tc  Tc8  1  0.176939  0.348460  0.750000  1
  Tc  Tc9  1  0.177572  0.828530  0.750000  1
  Tc  Tc10  1  0.999652  0.998903  0.500747  1
  Tc  Tc11  1  0.999652  0.998903  0.999253  1
