# generated using pymatgen
data_Dy2Ho10Os3Rh
_symmetry_space_group_name_H-M   'P 1'
_cell_length_a   6.34182500
_cell_length_b   7.33281955
_cell_length_c   9.04280100
_cell_angle_alpha   90.00000000
_cell_angle_beta   90.00000000
_cell_angle_gamma   90.23114914
_symmetry_Int_Tables_number   1
_chemical_formula_structural   Dy2Ho10Os3Rh
_chemical_formula_sum   'Dy2 Ho10 Os3 Rh1'
_cell_volume   420.51809776
_cell_formula_units_Z   1
loop_
 _symmetry_equiv_pos_site_id
 _symmetry_equiv_pos_as_xyz
  1  'x, y, z'
loop_
 _atom_site_type_symbol
 _atom_site_label
 _atom_site_symmetry_multiplicity
 _atom_site_fract_x
 _atom_site_fract_y
 _atom_site_fract_z
 _atom_site_occupancy
  Dy  Dy0  1  0.869486  0.538250  0.250000  1
  Dy  Dy1  1  0.630200  0.040147  0.250000  1
  Ho  Ho2  1  0.334061  0.673407  0.061494  1
  Ho  Ho3  1  0.169319  0.177745  0.438294  1
  Ho  Ho4  1  0.669399  0.324274  0.563682  1
  Ho  Ho5  1  0.827484  0.823827  0.933539  1
  Ho  Ho6  1  0.669399  0.324274  0.936318  1
  Ho  Ho7  1  0.827484  0.823827  0.566461  1
  Ho  Ho8  1  0.334061  0.673407  0.438506  1
  Ho  Ho9  1  0.169319  0.177745  0.061706  1
  Ho  Ho10  1  0.129943  0.461411  0.750000  1
  Ho  Ho11  1  0.369021  0.961403  0.750000  1
  Os  Os12  1  0.459370  0.383676  0.250000  1
  Os  Os13  1  0.961615  0.115486  0.750000  1
  Os  Os14  1  0.538505  0.616643  0.750000  1
  Rh  Rh15  1  0.041335  0.884482  0.250000  1
