# generated using pymatgen
data_Na3US4
_symmetry_space_group_name_H-M   'P 1'
_cell_length_a   6.91098347
_cell_length_b   6.91098347
_cell_length_c   4.07723200
_cell_angle_alpha   90.00000000
_cell_angle_beta   90.00000000
_cell_angle_gamma   108.48703945
_symmetry_Int_Tables_number   1
_chemical_formula_structural   Na3US4
_chemical_formula_sum   'Na3 U1 S4'
_cell_volume   184.68625476
_cell_formula_units_Z   1
loop_
 _symmetry_equiv_pos_site_id
 _symmetry_equiv_pos_as_xyz
  1  'x, y, z'
loop_
 _atom_site_type_symbol
 _atom_site_label
 _atom_site_symmetry_multiplicity
 _atom_site_fract_x
 _atom_site_fract_y
 _atom_site_fract_z
 _atom_site_occupancy
  Na  Na0  1  0.000000  0.500000  0.500000  1
  Na  Na1  1  0.500000  0.000000  0.500000  1
  Na  Na2  1  0.500000  0.500000  0.000000  1
  U  U3  1  0.000000  0.000000  0.000000  1
  S  S4  1  0.773846  0.226154  0.000000  1
  S  S5  1  0.777487  0.777487  0.500000  1
  S  S6  1  0.222513  0.222513  0.500000  1
  S  S7  1  0.226154  0.773846  0.000000  1
