# generated using pymatgen
data_Nd2Eu4TaCo17P12
_symmetry_space_group_name_H-M   'P 1'
_cell_length_a   3.75828900
_cell_length_b   10.69214600
_cell_length_c   12.41069200
_cell_angle_alpha   90.00000000
_cell_angle_beta   90.00000000
_cell_angle_gamma   90.00000000
_symmetry_Int_Tables_number   1
_chemical_formula_structural   Nd2Eu4TaCo17P12
_chemical_formula_sum   'Nd2 Eu4 Ta1 Co17 P12'
_cell_volume   498.71341545
_cell_formula_units_Z   1
loop_
 _symmetry_equiv_pos_site_id
 _symmetry_equiv_pos_as_xyz
  1  'x, y, z'
loop_
 _atom_site_type_symbol
 _atom_site_label
 _atom_site_symmetry_multiplicity
 _atom_site_fract_x
 _atom_site_fract_y
 _atom_site_fract_z
 _atom_site_occupancy
  Nd  Nd0  1  0.000000  0.500000  0.527404  1
  Nd  Nd1  1  0.500000  0.000000  0.477097  1
  Eu  Eu2  1  0.500000  0.822212  0.206975  1
  Eu  Eu3  1  0.500000  0.177788  0.206975  1
  Eu  Eu4  1  0.000000  0.680867  0.795845  1
  Eu  Eu5  1  0.000000  0.319133  0.795845  1
  Ta  Ta6  1  0.500000  0.500000  0.151084  1
  Co  Co7  1  0.000000  0.000000  0.842539  1
  Co  Co8  1  0.500000  0.500000  0.702237  1
  Co  Co9  1  0.000000  0.000000  0.297313  1
  Co  Co10  1  0.000000  0.500000  0.987517  1
  Co  Co11  1  0.500000  0.000000  0.009063  1
  Co  Co12  1  0.500000  0.329649  0.992093  1
  Co  Co13  1  0.500000  0.670351  0.992093  1
  Co  Co14  1  0.000000  0.164388  0.002018  1
  Co  Co15  1  0.000000  0.835612  0.002018  1
  Co  Co16  1  0.500000  0.296109  0.432719  1
  Co  Co17  1  0.500000  0.703891  0.432719  1
  Co  Co18  1  0.000000  0.202656  0.569737  1
  Co  Co19  1  0.000000  0.797344  0.569737  1
  Co  Co20  1  0.500000  0.882163  0.709089  1
  Co  Co21  1  0.500000  0.117837  0.709089  1
  Co  Co22  1  0.000000  0.619663  0.293397  1
  Co  Co23  1  0.000000  0.380337  0.293397  1
  P  P24  1  0.500000  0.500000  0.885089  1
  P  P25  1  0.000000  0.000000  0.112328  1
  P  P26  1  0.500000  0.500000  0.350514  1
  P  P27  1  0.000000  0.000000  0.661023  1
  P  P28  1  0.500000  0.303999  0.617327  1
  P  P29  1  0.500000  0.696001  0.617327  1
  P  P30  1  0.000000  0.194513  0.386415  1
  P  P31  1  0.000000  0.805487  0.386415  1
  P  P32  1  0.500000  0.849829  0.890936  1
  P  P33  1  0.500000  0.150171  0.890936  1
  P  P34  1  0.000000  0.660457  0.101843  1
  P  P35  1  0.000000  0.339543  0.101843  1
