# generated using pymatgen
data_Er4Cd3Ni2
_symmetry_space_group_name_H-M   'P 1'
_cell_length_a   3.58498600
_cell_length_b   7.34498730
_cell_length_c   8.01698046
_cell_angle_alpha   71.95666810
_cell_angle_beta   90.00000000
_cell_angle_gamma   90.00000000
_symmetry_Int_Tables_number   1
_chemical_formula_structural   Er4Cd3Ni2
_chemical_formula_sum   'Er4 Cd3 Ni2'
_cell_volume   200.71914902
_cell_formula_units_Z   1
loop_
 _symmetry_equiv_pos_site_id
 _symmetry_equiv_pos_as_xyz
  1  'x, y, z'
loop_
 _atom_site_type_symbol
 _atom_site_label
 _atom_site_symmetry_multiplicity
 _atom_site_fract_x
 _atom_site_fract_y
 _atom_site_fract_z
 _atom_site_occupancy
  Er  Er0  1  0.500000  0.916882  0.218889  1
  Er  Er1  1  0.500000  0.083118  0.781111  1
  Er  Er2  1  0.500000  0.394619  0.318351  1
  Er  Er3  1  0.500000  0.605381  0.681649  1
  Cd  Cd4  1  0.000000  0.702726  0.004926  1
  Cd  Cd5  1  0.000000  0.297274  0.995074  1
  Cd  Cd6  1  0.000000  0.000000  0.500000  1
  Ni  Ni7  1  0.000000  0.657921  0.390283  1
  Ni  Ni8  1  0.000000  0.342079  0.609717  1
