# generated using pymatgen
data_Sc12InCo4Ir
_symmetry_space_group_name_H-M   'P 1'
_cell_length_a   7.72971383
_cell_length_b   7.72971437
_cell_length_c   7.72971397
_cell_angle_alpha   110.98294802
_cell_angle_beta   111.51758419
_cell_angle_gamma   105.96935570
_symmetry_Int_Tables_number   1
_chemical_formula_structural   Sc12InCo4Ir
_chemical_formula_sum   'Sc12 In1 Co4 Ir1'
_cell_volume   354.52708631
_cell_formula_units_Z   1
loop_
 _symmetry_equiv_pos_site_id
 _symmetry_equiv_pos_as_xyz
  1  'x, y, z'
loop_
 _atom_site_type_symbol
 _atom_site_label
 _atom_site_symmetry_multiplicity
 _atom_site_fract_x
 _atom_site_fract_y
 _atom_site_fract_z
 _atom_site_occupancy
  Sc  Sc0  1  0.423513  0.224784  0.198729  1
  Sc  Sc1  1  0.576487  0.775216  0.801271  1
  Sc  Sc2  1  0.026056  0.224784  0.801271  1
  Sc  Sc3  1  0.973944  0.775216  0.198729  1
  Sc  Sc4  1  0.312893  0.614437  0.301543  1
  Sc  Sc5  1  0.687107  0.385563  0.698457  1
  Sc  Sc6  1  0.312893  0.011349  0.698457  1
  Sc  Sc7  1  0.687107  0.988651  0.301543  1
  Sc  Sc8  1  0.185197  0.277365  0.462562  1
  Sc  Sc9  1  0.814803  0.722634  0.537438  1
  Sc  Sc10  1  0.185197  0.722634  0.907832  1
  Sc  Sc11  1  0.814803  0.277365  0.092168  1
  In  In12  1  0.500000  0.500000  0.000000  1
  Co  Co13  1  0.368000  0.000000  0.368000  1
  Co  Co14  1  0.632000  0.000000  0.632000  1
  Co  Co15  1  0.117543  0.617543  0.500000  1
  Co  Co16  1  0.882457  0.382457  0.500000  1
  Ir  Ir17  1  0.000000  0.000000  0.000000  1
