# generated using pymatgen
data_SrMnCo(P2O7)2
_symmetry_space_group_name_H-M   'P 1'
_cell_length_a   4.88844448
_cell_length_b   7.17917622
_cell_length_c   8.07487943
_cell_angle_alpha   87.30459062
_cell_angle_beta   94.98859868
_cell_angle_gamma   107.66819463
_symmetry_Int_Tables_number   1
_chemical_formula_structural   SrMnCo(P2O7)2
_chemical_formula_sum   'Sr1 Mn1 Co1 P4 O14'
_cell_volume   268.93415256
_cell_formula_units_Z   1
loop_
 _symmetry_equiv_pos_site_id
 _symmetry_equiv_pos_as_xyz
  1  'x, y, z'
loop_
 _atom_site_type_symbol
 _atom_site_label
 _atom_site_symmetry_multiplicity
 _atom_site_fract_x
 _atom_site_fract_y
 _atom_site_fract_z
 _atom_site_occupancy
  Sr  Sr0  1  0.000000  0.000000  0.000000  1
  Mn  Mn1  1  0.000000  0.000000  0.500000  1
  Co  Co2  1  0.500000  0.500000  0.000000  1
  P  P3  1  0.982640  0.381824  0.244184  1
  P  P4  1  0.017360  0.618176  0.755816  1
  P  P5  1  0.397470  0.775138  0.289300  1
  P  P6  1  0.602530  0.224862  0.710700  1
  O  O7  1  0.096305  0.800269  0.644879  1
  O  O8  1  0.903695  0.199731  0.355121  1
  O  O9  1  0.289405  0.558793  0.806027  1
  O  O10  1  0.710595  0.441207  0.193973  1
  O  O11  1  0.126664  0.344353  0.091739  1
  O  O12  1  0.873336  0.655647  0.908261  1
  O  O13  1  0.208021  0.555533  0.345341  1
  O  O14  1  0.497572  0.236159  0.885245  1
  O  O15  1  0.502428  0.763841  0.114755  1
  O  O16  1  0.797990  0.093780  0.719276  1
  O  O17  1  0.202010  0.906220  0.280724  1
  O  O18  1  0.362974  0.181649  0.570932  1
  O  O19  1  0.637026  0.818351  0.429068  1
  O  O20  1  0.791979  0.444467  0.654659  1
