# generated using pymatgen
data_Nb4Si3GeRu4
_symmetry_space_group_name_H-M   'P 1'
_cell_length_a   3.88650400
_cell_length_b   6.38383674
_cell_length_c   7.37384275
_cell_angle_alpha   90.27607479
_cell_angle_beta   90.00000000
_cell_angle_gamma   90.00000000
_symmetry_Int_Tables_number   1
_chemical_formula_structural   Nb4Si3GeRu4
_chemical_formula_sum   'Nb4 Si3 Ge1 Ru4'
_cell_volume   182.94886579
_cell_formula_units_Z   1
loop_
 _symmetry_equiv_pos_site_id
 _symmetry_equiv_pos_as_xyz
  1  'x, y, z'
loop_
 _atom_site_type_symbol
 _atom_site_label
 _atom_site_symmetry_multiplicity
 _atom_site_fract_x
 _atom_site_fract_y
 _atom_site_fract_z
 _atom_site_occupancy
  Nb  Nb0  1  0.250000  0.020780  0.816102  1
  Nb  Nb1  1  0.250000  0.521179  0.680018  1
  Nb  Nb2  1  0.750000  0.972099  0.183898  1
  Nb  Nb3  1  0.750000  0.480985  0.320223  1
  Si  Si4  1  0.250000  0.773781  0.378854  1
  Si  Si5  1  0.750000  0.727499  0.874510  1
  Si  Si6  1  0.750000  0.225380  0.621991  1
  Ge  Ge7  1  0.250000  0.270166  0.125336  1
  Ru  Ru8  1  0.250000  0.149541  0.445915  1
  Ru  Ru9  1  0.250000  0.658206  0.061142  1
  Ru  Ru10  1  0.750000  0.847239  0.561311  1
  Ru  Ru11  1  0.750000  0.353146  0.930700  1
