# generated using pymatgen
data_Ba4Sb2Se
_symmetry_space_group_name_H-M   'P 1'
_cell_length_a   9.04017173
_cell_length_b   9.04017179
_cell_length_c   9.04017217
_cell_angle_alpha   109.81795753
_cell_angle_beta   109.81795636
_cell_angle_gamma   108.77995114
_symmetry_Int_Tables_number   1
_chemical_formula_structural   Ba4Sb2Se
_chemical_formula_sum   'Ba8 Sb4 Se2'
_cell_volume   568.67067197
_cell_formula_units_Z   2
loop_
 _symmetry_equiv_pos_site_id
 _symmetry_equiv_pos_as_xyz
  1  'x, y, z'
loop_
 _atom_site_type_symbol
 _atom_site_label
 _atom_site_symmetry_multiplicity
 _atom_site_fract_x
 _atom_site_fract_y
 _atom_site_fract_z
 _atom_site_occupancy
  Ba  Ba0  1  0.622111  0.878209  0.882245  1
  Ba  Ba1  1  0.260134  0.377889  0.256099  1
  Ba  Ba2  1  0.121791  0.004036  0.743901  1
  Ba  Ba3  1  0.489866  0.245964  0.617755  1
  Ba  Ba4  1  0.127889  0.510134  0.756099  1
  Ba  Ba5  1  0.754036  0.371791  0.243901  1
  Ba  Ba6  1  0.995964  0.739866  0.117755  1
  Ba  Ba7  1  0.628209  0.872111  0.382245  1
  Sb  Sb8  1  0.375000  0.998354  0.123354  1
  Sb  Sb9  1  0.001646  0.125000  0.376646  1
  Sb  Sb10  1  0.875000  0.251646  0.876646  1
  Sb  Sb11  1  0.748354  0.625000  0.623354  1
  Se  Se12  1  0.500000  0.500000  0.000000  1
  Se  Se13  1  0.250000  0.750000  0.500000  1
