# generated using pymatgen
data_BeNb4Co4SiP2
_symmetry_space_group_name_H-M   'P 1'
_cell_length_a   3.57983300
_cell_length_b   6.15396124
_cell_length_c   7.00907229
_cell_angle_alpha   89.91211892
_cell_angle_beta   90.00000000
_cell_angle_gamma   90.00000000
_symmetry_Int_Tables_number   1
_chemical_formula_structural   BeNb4Co4SiP2
_chemical_formula_sum   'Be1 Nb4 Co4 Si1 P2'
_cell_volume   154.41075700
_cell_formula_units_Z   1
loop_
 _symmetry_equiv_pos_site_id
 _symmetry_equiv_pos_as_xyz
  1  'x, y, z'
loop_
 _atom_site_type_symbol
 _atom_site_label
 _atom_site_symmetry_multiplicity
 _atom_site_fract_x
 _atom_site_fract_y
 _atom_site_fract_z
 _atom_site_occupancy
  Be  Be0  1  0.250000  0.776002  0.381840  1
  Nb  Nb1  1  0.250000  0.020561  0.819757  1
  Nb  Nb2  1  0.250000  0.527700  0.672726  1
  Nb  Nb3  1  0.750000  0.969283  0.184163  1
  Nb  Nb4  1  0.750000  0.487202  0.325896  1
  Co  Co5  1  0.250000  0.140339  0.441930  1
  Co  Co6  1  0.250000  0.642365  0.059073  1
  Co  Co7  1  0.750000  0.857839  0.561738  1
  Co  Co8  1  0.750000  0.359559  0.932454  1
  Si  Si9  1  0.250000  0.272735  0.123088  1
  P  P10  1  0.750000  0.222594  0.616323  1
  P  P11  1  0.750000  0.723822  0.881012  1
