# generated using pymatgen
data_NdSm5Fe4(Co7P6)2
_symmetry_space_group_name_H-M   'P 1'
_cell_length_a   3.74728200
_cell_length_b   10.63715500
_cell_length_c   12.24546900
_cell_angle_alpha   90.00000000
_cell_angle_beta   90.00000000
_cell_angle_gamma   90.00000000
_symmetry_Int_Tables_number   1
_chemical_formula_structural   NdSm5Fe4(Co7P6)2
_chemical_formula_sum   'Nd1 Sm5 Fe4 Co14 P12'
_cell_volume   488.10953086
_cell_formula_units_Z   1
loop_
 _symmetry_equiv_pos_site_id
 _symmetry_equiv_pos_as_xyz
  1  'x, y, z'
loop_
 _atom_site_type_symbol
 _atom_site_label
 _atom_site_symmetry_multiplicity
 _atom_site_fract_x
 _atom_site_fract_y
 _atom_site_fract_z
 _atom_site_occupancy
  Nd  Nd0  1  0.500000  0.000000  0.478453  1
  Sm  Sm1  1  0.000000  0.500000  0.521034  1
  Sm  Sm2  1  0.500000  0.819269  0.204405  1
  Sm  Sm3  1  0.500000  0.180731  0.204405  1
  Sm  Sm4  1  0.000000  0.680562  0.795415  1
  Sm  Sm5  1  0.000000  0.319438  0.795415  1
  Fe  Fe6  1  0.500000  0.500000  0.153702  1
  Fe  Fe7  1  0.000000  0.000000  0.846745  1
  Fe  Fe8  1  0.000000  0.500000  0.989478  1
  Fe  Fe9  1  0.500000  0.000000  0.010424  1
  Co  Co10  1  0.500000  0.500000  0.702144  1
  Co  Co11  1  0.000000  0.000000  0.296822  1
  Co  Co12  1  0.500000  0.331852  0.995557  1
  Co  Co13  1  0.500000  0.668148  0.995557  1
  Co  Co14  1  0.000000  0.168192  0.004460  1
  Co  Co15  1  0.000000  0.831808  0.004460  1
  Co  Co16  1  0.500000  0.297234  0.430011  1
  Co  Co17  1  0.500000  0.702766  0.430011  1
  Co  Co18  1  0.000000  0.204251  0.570139  1
  Co  Co19  1  0.000000  0.795749  0.570139  1
  Co  Co20  1  0.500000  0.880008  0.710937  1
  Co  Co21  1  0.500000  0.119992  0.710937  1
  Co  Co22  1  0.000000  0.619652  0.289398  1
  Co  Co23  1  0.000000  0.380348  0.289398  1
  P  P24  1  0.500000  0.500000  0.887182  1
  P  P25  1  0.000000  0.000000  0.112626  1
  P  P26  1  0.500000  0.500000  0.338296  1
  P  P27  1  0.000000  0.000000  0.662952  1
  P  P28  1  0.500000  0.307421  0.615465  1
  P  P29  1  0.500000  0.692579  0.615465  1
  P  P30  1  0.000000  0.193979  0.384209  1
  P  P31  1  0.000000  0.806021  0.384209  1
  P  P32  1  0.500000  0.847706  0.894836  1
  P  P33  1  0.500000  0.152294  0.894836  1
  P  P34  1  0.000000  0.652181  0.105239  1
  P  P35  1  0.000000  0.347819  0.105239  1
