# generated using pymatgen
data_Sr3CaPtO6
_symmetry_space_group_name_H-M   'P 1'
_cell_length_a   6.87539652
_cell_length_b   6.87539635
_cell_length_c   6.87539696
_cell_angle_alpha   91.40174860
_cell_angle_beta   91.40174535
_cell_angle_gamma   91.40174089
_symmetry_Int_Tables_number   1
_chemical_formula_structural   Sr3CaPtO6
_chemical_formula_sum   'Sr6 Ca2 Pt2 O12'
_cell_volume   324.71078401
_cell_formula_units_Z   2
loop_
 _symmetry_equiv_pos_site_id
 _symmetry_equiv_pos_as_xyz
  1  'x, y, z'
loop_
 _atom_site_type_symbol
 _atom_site_label
 _atom_site_symmetry_multiplicity
 _atom_site_fract_x
 _atom_site_fract_y
 _atom_site_fract_z
 _atom_site_occupancy
  Sr  Sr0  1  0.886092  0.250000  0.613908  1
  Sr  Sr1  1  0.386092  0.113908  0.750000  1
  Sr  Sr2  1  0.750000  0.386092  0.113908  1
  Sr  Sr3  1  0.250000  0.613908  0.886092  1
  Sr  Sr4  1  0.613908  0.886092  0.250000  1
  Sr  Sr5  1  0.113908  0.750000  0.386092  1
  Ca  Ca6  1  0.750000  0.750000  0.750000  1
  Ca  Ca7  1  0.250000  0.250000  0.250000  1
  Pt  Pt8  1  0.500000  0.500000  0.500000  1
  Pt  Pt9  1  0.000000  0.000000  0.000000  1
  O  O10  1  0.918040  0.713184  0.050019  1
  O  O11  1  0.449981  0.786816  0.581960  1
  O  O12  1  0.050019  0.918040  0.713184  1
  O  O13  1  0.286816  0.949981  0.081960  1
  O  O14  1  0.949981  0.081960  0.286816  1
  O  O15  1  0.713184  0.050019  0.918040  1
  O  O16  1  0.581960  0.449981  0.786816  1
  O  O17  1  0.786816  0.581960  0.449981  1
  O  O18  1  0.418040  0.550019  0.213184  1
  O  O19  1  0.213184  0.418040  0.550019  1
  O  O20  1  0.550019  0.213184  0.418040  1
  O  O21  1  0.081960  0.286816  0.949981  1
