# generated using pymatgen
data_Sc5Ta3(Co4P3)4
_symmetry_space_group_name_H-M   'P 1'
_cell_length_a   12.03029500
_cell_length_b   12.03029468
_cell_length_c   3.62096200
_cell_angle_alpha   90.00000000
_cell_angle_beta   90.00000000
_cell_angle_gamma   119.99999814
_symmetry_Int_Tables_number   1
_chemical_formula_structural   Sc5Ta3(Co4P3)4
_chemical_formula_sum   'Sc5 Ta3 Co16 P12'
_cell_volume   453.84457583
_cell_formula_units_Z   1
loop_
 _symmetry_equiv_pos_site_id
 _symmetry_equiv_pos_as_xyz
  1  'x, y, z'
loop_
 _atom_site_type_symbol
 _atom_site_label
 _atom_site_symmetry_multiplicity
 _atom_site_fract_x
 _atom_site_fract_y
 _atom_site_fract_z
 _atom_site_occupancy
  Sc  Sc0  1  0.818223  0.000000  0.500000  1
  Sc  Sc1  1  0.000000  0.818223  0.500000  1
  Sc  Sc2  1  0.181777  0.181777  0.500000  1
  Sc  Sc3  1  0.333333  0.666667  0.000000  1
  Sc  Sc4  1  0.666667  0.333333  0.000000  1
  Ta  Ta5  1  0.445884  0.000000  0.000000  1
  Ta  Ta6  1  0.000000  0.445884  0.000000  1
  Ta  Ta7  1  0.554116  0.554116  0.000000  1
  Co  Co8  1  0.278881  0.000000  0.500000  1
  Co  Co9  1  0.000000  0.278881  0.500000  1
  Co  Co10  1  0.721119  0.721119  0.500000  1
  Co  Co11  1  0.627641  0.804006  0.000000  1
  Co  Co12  1  0.195994  0.823635  0.000000  1
  Co  Co13  1  0.176365  0.372359  0.000000  1
  Co  Co14  1  0.372359  0.176365  0.000000  1
  Co  Co15  1  0.804006  0.627641  0.000000  1
  Co  Co16  1  0.823635  0.195994  0.000000  1
  Co  Co17  1  0.518395  0.871999  0.500000  1
  Co  Co18  1  0.128001  0.646396  0.500000  1
  Co  Co19  1  0.353604  0.481605  0.500000  1
  Co  Co20  1  0.481605  0.353604  0.500000  1
  Co  Co21  1  0.871999  0.518395  0.500000  1
  Co  Co22  1  0.646396  0.128001  0.500000  1
  Co  Co23  1  0.000000  0.000000  0.000000  1
  P  P24  1  0.174546  0.000000  0.000000  1
  P  P25  1  0.000000  0.174546  0.000000  1
  P  P26  1  0.825454  0.825454  0.000000  1
  P  P27  1  0.516774  0.687274  0.500000  1
  P  P28  1  0.312726  0.829501  0.500000  1
  P  P29  1  0.170499  0.483226  0.500000  1
  P  P30  1  0.483226  0.170499  0.500000  1
  P  P31  1  0.687274  0.516774  0.500000  1
  P  P32  1  0.829501  0.312726  0.500000  1
  P  P33  1  0.650139  0.000000  0.000000  1
  P  P34  1  0.000000  0.650139  0.000000  1
  P  P35  1  0.349861  0.349861  0.000000  1
