# generated using pymatgen
data_Ho3Zn3Cu2Rh
_symmetry_space_group_name_H-M   'P 1'
_cell_length_a   7.00718700
_cell_length_b   7.00718729
_cell_length_c   3.92605800
_cell_angle_alpha   90.00000000
_cell_angle_beta   90.00000000
_cell_angle_gamma   120.00000334
_symmetry_Int_Tables_number   1
_chemical_formula_structural   Ho3Zn3Cu2Rh
_chemical_formula_sum   'Ho3 Zn3 Cu2 Rh1'
_cell_volume   166.94551708
_cell_formula_units_Z   1
loop_
 _symmetry_equiv_pos_site_id
 _symmetry_equiv_pos_as_xyz
  1  'x, y, z'
loop_
 _atom_site_type_symbol
 _atom_site_label
 _atom_site_symmetry_multiplicity
 _atom_site_fract_x
 _atom_site_fract_y
 _atom_site_fract_z
 _atom_site_occupancy
  Ho  Ho0  1  0.583827  0.992879  0.500000  1
  Ho  Ho1  1  0.409052  0.416173  0.500000  1
  Ho  Ho2  1  0.007121  0.590948  0.500000  1
  Zn  Zn3  1  0.762901  0.761606  0.000000  1
  Zn  Zn4  1  0.998704  0.237099  0.000000  1
  Zn  Zn5  1  0.238394  0.001296  0.000000  1
  Cu  Cu6  1  0.000000  0.000000  0.500000  1
  Cu  Cu7  1  0.666667  0.333333  0.000000  1
  Rh  Rh8  1  0.333333  0.666667  0.000000  1
