# generated using pymatgen
data_Nd20Ir7Os2Rh3
_symmetry_space_group_name_H-M   'P 1'
_cell_length_a   11.25196078
_cell_length_b   11.25196078
_cell_length_c   6.60135400
_cell_angle_alpha   89.99776920
_cell_angle_beta   89.99776920
_cell_angle_gamma   90.04273264
_symmetry_Int_Tables_number   1
_chemical_formula_structural   Nd20Ir7Os2Rh3
_chemical_formula_sum   'Nd20 Ir7 Os2 Rh3'
_cell_volume   835.77489384
_cell_formula_units_Z   1
loop_
 _symmetry_equiv_pos_site_id
 _symmetry_equiv_pos_as_xyz
  1  'x, y, z'
loop_
 _atom_site_type_symbol
 _atom_site_label
 _atom_site_symmetry_multiplicity
 _atom_site_fract_x
 _atom_site_fract_y
 _atom_site_fract_z
 _atom_site_occupancy
  Nd  Nd0  1  0.089080  0.292199  0.119175  1
  Nd  Nd1  1  0.792361  0.410928  0.119415  1
  Nd  Nd2  1  0.207001  0.588659  0.120400  1
  Nd  Nd3  1  0.910876  0.707800  0.119133  1
  Nd  Nd4  1  0.411341  0.792999  0.379600  1
  Nd  Nd5  1  0.589072  0.207639  0.380585  1
  Nd  Nd6  1  0.292200  0.089124  0.380867  1
  Nd  Nd7  1  0.707801  0.910920  0.380825  1
  Nd  Nd8  1  0.410519  0.207902  0.886363  1
  Nd  Nd9  1  0.707573  0.089719  0.886261  1
  Nd  Nd10  1  0.292126  0.911594  0.886593  1
  Nd  Nd11  1  0.590695  0.792656  0.886825  1
  Nd  Nd12  1  0.088406  0.707874  0.613407  1
  Nd  Nd13  1  0.910281  0.292427  0.613739  1
  Nd  Nd14  1  0.207344  0.409305  0.613175  1
  Nd  Nd15  1  0.792098  0.589481  0.613637  1
  Nd  Nd16  1  0.999951  0.000153  0.999661  1
  Nd  Nd17  1  0.500184  0.499892  0.999611  1
  Nd  Nd18  1  0.500108  0.499816  0.500389  1
  Nd  Nd19  1  0.999847  0.000049  0.500339  1
  Ir  Ir20  1  0.153885  0.846115  0.250000  1
  Ir  Ir21  1  0.346684  0.346854  0.250020  1
  Ir  Ir22  1  0.653146  0.653316  0.249980  1
  Ir  Ir23  1  0.846533  0.153467  0.250000  1
  Ir  Ir24  1  0.153191  0.153077  0.749861  1
  Ir  Ir25  1  0.846923  0.846809  0.750139  1
  Ir  Ir26  1  0.653246  0.346754  0.750000  1
  Os  Os27  1  0.000524  0.500344  0.377296  1
  Os  Os28  1  0.499656  0.999476  0.122704  1
  Rh  Rh29  1  0.346980  0.653020  0.750000  1
  Rh  Rh30  1  0.499677  0.999310  0.621018  1
  Rh  Rh31  1  0.000690  0.500323  0.878982  1
