# generated using pymatgen
data_DyEr5(CoI3)2
_symmetry_space_group_name_H-M   'P 1'
_cell_length_a   4.08456700
_cell_length_b   8.89000330
_cell_length_c   12.21946501
_cell_angle_alpha   93.52625354
_cell_angle_beta   90.00000000
_cell_angle_gamma   90.00000000
_symmetry_Int_Tables_number   1
_chemical_formula_structural   DyEr5(CoI3)2
_chemical_formula_sum   'Dy1 Er5 Co2 I6'
_cell_volume   442.87087323
_cell_formula_units_Z   1
loop_
 _symmetry_equiv_pos_site_id
 _symmetry_equiv_pos_as_xyz
  1  'x, y, z'
loop_
 _atom_site_type_symbol
 _atom_site_label
 _atom_site_symmetry_multiplicity
 _atom_site_fract_x
 _atom_site_fract_y
 _atom_site_fract_z
 _atom_site_occupancy
  Dy  Dy0  1  0.750000  0.264457  0.602635  1
  Er  Er1  1  0.250000  0.740231  0.397698  1
  Er  Er2  1  0.750000  0.876414  0.620460  1
  Er  Er3  1  0.250000  0.124135  0.378975  1
  Er  Er4  1  0.750000  0.900344  0.190754  1
  Er  Er5  1  0.250000  0.097609  0.809448  1
  Co  Co6  1  0.750000  0.937110  0.405648  1
  Co  Co7  1  0.250000  0.063051  0.594342  1
  I  I8  1  0.750000  0.413138  0.365636  1
  I  I9  1  0.250000  0.586775  0.633135  1
  I  I10  1  0.750000  0.860173  0.889183  1
  I  I11  1  0.250000  0.138134  0.111159  1
  I  I12  1  0.750000  0.354073  0.862613  1
  I  I13  1  0.250000  0.644357  0.138315  1
