# generated using pymatgen
data_La3Th(Zn5Ge)2
_symmetry_space_group_name_H-M   'P 1'
_cell_length_a   8.47787316
_cell_length_b   8.47787351
_cell_length_c   8.96826500
_cell_angle_alpha   90.00000000
_cell_angle_beta   90.00000000
_cell_angle_gamma   149.23639556
_symmetry_Int_Tables_number   1
_chemical_formula_structural   La3Th(Zn5Ge)2
_chemical_formula_sum   'La3 Th1 Zn10 Ge2'
_cell_volume   329.70496103
_cell_formula_units_Z   1
loop_
 _symmetry_equiv_pos_site_id
 _symmetry_equiv_pos_as_xyz
  1  'x, y, z'
loop_
 _atom_site_type_symbol
 _atom_site_label
 _atom_site_symmetry_multiplicity
 _atom_site_fract_x
 _atom_site_fract_y
 _atom_site_fract_z
 _atom_site_occupancy
  La  La0  1  0.796228  0.203772  0.750000  1
  La  La1  1  0.000382  0.999618  0.502618  1
  La  La2  1  0.000382  0.999618  0.997382  1
  Th  Th3  1  0.203624  0.796376  0.250000  1
  Zn  Zn4  1  0.813527  0.186473  0.391500  1
  Zn  Zn5  1  0.185134  0.814866  0.607518  1
  Zn  Zn6  1  0.813527  0.186473  0.108500  1
  Zn  Zn7  1  0.185134  0.814866  0.892482  1
  Zn  Zn8  1  0.654383  0.345617  0.478377  1
  Zn  Zn9  1  0.346375  0.653625  0.519080  1
  Zn  Zn10  1  0.654383  0.345617  0.021623  1
  Zn  Zn11  1  0.346375  0.653625  0.980920  1
  Zn  Zn12  1  0.402925  0.597075  0.250000  1
  Zn  Zn13  1  0.597045  0.402955  0.750000  1
  Ge  Ge14  1  0.558683  0.441317  0.250000  1
  Ge  Ge15  1  0.441895  0.558105  0.750000  1
