# generated using pymatgen
data_Pu2GeRh5
_symmetry_space_group_name_H-M   'P 1'
_cell_length_a   4.12486200
_cell_length_b   5.80391600
_cell_length_c   11.30589900
_cell_angle_alpha   90.00000000
_cell_angle_beta   90.00000000
_cell_angle_gamma   90.00000000
_symmetry_Int_Tables_number   1
_chemical_formula_structural   Pu2GeRh5
_chemical_formula_sum   'Pu4 Ge2 Rh10'
_cell_volume   270.66720806
_cell_formula_units_Z   2
loop_
 _symmetry_equiv_pos_site_id
 _symmetry_equiv_pos_as_xyz
  1  'x, y, z'
loop_
 _atom_site_type_symbol
 _atom_site_label
 _atom_site_symmetry_multiplicity
 _atom_site_fract_x
 _atom_site_fract_y
 _atom_site_fract_z
 _atom_site_occupancy
  Pu  Pu0  1  0.500000  0.179646  0.640372  1
  Pu  Pu1  1  0.500000  0.820354  0.359628  1
  Pu  Pu2  1  0.500000  0.679646  0.859628  1
  Pu  Pu3  1  0.500000  0.320354  0.140372  1
  Ge  Ge4  1  0.000000  0.500000  0.500000  1
  Ge  Ge5  1  0.000000  0.000000  0.000000  1
  Rh  Rh6  1  0.500000  0.186142  0.895881  1
  Rh  Rh7  1  0.500000  0.813858  0.104119  1
  Rh  Rh8  1  0.500000  0.686142  0.604119  1
  Rh  Rh9  1  0.500000  0.313858  0.395881  1
  Rh  Rh10  1  0.000000  0.431052  0.738101  1
  Rh  Rh11  1  0.000000  0.568948  0.261899  1
  Rh  Rh12  1  0.000000  0.000000  0.500000  1
  Rh  Rh13  1  0.000000  0.500000  0.000000  1
  Rh  Rh14  1  0.000000  0.068948  0.238101  1
  Rh  Rh15  1  0.000000  0.931052  0.761899  1
