# generated using pymatgen
data_TlRhSe2
_symmetry_space_group_name_H-M   'P 1'
_cell_length_a   3.84589500
_cell_length_b   3.84589458
_cell_length_c   7.41309400
_cell_angle_alpha   90.00000000
_cell_angle_beta   90.00000000
_cell_angle_gamma   120.00001219
_symmetry_Int_Tables_number   1
_chemical_formula_structural   TlRhSe2
_chemical_formula_sum   'Tl1 Rh1 Se2'
_cell_volume   94.95654063
_cell_formula_units_Z   1
loop_
 _symmetry_equiv_pos_site_id
 _symmetry_equiv_pos_as_xyz
  1  'x, y, z'
loop_
 _atom_site_type_symbol
 _atom_site_label
 _atom_site_symmetry_multiplicity
 _atom_site_fract_x
 _atom_site_fract_y
 _atom_site_fract_z
 _atom_site_occupancy
  Tl  Tl0  1  0.000000  0.000000  0.000000  1
  Rh  Rh1  1  0.000000  0.000000  0.500001  1
  Se  Se2  1  0.333333  0.666665  0.334697  1
  Se  Se3  1  0.666665  0.333333  0.665303  1
