# generated using pymatgen
data_Ca19Cd3In3Hg2N7
_symmetry_space_group_name_H-M   'P 1'
_cell_length_a   10.42666142
_cell_length_b   10.42764646
_cell_length_c   10.41445007
_cell_angle_alpha   60.16475898
_cell_angle_beta   60.14425964
_cell_angle_gamma   60.10426250
_symmetry_Int_Tables_number   1
_chemical_formula_structural   Ca19Cd3In3Hg2N7
_chemical_formula_sum   'Ca19 Cd3 In3 Hg2 N7'
_cell_volume   803.16695964
_cell_formula_units_Z   1
loop_
 _symmetry_equiv_pos_site_id
 _symmetry_equiv_pos_as_xyz
  1  'x, y, z'
loop_
 _atom_site_type_symbol
 _atom_site_label
 _atom_site_symmetry_multiplicity
 _atom_site_fract_x
 _atom_site_fract_y
 _atom_site_fract_z
 _atom_site_occupancy
  Ca  Ca0  1  0.173713  0.500887  0.824913  1
  Ca  Ca1  1  0.499469  0.826322  0.173485  1
  Ca  Ca2  1  0.827298  0.174462  0.498404  1
  Ca  Ca3  1  0.166150  0.834742  0.164321  1
  Ca  Ca4  1  0.825457  0.500388  0.172764  1
  Ca  Ca5  1  0.173668  0.827806  0.498658  1
  Ca  Ca6  1  0.164995  0.166336  0.833503  1
  Ca  Ca7  1  0.174815  0.500021  0.498619  1
  Ca  Ca8  1  0.834720  0.835218  0.164805  1
  Ca  Ca9  1  0.835002  0.166843  0.833659  1
  Ca  Ca10  1  0.499090  0.827371  0.498837  1
  Ca  Ca11  1  0.499997  0.500618  0.499334  1
  Ca  Ca12  1  0.500581  0.500964  0.173433  1
  Ca  Ca13  1  0.165668  0.835559  0.833809  1
  Ca  Ca14  1  0.499606  0.175310  0.825207  1
  Ca  Ca15  1  0.498846  0.176235  0.498015  1
  Ca  Ca16  1  0.826485  0.500132  0.499237  1
  Ca  Ca17  1  0.834186  0.167250  0.163731  1
  Ca  Ca18  1  0.500938  0.501528  0.823688  1
  Cd  Cd19  1  0.475155  0.175788  0.175553  1
  Cd  Cd20  1  0.175778  0.474761  0.175343  1
  Cd  Cd21  1  0.522696  0.825782  0.825339  1
  In  In22  1  0.175563  0.175713  0.177108  1
  In  In23  1  0.823969  0.823906  0.824892  1
  In  In24  1  0.823672  0.823256  0.527876  1
  Hg  Hg25  1  0.170572  0.170214  0.488887  1
  Hg  Hg26  1  0.830674  0.507572  0.830521  1
  N  N27  1  0.674490  0.327388  0.673234  1
  N  N28  1  0.673213  0.327263  0.325454  1
  N  N29  1  0.326865  0.674725  0.673315  1
  N  N30  1  0.326792  0.673400  0.325696  1
  N  N31  1  0.325886  0.326846  0.672884  1
  N  N32  1  0.674486  0.674667  0.325746  1
  N  N33  1  0.999506  0.000728  0.999734  1
