# generated using pymatgen
data_Hf4Zr6In3Ga9Rh7
_symmetry_space_group_name_H-M   'P 1'
_cell_length_a   9.03534867
_cell_length_b   9.03534988
_cell_length_c   9.03534994
_cell_angle_alpha   59.90218302
_cell_angle_beta   59.90217733
_cell_angle_gamma   59.90217752
_symmetry_Int_Tables_number   1
_chemical_formula_structural   Hf4Zr6In3Ga9Rh7
_chemical_formula_sum   'Hf4 Zr6 In3 Ga9 Rh7'
_cell_volume   520.42123932
_cell_formula_units_Z   1
loop_
 _symmetry_equiv_pos_site_id
 _symmetry_equiv_pos_as_xyz
  1  'x, y, z'
loop_
 _atom_site_type_symbol
 _atom_site_label
 _atom_site_symmetry_multiplicity
 _atom_site_fract_x
 _atom_site_fract_y
 _atom_site_fract_z
 _atom_site_occupancy
  Hf  Hf0  1  0.878149  0.878149  0.369734  1
  Hf  Hf1  1  0.878149  0.369734  0.878149  1
  Hf  Hf2  1  0.369734  0.878149  0.878149  1
  Hf  Hf3  1  0.876255  0.876255  0.876255  1
  Zr  Zr4  1  0.687915  0.687915  0.312651  1
  Zr  Zr5  1  0.310366  0.690936  0.310366  1
  Zr  Zr6  1  0.690936  0.310366  0.310366  1
  Zr  Zr7  1  0.310366  0.310366  0.690936  1
  Zr  Zr8  1  0.687915  0.312651  0.687915  1
  Zr  Zr9  1  0.312651  0.687915  0.687915  1
  In  In10  1  0.121664  0.121664  0.633503  1
  In  In11  1  0.121664  0.633503  0.121664  1
  In  In12  1  0.633503  0.121664  0.121664  1
  Ga  Ga13  1  0.121083  0.121083  0.121083  1
  Ga  Ga14  1  0.655642  0.655642  0.033694  1
  Ga  Ga15  1  0.655642  0.033694  0.655642  1
  Ga  Ga16  1  0.033694  0.655642  0.655642  1
  Ga  Ga17  1  0.655852  0.655852  0.655852  1
  Ga  Ga18  1  0.340954  0.340954  0.971017  1
  Ga  Ga19  1  0.340954  0.971017  0.340954  1
  Ga  Ga20  1  0.971017  0.340954  0.340954  1
  Ga  Ga21  1  0.344445  0.344445  0.344445  1
  Rh  Rh22  1  0.003402  0.003402  0.003402  1
  Rh  Rh23  1  0.996070  0.996070  0.499993  1
  Rh  Rh24  1  0.505585  0.994752  0.505585  1
  Rh  Rh25  1  0.994752  0.505585  0.505585  1
  Rh  Rh26  1  0.505585  0.505585  0.994752  1
  Rh  Rh27  1  0.996070  0.499993  0.996070  1
  Rh  Rh28  1  0.499993  0.996070  0.996070  1
