# generated using pymatgen
data_Hf16MnFe(NiRh)3
_symmetry_space_group_name_H-M   'P 1'
_cell_length_a   8.60382379
_cell_length_b   8.57266203
_cell_length_c   8.57266300
_cell_angle_alpha   60.00000012
_cell_angle_beta   60.11973780
_cell_angle_gamma   60.11973361
_symmetry_Int_Tables_number   1
_chemical_formula_structural   Hf16MnFe(NiRh)3
_chemical_formula_sum   'Hf16 Mn1 Fe1 Ni3 Rh3'
_cell_volume   447.91085304
_cell_formula_units_Z   1
loop_
 _symmetry_equiv_pos_site_id
 _symmetry_equiv_pos_as_xyz
  1  'x, y, z'
loop_
 _atom_site_type_symbol
 _atom_site_label
 _atom_site_symmetry_multiplicity
 _atom_site_fract_x
 _atom_site_fract_y
 _atom_site_fract_z
 _atom_site_occupancy
  Hf  Hf0  1  0.661860  0.112713  0.112713  1
  Hf  Hf1  1  0.108119  0.680531  0.105674  1
  Hf  Hf2  1  0.108119  0.105674  0.680531  1
  Hf  Hf3  1  0.108119  0.105674  0.105674  1
  Hf  Hf4  1  0.317158  0.312250  0.685296  1
  Hf  Hf5  1  0.696636  0.675979  0.313693  1
  Hf  Hf6  1  0.317158  0.685296  0.312250  1
  Hf  Hf7  1  0.696636  0.313693  0.675979  1
  Hf  Hf8  1  0.696636  0.313693  0.313693  1
  Hf  Hf9  1  0.317158  0.685296  0.685296  1
  Hf  Hf10  1  0.949715  0.950471  0.549908  1
  Hf  Hf11  1  0.552646  0.560757  0.943299  1
  Hf  Hf12  1  0.949715  0.549908  0.950471  1
  Hf  Hf13  1  0.552646  0.943299  0.560757  1
  Hf  Hf14  1  0.552646  0.943299  0.943299  1
  Hf  Hf15  1  0.949715  0.549908  0.549908  1
  Mn  Mn16  1  0.990939  0.336354  0.336354  1
  Fe  Fe17  1  0.321520  0.892827  0.892827  1
  Ni  Ni18  1  0.889731  0.315733  0.897268  1
  Ni  Ni19  1  0.889731  0.897268  0.315733  1
  Ni  Ni20  1  0.889731  0.897268  0.897268  1
  Rh  Rh21  1  0.327888  0.996559  0.337776  1
  Rh  Rh22  1  0.327888  0.337776  0.996559  1
  Rh  Rh23  1  0.327888  0.337776  0.337776  1
