# generated using pymatgen
data_Li4Dy3Er(SiO4)4
_symmetry_space_group_name_H-M   'P 1'
_cell_length_a   6.22529568
_cell_length_b   5.43859011
_cell_length_c   10.91925174
_cell_angle_alpha   66.35474675
_cell_angle_beta   90.08199906
_cell_angle_gamma   90.05047501
_symmetry_Int_Tables_number   1
_chemical_formula_structural   Li4Dy3Er(SiO4)4
_chemical_formula_sum   'Li4 Dy3 Er1 Si4 O16'
_cell_volume   338.65392922
_cell_formula_units_Z   1
loop_
 _symmetry_equiv_pos_site_id
 _symmetry_equiv_pos_as_xyz
  1  'x, y, z'
loop_
 _atom_site_type_symbol
 _atom_site_label
 _atom_site_symmetry_multiplicity
 _atom_site_fract_x
 _atom_site_fract_y
 _atom_site_fract_z
 _atom_site_occupancy
  Li  Li0  1  0.134417  0.919353  0.429923  1
  Li  Li1  1  0.633794  0.080485  0.069968  1
  Li  Li2  1  0.866156  0.081358  0.569536  1
  Li  Li3  1  0.365956  0.919079  0.930137  1
  Dy  Dy4  1  0.116722  0.445565  0.847693  1
  Dy  Dy5  1  0.883572  0.553841  0.153168  1
  Dy  Dy6  1  0.616250  0.554545  0.652130  1
  Er  Er7  1  0.383895  0.446145  0.347945  1
  Si  Si8  1  0.650519  0.904186  0.359154  1
  Si  Si9  1  0.348202  0.096527  0.640047  1
  Si  Si10  1  0.153046  0.095164  0.141630  1
  Si  Si11  1  0.848043  0.904304  0.859167  1
  O  O12  1  0.858768  0.231570  0.775806  1
  O  O13  1  0.638749  0.231849  0.276809  1
  O  O14  1  0.163980  0.187939  0.522417  1
  O  O15  1  0.837529  0.758862  0.752175  1
  O  O16  1  0.143232  0.767461  0.224912  1
  O  O17  1  0.570963  0.227590  0.553683  1
  O  O18  1  0.660611  0.757322  0.252686  1
  O  O19  1  0.427926  0.770645  0.445076  1
  O  O20  1  0.071279  0.773318  0.945232  1
  O  O21  1  0.663113  0.814224  0.975955  1
  O  O22  1  0.164330  0.242368  0.248006  1
  O  O23  1  0.929140  0.225245  0.055961  1
  O  O24  1  0.336970  0.185648  0.024134  1
  O  O25  1  0.337709  0.241334  0.747348  1
  O  O26  1  0.358606  0.769270  0.723648  1
  O  O27  1  0.836522  0.814802  0.475651  1
