# generated using pymatgen
data_UGa2Ru3
_symmetry_space_group_name_H-M   'P 1'
_cell_length_a   4.53841400
_cell_length_b   4.53841316
_cell_length_c   5.31459900
_cell_angle_alpha   90.00000000
_cell_angle_beta   90.00000000
_cell_angle_gamma   119.99997698
_symmetry_Int_Tables_number   1
_chemical_formula_structural   UGa2Ru3
_chemical_formula_sum   'U1 Ga2 Ru3'
_cell_volume   94.80022627
_cell_formula_units_Z   1
loop_
 _symmetry_equiv_pos_site_id
 _symmetry_equiv_pos_as_xyz
  1  'x, y, z'
loop_
 _atom_site_type_symbol
 _atom_site_label
 _atom_site_symmetry_multiplicity
 _atom_site_fract_x
 _atom_site_fract_y
 _atom_site_fract_z
 _atom_site_occupancy
  U  U0  1  0.000000  0.000000  0.500000  1
  Ga  Ga1  1  0.333333  0.666667  0.174425  1
  Ga  Ga2  1  0.666667  0.333333  0.825575  1
  Ru  Ru3  1  0.333333  0.666667  0.688356  1
  Ru  Ru4  1  0.666667  0.333333  0.311644  1
  Ru  Ru5  1  0.000000  0.000000  0.000000  1
