# generated using pymatgen
data_NdEr5CuRh17
_symmetry_space_group_name_H-M   'P 1'
_cell_length_a   5.26695300
_cell_length_b   5.26696805
_cell_length_c   17.42557200
_cell_angle_alpha   90.00000000
_cell_angle_beta   90.00000000
_cell_angle_gamma   120.00131915
_symmetry_Int_Tables_number   1
_chemical_formula_structural   NdEr5CuRh17
_chemical_formula_sum   'Nd1 Er5 Cu1 Rh17'
_cell_volume   418.63162005
_cell_formula_units_Z   1
loop_
 _symmetry_equiv_pos_site_id
 _symmetry_equiv_pos_as_xyz
  1  'x, y, z'
loop_
 _atom_site_type_symbol
 _atom_site_label
 _atom_site_symmetry_multiplicity
 _atom_site_fract_x
 _atom_site_fract_y
 _atom_site_fract_z
 _atom_site_occupancy
  Nd  Nd0  1  0.666668  0.333335  0.250000  1
  Er  Er1  1  0.333340  0.666668  0.540829  1
  Er  Er2  1  0.666665  0.333330  0.040971  1
  Er  Er3  1  0.666665  0.333330  0.459029  1
  Er  Er4  1  0.333340  0.666668  0.959171  1
  Er  Er5  1  0.333323  0.666659  0.750000  1
  Cu  Cu6  1  0.999996  0.000003  0.250000  1
  Rh  Rh7  1  0.167354  0.334707  0.124900  1
  Rh  Rh8  1  0.832394  0.664782  0.625361  1
  Rh  Rh9  1  0.665296  0.832653  0.124899  1
  Rh  Rh10  1  0.167350  0.832651  0.124903  1
  Rh  Rh11  1  0.832388  0.167604  0.625360  1
  Rh  Rh12  1  0.335216  0.167610  0.625360  1
  Rh  Rh13  1  0.832394  0.664782  0.874639  1
  Rh  Rh14  1  0.832388  0.167604  0.874640  1
  Rh  Rh15  1  0.335216  0.167610  0.874640  1
  Rh  Rh16  1  0.665296  0.832653  0.375101  1
  Rh  Rh17  1  0.167350  0.832651  0.375097  1
  Rh  Rh18  1  0.167354  0.334707  0.375100  1
  Rh  Rh19  1  0.999996  0.999999  0.750000  1
  Rh  Rh20  1  0.333337  0.666666  0.250000  1
  Rh  Rh21  1  0.666671  0.333331  0.750000  1
  Rh  Rh22  1  0.000001  0.999998  0.000760  1
  Rh  Rh23  1  0.000001  0.999998  0.499240  1
