# generated using pymatgen
data_TbEr7Hf11Si16Os
_symmetry_space_group_name_H-M   'P 1'
_cell_length_a   7.21940161
_cell_length_b   7.22113265
_cell_length_c   13.20271739
_cell_angle_alpha   89.90584475
_cell_angle_beta   90.05662159
_cell_angle_gamma   90.02788239
_symmetry_Int_Tables_number   1
_chemical_formula_structural   TbEr7Hf11Si16Os
_chemical_formula_sum   'Tb1 Er7 Hf11 Si16 Os1'
_cell_volume   688.28610542
_cell_formula_units_Z   1
loop_
 _symmetry_equiv_pos_site_id
 _symmetry_equiv_pos_as_xyz
  1  'x, y, z'
loop_
 _atom_site_type_symbol
 _atom_site_label
 _atom_site_symmetry_multiplicity
 _atom_site_fract_x
 _atom_site_fract_y
 _atom_site_fract_z
 _atom_site_occupancy
  Tb  Tb0  1  0.654773  0.005763  0.282502  1
  Er  Er1  1  0.998983  0.344372  0.211580  1
  Er  Er2  1  0.005146  0.654350  0.717532  1
  Er  Er3  1  0.155505  0.494978  0.465258  1
  Er  Er4  1  0.501457  0.846483  0.032599  1
  Er  Er5  1  0.846742  0.501680  0.967124  1
  Er  Er6  1  0.494877  0.155397  0.535095  1
  Er  Er7  1  0.344151  0.998818  0.788332  1
  Hf  Hf8  1  0.824744  0.824496  0.500243  1
  Hf  Hf9  1  0.324055  0.675080  0.247726  1
  Hf  Hf10  1  0.675356  0.324262  0.752252  1
  Hf  Hf11  1  0.146561  0.998233  0.372058  1
  Hf  Hf12  1  0.853442  0.004263  0.878381  1
  Hf  Hf13  1  0.502240  0.646471  0.625761  1
  Hf  Hf14  1  0.352518  0.497235  0.876666  1
  Hf  Hf15  1  0.496786  0.352496  0.122967  1
  Hf  Hf16  1  0.646619  0.502418  0.374618  1
  Hf  Hf17  1  0.998462  0.146143  0.628265  1
  Hf  Hf18  1  0.004219  0.852962  0.121239  1
  Si  Si19  1  0.357892  0.296065  0.315670  1
  Si  Si20  1  0.641208  0.704961  0.819052  1
  Si  Si21  1  0.205386  0.859852  0.567528  1
  Si  Si22  1  0.137953  0.793923  0.930457  1
  Si  Si23  1  0.794570  0.138125  0.068991  1
  Si  Si24  1  0.861015  0.206361  0.433432  1
  Si  Si25  1  0.295055  0.358824  0.684233  1
  Si  Si26  1  0.705294  0.639824  0.180653  1
  Si  Si27  1  0.292733  0.054761  0.179569  1
  Si  Si28  1  0.702527  0.950729  0.686204  1
  Si  Si29  1  0.448686  0.797218  0.435237  1
  Si  Si30  1  0.204676  0.547301  0.064014  1
  Si  Si31  1  0.547189  0.204719  0.935747  1
  Si  Si32  1  0.798060  0.449749  0.565436  1
  Si  Si33  1  0.054387  0.294116  0.820007  1
  Si  Si34  1  0.951326  0.702077  0.313838  1
  Os  Os35  1  0.175410  0.175499  0.999732  1
