# generated using pymatgen
data_Y5Er5GaSb5
_symmetry_space_group_name_H-M   'P 1'
_cell_length_a   6.34734400
_cell_length_b   8.90971405
_cell_length_c   8.88023149
_cell_angle_alpha   120.10989276
_cell_angle_beta   90.00041808
_cell_angle_gamma   89.99916084
_symmetry_Int_Tables_number   1
_chemical_formula_structural   Y5Er5GaSb5
_chemical_formula_sum   'Y5 Er5 Ga1 Sb5'
_cell_volume   434.43893227
_cell_formula_units_Z   1
loop_
 _symmetry_equiv_pos_site_id
 _symmetry_equiv_pos_as_xyz
  1  'x, y, z'
loop_
 _atom_site_type_symbol
 _atom_site_label
 _atom_site_symmetry_multiplicity
 _atom_site_fract_x
 _atom_site_fract_y
 _atom_site_fract_z
 _atom_site_occupancy
  Y  Y0  1  0.749998  0.250377  0.000000  1
  Y  Y1  1  0.750000  0.752438  0.763339  1
  Y  Y2  1  0.750000  0.989098  0.236661  1
  Y  Y3  1  0.250002  0.245566  0.245126  1
  Y  Y4  1  0.250002  0.000439  0.754874  1
  Er  Er5  1  0.501238  0.339996  0.674843  1
  Er  Er6  1  0.501238  0.665154  0.325157  1
  Er  Er7  1  0.998761  0.665152  0.325167  1
  Er  Er8  1  0.998761  0.339985  0.674833  1
  Er  Er9  1  0.250004  0.754687  0.000000  1
  Ga  Ga10  1  0.749998  0.605765  0.000000  1
  Sb  Sb11  1  0.750003  0.388499  0.390601  1
  Sb  Sb12  1  0.750003  0.997896  0.609399  1
  Sb  Sb13  1  0.249997  0.391947  0.000000  1
  Sb  Sb14  1  0.249999  0.610671  0.608340  1
  Sb  Sb15  1  0.249999  0.002332  0.391660  1
