# generated using pymatgen
data_Y2Ho5Tm13Pb16
_symmetry_space_group_name_H-M   'P 1'
_cell_length_a   8.15355087
_cell_length_b   15.50514296
_cell_length_c   8.21485983
_cell_angle_alpha   90.00918683
_cell_angle_beta   89.88136484
_cell_angle_gamma   90.11391564
_symmetry_Int_Tables_number   1
_chemical_formula_structural   Y2Ho5Tm13Pb16
_chemical_formula_sum   'Y2 Ho5 Tm13 Pb16'
_cell_volume   1038.53448717
_cell_formula_units_Z   1
loop_
 _symmetry_equiv_pos_site_id
 _symmetry_equiv_pos_as_xyz
  1  'x, y, z'
loop_
 _atom_site_type_symbol
 _atom_site_label
 _atom_site_symmetry_multiplicity
 _atom_site_fract_x
 _atom_site_fract_y
 _atom_site_fract_z
 _atom_site_occupancy
  Y  Y0  1  0.963587  0.900266  0.823374  1
  Y  Y1  1  0.536609  0.099556  0.323639  1
  Ho  Ho2  1  0.036991  0.400259  0.176184  1
  Ho  Ho3  1  0.537062  0.400320  0.323886  1
  Ho  Ho4  1  0.036579  0.099577  0.176449  1
  Ho  Ho5  1  0.463663  0.900465  0.676378  1
  Ho  Ho6  1  0.963233  0.599747  0.823509  1
  Tm  Tm7  1  0.623055  0.621440  0.158385  1
  Tm  Tm8  1  0.123603  0.878530  0.341795  1
  Tm  Tm9  1  0.376631  0.121462  0.841735  1
  Tm  Tm10  1  0.877113  0.378676  0.658458  1
  Tm  Tm11  1  0.377165  0.378879  0.841470  1
  Tm  Tm12  1  0.876502  0.121483  0.658251  1
  Tm  Tm13  1  0.623345  0.878268  0.158153  1
  Tm  Tm14  1  0.123079  0.621393  0.341811  1
  Tm  Tm15  1  0.462116  0.600002  0.675718  1
  Tm  Tm16  1  0.791306  0.749694  0.495451  1
  Tm  Tm17  1  0.291788  0.749774  0.004724  1
  Tm  Tm18  1  0.208383  0.250154  0.504624  1
  Tm  Tm19  1  0.708464  0.250147  0.995268  1
  Pb  Pb20  1  0.718350  0.457320  0.966559  1
  Pb  Pb21  1  0.217639  0.042621  0.534458  1
  Pb  Pb22  1  0.282503  0.957197  0.034041  1
  Pb  Pb23  1  0.780822  0.542835  0.467100  1
  Pb  Pb24  1  0.282141  0.542908  0.033195  1
  Pb  Pb25  1  0.782294  0.957080  0.465785  1
  Pb  Pb26  1  0.717848  0.042706  0.966013  1
  Pb  Pb27  1  0.218527  0.457742  0.534125  1
  Pb  Pb28  1  0.428795  0.750005  0.373040  1
  Pb  Pb29  1  0.928895  0.749960  0.127543  1
  Pb  Pb30  1  0.571069  0.250139  0.627363  1
  Pb  Pb31  1  0.071027  0.250016  0.872474  1
  Pb  Pb32  1  0.650932  0.749427  0.845168  1
  Pb  Pb33  1  0.152223  0.749790  0.653935  1
  Pb  Pb34  1  0.348227  0.250193  0.153931  1
  Pb  Pb35  1  0.848434  0.249970  0.346007  1
