# generated using pymatgen
data_BiSb(P2O7)2
_symmetry_space_group_name_H-M   'P 1'
_cell_length_a   8.72836614
_cell_length_b   4.98138044
_cell_length_c   7.18050410
_cell_angle_alpha   72.04261307
_cell_angle_beta   90.11548401
_cell_angle_gamma   91.03643253
_symmetry_Int_Tables_number   1
_chemical_formula_structural   BiSb(P2O7)2
_chemical_formula_sum   'Bi1 Sb1 P4 O14'
_cell_volume   296.94405911
_cell_formula_units_Z   1
loop_
 _symmetry_equiv_pos_site_id
 _symmetry_equiv_pos_as_xyz
  1  'x, y, z'
loop_
 _atom_site_type_symbol
 _atom_site_label
 _atom_site_symmetry_multiplicity
 _atom_site_fract_x
 _atom_site_fract_y
 _atom_site_fract_z
 _atom_site_occupancy
  Bi  Bi0  1  0.551981  0.794604  0.734318  1
  Sb  Sb1  1  0.049780  0.211123  0.287462  1
  P  P2  1  0.249465  0.791474  0.090444  1
  P  P3  1  0.800518  0.219255  0.913255  1
  P  P4  1  0.365489  0.398596  0.462199  1
  P  P5  1  0.878000  0.597323  0.528927  1
  O  O6  1  0.371034  0.571417  0.601729  1
  O  O7  1  0.651912  0.364196  0.927563  1
  O  O8  1  0.102074  0.600666  0.109156  1
  O  O9  1  0.200882  0.255387  0.481899  1
  O  O10  1  0.893495  0.148252  0.108263  1
  O  O11  1  0.211636  0.054845  0.154994  1
  O  O12  1  0.320177  0.881486  0.891531  1
  O  O13  1  0.010832  0.819445  0.467465  1
  O  O14  1  0.374309  0.610971  0.238639  1
  O  O15  1  0.889090  0.376037  0.415430  1
  O  O16  1  0.493092  0.192847  0.475842  1
  O  O17  1  0.782872  0.956484  0.852107  1
  O  O18  1  0.719229  0.717163  0.504987  1
  O  O19  1  0.915855  0.438430  0.753791  1
