# generated using pymatgen
data_Th2CuBi4
_symmetry_space_group_name_H-M   'P 1'
_cell_length_a   4.60996600
_cell_length_b   4.60996600
_cell_length_c   9.58080600
_cell_angle_alpha   90.00000000
_cell_angle_beta   90.00000000
_cell_angle_gamma   90.00000000
_symmetry_Int_Tables_number   1
_chemical_formula_structural   Th2CuBi4
_chemical_formula_sum   'Th2 Cu1 Bi4'
_cell_volume   203.60924381
_cell_formula_units_Z   1
loop_
 _symmetry_equiv_pos_site_id
 _symmetry_equiv_pos_as_xyz
  1  'x, y, z'
loop_
 _atom_site_type_symbol
 _atom_site_label
 _atom_site_symmetry_multiplicity
 _atom_site_fract_x
 _atom_site_fract_y
 _atom_site_fract_z
 _atom_site_occupancy
  Th  Th0  1  0.500000  0.000000  0.728151  1
  Th  Th1  1  0.000000  0.500000  0.271849  1
  Cu  Cu2  1  0.500000  0.500000  0.500000  1
  Bi  Bi3  1  0.500000  0.000000  0.349461  1
  Bi  Bi4  1  0.000000  0.500000  0.650539  1
  Bi  Bi5  1  0.500000  0.500000  0.000000  1
  Bi  Bi6  1  0.000000  0.000000  0.000000  1
