# generated using pymatgen
data_Er2Tm2MnB12Rh
_symmetry_space_group_name_H-M   'P 1'
_cell_length_a   3.58422300
_cell_length_b   9.06655769
_cell_length_c   11.43771200
_cell_angle_alpha   90.16105027
_cell_angle_beta   90.00000000
_cell_angle_gamma   90.00000000
_symmetry_Int_Tables_number   1
_chemical_formula_structural   Er2Tm2MnB12Rh
_chemical_formula_sum   'Er4 Tm4 Mn2 B24 Rh2'
_cell_volume   371.68487842
_cell_formula_units_Z   2
loop_
 _symmetry_equiv_pos_site_id
 _symmetry_equiv_pos_as_xyz
  1  'x, y, z'
loop_
 _atom_site_type_symbol
 _atom_site_label
 _atom_site_symmetry_multiplicity
 _atom_site_fract_x
 _atom_site_fract_y
 _atom_site_fract_z
 _atom_site_occupancy
  Er  Er0  1  0.500000  0.317558  0.410091  1
  Er  Er1  1  0.500000  0.682442  0.589909  1
  Er  Er2  1  0.500000  0.171965  0.917892  1
  Er  Er3  1  0.500000  0.828035  0.082108  1
  Tm  Tm4  1  0.500000  0.440073  0.126229  1
  Tm  Tm5  1  0.500000  0.559927  0.873771  1
  Tm  Tm6  1  0.500000  0.052026  0.629682  1
  Tm  Tm7  1  0.500000  0.947974  0.370318  1
  Mn  Mn8  1  0.500000  0.139620  0.180554  1
  Mn  Mn9  1  0.500000  0.860380  0.819446  1
  B  B10  1  0.000000  0.108102  0.470518  1
  B  B11  1  0.000000  0.891898  0.529482  1
  B  B12  1  0.000000  0.390923  0.970075  1
  B  B13  1  0.000000  0.609077  0.029925  1
  B  B14  1  0.000000  0.132178  0.313428  1
  B  B15  1  0.000000  0.867822  0.686572  1
  B  B16  1  0.000000  0.367632  0.817200  1
  B  B17  1  0.000000  0.632368  0.182800  1
  B  B18  1  0.000000  0.053757  0.067788  1
  B  B19  1  0.000000  0.946243  0.932212  1
  B  B20  1  0.000000  0.446202  0.566087  1
  B  B21  1  0.000000  0.553798  0.433913  1
  B  B22  1  0.000000  0.482013  0.286675  1
  B  B23  1  0.000000  0.517987  0.713325  1
  B  B24  1  0.000000  0.014594  0.788423  1
  B  B25  1  0.000000  0.985406  0.211577  1
  B  B26  1  0.000000  0.246268  0.081421  1
  B  B27  1  0.000000  0.753732  0.918579  1
  B  B28  1  0.000000  0.249483  0.578866  1
  B  B29  1  0.000000  0.750517  0.421134  1
  B  B30  1  0.000000  0.290982  0.233403  1
  B  B31  1  0.000000  0.709018  0.766597  1
  B  B32  1  0.000000  0.206837  0.735187  1
  B  B33  1  0.000000  0.793163  0.264813  1
  Rh  Rh34  1  0.500000  0.361300  0.678857  1
  Rh  Rh35  1  0.500000  0.638700  0.321143  1
