# generated using pymatgen
data_La16Cd4CuOs3
_symmetry_space_group_name_H-M   'P 1'
_cell_length_a   10.16866451
_cell_length_b   10.16866352
_cell_length_c   10.03831332
_cell_angle_alpha   59.56950822
_cell_angle_beta   59.56950508
_cell_angle_gamma   59.99999547
_symmetry_Int_Tables_number   1
_chemical_formula_structural   La16Cd4CuOs3
_chemical_formula_sum   'La16 Cd4 Cu1 Os3'
_cell_volume   729.14979116
_cell_formula_units_Z   1
loop_
 _symmetry_equiv_pos_site_id
 _symmetry_equiv_pos_as_xyz
  1  'x, y, z'
loop_
 _atom_site_type_symbol
 _atom_site_label
 _atom_site_symmetry_multiplicity
 _atom_site_fract_x
 _atom_site_fract_y
 _atom_site_fract_z
 _atom_site_occupancy
  La  La0  1  0.899777  0.899777  0.905572  1
  La  La1  1  0.438021  0.438021  0.062231  1
  La  La2  1  0.058351  0.058351  0.432923  1
  La  La3  1  0.438021  0.061728  0.062231  1
  La  La4  1  0.308761  0.689124  0.312990  1
  La  La5  1  0.689124  0.689124  0.312990  1
  La  La6  1  0.689124  0.308761  0.312990  1
  La  La7  1  0.294876  0.899777  0.905572  1
  La  La8  1  0.899777  0.294876  0.905572  1
  La  La9  1  0.308773  0.685187  0.697267  1
  La  La10  1  0.905678  0.905678  0.282968  1
  La  La11  1  0.061728  0.438021  0.062231  1
  La  La12  1  0.308773  0.308773  0.697267  1
  La  La13  1  0.058351  0.450375  0.432923  1
  La  La14  1  0.450375  0.058351  0.432923  1
  La  La15  1  0.685187  0.308773  0.697267  1
  Cd  Cd16  1  0.670668  0.670668  0.987997  1
  Cd  Cd17  1  0.988580  0.670402  0.670615  1
  Cd  Cd18  1  0.670402  0.988580  0.670615  1
  Cd  Cd19  1  0.670402  0.670402  0.670615  1
  Cu  Cu20  1  0.109543  0.109543  0.671371  1
  Os  Os21  1  0.112993  0.112993  0.104291  1
  Os  Os22  1  0.112993  0.669723  0.104291  1
  Os  Os23  1  0.669723  0.112993  0.104291  1
