# generated using pymatgen
data_La3Pr3NdPt3
_symmetry_space_group_name_H-M   'P 1'
_cell_length_a   6.57072500
_cell_length_b   10.29189316
_cell_length_c   10.29189258
_cell_angle_alpha   119.97952690
_cell_angle_beta   90.00000000
_cell_angle_gamma   90.00000000
_symmetry_Int_Tables_number   1
_chemical_formula_structural   La3Pr3NdPt3
_chemical_formula_sum   'La6 Pr6 Nd2 Pt6'
_cell_volume   602.87044716
_cell_formula_units_Z   2
loop_
 _symmetry_equiv_pos_site_id
 _symmetry_equiv_pos_as_xyz
  1  'x, y, z'
loop_
 _atom_site_type_symbol
 _atom_site_label
 _atom_site_symmetry_multiplicity
 _atom_site_fract_x
 _atom_site_fract_y
 _atom_site_fract_z
 _atom_site_occupancy
  La  La0  1  0.247140  0.128496  0.871504  1
  La  La1  1  0.246825  0.743328  0.871683  1
  La  La2  1  0.246825  0.128317  0.256672  1
  La  La3  1  0.747140  0.871504  0.128496  1
  La  La4  1  0.746825  0.256672  0.128317  1
  La  La5  1  0.746825  0.871683  0.743328  1
  Pr  Pr6  1  0.441328  0.538032  0.461968  1
  Pr  Pr7  1  0.441189  0.923851  0.461964  1
  Pr  Pr8  1  0.441189  0.538036  0.076149  1
  Pr  Pr9  1  0.941328  0.461968  0.538032  1
  Pr  Pr10  1  0.941189  0.076149  0.538036  1
  Pr  Pr11  1  0.941189  0.461964  0.923851  1
  Nd  Nd12  1  0.460140  0.333409  0.666591  1
  Nd  Nd13  1  0.960140  0.666591  0.333409  1
  Pt  Pt14  1  0.189579  0.811631  0.188369  1
  Pt  Pt15  1  0.189391  0.376670  0.188429  1
  Pt  Pt16  1  0.189391  0.811571  0.623330  1
  Pt  Pt17  1  0.689579  0.188369  0.811631  1
  Pt  Pt18  1  0.689391  0.623330  0.811571  1
  Pt  Pt19  1  0.689391  0.188429  0.376670  1
