# generated using pymatgen
data_Ce2HgPdRu
_symmetry_space_group_name_H-M   'P 1'
_cell_length_a   7.63936500
_cell_length_b   7.79654100
_cell_length_c   3.74648600
_cell_angle_alpha   90.00000000
_cell_angle_beta   90.00000000
_cell_angle_gamma   90.00000000
_symmetry_Int_Tables_number   1
_chemical_formula_structural   Ce2HgPdRu
_chemical_formula_sum   'Ce4 Hg2 Pd2 Ru2'
_cell_volume   223.14303811
_cell_formula_units_Z   2
loop_
 _symmetry_equiv_pos_site_id
 _symmetry_equiv_pos_as_xyz
  1  'x, y, z'
loop_
 _atom_site_type_symbol
 _atom_site_label
 _atom_site_symmetry_multiplicity
 _atom_site_fract_x
 _atom_site_fract_y
 _atom_site_fract_z
 _atom_site_occupancy
  Ce  Ce0  1  0.653348  0.170079  0.500000  1
  Ce  Ce1  1  0.186814  0.316904  0.500000  1
  Ce  Ce2  1  0.846652  0.670079  0.500000  1
  Ce  Ce3  1  0.313186  0.816904  0.500000  1
  Hg  Hg4  1  0.994611  0.001934  0.000000  1
  Hg  Hg5  1  0.505389  0.501934  0.000000  1
  Pd  Pd6  1  0.622497  0.863509  0.000000  1
  Pd  Pd7  1  0.877503  0.363509  0.000000  1
  Ru  Ru8  1  0.369161  0.147573  0.000000  1
  Ru  Ru9  1  0.130839  0.647573  0.000000  1
