# generated using pymatgen
data_DyLu5(Si3Ru)8
_symmetry_space_group_name_H-M   'P 1'
_cell_length_a   10.09558739
_cell_length_b   10.09558765
_cell_length_c   8.08866738
_cell_angle_alpha   90.01415569
_cell_angle_beta   90.01415367
_cell_angle_gamma   132.75738558
_symmetry_Int_Tables_number   1
_chemical_formula_structural   DyLu5(Si3Ru)8
_chemical_formula_sum   'Dy1 Lu5 Si24 Ru8'
_cell_volume   605.30627513
_cell_formula_units_Z   1
loop_
 _symmetry_equiv_pos_site_id
 _symmetry_equiv_pos_as_xyz
  1  'x, y, z'
loop_
 _atom_site_type_symbol
 _atom_site_label
 _atom_site_symmetry_multiplicity
 _atom_site_fract_x
 _atom_site_fract_y
 _atom_site_fract_z
 _atom_site_occupancy
  Dy  Dy0  1  0.000000  0.000000  0.000000  1
  Lu  Lu1  1  0.500000  0.500000  0.500000  1
  Lu  Lu2  1  0.502914  0.002865  0.749860  1
  Lu  Lu3  1  0.997135  0.497086  0.250140  1
  Lu  Lu4  1  0.497086  0.997135  0.250140  1
  Lu  Lu5  1  0.002865  0.502914  0.749860  1
  Si  Si6  1  0.795067  0.204933  0.500000  1
  Si  Si7  1  0.295413  0.704587  0.000000  1
  Si  Si8  1  0.204933  0.795067  0.500000  1
  Si  Si9  1  0.704587  0.295413  0.000000  1
  Si  Si10  1  0.332872  0.332872  0.833099  1
  Si  Si11  1  0.667128  0.667128  0.166901  1
  Si  Si12  1  0.167075  0.167075  0.333259  1
  Si  Si13  1  0.832925  0.832925  0.666741  1
  Si  Si14  1  0.122530  0.887663  0.728352  1
  Si  Si15  1  0.112337  0.877470  0.271648  1
  Si  Si16  1  0.611548  0.377055  0.228946  1
  Si  Si17  1  0.622945  0.388452  0.771054  1
  Si  Si18  1  0.877470  0.112337  0.271648  1
  Si  Si19  1  0.887663  0.122530  0.728352  1
  Si  Si20  1  0.388452  0.622945  0.771054  1
  Si  Si21  1  0.377055  0.611548  0.228946  1
  Si  Si22  1  0.345972  0.111961  0.505862  1
  Si  Si23  1  0.888039  0.654028  0.494138  1
  Si  Si24  1  0.388297  0.154146  0.005778  1
  Si  Si25  1  0.845854  0.611703  0.994222  1
  Si  Si26  1  0.654028  0.888039  0.494138  1
  Si  Si27  1  0.111961  0.345972  0.505862  1
  Si  Si28  1  0.611703  0.845854  0.994222  1
  Si  Si29  1  0.154146  0.388297  0.005778  1
  Ru  Ru30  1  0.670126  0.329874  0.500000  1
  Ru  Ru31  1  0.170912  0.829088  0.000000  1
  Ru  Ru32  1  0.329874  0.670126  0.500000  1
  Ru  Ru33  1  0.829088  0.170912  0.000000  1
  Ru  Ru34  1  0.128436  0.128436  0.626620  1
  Ru  Ru35  1  0.871564  0.871564  0.373380  1
  Ru  Ru36  1  0.373699  0.373699  0.129250  1
  Ru  Ru37  1  0.626301  0.626301  0.870750  1
