# generated using pymatgen
data_Sc4FeRe(BRu)8
_symmetry_space_group_name_H-M   'P 1'
_cell_length_a   3.02293100
_cell_length_b   8.46109575
_cell_length_c   9.99940073
_cell_angle_alpha   90.54818143
_cell_angle_beta   90.00000000
_cell_angle_gamma   90.00000000
_symmetry_Int_Tables_number   1
_chemical_formula_structural   Sc4FeRe(BRu)8
_chemical_formula_sum   'Sc4 Fe1 Re1 B8 Ru8'
_cell_volume   255.74605274
_cell_formula_units_Z   1
loop_
 _symmetry_equiv_pos_site_id
 _symmetry_equiv_pos_as_xyz
  1  'x, y, z'
loop_
 _atom_site_type_symbol
 _atom_site_label
 _atom_site_symmetry_multiplicity
 _atom_site_fract_x
 _atom_site_fract_y
 _atom_site_fract_z
 _atom_site_occupancy
  Sc  Sc0  1  0.500000  0.842980  0.171388  1
  Sc  Sc1  1  0.500000  0.156308  0.827923  1
  Sc  Sc2  1  0.500000  0.658235  0.687034  1
  Sc  Sc3  1  0.500000  0.341769  0.313940  1
  Fe  Fe4  1  0.000000  0.000795  0.000826  1
  Re  Re5  1  0.000000  0.662349  0.955173  1
  B  B6  1  0.500000  0.964500  0.591154  1
  B  B7  1  0.500000  0.034660  0.408060  1
  B  B8  1  0.500000  0.859130  0.908319  1
  B  B9  1  0.500000  0.139498  0.092212  1
  B  B10  1  0.500000  0.646357  0.399300  1
  B  B11  1  0.500000  0.350464  0.601608  1
  B  B12  1  0.500000  0.470248  0.910132  1
  B  B13  1  0.500000  0.540416  0.087020  1
  Ru  Ru14  1  0.000000  0.335178  0.045921  1
  Ru  Ru15  1  0.000000  0.841121  0.453624  1
  Ru  Ru16  1  0.000000  0.157853  0.545246  1
  Ru  Ru17  1  0.000000  0.401492  0.761174  1
  Ru  Ru18  1  0.000000  0.597128  0.239829  1
  Ru  Ru19  1  0.000000  0.498981  0.500834  1
  Ru  Ru20  1  0.000000  0.908133  0.742949  1
  Ru  Ru21  1  0.000000  0.092405  0.256337  1
