# generated using pymatgen
data_Ho5GaBi2
_symmetry_space_group_name_H-M   'P 1'
_cell_length_a   8.04808100
_cell_length_b   9.24826800
_cell_length_c   12.08454700
_cell_angle_alpha   90.00000000
_cell_angle_beta   90.00000000
_cell_angle_gamma   90.00000000
_symmetry_Int_Tables_number   1
_chemical_formula_structural   Ho5GaBi2
_chemical_formula_sum   'Ho20 Ga4 Bi8'
_cell_volume   899.46262138
_cell_formula_units_Z   4
loop_
 _symmetry_equiv_pos_site_id
 _symmetry_equiv_pos_as_xyz
  1  'x, y, z'
loop_
 _atom_site_type_symbol
 _atom_site_label
 _atom_site_symmetry_multiplicity
 _atom_site_fract_x
 _atom_site_fract_y
 _atom_site_fract_z
 _atom_site_occupancy
  Ho  Ho0  1  0.167975  0.750000  0.216348  1
  Ho  Ho1  1  0.332025  0.750000  0.716348  1
  Ho  Ho2  1  0.832025  0.250000  0.783652  1
  Ho  Ho3  1  0.667975  0.250000  0.283652  1
  Ho  Ho4  1  0.459824  0.750000  0.002413  1
  Ho  Ho5  1  0.040176  0.750000  0.502413  1
  Ho  Ho6  1  0.540176  0.250000  0.997587  1
  Ho  Ho7  1  0.959824  0.250000  0.497587  1
  Ho  Ho8  1  0.638757  0.750000  0.296059  1
  Ho  Ho9  1  0.861243  0.750000  0.796059  1
  Ho  Ho10  1  0.361243  0.250000  0.703941  1
  Ho  Ho11  1  0.138757  0.250000  0.203941  1
  Ho  Ho12  1  0.818561  0.552680  0.065409  1
  Ho  Ho13  1  0.681439  0.947320  0.565409  1
  Ho  Ho14  1  0.181439  0.052680  0.934591  1
  Ho  Ho15  1  0.318561  0.447320  0.434591  1
  Ho  Ho16  1  0.181439  0.447320  0.934591  1
  Ho  Ho17  1  0.318561  0.052680  0.434591  1
  Ho  Ho18  1  0.818561  0.947320  0.065409  1
  Ho  Ho19  1  0.681439  0.552680  0.565409  1
  Ga  Ga20  1  0.409660  0.750000  0.478309  1
  Ga  Ga21  1  0.090340  0.750000  0.978309  1
  Ga  Ga22  1  0.590340  0.250000  0.521691  1
  Ga  Ga23  1  0.909660  0.250000  0.021691  1
  Bi  Bi24  1  0.932925  0.509440  0.326364  1
  Bi  Bi25  1  0.567075  0.990560  0.826364  1
  Bi  Bi26  1  0.067075  0.009440  0.673636  1
  Bi  Bi27  1  0.432925  0.490560  0.173636  1
  Bi  Bi28  1  0.067075  0.490560  0.673636  1
  Bi  Bi29  1  0.432925  0.009440  0.173636  1
  Bi  Bi30  1  0.932925  0.990560  0.326364  1
  Bi  Bi31  1  0.567075  0.509440  0.826364  1
