# generated using pymatgen
data_ErTm5CrCo17P12
_symmetry_space_group_name_H-M   'P 1'
_cell_length_a   3.66383400
_cell_length_b   10.47361400
_cell_length_c   12.12509400
_cell_angle_alpha   90.00000000
_cell_angle_beta   90.00000000
_cell_angle_gamma   90.00000000
_symmetry_Int_Tables_number   1
_chemical_formula_structural   ErTm5CrCo17P12
_chemical_formula_sum   'Er1 Tm5 Cr1 Co17 P12'
_cell_volume   465.28330191
_cell_formula_units_Z   1
loop_
 _symmetry_equiv_pos_site_id
 _symmetry_equiv_pos_as_xyz
  1  'x, y, z'
loop_
 _atom_site_type_symbol
 _atom_site_label
 _atom_site_symmetry_multiplicity
 _atom_site_fract_x
 _atom_site_fract_y
 _atom_site_fract_z
 _atom_site_occupancy
  Er  Er0  1  0.500000  0.000000  0.477286  1
  Tm  Tm1  1  0.000000  0.500000  0.523157  1
  Tm  Tm2  1  0.500000  0.817943  0.206495  1
  Tm  Tm3  1  0.500000  0.182057  0.206495  1
  Tm  Tm4  1  0.000000  0.681924  0.795644  1
  Tm  Tm5  1  0.000000  0.318076  0.795644  1
  Cr  Cr6  1  0.500000  0.500000  0.154969  1
  Co  Co7  1  0.000000  0.000000  0.839645  1
  Co  Co8  1  0.500000  0.500000  0.702656  1
  Co  Co9  1  0.000000  0.000000  0.296796  1
  Co  Co10  1  0.000000  0.500000  0.987350  1
  Co  Co11  1  0.500000  0.000000  0.015006  1
  Co  Co12  1  0.500000  0.332448  0.992816  1
  Co  Co13  1  0.500000  0.667552  0.992816  1
  Co  Co14  1  0.000000  0.166620  0.006163  1
  Co  Co15  1  0.000000  0.833380  0.006163  1
  Co  Co16  1  0.500000  0.297214  0.430866  1
  Co  Co17  1  0.500000  0.702786  0.430866  1
  Co  Co18  1  0.000000  0.203229  0.569175  1
  Co  Co19  1  0.000000  0.796771  0.569175  1
  Co  Co20  1  0.500000  0.878383  0.708741  1
  Co  Co21  1  0.500000  0.121617  0.708741  1
  Co  Co22  1  0.000000  0.621083  0.291023  1
  Co  Co23  1  0.000000  0.378917  0.291023  1
  P  P24  1  0.500000  0.500000  0.881352  1
  P  P25  1  0.000000  0.000000  0.118317  1
  P  P26  1  0.500000  0.500000  0.346939  1
  P  P27  1  0.000000  0.000000  0.655052  1
  P  P28  1  0.500000  0.312371  0.616919  1
  P  P29  1  0.500000  0.687629  0.616919  1
  P  P30  1  0.000000  0.188002  0.383757  1
  P  P31  1  0.000000  0.811998  0.383757  1
  P  P32  1  0.500000  0.848713  0.891511  1
  P  P33  1  0.500000  0.151287  0.891511  1
  P  P34  1  0.000000  0.654533  0.107627  1
  P  P35  1  0.000000  0.345467  0.107627  1
