# generated using pymatgen
data_Ba5Sb2I2O9
_symmetry_space_group_name_H-M   'P 1'
_cell_length_a   6.08326500
_cell_length_b   6.08326523
_cell_length_c   27.05411200
_cell_angle_alpha   90.00000000
_cell_angle_beta   90.00000000
_cell_angle_gamma   120.00000421
_symmetry_Int_Tables_number   1
_chemical_formula_structural   Ba5Sb2I2O9
_chemical_formula_sum   'Ba10 Sb4 I4 O18'
_cell_volume   867.03650759
_cell_formula_units_Z   2
loop_
 _symmetry_equiv_pos_site_id
 _symmetry_equiv_pos_as_xyz
  1  'x, y, z'
loop_
 _atom_site_type_symbol
 _atom_site_label
 _atom_site_symmetry_multiplicity
 _atom_site_fract_x
 _atom_site_fract_y
 _atom_site_fract_z
 _atom_site_occupancy
  Ba  Ba0  1  0.333333  0.666667  0.905887  1
  Ba  Ba1  1  0.666667  0.333333  0.405887  1
  Ba  Ba2  1  0.666667  0.333333  0.094113  1
  Ba  Ba3  1  0.333333  0.666667  0.175534  1
  Ba  Ba4  1  0.666667  0.333333  0.675534  1
  Ba  Ba5  1  0.333333  0.666667  0.324466  1
  Ba  Ba6  1  0.666667  0.333333  0.824466  1
  Ba  Ba7  1  0.666667  0.333333  0.250000  1
  Ba  Ba8  1  0.333333  0.666667  0.594113  1
  Ba  Ba9  1  0.333333  0.666667  0.750000  1
  Sb  Sb10  1  0.000000  0.000000  0.805052  1
  Sb  Sb11  1  0.000000  0.000000  0.305052  1
  Sb  Sb12  1  0.000000  0.000000  0.694948  1
  Sb  Sb13  1  0.000000  0.000000  0.194948  1
  I  I14  1  0.333333  0.666667  0.453520  1
  I  I15  1  0.333333  0.666667  0.046480  1
  I  I16  1  0.666667  0.333333  0.546480  1
  I  I17  1  0.666667  0.333333  0.953520  1
  O  O18  1  0.164422  0.835578  0.662244  1
  O  O19  1  0.671157  0.835578  0.837756  1
  O  O20  1  0.164422  0.328843  0.662244  1
  O  O21  1  0.853885  0.146115  0.750000  1
  O  O22  1  0.292231  0.146115  0.750000  1
  O  O23  1  0.146115  0.292231  0.250000  1
  O  O24  1  0.146115  0.853885  0.250000  1
  O  O25  1  0.707769  0.853885  0.250000  1
  O  O26  1  0.835578  0.164422  0.337756  1
  O  O27  1  0.328843  0.164422  0.162244  1
  O  O28  1  0.853885  0.707769  0.750000  1
  O  O29  1  0.835578  0.671157  0.162244  1
  O  O30  1  0.328843  0.164422  0.337756  1
  O  O31  1  0.835578  0.164422  0.162244  1
  O  O32  1  0.164422  0.328843  0.837756  1
  O  O33  1  0.835578  0.671157  0.337756  1
  O  O34  1  0.671157  0.835578  0.662244  1
  O  O35  1  0.164422  0.835578  0.837756  1
