# generated using pymatgen
data_Gd4Sn3As3Rh7
_symmetry_space_group_name_H-M   'P 1'
_cell_length_a   7.60862109
_cell_length_b   7.60862069
_cell_length_c   7.68364200
_cell_angle_alpha   109.67108827
_cell_angle_beta   109.67108721
_cell_angle_gamma   109.27061773
_symmetry_Int_Tables_number   1
_chemical_formula_structural   Gd4Sn3As3Rh7
_chemical_formula_sum   'Gd4 Sn3 As3 Rh7'
_cell_volume   341.57015738
_cell_formula_units_Z   1
loop_
 _symmetry_equiv_pos_site_id
 _symmetry_equiv_pos_as_xyz
  1  'x, y, z'
loop_
 _atom_site_type_symbol
 _atom_site_label
 _atom_site_symmetry_multiplicity
 _atom_site_fract_x
 _atom_site_fract_y
 _atom_site_fract_z
 _atom_site_occupancy
  Gd  Gd0  1  0.000000  0.000000  0.447962  1
  Gd  Gd1  1  0.000000  0.525178  0.011551  1
  Gd  Gd2  1  0.525178  0.000000  0.011551  1
  Gd  Gd3  1  0.474822  0.474822  0.486374  1
  Sn  Sn4  1  0.295166  0.295166  0.981923  1
  Sn  Sn5  1  0.704834  0.000000  0.686756  1
  Sn  Sn6  1  0.000000  0.704834  0.686756  1
  As  As7  1  0.653482  0.653482  0.989527  1
  As  As8  1  0.346518  0.000000  0.336045  1
  As  As9  1  0.000000  0.346518  0.336045  1
  Rh  Rh10  1  0.754676  0.255551  0.500714  1
  Rh  Rh11  1  0.744449  0.499125  0.245162  1
  Rh  Rh12  1  0.500875  0.245324  0.746037  1
  Rh  Rh13  1  0.245324  0.500875  0.746037  1
  Rh  Rh14  1  0.255551  0.754676  0.500714  1
  Rh  Rh15  1  0.499125  0.744449  0.245162  1
  Rh  Rh16  1  0.000000  0.000000  0.041680  1
