# generated using pymatgen
data_Lu2Sc3In4RuPt
_symmetry_space_group_name_H-M   'P 1'
_cell_length_a   3.48329600
_cell_length_b   7.79292252
_cell_length_c   17.75758699
_cell_angle_alpha   89.82911861
_cell_angle_beta   90.00000000
_cell_angle_gamma   90.00000000
_symmetry_Int_Tables_number   1
_chemical_formula_structural   Lu2Sc3In4RuPt
_chemical_formula_sum   'Lu4 Sc6 In8 Ru2 Pt2'
_cell_volume   482.02854675
_cell_formula_units_Z   2
loop_
 _symmetry_equiv_pos_site_id
 _symmetry_equiv_pos_as_xyz
  1  'x, y, z'
loop_
 _atom_site_type_symbol
 _atom_site_label
 _atom_site_symmetry_multiplicity
 _atom_site_fract_x
 _atom_site_fract_y
 _atom_site_fract_z
 _atom_site_occupancy
  Lu  Lu0  1  0.000000  0.239561  0.221172  1
  Lu  Lu1  1  0.000000  0.760439  0.778828  1
  Lu  Lu2  1  0.000000  0.246750  0.717295  1
  Lu  Lu3  1  0.000000  0.753250  0.282705  1
  Sc  Sc4  1  0.000000  0.116367  0.412803  1
  Sc  Sc5  1  0.000000  0.883633  0.587197  1
  Sc  Sc6  1  0.000000  0.380102  0.914510  1
  Sc  Sc7  1  0.000000  0.619898  0.085490  1
  Sc  Sc8  1  0.000000  0.000000  0.000000  1
  Sc  Sc9  1  0.000000  0.500000  0.500000  1
  In  In10  1  0.500000  0.420830  0.355192  1
  In  In11  1  0.500000  0.579170  0.644808  1
  In  In12  1  0.500000  0.073033  0.852971  1
  In  In13  1  0.500000  0.926967  0.147029  1
  In  In14  1  0.500000  0.295467  0.060891  1
  In  In15  1  0.500000  0.704533  0.939109  1
  In  In16  1  0.500000  0.202147  0.561643  1
  In  In17  1  0.500000  0.797853  0.438357  1
  Ru  Ru18  1  0.500000  0.030217  0.306791  1
  Ru  Ru19  1  0.500000  0.969783  0.693209  1
  Pt  Pt20  1  0.500000  0.468802  0.805606  1
  Pt  Pt21  1  0.500000  0.531198  0.194394  1
