# generated using pymatgen
data_K3CdH5
_symmetry_space_group_name_H-M   'P 1'
_cell_length_a   8.05419662
_cell_length_b   8.05419707
_cell_length_c   8.05419677
_cell_angle_alpha   122.73056768
_cell_angle_beta   122.73057204
_cell_angle_gamma   85.33219017
_symmetry_Int_Tables_number   1
_chemical_formula_structural   K3CdH5
_chemical_formula_sum   'K6 Cd2 H10'
_cell_volume   352.92077277
_cell_formula_units_Z   2
loop_
 _symmetry_equiv_pos_site_id
 _symmetry_equiv_pos_as_xyz
  1  'x, y, z'
loop_
 _atom_site_type_symbol
 _atom_site_label
 _atom_site_symmetry_multiplicity
 _atom_site_fract_x
 _atom_site_fract_y
 _atom_site_fract_z
 _atom_site_occupancy
  K  K0  1  0.185274  0.685274  0.870548  1
  K  K1  1  0.814726  0.314726  0.129452  1
  K  K2  1  0.685274  0.814726  0.500000  1
  K  K3  1  0.314726  0.185274  0.500000  1
  K  K4  1  0.250000  0.250000  0.000000  1
  K  K5  1  0.750000  0.750000  0.000000  1
  Cd  Cd6  1  0.250000  0.750000  0.500000  1
  Cd  Cd7  1  0.750000  0.250000  0.500000  1
  H  H8  1  0.477437  0.977437  0.765924  1
  H  H9  1  0.211513  0.711513  0.234076  1
  H  H10  1  0.977437  0.211513  0.500000  1
  H  H11  1  0.711513  0.477437  0.500000  1
  H  H12  1  0.522563  0.022563  0.234076  1
  H  H13  1  0.788487  0.288487  0.765924  1
  H  H14  1  0.022563  0.788487  0.500000  1
  H  H15  1  0.288487  0.522563  0.500000  1
  H  H16  1  0.500000  0.500000  0.000000  1
  H  H17  1  0.000000  0.000000  0.000000  1
