# generated using pymatgen
data_DyY7(Tm3Sn4)4
_symmetry_space_group_name_H-M   'P 1'
_cell_length_a   7.98062301
_cell_length_b   8.11231001
_cell_length_c   15.32929401
_cell_angle_alpha   90.00419825
_cell_angle_beta   89.99902582
_cell_angle_gamma   90.00489898
_symmetry_Int_Tables_number   1
_chemical_formula_structural   DyY7(Tm3Sn4)4
_chemical_formula_sum   'Dy1 Y7 Tm12 Sn16'
_cell_volume   992.43823093
_cell_formula_units_Z   1
loop_
 _symmetry_equiv_pos_site_id
 _symmetry_equiv_pos_as_xyz
  1  'x, y, z'
loop_
 _atom_site_type_symbol
 _atom_site_label
 _atom_site_symmetry_multiplicity
 _atom_site_fract_x
 _atom_site_fract_y
 _atom_site_fract_z
 _atom_site_occupancy
  Dy  Dy0  1  0.021478  0.179399  0.902793  1
  Y  Y1  1  0.521562  0.320668  0.902827  1
  Y  Y2  1  0.021556  0.179347  0.597185  1
  Y  Y3  1  0.478445  0.679344  0.402829  1
  Y  Y4  1  0.978443  0.820664  0.097174  1
  Y  Y5  1  0.478451  0.679361  0.097166  1
  Y  Y6  1  0.978443  0.820657  0.402824  1
  Y  Y7  1  0.521550  0.320658  0.597174  1
  Tm  Tm8  1  0.367392  0.836579  0.877364  1
  Tm  Tm9  1  0.867416  0.663407  0.622646  1
  Tm  Tm10  1  0.632591  0.163400  0.377355  1
  Tm  Tm11  1  0.132549  0.336550  0.122594  1
  Tm  Tm12  1  0.632555  0.163399  0.122643  1
  Tm  Tm13  1  0.132590  0.336591  0.377359  1
  Tm  Tm14  1  0.367384  0.836600  0.622649  1
  Tm  Tm15  1  0.867386  0.663402  0.877355  1
  Tm  Tm16  1  0.198152  0.504035  0.750018  1
  Tm  Tm17  1  0.698231  0.995930  0.750004  1
  Tm  Tm18  1  0.801839  0.495913  0.250001  1
  Tm  Tm19  1  0.301836  0.004097  0.249989  1
  Sn  Sn20  1  0.293901  0.036863  0.041690  1
  Sn  Sn21  1  0.793920  0.463147  0.458283  1
  Sn  Sn22  1  0.706105  0.963148  0.541658  1
  Sn  Sn23  1  0.206064  0.536781  0.958320  1
  Sn  Sn24  1  0.706231  0.963217  0.958320  1
  Sn  Sn25  1  0.206092  0.536845  0.541658  1
  Sn  Sn26  1  0.293916  0.036854  0.458287  1
  Sn  Sn27  1  0.793945  0.463103  0.041700  1
  Sn  Sn28  1  0.564577  0.620313  0.750003  1
  Sn  Sn29  1  0.064563  0.879755  0.750036  1
  Sn  Sn30  1  0.435433  0.379678  0.250005  1
  Sn  Sn31  1  0.935433  0.120317  0.250007  1
  Sn  Sn32  1  0.330375  0.147520  0.750029  1
  Sn  Sn33  1  0.830516  0.352440  0.750048  1
  Sn  Sn34  1  0.669546  0.852509  0.250004  1
  Sn  Sn35  1  0.169533  0.647509  0.250004  1
