# generated using pymatgen
data_Hf3Ga3CuOsPd
_symmetry_space_group_name_H-M   'P 1'
_cell_length_a   7.34283800
_cell_length_b   7.34283779
_cell_length_c   6.54475400
_cell_angle_alpha   90.00000000
_cell_angle_beta   90.00000000
_cell_angle_gamma   120.00000095
_symmetry_Int_Tables_number   1
_chemical_formula_structural   Hf3Ga3CuOsPd
_chemical_formula_sum   'Hf6 Ga6 Cu2 Os2 Pd2'
_cell_volume   305.59893457
_cell_formula_units_Z   2
loop_
 _symmetry_equiv_pos_site_id
 _symmetry_equiv_pos_as_xyz
  1  'x, y, z'
loop_
 _atom_site_type_symbol
 _atom_site_label
 _atom_site_symmetry_multiplicity
 _atom_site_fract_x
 _atom_site_fract_y
 _atom_site_fract_z
 _atom_site_occupancy
  Hf  Hf0  1  0.606720  0.618133  0.250000  1
  Hf  Hf1  1  0.013613  0.393576  0.750000  1
  Hf  Hf2  1  0.381867  0.988587  0.250000  1
  Hf  Hf3  1  0.011413  0.393280  0.250000  1
  Hf  Hf4  1  0.379962  0.986387  0.750000  1
  Hf  Hf5  1  0.606424  0.620038  0.750000  1
  Ga  Ga6  1  0.272571  0.266506  0.499873  1
  Ga  Ga7  1  0.733494  0.006065  0.499873  1
  Ga  Ga8  1  0.993935  0.727429  0.499873  1
  Ga  Ga9  1  0.733494  0.006065  0.000127  1
  Ga  Ga10  1  0.272571  0.266506  0.000127  1
  Ga  Ga11  1  0.993935  0.727429  0.000127  1
  Cu  Cu12  1  0.000000  0.000000  0.750000  1
  Cu  Cu13  1  0.000000  0.000000  0.250000  1
  Os  Os14  1  0.333333  0.666667  0.499313  1
  Os  Os15  1  0.333333  0.666667  0.000687  1
  Pd  Pd16  1  0.666667  0.333333  0.503277  1
  Pd  Pd17  1  0.666667  0.333333  0.996723  1
