# generated using pymatgen
data_Th2CdNiPd
_symmetry_space_group_name_H-M   'P 1'
_cell_length_a   7.81780353
_cell_length_b   7.81780341
_cell_length_c   3.74248200
_cell_angle_alpha   90.00000000
_cell_angle_beta   90.00000000
_cell_angle_gamma   91.08569651
_symmetry_Int_Tables_number   1
_chemical_formula_structural   Th2CdNiPd
_chemical_formula_sum   'Th4 Cd2 Ni2 Pd2'
_cell_volume   228.69214233
_cell_formula_units_Z   2
loop_
 _symmetry_equiv_pos_site_id
 _symmetry_equiv_pos_as_xyz
  1  'x, y, z'
loop_
 _atom_site_type_symbol
 _atom_site_label
 _atom_site_symmetry_multiplicity
 _atom_site_fract_x
 _atom_site_fract_y
 _atom_site_fract_z
 _atom_site_occupancy
  Th  Th0  1  0.681611  0.181611  0.500000  1
  Th  Th1  1  0.318389  0.818389  0.500000  1
  Th  Th2  1  0.163748  0.336252  0.500000  1
  Th  Th3  1  0.836252  0.663748  0.500000  1
  Cd  Cd4  1  0.000000  0.000000  0.000000  1
  Cd  Cd5  1  0.500000  0.500000  0.000000  1
  Ni  Ni6  1  0.123107  0.623107  0.000000  1
  Ni  Ni7  1  0.876893  0.376893  0.000000  1
  Pd  Pd8  1  0.629814  0.870186  0.000000  1
  Pd  Pd9  1  0.370186  0.129814  0.000000  1
