# generated using pymatgen
data_Ho5MnAsO12
_symmetry_space_group_name_H-M   'P 1'
_cell_length_a   6.75867967
_cell_length_b   6.75867878
_cell_length_c   7.18569101
_cell_angle_alpha   74.54736296
_cell_angle_beta   74.54736298
_cell_angle_gamma   50.60228335
_symmetry_Int_Tables_number   1
_chemical_formula_structural   Ho5MnAsO12
_chemical_formula_sum   'Ho5 Mn1 As1 O12'
_cell_volume   242.38514634
_cell_formula_units_Z   1
loop_
 _symmetry_equiv_pos_site_id
 _symmetry_equiv_pos_as_xyz
  1  'x, y, z'
loop_
 _atom_site_type_symbol
 _atom_site_label
 _atom_site_symmetry_multiplicity
 _atom_site_fract_x
 _atom_site_fract_y
 _atom_site_fract_z
 _atom_site_occupancy
  Ho  Ho0  1  0.298530  0.306145  0.359470  1
  Ho  Ho1  1  0.693855  0.701470  0.640530  1
  Ho  Ho2  1  0.304600  0.305339  0.834227  1
  Ho  Ho3  1  0.694661  0.695400  0.165773  1
  Ho  Ho4  1  0.996847  0.003153  0.500000  1
  Mn  Mn5  1  0.247469  0.752531  0.000000  1
  As  As6  1  0.759903  0.240097  0.000000  1
  O  O7  1  0.897267  0.415197  0.920932  1
  O  O8  1  0.424473  0.900831  0.919716  1
  O  O9  1  0.099169  0.575527  0.080284  1
  O  O10  1  0.584803  0.102733  0.079068  1
  O  O11  1  0.095818  0.598218  0.577051  1
  O  O12  1  0.596884  0.099108  0.574163  1
  O  O13  1  0.900892  0.403116  0.425837  1
  O  O14  1  0.401782  0.904182  0.422949  1
  O  O15  1  0.992990  0.006842  0.822783  1
  O  O16  1  0.993158  0.007010  0.177217  1
  O  O17  1  0.508205  0.491307  0.822003  1
  O  O18  1  0.508693  0.491795  0.177997  1
