# generated using pymatgen
data_CaDy3Tc3B16W
_symmetry_space_group_name_H-M   'P 1'
_cell_length_a   5.99915607
_cell_length_b   11.61051209
_cell_length_c   3.58708200
_cell_angle_alpha   90.00000000
_cell_angle_beta   90.00000000
_cell_angle_gamma   89.95502460
_symmetry_Int_Tables_number   1
_chemical_formula_structural   CaDy3Tc3B16W
_chemical_formula_sum   'Ca1 Dy3 Tc3 B16 W1'
_cell_volume   249.85192879
_cell_formula_units_Z   1
loop_
 _symmetry_equiv_pos_site_id
 _symmetry_equiv_pos_as_xyz
  1  'x, y, z'
loop_
 _atom_site_type_symbol
 _atom_site_label
 _atom_site_symmetry_multiplicity
 _atom_site_fract_x
 _atom_site_fract_y
 _atom_site_fract_z
 _atom_site_occupancy
  Ca  Ca0  1  0.625352  0.347929  0.000000  1
  Dy  Dy1  1  0.372312  0.651288  0.000000  1
  Dy  Dy2  1  0.128267  0.149602  0.000000  1
  Dy  Dy3  1  0.872459  0.851638  0.000000  1
  Tc  Tc4  1  0.634558  0.086372  0.000000  1
  Tc  Tc5  1  0.366978  0.913538  0.000000  1
  Tc  Tc6  1  0.129953  0.415935  0.000000  1
  B  B7  1  0.785556  0.184925  0.500000  1
  B  B8  1  0.215162  0.815820  0.500000  1
  B  B9  1  0.285461  0.314500  0.500000  1
  B  B10  1  0.710031  0.687166  0.500000  1
  B  B11  1  0.863938  0.031486  0.500000  1
  B  B12  1  0.136436  0.969123  0.500000  1
  B  B13  1  0.364849  0.466660  0.500000  1
  B  B14  1  0.631507  0.531337  0.500000  1
  B  B15  1  0.886557  0.450532  0.500000  1
  B  B16  1  0.116748  0.545776  0.500000  1
  B  B17  1  0.387344  0.047404  0.500000  1
  B  B18  1  0.612790  0.953372  0.500000  1
  B  B19  1  0.978826  0.306394  0.500000  1
  B  B20  1  0.026236  0.694137  0.500000  1
  B  B21  1  0.475245  0.191830  0.500000  1
  B  B22  1  0.522970  0.808919  0.500000  1
  W  W23  1  0.870463  0.584315  0.000000  1
