# generated using pymatgen
data_TmZr5Zn23As
_symmetry_space_group_name_H-M   'P 1'
_cell_length_a   8.82953320
_cell_length_b   8.82202798
_cell_length_c   8.82202200
_cell_angle_alpha   60.05658140
_cell_angle_beta   59.97193933
_cell_angle_gamma   59.97205958
_symmetry_Int_Tables_number   1
_chemical_formula_structural   TmZr5Zn23As
_chemical_formula_sum   'Tm1 Zr5 Zn23 As1'
_cell_volume   485.91531445
_cell_formula_units_Z   1
loop_
 _symmetry_equiv_pos_site_id
 _symmetry_equiv_pos_as_xyz
  1  'x, y, z'
loop_
 _atom_site_type_symbol
 _atom_site_label
 _atom_site_symmetry_multiplicity
 _atom_site_fract_x
 _atom_site_fract_y
 _atom_site_fract_z
 _atom_site_occupancy
  Tm  Tm0  1  0.716198  0.283801  0.283808  1
  Zr  Zr1  1  0.285039  0.714956  0.714965  1
  Zr  Zr2  1  0.286151  0.713843  0.289858  1
  Zr  Zr3  1  0.710143  0.289856  0.713841  1
  Zr  Zr4  1  0.286160  0.289854  0.713840  1
  Zr  Zr5  1  0.710144  0.713840  0.289858  1
  Zn  Zn6  1  0.128375  0.120823  0.120820  1
  Zn  Zn7  1  0.876928  0.876879  0.876874  1
  Zn  Zn8  1  0.123122  0.123074  0.630681  1
  Zn  Zn9  1  0.123123  0.630683  0.123071  1
  Zn  Zn10  1  0.879181  0.871626  0.370014  1
  Zn  Zn11  1  0.879178  0.370015  0.871627  1
  Zn  Zn12  1  0.629982  0.120825  0.120821  1
  Zn  Zn13  1  0.369317  0.876879  0.876876  1
  Zn  Zn14  1  0.499642  0.000361  0.000358  1
  Zn  Zn15  1  0.999641  0.500359  0.500363  1
  Zn  Zn16  1  0.000224  0.500535  0.999778  1
  Zn  Zn17  1  0.499462  0.999780  0.500536  1
  Zn  Zn18  1  0.000222  0.999780  0.500536  1
  Zn  Zn19  1  0.499464  0.500536  0.999777  1
  Zn  Zn20  1  0.332365  0.334426  0.334425  1
  Zn  Zn21  1  0.663708  0.665525  0.665524  1
  Zn  Zn22  1  0.334478  0.336294  0.994750  1
  Zn  Zn23  1  0.334477  0.994754  0.336293  1
  Zn  Zn24  1  0.665576  0.667633  0.001215  1
  Zn  Zn25  1  0.665574  0.001216  0.667635  1
  Zn  Zn26  1  0.998783  0.334425  0.334426  1
  Zn  Zn27  1  0.005246  0.665522  0.665525  1
  Zn  Zn28  1  0.000324  0.999677  0.999675  1
  As  As29  1  0.497777  0.502219  0.502229  1
