# generated using pymatgen
data_CeSm2Tm(NiSn)4
_symmetry_space_group_name_H-M   'P 1'
_cell_length_a   4.54363200
_cell_length_b   7.26867815
_cell_length_c   7.61366548
_cell_angle_alpha   90.46646939
_cell_angle_beta   90.00000000
_cell_angle_gamma   90.00000000
_symmetry_Int_Tables_number   1
_chemical_formula_structural   CeSm2Tm(NiSn)4
_chemical_formula_sum   'Ce1 Sm2 Tm1 Ni4 Sn4'
_cell_volume   251.44209528
_cell_formula_units_Z   1
loop_
 _symmetry_equiv_pos_site_id
 _symmetry_equiv_pos_as_xyz
  1  'x, y, z'
loop_
 _atom_site_type_symbol
 _atom_site_label
 _atom_site_symmetry_multiplicity
 _atom_site_fract_x
 _atom_site_fract_y
 _atom_site_fract_z
 _atom_site_occupancy
  Ce  Ce0  1  0.750000  0.017984  0.698879  1
  Sm  Sm1  1  0.250000  0.483988  0.195711  1
  Sm  Sm2  1  0.250000  0.983610  0.301055  1
  Tm  Tm3  1  0.750000  0.520388  0.799761  1
  Ni  Ni4  1  0.750000  0.301426  0.422327  1
  Ni  Ni5  1  0.250000  0.195616  0.914494  1
  Ni  Ni6  1  0.750000  0.797469  0.078842  1
  Ni  Ni7  1  0.250000  0.695016  0.584610  1
  Sn  Sn8  1  0.250000  0.319764  0.592180  1
  Sn  Sn9  1  0.750000  0.188011  0.089717  1
  Sn  Sn10  1  0.250000  0.813025  0.909920  1
  Sn  Sn11  1  0.750000  0.683702  0.412505  1
