# generated using pymatgen
data_Tb6YCo2Sn23Rh4
_symmetry_space_group_name_H-M   'P 1'
_cell_length_a   9.83507392
_cell_length_b   9.83418724
_cell_length_c   10.07462625
_cell_angle_alpha   89.99797941
_cell_angle_beta   90.02088395
_cell_angle_gamma   120.00128319
_symmetry_Int_Tables_number   1
_chemical_formula_structural   Tb6YCo2Sn23Rh4
_chemical_formula_sum   'Tb6 Y1 Co2 Sn23 Rh4'
_cell_volume   843.85927079
_cell_formula_units_Z   1
loop_
 _symmetry_equiv_pos_site_id
 _symmetry_equiv_pos_as_xyz
  1  'x, y, z'
loop_
 _atom_site_type_symbol
 _atom_site_label
 _atom_site_symmetry_multiplicity
 _atom_site_fract_x
 _atom_site_fract_y
 _atom_site_fract_z
 _atom_site_occupancy
  Tb  Tb0  1  0.000001  0.000004  0.000008  1
  Tb  Tb1  1  0.521177  0.478586  0.693172  1
  Tb  Tb2  1  0.478810  0.957409  0.306799  1
  Tb  Tb3  1  0.521185  0.042592  0.693204  1
  Tb  Tb4  1  0.043406  0.521711  0.306920  1
  Tb  Tb5  1  0.956602  0.478298  0.693070  1
  Y  Y6  1  0.478791  0.521406  0.306861  1
  Co  Co7  1  0.336529  0.168245  0.198405  1
  Co  Co8  1  0.663442  0.831721  0.801593  1
  Sn  Sn9  1  0.350664  0.004671  0.004720  1
  Sn  Sn10  1  0.649332  0.995344  0.995282  1
  Sn  Sn11  1  0.000025  0.351322  0.000006  1
  Sn  Sn12  1  0.999959  0.648681  0.999999  1
  Sn  Sn13  1  0.649372  0.653981  0.995274  1
  Sn  Sn14  1  0.350663  0.345998  0.004720  1
  Sn  Sn15  1  0.338300  0.669155  0.818759  1
  Sn  Sn16  1  0.661717  0.330845  0.181244  1
  Sn  Sn17  1  0.999987  0.000010  0.500002  1
  Sn  Sn18  1  0.778938  0.221306  0.455983  1
  Sn  Sn19  1  0.221045  0.778703  0.544019  1
  Sn  Sn20  1  0.778904  0.557651  0.455927  1
  Sn  Sn21  1  0.221037  0.442334  0.544023  1
  Sn  Sn22  1  0.438613  0.219355  0.450545  1
  Sn  Sn23  1  0.561411  0.780714  0.549421  1
  Sn  Sn24  1  0.333396  0.666664  0.117618  1
  Sn  Sn25  1  0.666618  0.333324  0.882411  1
  Sn  Sn26  1  0.123259  0.887273  0.276545  1
  Sn  Sn27  1  0.876741  0.112727  0.723455  1
  Sn  Sn28  1  0.123338  0.236048  0.276570  1
  Sn  Sn29  1  0.876706  0.763967  0.723425  1
  Sn  Sn30  1  0.759415  0.879646  0.281522  1
  Sn  Sn31  1  0.240588  0.120310  0.718470  1
  Rh  Rh32  1  0.831525  0.167356  0.197476  1
  Rh  Rh33  1  0.168494  0.832635  0.802540  1
  Rh  Rh34  1  0.831490  0.664119  0.197468  1
  Rh  Rh35  1  0.168520  0.335891  0.802540  1
