# generated using pymatgen
data_Al11ReTc2Ru
_symmetry_space_group_name_H-M   'P 1'
_cell_length_a   5.17656208
_cell_length_b   5.16221758
_cell_length_c   9.01904948
_cell_angle_alpha   105.08617334
_cell_angle_beta   90.45046799
_cell_angle_gamma   100.15831610
_symmetry_Int_Tables_number   1
_chemical_formula_structural   Al11ReTc2Ru
_chemical_formula_sum   'Al11 Re1 Tc2 Ru1'
_cell_volume   228.69086800
_cell_formula_units_Z   1
loop_
 _symmetry_equiv_pos_site_id
 _symmetry_equiv_pos_as_xyz
  1  'x, y, z'
loop_
 _atom_site_type_symbol
 _atom_site_label
 _atom_site_symmetry_multiplicity
 _atom_site_fract_x
 _atom_site_fract_y
 _atom_site_fract_z
 _atom_site_occupancy
  Al  Al0  1  0.797609  0.259283  0.634933  1
  Al  Al1  1  0.201984  0.743977  0.365215  1
  Al  Al2  1  0.149179  0.466372  0.871585  1
  Al  Al3  1  0.853894  0.533816  0.129401  1
  Al  Al4  1  0.997880  0.997247  0.999378  1
  Al  Al5  1  0.501497  0.098760  0.873942  1
  Al  Al6  1  0.499286  0.901145  0.127120  1
  Al  Al7  1  0.567779  0.320193  0.376653  1
  Al  Al8  1  0.433248  0.677290  0.623058  1
  Al  Al9  1  0.942600  0.805816  0.668005  1
  Al  Al10  1  0.053651  0.197286  0.330070  1
  Re  Re11  1  0.338314  0.387583  0.132774  1
  Tc  Tc12  1  0.722424  0.848278  0.401326  1
  Tc  Tc13  1  0.661987  0.608339  0.864804  1
  Ru  Ru14  1  0.278666  0.154614  0.601735  1
