# generated using pymatgen
data_Er4Ga24Pd5Pt4
_symmetry_space_group_name_H-M   'P 1'
_cell_length_a   7.53926198
_cell_length_b   7.56547924
_cell_length_c   13.20200600
_cell_angle_alpha   84.59426036
_cell_angle_beta   79.12526833
_cell_angle_gamma   59.97527412
_symmetry_Int_Tables_number   1
_chemical_formula_structural   Er4Ga24Pd5Pt4
_chemical_formula_sum   'Er4 Ga24 Pd5 Pt4'
_cell_volume   640.26185975
_cell_formula_units_Z   1
loop_
 _symmetry_equiv_pos_site_id
 _symmetry_equiv_pos_as_xyz
  1  'x, y, z'
loop_
 _atom_site_type_symbol
 _atom_site_label
 _atom_site_symmetry_multiplicity
 _atom_site_fract_x
 _atom_site_fract_y
 _atom_site_fract_z
 _atom_site_occupancy
  Er  Er0  1  0.394872  0.167145  0.809301  1
  Er  Er1  1  0.605128  0.832855  0.190699  1
  Er  Er2  1  0.730161  0.499203  0.809621  1
  Er  Er3  1  0.269839  0.500797  0.190379  1
  Ga  Ga4  1  0.683103  0.833474  0.939342  1
  Ga  Ga5  1  0.316897  0.166526  0.060658  1
  Ga  Ga6  1  0.146882  0.834057  0.560451  1
  Ga  Ga7  1  0.853118  0.165943  0.439549  1
  Ga  Ga8  1  0.478480  0.167201  0.557611  1
  Ga  Ga9  1  0.521520  0.832799  0.442389  1
  Ga  Ga10  1  0.218594  0.167078  0.324568  1
  Ga  Ga11  1  0.781406  0.832922  0.675432  1
  Ga  Ga12  1  0.435208  0.505806  0.674759  1
  Ga  Ga13  1  0.564792  0.494194  0.325241  1
  Ga  Ga14  1  0.106121  0.163850  0.677312  1
  Ga  Ga15  1  0.893879  0.836150  0.322688  1
  Ga  Ga16  1  0.357761  0.495739  0.939305  1
  Ga  Ga17  1  0.642239  0.504261  0.060695  1
  Ga  Ga18  1  0.018863  0.171836  0.942730  1
  Ga  Ga19  1  0.981137  0.828164  0.057270  1
  Ga  Ga20  1  0.184899  0.500252  0.443136  1
  Ga  Ga21  1  0.815101  0.499748  0.556864  1
  Ga  Ga22  1  0.735558  0.166402  0.181821  1
  Ga  Ga23  1  0.264442  0.833598  0.818179  1
  Ga  Ga24  1  0.060317  0.627948  0.817030  1
  Ga  Ga25  1  0.939683  0.372052  0.182970  1
  Ga  Ga26  1  0.855251  0.038918  0.818004  1
  Ga  Ga27  1  0.144749  0.961082  0.181996  1
  Pd  Pd28  1  0.119274  0.493408  0.639362  1
  Pd  Pd29  1  0.880726  0.506592  0.360638  1
  Pd  Pd30  1  0.661638  0.168831  0.999926  1
  Pd  Pd31  1  0.338362  0.831169  0.000074  1
  Pd  Pd32  1  0.000000  0.500000  0.000000  1
  Pt  Pt33  1  0.538139  0.166205  0.360003  1
  Pt  Pt34  1  0.461861  0.833795  0.639997  1
  Pt  Pt35  1  0.777812  0.174593  0.638454  1
  Pt  Pt36  1  0.222188  0.825407  0.361546  1
