# generated using pymatgen
data_Y4Al17SiRh6
_symmetry_space_group_name_H-M   'P 1'
_cell_length_a   7.54737603
_cell_length_b   7.52944800
_cell_length_c   9.46678210
_cell_angle_alpha   89.98582383
_cell_angle_beta   89.94181315
_cell_angle_gamma   119.55629247
_symmetry_Int_Tables_number   1
_chemical_formula_structural   Y4Al17SiRh6
_chemical_formula_sum   'Y4 Al17 Si1 Rh6'
_cell_volume   467.96806035
_cell_formula_units_Z   1
loop_
 _symmetry_equiv_pos_site_id
 _symmetry_equiv_pos_as_xyz
  1  'x, y, z'
loop_
 _atom_site_type_symbol
 _atom_site_label
 _atom_site_symmetry_multiplicity
 _atom_site_fract_x
 _atom_site_fract_y
 _atom_site_fract_z
 _atom_site_occupancy
  Y  Y0  1  0.994288  0.664194  0.247122  1
  Y  Y1  1  0.004951  0.329328  0.754559  1
  Y  Y2  1  0.676029  0.001664  0.246908  1
  Y  Y3  1  0.328867  0.005229  0.750507  1
  Al  Al4  1  0.128158  0.127895  0.249514  1
  Al  Al5  1  0.871087  0.872811  0.749545  1
  Al  Al6  1  0.998397  0.669021  0.923707  1
  Al  Al7  1  0.999433  0.665448  0.574081  1
  Al  Al8  1  0.334441  0.999376  0.424806  1
  Al  Al9  1  0.001730  0.334979  0.429801  1
  Al  Al10  1  0.664420  0.999202  0.574162  1
  Al  Al11  1  0.659935  0.994496  0.923220  1
  Al  Al12  1  0.334277  0.999755  0.075710  1
  Al  Al13  1  0.333881  0.333080  0.551819  1
  Al  Al14  1  0.667667  0.668060  0.448488  1
  Al  Al15  1  0.666774  0.667401  0.052501  1
  Al  Al16  1  0.336431  0.333720  0.948990  1
  Al  Al17  1  0.340472  0.549977  0.250198  1
  Al  Al18  1  0.661052  0.450646  0.750406  1
  Al  Al19  1  0.546389  0.339516  0.249801  1
  Al  Al20  1  0.449748  0.658438  0.749569  1
  Si  Si21  1  0.002614  0.335105  0.074999  1
  Rh  Rh22  1  0.679922  0.328739  0.002019  1
  Rh  Rh23  1  0.319917  0.664043  0.000176  1
  Rh  Rh24  1  0.327841  0.671247  0.499434  1
  Rh  Rh25  1  0.672100  0.328438  0.498902  1
  Rh  Rh26  1  0.999162  0.007395  0.999807  1
  Rh  Rh27  1  0.000018  0.000795  0.499248  1
