# generated using pymatgen
data_YbCe3Ru8
_symmetry_space_group_name_H-M   'P 1'
_cell_length_a   5.26961951
_cell_length_b   5.26961977
_cell_length_c   8.99709400
_cell_angle_alpha   89.99707546
_cell_angle_beta   90.00292653
_cell_angle_gamma   119.99449688
_symmetry_Int_Tables_number   1
_chemical_formula_structural   YbCe3Ru8
_chemical_formula_sum   'Yb1 Ce3 Ru8'
_cell_volume   216.37919849
_cell_formula_units_Z   1
loop_
 _symmetry_equiv_pos_site_id
 _symmetry_equiv_pos_as_xyz
  1  'x, y, z'
loop_
 _atom_site_type_symbol
 _atom_site_label
 _atom_site_symmetry_multiplicity
 _atom_site_fract_x
 _atom_site_fract_y
 _atom_site_fract_z
 _atom_site_occupancy
  Yb  Yb0  1  0.666668  0.333332  0.933059  1
  Ce  Ce1  1  0.666655  0.333345  0.575509  1
  Ce  Ce2  1  0.333333  0.666667  0.428251  1
  Ce  Ce3  1  0.333330  0.666670  0.069202  1
  Ru  Ru4  1  0.999999  0.000001  0.498569  1
  Ru  Ru5  1  0.000007  0.999993  0.997987  1
  Ru  Ru6  1  0.170053  0.340119  0.750459  1
  Ru  Ru7  1  0.170072  0.829928  0.750470  1
  Ru  Ru8  1  0.659881  0.829947  0.750459  1
  Ru  Ru9  1  0.829287  0.658579  0.248680  1
  Ru  Ru10  1  0.829294  0.170706  0.248675  1
  Ru  Ru11  1  0.341421  0.170713  0.248680  1
