# generated using pymatgen
data_Yb7Ho4In9Pd4
_symmetry_space_group_name_H-M   'P 1'
_cell_length_a   13.34447069
_cell_length_b   13.34447003
_cell_length_c   3.64775700
_cell_angle_alpha   90.00000000
_cell_angle_beta   90.00000000
_cell_angle_gamma   111.89638447
_symmetry_Int_Tables_number   1
_chemical_formula_structural   Yb7Ho4In9Pd4
_chemical_formula_sum   'Yb7 Ho4 In9 Pd4'
_cell_volume   602.71352366
_cell_formula_units_Z   1
loop_
 _symmetry_equiv_pos_site_id
 _symmetry_equiv_pos_as_xyz
  1  'x, y, z'
loop_
 _atom_site_type_symbol
 _atom_site_label
 _atom_site_symmetry_multiplicity
 _atom_site_fract_x
 _atom_site_fract_y
 _atom_site_fract_z
 _atom_site_occupancy
  Yb  Yb0  1  0.413326  0.068717  0.000000  1
  Yb  Yb1  1  0.586674  0.931283  0.000000  1
  Yb  Yb2  1  0.068717  0.413326  0.000000  1
  Yb  Yb3  1  0.931283  0.586674  0.000000  1
  Yb  Yb4  1  0.159190  0.840810  0.000000  1
  Yb  Yb5  1  0.840810  0.159190  0.000000  1
  Yb  Yb6  1  0.000000  0.000000  0.000000  1
  Ho  Ho7  1  0.378641  0.621359  0.000000  1
  Ho  Ho8  1  0.621359  0.378641  0.000000  1
  Ho  Ho9  1  0.312423  0.312423  0.000000  1
  Ho  Ho10  1  0.687577  0.687577  0.000000  1
  In  In11  1  0.368388  0.833762  0.500000  1
  In  In12  1  0.631612  0.166238  0.500000  1
  In  In13  1  0.833762  0.368388  0.500000  1
  In  In14  1  0.166238  0.631612  0.500000  1
  In  In15  1  0.218018  0.080166  0.500000  1
  In  In16  1  0.781982  0.919834  0.500000  1
  In  In17  1  0.080166  0.218018  0.500000  1
  In  In18  1  0.919834  0.781982  0.500000  1
  In  In19  1  0.500000  0.500000  0.500000  1
  Pd  Pd20  1  0.447963  0.246758  0.500000  1
  Pd  Pd21  1  0.552037  0.753242  0.500000  1
  Pd  Pd22  1  0.246758  0.447963  0.500000  1
  Pd  Pd23  1  0.753242  0.552037  0.500000  1
