# generated using pymatgen
data_LaThHgAu2
_symmetry_space_group_name_H-M   'P 1'
_cell_length_a   3.89003500
_cell_length_b   8.23710973
_cell_length_c   8.23710899
_cell_angle_alpha   91.18525921
_cell_angle_beta   90.00000000
_cell_angle_gamma   90.00000000
_symmetry_Int_Tables_number   1
_chemical_formula_structural   LaThHgAu2
_chemical_formula_sum   'La2 Th2 Hg2 Au4'
_cell_volume   263.88228753
_cell_formula_units_Z   2
loop_
 _symmetry_equiv_pos_site_id
 _symmetry_equiv_pos_as_xyz
  1  'x, y, z'
loop_
 _atom_site_type_symbol
 _atom_site_label
 _atom_site_symmetry_multiplicity
 _atom_site_fract_x
 _atom_site_fract_y
 _atom_site_fract_z
 _atom_site_occupancy
  La  La0  1  0.500000  0.325396  0.174604  1
  La  La1  1  0.500000  0.674604  0.825396  1
  Th  Th2  1  0.500000  0.173585  0.673585  1
  Th  Th3  1  0.500000  0.826415  0.326415  1
  Hg  Hg4  1  0.000000  0.000000  0.000000  1
  Hg  Hg5  1  0.000000  0.500000  0.500000  1
  Au  Au6  1  0.000000  0.628647  0.128647  1
  Au  Au7  1  0.000000  0.371353  0.871353  1
  Au  Au8  1  0.000000  0.876148  0.623852  1
  Au  Au9  1  0.000000  0.123852  0.376148  1
