# generated using pymatgen
data_Tm4Zn3AsRh9
_symmetry_space_group_name_H-M   'P 1'
_cell_length_a   7.10362594
_cell_length_b   7.10362635
_cell_length_c   7.21736200
_cell_angle_alpha   109.79587998
_cell_angle_beta   109.79588116
_cell_angle_gamma   109.14461683
_symmetry_Int_Tables_number   1
_chemical_formula_structural   Tm4Zn3AsRh9
_chemical_formula_sum   'Tm4 Zn3 As1 Rh9'
_cell_volume   279.22930019
_cell_formula_units_Z   1
loop_
 _symmetry_equiv_pos_site_id
 _symmetry_equiv_pos_as_xyz
  1  'x, y, z'
loop_
 _atom_site_type_symbol
 _atom_site_label
 _atom_site_symmetry_multiplicity
 _atom_site_fract_x
 _atom_site_fract_y
 _atom_site_fract_z
 _atom_site_occupancy
  Tm  Tm0  1  0.000000  0.000000  0.500000  1
  Tm  Tm1  1  0.039104  0.519551  0.019551  1
  Tm  Tm2  1  0.480449  0.960896  0.980449  1
  Tm  Tm3  1  0.480449  0.519551  0.500000  1
  Zn  Zn4  1  0.748630  0.251370  0.500000  1
  Zn  Zn5  1  0.748630  0.497261  0.248630  1
  Zn  Zn6  1  0.502739  0.251370  0.751370  1
  As  As7  1  0.000000  0.000000  0.000000  1
  Rh  Rh8  1  0.241083  0.482166  0.741083  1
  Rh  Rh9  1  0.241083  0.758917  0.500000  1
  Rh  Rh10  1  0.517834  0.758917  0.258917  1
  Rh  Rh11  1  0.727839  0.698926  0.999052  1
  Rh  Rh12  1  0.301074  0.028913  0.300126  1
  Rh  Rh13  1  0.971087  0.272161  0.271212  1
  Rh  Rh14  1  0.301074  0.272161  0.000948  1
  Rh  Rh15  1  0.727839  0.028913  0.728788  1
  Rh  Rh16  1  0.971087  0.698926  0.699874  1
