# generated using pymatgen
data_SrLa3Pt6O19
_symmetry_space_group_name_H-M   'P 1'
_cell_length_a   7.99324752
_cell_length_b   7.99324834
_cell_length_c   7.97560200
_cell_angle_alpha   109.42650605
_cell_angle_beta   109.42650812
_cell_angle_gamma   109.51589998
_symmetry_Int_Tables_number   1
_chemical_formula_structural   SrLa3Pt6O19
_chemical_formula_sum   'Sr1 La3 Pt6 O19'
_cell_volume   392.48900292
_cell_formula_units_Z   1
loop_
 _symmetry_equiv_pos_site_id
 _symmetry_equiv_pos_as_xyz
  1  'x, y, z'
loop_
 _atom_site_type_symbol
 _atom_site_label
 _atom_site_symmetry_multiplicity
 _atom_site_fract_x
 _atom_site_fract_y
 _atom_site_fract_z
 _atom_site_occupancy
  Sr  Sr0  1  0.000000  0.000000  0.322952  1
  La  La1  1  0.997965  0.309840  0.997173  1
  La  La2  1  0.690160  0.688125  0.687333  1
  La  La3  1  0.311875  0.002035  0.999208  1
  Pt  Pt4  1  0.342415  0.500827  0.841296  1
  Pt  Pt5  1  0.840419  0.340299  0.500843  1
  Pt  Pt6  1  0.499879  0.159581  0.660423  1
  Pt  Pt7  1  0.158412  0.657585  0.498881  1
  Pt  Pt8  1  0.499173  0.841588  0.340468  1
  Pt  Pt9  1  0.659701  0.500121  0.160545  1
  O  O10  1  0.347677  0.001282  0.345686  1
  O  O11  1  0.344215  0.344930  0.001223  1
  O  O12  1  0.000714  0.655785  0.657009  1
  O  O13  1  0.653605  0.652323  0.998008  1
  O  O14  1  0.998718  0.346395  0.344403  1
  O  O15  1  0.655070  0.999286  0.656293  1
  O  O16  1  0.000000  0.000000  0.974392  1
  O  O17  1  0.351964  0.310734  0.615512  1
  O  O18  1  0.041263  0.309172  0.697751  1
  O  O19  1  0.737556  0.389388  0.699317  1
  O  O20  1  0.390700  0.695024  0.733976  1
  O  O21  1  0.267910  0.958737  0.656488  1
  O  O22  1  0.610612  0.348167  0.309927  1
  O  O23  1  0.304323  0.609300  0.343276  1
  O  O24  1  0.689266  0.041229  0.304777  1
  O  O25  1  0.958771  0.648036  0.263548  1
  O  O26  1  0.690828  0.732090  0.388577  1
  O  O27  1  0.651833  0.262444  0.961761  1
  O  O28  1  0.304976  0.695677  0.038952  1
