# generated using pymatgen
data_Th8Hg4RuAu7
_symmetry_space_group_name_H-M   'P 1'
_cell_length_a   8.06923496
_cell_length_b   8.06923453
_cell_length_c   7.88613000
_cell_angle_alpha   90.16127438
_cell_angle_beta   90.16126727
_cell_angle_gamma   90.17668948
_symmetry_Int_Tables_number   1
_chemical_formula_structural   Th8Hg4RuAu7
_chemical_formula_sum   'Th8 Hg4 Ru1 Au7'
_cell_volume   513.47950703
_cell_formula_units_Z   1
loop_
 _symmetry_equiv_pos_site_id
 _symmetry_equiv_pos_as_xyz
  1  'x, y, z'
loop_
 _atom_site_type_symbol
 _atom_site_label
 _atom_site_symmetry_multiplicity
 _atom_site_fract_x
 _atom_site_fract_y
 _atom_site_fract_z
 _atom_site_occupancy
  Th  Th0  1  0.180248  0.180248  0.013056  1
  Th  Th1  1  0.834964  0.834964  0.998121  1
  Th  Th2  1  0.656562  0.327560  0.491358  1
  Th  Th3  1  0.327560  0.656562  0.491358  1
  Th  Th4  1  0.668827  0.317245  0.006639  1
  Th  Th5  1  0.317245  0.668827  0.006639  1
  Th  Th6  1  0.820919  0.820919  0.500813  1
  Th  Th7  1  0.188570  0.188570  0.489920  1
  Hg  Hg8  1  0.498167  0.003842  0.250395  1
  Hg  Hg9  1  0.498709  0.994617  0.749935  1
  Hg  Hg10  1  0.003842  0.498167  0.250395  1
  Hg  Hg11  1  0.994617  0.498709  0.749935  1
  Ru  Ru12  1  0.370895  0.370895  0.244819  1
  Au  Au13  1  0.627773  0.627773  0.760778  1
  Au  Au14  1  0.629429  0.629429  0.236006  1
  Au  Au15  1  0.875112  0.131433  0.738506  1
  Au  Au16  1  0.874354  0.126932  0.261092  1
  Au  Au17  1  0.373845  0.373845  0.760639  1
  Au  Au18  1  0.126932  0.874354  0.261092  1
  Au  Au19  1  0.131433  0.875112  0.738506  1
