# generated using pymatgen
data_TbLuPa(Ga2Co3)3
_symmetry_space_group_name_H-M   'P 1'
_cell_length_a   4.15744100
_cell_length_b   8.57658069
_cell_length_c   8.54990400
_cell_angle_alpha   60.09839285
_cell_angle_beta   90.00000000
_cell_angle_gamma   90.00000000
_symmetry_Int_Tables_number   1
_chemical_formula_structural   TbLuPa(Ga2Co3)3
_chemical_formula_sum   'Tb1 Lu1 Pa1 Ga6 Co9'
_cell_volume   264.27852855
_cell_formula_units_Z   1
loop_
 _symmetry_equiv_pos_site_id
 _symmetry_equiv_pos_as_xyz
  1  'x, y, z'
loop_
 _atom_site_type_symbol
 _atom_site_label
 _atom_site_symmetry_multiplicity
 _atom_site_fract_x
 _atom_site_fract_y
 _atom_site_fract_z
 _atom_site_occupancy
  Tb  Tb0  1  0.500000  0.666818  0.666563  1
  Lu  Lu1  1  0.500000  0.333270  0.333344  1
  Pa  Pa2  1  0.000000  0.999946  0.000522  1
  Ga  Ga3  1  0.000000  0.494255  0.504746  1
  Ga  Ga4  1  0.000000  0.504696  0.000790  1
  Ga  Ga5  1  0.000000  0.001004  0.494360  1
  Ga  Ga6  1  0.500000  0.720881  0.278577  1
  Ga  Ga7  1  0.500000  0.278523  0.000669  1
  Ga  Ga8  1  0.500000  0.000640  0.720748  1
  Co  Co9  1  0.000000  0.175071  0.174781  1
  Co  Co10  1  0.000000  0.174788  0.650007  1
  Co  Co11  1  0.000000  0.649853  0.175299  1
  Co  Co12  1  0.000000  0.826343  0.826829  1
  Co  Co13  1  0.000000  0.347027  0.826284  1
  Co  Co14  1  0.000000  0.826746  0.347043  1
  Co  Co15  1  0.500000  0.301314  0.697135  1
  Co  Co16  1  0.500000  0.697295  0.001131  1
  Co  Co17  1  0.500000  0.001430  0.301271  1
