# generated using pymatgen
data_Dy3Y3(B7Os)2
_symmetry_space_group_name_H-M   'P 1'
_cell_length_a   8.07152601
_cell_length_b   8.07152707
_cell_length_c   9.33775501
_cell_angle_alpha   89.99581977
_cell_angle_beta   90.00418028
_cell_angle_gamma   154.79531476
_symmetry_Int_Tables_number   1
_chemical_formula_structural   Dy3Y3(B7Os)2
_chemical_formula_sum   'Dy3 Y3 B14 Os2'
_cell_volume   259.06803396
_cell_formula_units_Z   1
loop_
 _symmetry_equiv_pos_site_id
 _symmetry_equiv_pos_as_xyz
  1  'x, y, z'
loop_
 _atom_site_type_symbol
 _atom_site_label
 _atom_site_symmetry_multiplicity
 _atom_site_fract_x
 _atom_site_fract_y
 _atom_site_fract_z
 _atom_site_occupancy
  Dy  Dy0  1  0.105936  0.894064  0.439722  1
  Dy  Dy1  1  0.105918  0.894082  0.060289  1
  Dy  Dy2  1  0.894076  0.105924  0.939801  1
  Y  Y3  1  0.755706  0.244294  0.250011  1
  Y  Y4  1  0.244268  0.755732  0.750070  1
  Y  Y5  1  0.893933  0.106067  0.560543  1
  B  B6  1  0.542506  0.457494  0.249975  1
  B  B7  1  0.457572  0.542428  0.750117  1
  B  B8  1  0.521027  0.478973  0.903730  1
  B  B9  1  0.478969  0.521031  0.096277  1
  B  B10  1  0.479056  0.520944  0.403590  1
  B  B11  1  0.521110  0.478890  0.596272  1
  B  B12  1  0.631945  0.368055  0.849502  1
  B  B13  1  0.368052  0.631948  0.150482  1
  B  B14  1  0.727256  0.272744  0.966078  1
  B  B15  1  0.272740  0.727260  0.033932  1
  B  B16  1  0.272668  0.727332  0.465980  1
  B  B17  1  0.727183  0.272817  0.533907  1
  B  B18  1  0.631942  0.368058  0.650509  1
  B  B19  1  0.368047  0.631953  0.349327  1
  Os  Os20  1  0.945884  0.054116  0.249843  1
  Os  Os21  1  0.054206  0.945794  0.750042  1
