# generated using pymatgen
data_K2Tb5YF20
_symmetry_space_group_name_H-M   'P 1'
_cell_length_a   8.29920854
_cell_length_b   8.29898547
_cell_length_c   8.29898400
_cell_angle_alpha   60.00178501
_cell_angle_beta   59.99910356
_cell_angle_gamma   59.99910231
_symmetry_Int_Tables_number   1
_chemical_formula_structural   K2Tb5YF20
_chemical_formula_sum   'K2 Tb5 Y1 F20'
_cell_volume   404.17698551
_cell_formula_units_Z   1
loop_
 _symmetry_equiv_pos_site_id
 _symmetry_equiv_pos_as_xyz
  1  'x, y, z'
loop_
 _atom_site_type_symbol
 _atom_site_label
 _atom_site_symmetry_multiplicity
 _atom_site_fract_x
 _atom_site_fract_y
 _atom_site_fract_z
 _atom_site_occupancy
  K  K0  1  0.750003  0.749997  0.749997  1
  K  K1  1  0.250003  0.249997  0.249997  1
  Tb  Tb2  1  0.759732  0.759768  0.240268  1
  Tb  Tb3  1  0.240232  0.759768  0.240268  1
  Tb  Tb4  1  0.759774  0.240226  0.240226  1
  Tb  Tb5  1  0.240232  0.240268  0.759768  1
  Tb  Tb6  1  0.759732  0.240268  0.759768  1
  Y  Y7  1  0.240471  0.759529  0.759529  1
  F  F8  1  0.888341  0.888327  0.334991  1
  F  F9  1  0.888341  0.334991  0.888327  1
  F  F10  1  0.334931  0.888252  0.888252  1
  F  F11  1  0.888564  0.888252  0.888252  1
  F  F12  1  0.111748  0.111436  0.665069  1
  F  F13  1  0.111748  0.665069  0.111436  1
  F  F14  1  0.665009  0.111659  0.111659  1
  F  F15  1  0.111673  0.111659  0.111659  1
  F  F16  1  0.499694  0.500306  0.830043  1
  F  F17  1  0.169957  0.500306  0.830043  1
  F  F18  1  0.500006  0.169900  0.830088  1
  F  F19  1  0.169957  0.830043  0.500306  1
  F  F20  1  0.499694  0.830043  0.500306  1
  F  F21  1  0.500006  0.830088  0.169900  1
  F  F22  1  0.830080  0.169920  0.500009  1
  F  F23  1  0.830080  0.500009  0.169920  1
  F  F24  1  0.830100  0.499994  0.499994  1
  F  F25  1  0.499991  0.500009  0.169920  1
  F  F26  1  0.499991  0.169920  0.500009  1
  F  F27  1  0.169912  0.499994  0.499994  1
