# generated using pymatgen
data_K4Ba2HfBi3Sb
_symmetry_space_group_name_H-M   'P 1'
_cell_length_a   11.31806056
_cell_length_b   11.31805992
_cell_length_c   8.73162690
_cell_angle_alpha   89.00606199
_cell_angle_beta   89.00606165
_cell_angle_gamma   60.46132025
_symmetry_Int_Tables_number   1
_chemical_formula_structural   K4Ba2HfBi3Sb
_chemical_formula_sum   'K8 Ba4 Hf2 Bi6 Sb2'
_cell_volume   972.93178963
_cell_formula_units_Z   2
loop_
 _symmetry_equiv_pos_site_id
 _symmetry_equiv_pos_as_xyz
  1  'x, y, z'
loop_
 _atom_site_type_symbol
 _atom_site_label
 _atom_site_symmetry_multiplicity
 _atom_site_fract_x
 _atom_site_fract_y
 _atom_site_fract_z
 _atom_site_occupancy
  K  K0  1  0.941539  0.528188  0.369525  1
  K  K1  1  0.528188  0.941539  0.369525  1
  K  K2  1  0.721886  0.136682  0.193960  1
  K  K3  1  0.136682  0.721886  0.193960  1
  K  K4  1  0.140370  0.140370  0.207864  1
  K  K5  1  0.277921  0.862743  0.696609  1
  K  K6  1  0.862743  0.277921  0.696609  1
  K  K7  1  0.855964  0.855964  0.664822  1
  Ba  Ba8  1  0.530792  0.530792  0.369876  1
  Ba  Ba9  1  0.047786  0.477089  0.875201  1
  Ba  Ba10  1  0.477089  0.047786  0.875201  1
  Ba  Ba11  1  0.477147  0.477147  0.870539  1
  Hf  Hf12  1  0.333388  0.333388  0.482708  1
  Hf  Hf13  1  0.665670  0.665670  0.988270  1
  Bi  Bi14  1  0.807582  0.807582  0.071332  1
  Bi  Bi15  1  0.608133  0.201826  0.593357  1
  Bi  Bi16  1  0.201826  0.608133  0.593357  1
  Bi  Bi17  1  0.197093  0.197093  0.606563  1
  Bi  Bi18  1  0.335698  0.335698  0.148446  1
  Bi  Bi19  1  0.660039  0.660039  0.658163  1
  Sb  Sb20  1  0.392535  0.800542  0.088468  1
  Sb  Sb21  1  0.800542  0.392535  0.088468  1
