# generated using pymatgen
data_LaYRe4(SiC)2
_symmetry_space_group_name_H-M   'P 1'
_cell_length_a   5.84324581
_cell_length_b   5.84324696
_cell_length_c   7.37917800
_cell_angle_alpha   90.00000000
_cell_angle_beta   90.00000000
_cell_angle_gamma   139.95169170
_symmetry_Int_Tables_number   1
_chemical_formula_structural   LaYRe4(SiC)2
_chemical_formula_sum   'La1 Y1 Re4 Si2 C2'
_cell_volume   162.11376517
_cell_formula_units_Z   1
loop_
 _symmetry_equiv_pos_site_id
 _symmetry_equiv_pos_as_xyz
  1  'x, y, z'
loop_
 _atom_site_type_symbol
 _atom_site_label
 _atom_site_symmetry_multiplicity
 _atom_site_fract_x
 _atom_site_fract_y
 _atom_site_fract_z
 _atom_site_occupancy
  La  La0  1  0.542690  0.457310  0.250000  1
  Y  Y1  1  0.457519  0.542481  0.750000  1
  Re  Re2  1  0.826477  0.173523  0.058589  1
  Re  Re3  1  0.174387  0.825613  0.935939  1
  Re  Re4  1  0.174387  0.825613  0.564061  1
  Re  Re5  1  0.826477  0.173523  0.441411  1
  Si  Si6  1  0.264345  0.735655  0.250000  1
  Si  Si7  1  0.735294  0.264706  0.750000  1
  C  C8  1  0.999212  0.000788  0.991604  1
  C  C9  1  0.999212  0.000788  0.508396  1
