# generated using pymatgen
data_NaSc(Cu2Te3)2
_symmetry_space_group_name_H-M   'P 1'
_cell_length_a   11.70935851
_cell_length_b   11.70935928
_cell_length_c   8.39783200
_cell_angle_alpha   79.08054290
_cell_angle_beta   79.08054217
_cell_angle_gamma   15.26363908
_symmetry_Int_Tables_number   1
_chemical_formula_structural   NaSc(Cu2Te3)2
_chemical_formula_sum   'Na1 Sc1 Cu4 Te6'
_cell_volume   297.53590261
_cell_formula_units_Z   1
loop_
 _symmetry_equiv_pos_site_id
 _symmetry_equiv_pos_as_xyz
  1  'x, y, z'
loop_
 _atom_site_type_symbol
 _atom_site_label
 _atom_site_symmetry_multiplicity
 _atom_site_fract_x
 _atom_site_fract_y
 _atom_site_fract_z
 _atom_site_occupancy
  Na  Na0  1  0.656282  0.656282  0.423032  1
  Sc  Sc1  1  0.349059  0.349059  0.591701  1
  Cu  Cu2  1  0.704213  0.704213  0.062668  1
  Cu  Cu3  1  0.292215  0.292215  0.941936  1
  Cu  Cu4  1  0.043348  0.043348  0.372446  1
  Cu  Cu5  1  0.958353  0.958353  0.623387  1
  Te  Te6  1  0.739948  0.739948  0.731425  1
  Te  Te7  1  0.267478  0.267478  0.255888  1
  Te  Te8  1  0.590572  0.590572  0.116981  1
  Te  Te9  1  0.405839  0.405839  0.872212  1
  Te  Te10  1  0.926952  0.926952  0.339964  1
  Te  Te11  1  0.065742  0.065742  0.668360  1
