# generated using pymatgen
data_SrNd(CuPt)5
_symmetry_space_group_name_H-M   'P 1'
_cell_length_a   4.09603500
_cell_length_b   5.54173500
_cell_length_c   9.12598800
_cell_angle_alpha   90.00000000
_cell_angle_beta   90.00000000
_cell_angle_gamma   90.00000000
_symmetry_Int_Tables_number   1
_chemical_formula_structural   SrNd(CuPt)5
_chemical_formula_sum   'Sr1 Nd1 Cu5 Pt5'
_cell_volume   207.15208400
_cell_formula_units_Z   1
loop_
 _symmetry_equiv_pos_site_id
 _symmetry_equiv_pos_as_xyz
  1  'x, y, z'
loop_
 _atom_site_type_symbol
 _atom_site_label
 _atom_site_symmetry_multiplicity
 _atom_site_fract_x
 _atom_site_fract_y
 _atom_site_fract_z
 _atom_site_occupancy
  Sr  Sr0  1  0.000000  0.000000  0.000000  1
  Nd  Nd1  1  0.000000  0.500000  0.500000  1
  Cu  Cu2  1  0.000000  0.000000  0.342969  1
  Cu  Cu3  1  0.000000  0.500000  0.829123  1
  Cu  Cu4  1  0.000000  0.500000  0.170877  1
  Cu  Cu5  1  0.000000  0.000000  0.657031  1
  Cu  Cu6  1  0.500000  0.000000  0.500000  1
  Pt  Pt7  1  0.500000  0.500000  0.000000  1
  Pt  Pt8  1  0.500000  0.252939  0.263993  1
  Pt  Pt9  1  0.500000  0.747061  0.736007  1
  Pt  Pt10  1  0.500000  0.747061  0.263993  1
  Pt  Pt11  1  0.500000  0.252939  0.736007  1
