# generated using pymatgen
data_NdThU(AlIr)3
_symmetry_space_group_name_H-M   'P 1'
_cell_length_a   7.13253622
_cell_length_b   7.25005713
_cell_length_c   4.07425300
_cell_angle_alpha   90.00000000
_cell_angle_beta   90.00000000
_cell_angle_gamma   119.81364515
_symmetry_Int_Tables_number   1
_chemical_formula_structural   NdThU(AlIr)3
_chemical_formula_sum   'Nd1 Th1 U1 Al3 Ir3'
_cell_volume   182.80013593
_cell_formula_units_Z   1
loop_
 _symmetry_equiv_pos_site_id
 _symmetry_equiv_pos_as_xyz
  1  'x, y, z'
loop_
 _atom_site_type_symbol
 _atom_site_label
 _atom_site_symmetry_multiplicity
 _atom_site_fract_x
 _atom_site_fract_y
 _atom_site_fract_z
 _atom_site_occupancy
  Nd  Nd0  1  0.418271  0.999270  0.500000  1
  Th  Th1  1  0.581055  0.578867  0.500000  1
  U  U2  1  0.001951  0.420014  0.500000  1
  Al  Al3  1  0.762489  0.007627  0.000000  1
  Al  Al4  1  0.006273  0.775965  0.000000  1
  Al  Al5  1  0.228902  0.226422  0.000000  1
  Ir  Ir6  1  0.302912  0.622999  0.000000  1
  Ir  Ir7  1  0.712413  0.359611  0.000000  1
  Ir  Ir8  1  0.985733  0.009224  0.500000  1
