# generated using pymatgen
data_Sc10Co8Si19Sb
_symmetry_space_group_name_H-M   'P 1'
_cell_length_a   12.06673600
_cell_length_b   12.10791900
_cell_length_c   3.92430500
_cell_angle_alpha   90.00000000
_cell_angle_beta   90.00000000
_cell_angle_gamma   90.00146538
_symmetry_Int_Tables_number   1
_chemical_formula_structural   Sc10Co8Si19Sb
_chemical_formula_sum   'Sc10 Co8 Si19 Sb1'
_cell_volume   573.35297696
_cell_formula_units_Z   1
loop_
 _symmetry_equiv_pos_site_id
 _symmetry_equiv_pos_as_xyz
  1  'x, y, z'
loop_
 _atom_site_type_symbol
 _atom_site_label
 _atom_site_symmetry_multiplicity
 _atom_site_fract_x
 _atom_site_fract_y
 _atom_site_fract_z
 _atom_site_occupancy
  Sc  Sc0  1  0.996819  0.000377  0.000000  1
  Sc  Sc1  1  0.502267  0.503326  0.000000  1
  Sc  Sc2  1  0.678202  0.174659  0.500000  1
  Sc  Sc3  1  0.175282  0.332643  0.500000  1
  Sc  Sc4  1  0.822141  0.676155  0.500000  1
  Sc  Sc5  1  0.330388  0.817127  0.500000  1
  Sc  Sc6  1  0.887273  0.392358  0.500000  1
  Sc  Sc7  1  0.397383  0.108220  0.500000  1
  Sc  Sc8  1  0.611877  0.888955  0.500000  1
  Sc  Sc9  1  0.109238  0.612271  0.500000  1
  Co  Co10  1  0.526315  0.254789  0.000000  1
  Co  Co11  1  0.253527  0.477839  0.000000  1
  Co  Co12  1  0.745401  0.524258  0.000000  1
  Co  Co13  1  0.477306  0.744810  0.000000  1
  Co  Co14  1  0.974147  0.754312  0.000000  1
  Co  Co15  1  0.017980  0.251609  0.000000  1
  Co  Co16  1  0.753498  0.023668  0.000000  1
  Co  Co17  1  0.246758  0.964299  0.000000  1
  Si  Si18  1  0.568690  0.068651  0.000000  1
  Si  Si19  1  0.066261  0.435186  0.000000  1
  Si  Si20  1  0.929837  0.570318  0.000000  1
  Si  Si21  1  0.433649  0.929557  0.000000  1
  Si  Si22  1  0.155266  0.797117  0.000000  1
  Si  Si23  1  0.840261  0.198618  0.000000  1
  Si  Si24  1  0.801428  0.843621  0.000000  1
  Si  Si25  1  0.302688  0.656347  0.000000  1
  Si  Si26  1  0.697793  0.344381  0.000000  1
  Si  Si27  1  0.657314  0.697898  0.000000  1
  Si  Si28  1  0.353840  0.317948  0.000000  1
  Si  Si29  1  0.985538  0.170551  0.500000  1
  Si  Si30  1  0.159439  0.964309  0.500000  1
  Si  Si31  1  0.835279  0.999025  0.500000  1
  Si  Si32  1  0.990601  0.837076  0.500000  1
  Si  Si33  1  0.504539  0.663691  0.500000  1
  Si  Si34  1  0.509209  0.338203  0.500000  1
  Si  Si35  1  0.663291  0.503098  0.500000  1
  Si  Si36  1  0.336337  0.505319  0.500000  1
  Sb  Sb37  1  0.202937  0.157411  0.000000  1
