# generated using pymatgen
data_LiY13Ho3Cd3Pt4
_symmetry_space_group_name_H-M   'P 1'
_cell_length_a   9.71155766
_cell_length_b   9.71411848
_cell_length_c   9.71411807
_cell_angle_alpha   59.89479580
_cell_angle_beta   59.87704863
_cell_angle_gamma   59.87704566
_symmetry_Int_Tables_number   1
_chemical_formula_structural   LiY13Ho3Cd3Pt4
_chemical_formula_sum   'Li1 Y13 Ho3 Cd3 Pt4'
_cell_volume   646.28764734
_cell_formula_units_Z   1
loop_
 _symmetry_equiv_pos_site_id
 _symmetry_equiv_pos_as_xyz
  1  'x, y, z'
loop_
 _atom_site_type_symbol
 _atom_site_label
 _atom_site_symmetry_multiplicity
 _atom_site_fract_x
 _atom_site_fract_y
 _atom_site_fract_z
 _atom_site_occupancy
  Li  Li0  1  0.572271  0.572347  0.572347  1
  Y  Y1  1  0.943211  0.352661  0.352661  1
  Y  Y2  1  0.809301  0.192120  0.192120  1
  Y  Y3  1  0.188401  0.812037  0.812037  1
  Y  Y4  1  0.192232  0.809288  0.192229  1
  Y  Y5  1  0.812074  0.188259  0.812263  1
  Y  Y6  1  0.192232  0.192229  0.809288  1
  Y  Y7  1  0.812074  0.812263  0.188259  1
  Y  Y8  1  0.936805  0.564904  0.564904  1
  Y  Y9  1  0.563154  0.936441  0.936441  1
  Y  Y10  1  0.564691  0.936817  0.564775  1
  Y  Y11  1  0.936393  0.563370  0.936135  1
  Y  Y12  1  0.564691  0.564775  0.936817  1
  Y  Y13  1  0.936393  0.936135  0.563370  1
  Ho  Ho14  1  0.350803  0.350782  0.350782  1
  Ho  Ho15  1  0.352101  0.352079  0.944839  1
  Ho  Ho16  1  0.352101  0.944839  0.352079  1
  Cd  Cd17  1  0.581953  0.582148  0.254346  1
  Cd  Cd18  1  0.581953  0.254346  0.582148  1
  Cd  Cd19  1  0.254364  0.582077  0.582077  1
  Pt  Pt20  1  0.145340  0.143908  0.143908  1
  Pt  Pt21  1  0.144217  0.142824  0.569821  1
  Pt  Pt22  1  0.144217  0.569821  0.142824  1
  Pt  Pt23  1  0.569027  0.143531  0.143531  1
