# generated using pymatgen
data_Y2BeRuI2
_symmetry_space_group_name_H-M   'P 1'
_cell_length_a   3.99710100
_cell_length_b   3.99709938
_cell_length_c   12.16589500
_cell_angle_alpha   90.00000000
_cell_angle_beta   90.00000000
_cell_angle_gamma   119.99998860
_symmetry_Int_Tables_number   1
_chemical_formula_structural   Y2BeRuI2
_chemical_formula_sum   'Y2 Be1 Ru1 I2'
_cell_volume   168.33127532
_cell_formula_units_Z   1
loop_
 _symmetry_equiv_pos_site_id
 _symmetry_equiv_pos_as_xyz
  1  'x, y, z'
loop_
 _atom_site_type_symbol
 _atom_site_label
 _atom_site_symmetry_multiplicity
 _atom_site_fract_x
 _atom_site_fract_y
 _atom_site_fract_z
 _atom_site_occupancy
  Y  Y0  1  0.000000  0.000000  0.844524  1
  Y  Y1  1  0.000000  0.000000  0.156797  1
  Be  Be2  1  0.333333  0.666667  0.999467  1
  Ru  Ru3  1  0.666667  0.333333  0.000853  1
  I  I4  1  0.666667  0.333333  0.665172  1
  I  I5  1  0.333333  0.666667  0.333189  1
