# generated using pymatgen
data_Sc6CdPt7
_symmetry_space_group_name_H-M   'P 1'
_cell_length_a   7.39252881
_cell_length_b   7.39252759
_cell_length_c   7.39252817
_cell_angle_alpha   113.60077543
_cell_angle_beta   113.60077243
_cell_angle_gamma   113.60075391
_symmetry_Int_Tables_number   1
_chemical_formula_structural   Sc6CdPt7
_chemical_formula_sum   'Sc6 Cd1 Pt7'
_cell_volume   252.55041429
_cell_formula_units_Z   1
loop_
 _symmetry_equiv_pos_site_id
 _symmetry_equiv_pos_as_xyz
  1  'x, y, z'
loop_
 _atom_site_type_symbol
 _atom_site_label
 _atom_site_symmetry_multiplicity
 _atom_site_fract_x
 _atom_site_fract_y
 _atom_site_fract_z
 _atom_site_occupancy
  Sc  Sc0  1  0.954220  0.234289  0.371616  1
  Sc  Sc1  1  0.234289  0.371616  0.954220  1
  Sc  Sc2  1  0.371616  0.954220  0.234289  1
  Sc  Sc3  1  0.045780  0.765711  0.628384  1
  Sc  Sc4  1  0.765711  0.628384  0.045780  1
  Sc  Sc5  1  0.628384  0.045780  0.765711  1
  Cd  Cd6  1  0.500000  0.500000  0.500000  1
  Pt  Pt7  1  0.000000  0.000000  0.000000  1
  Pt  Pt8  1  0.105770  0.557541  0.257993  1
  Pt  Pt9  1  0.557541  0.257993  0.105770  1
  Pt  Pt10  1  0.257993  0.105770  0.557541  1
  Pt  Pt11  1  0.894230  0.442459  0.742007  1
  Pt  Pt12  1  0.442459  0.742007  0.894230  1
  Pt  Pt13  1  0.742007  0.894230  0.442459  1
