# generated using pymatgen
data_Rb8In2O7
_symmetry_space_group_name_H-M   'P 1'
_cell_length_a   18.60454800
_cell_length_b   7.15649394
_cell_length_c   7.17097749
_cell_angle_alpha   61.18953323
_cell_angle_beta   90.00000000
_cell_angle_gamma   90.00000000
_symmetry_Int_Tables_number   1
_chemical_formula_structural   Rb8In2O7
_chemical_formula_sum   'Rb16 In4 O14'
_cell_volume   836.58541235
_cell_formula_units_Z   2
loop_
 _symmetry_equiv_pos_site_id
 _symmetry_equiv_pos_as_xyz
  1  'x, y, z'
loop_
 _atom_site_type_symbol
 _atom_site_label
 _atom_site_symmetry_multiplicity
 _atom_site_fract_x
 _atom_site_fract_y
 _atom_site_fract_z
 _atom_site_occupancy
  Rb  Rb0  1  0.503407  0.039573  0.231158  1
  Rb  Rb1  1  0.003407  0.460427  0.768842  1
  Rb  Rb2  1  0.496593  0.960427  0.768842  1
  Rb  Rb3  1  0.996593  0.539573  0.231158  1
  Rb  Rb4  1  0.704496  0.050110  0.226595  1
  Rb  Rb5  1  0.204496  0.449890  0.773405  1
  Rb  Rb6  1  0.295504  0.949890  0.773405  1
  Rb  Rb7  1  0.795504  0.550110  0.226595  1
  Rb  Rb8  1  0.084967  0.995540  0.356582  1
  Rb  Rb9  1  0.584967  0.504460  0.643418  1
  Rb  Rb10  1  0.915033  0.004460  0.643418  1
  Rb  Rb11  1  0.415033  0.495540  0.356582  1
  Rb  Rb12  1  0.809143  0.448414  0.784318  1
  Rb  Rb13  1  0.309143  0.051586  0.215682  1
  Rb  Rb14  1  0.190857  0.551586  0.215682  1
  Rb  Rb15  1  0.690857  0.948414  0.784318  1
  In  In16  1  0.600029  0.498073  0.152323  1
  In  In17  1  0.100029  0.001927  0.847677  1
  In  In18  1  0.399971  0.501927  0.847677  1
  In  In19  1  0.899971  0.998073  0.152323  1
  O  O20  1  0.500000  0.500000  0.000000  1
  O  O21  1  0.000000  0.000000  0.000000  1
  O  O22  1  0.181827  0.005682  0.049663  1
  O  O23  1  0.681827  0.494318  0.950337  1
  O  O24  1  0.818173  0.994318  0.950337  1
  O  O25  1  0.318173  0.505682  0.049663  1
  O  O26  1  0.894418  0.281582  0.170359  1
  O  O27  1  0.394418  0.218418  0.829641  1
  O  O28  1  0.105582  0.718418  0.829641  1
  O  O29  1  0.605582  0.781582  0.170359  1
  O  O30  1  0.600402  0.219636  0.446638  1
  O  O31  1  0.100402  0.280364  0.553362  1
  O  O32  1  0.399598  0.780364  0.553362  1
  O  O33  1  0.899598  0.719636  0.446638  1
