# generated using pymatgen
data_TbEr17(TmSn8)2
_symmetry_space_group_name_H-M   'P 1'
_cell_length_a   7.98357407
_cell_length_b   8.10736445
_cell_length_c   15.34488615
_cell_angle_alpha   90.00735437
_cell_angle_beta   89.89166150
_cell_angle_gamma   89.94329598
_symmetry_Int_Tables_number   1
_chemical_formula_structural   TbEr17(TmSn8)2
_chemical_formula_sum   'Tb1 Er17 Tm2 Sn16'
_cell_volume   993.20691244
_cell_formula_units_Z   1
loop_
 _symmetry_equiv_pos_site_id
 _symmetry_equiv_pos_as_xyz
  1  'x, y, z'
loop_
 _atom_site_type_symbol
 _atom_site_label
 _atom_site_symmetry_multiplicity
 _atom_site_fract_x
 _atom_site_fract_y
 _atom_site_fract_z
 _atom_site_occupancy
  Tb  Tb0  1  0.020667  0.179445  0.903417  1
  Er  Er1  1  0.367678  0.837156  0.877195  1
  Er  Er2  1  0.868278  0.662986  0.622218  1
  Er  Er3  1  0.631566  0.162730  0.377358  1
  Er  Er4  1  0.132460  0.337573  0.122950  1
  Er  Er5  1  0.632528  0.162784  0.122904  1
  Er  Er6  1  0.131644  0.337276  0.377391  1
  Er  Er7  1  0.368459  0.837080  0.622404  1
  Er  Er8  1  0.867992  0.662659  0.877348  1
  Er  Er9  1  0.521990  0.321173  0.902977  1
  Er  Er10  1  0.022556  0.179256  0.597285  1
  Er  Er11  1  0.477735  0.679060  0.402874  1
  Er  Er12  1  0.978341  0.820440  0.097155  1
  Er  Er13  1  0.478213  0.679301  0.097124  1
  Er  Er14  1  0.977751  0.820940  0.402918  1
  Er  Er15  1  0.522281  0.321079  0.596671  1
  Er  Er16  1  0.198690  0.503645  0.749678  1
  Er  Er17  1  0.698455  0.996213  0.749600  1
  Tm  Tm18  1  0.801394  0.496476  0.250155  1
  Tm  Tm19  1  0.301508  0.003490  0.250186  1
  Sn  Sn20  1  0.293553  0.035537  0.042379  1
  Sn  Sn21  1  0.791928  0.463725  0.458262  1
  Sn  Sn22  1  0.708147  0.964160  0.541404  1
  Sn  Sn23  1  0.208202  0.537359  0.958802  1
  Sn  Sn24  1  0.705469  0.961915  0.958917  1
  Sn  Sn25  1  0.208002  0.536268  0.541351  1
  Sn  Sn26  1  0.292008  0.036143  0.458373  1
  Sn  Sn27  1  0.792435  0.463566  0.041647  1
  Sn  Sn28  1  0.564941  0.618892  0.749880  1
  Sn  Sn29  1  0.064907  0.880480  0.749874  1
  Sn  Sn30  1  0.435425  0.381358  0.250093  1
  Sn  Sn31  1  0.935478  0.118900  0.250184  1
  Sn  Sn32  1  0.332390  0.149170  0.749751  1
  Sn  Sn33  1  0.830513  0.351645  0.749228  1
  Sn  Sn34  1  0.668263  0.850518  0.249976  1
  Sn  Sn35  1  0.168150  0.649604  0.250072  1
