# generated using pymatgen
data_Nd2Tm4ReSb2
_symmetry_space_group_name_H-M   'P 1'
_cell_length_a   8.20842000
_cell_length_b   8.14168349
_cell_length_c   4.34681300
_cell_angle_alpha   90.00000000
_cell_angle_beta   90.00000000
_cell_angle_gamma   120.27152349
_symmetry_Int_Tables_number   1
_chemical_formula_structural   Nd2Tm4ReSb2
_chemical_formula_sum   'Nd2 Tm4 Re1 Sb2'
_cell_volume   250.88841520
_cell_formula_units_Z   1
loop_
 _symmetry_equiv_pos_site_id
 _symmetry_equiv_pos_as_xyz
  1  'x, y, z'
loop_
 _atom_site_type_symbol
 _atom_site_label
 _atom_site_symmetry_multiplicity
 _atom_site_fract_x
 _atom_site_fract_y
 _atom_site_fract_z
 _atom_site_occupancy
  Nd  Nd0  1  0.002396  0.603035  0.500000  1
  Nd  Nd1  1  0.399360  0.396965  0.500000  1
  Tm  Tm2  1  0.227331  0.000000  0.000000  1
  Tm  Tm3  1  0.764687  0.765650  0.000000  1
  Tm  Tm4  1  0.999037  0.234350  0.000000  1
  Tm  Tm5  1  0.610411  0.000000  0.500000  1
  Re  Re6  1  0.991433  0.000000  0.500000  1
  Sb  Sb7  1  0.340844  0.676344  0.000000  1
  Sb  Sb8  1  0.664501  0.323656  0.000000  1
