# generated using pymatgen
data_Y15Tm4LuBi12
_symmetry_space_group_name_H-M   'P 1'
_cell_length_a   8.24458198
_cell_length_b   9.51599294
_cell_length_c   12.06325760
_cell_angle_alpha   90.00318268
_cell_angle_beta   90.07429859
_cell_angle_gamma   90.02350643
_symmetry_Int_Tables_number   1
_chemical_formula_structural   Y15Tm4LuBi12
_chemical_formula_sum   'Y15 Tm4 Lu1 Bi12'
_cell_volume   946.42663023
_cell_formula_units_Z   1
loop_
 _symmetry_equiv_pos_site_id
 _symmetry_equiv_pos_as_xyz
  1  'x, y, z'
loop_
 _atom_site_type_symbol
 _atom_site_label
 _atom_site_symmetry_multiplicity
 _atom_site_fract_x
 _atom_site_fract_y
 _atom_site_fract_z
 _atom_site_occupancy
  Y  Y0  1  0.186414  0.749969  0.719078  1
  Y  Y1  1  0.686385  0.749961  0.781051  1
  Y  Y2  1  0.813776  0.250058  0.280888  1
  Y  Y3  1  0.313571  0.250354  0.218690  1
  Y  Y4  1  0.806220  0.062814  0.559924  1
  Y  Y5  1  0.693715  0.937051  0.059635  1
  Y  Y6  1  0.193774  0.562710  0.440129  1
  Y  Y7  1  0.694075  0.562720  0.059774  1
  Y  Y8  1  0.193704  0.937268  0.440102  1
  Y  Y9  1  0.306070  0.063174  0.940288  1
  Y  Y10  1  0.806167  0.437237  0.559876  1
  Y  Y11  1  0.354501  0.750214  0.215276  1
  Y  Y12  1  0.854440  0.750042  0.284541  1
  Y  Y13  1  0.644985  0.250564  0.784887  1
  Y  Y14  1  0.146387  0.250709  0.715650  1
  Tm  Tm15  1  0.525877  0.750128  0.511221  1
  Tm  Tm16  1  0.974951  0.250508  0.011041  1
  Tm  Tm17  1  0.473838  0.250038  0.488949  1
  Tm  Tm18  1  0.305888  0.434936  0.940164  1
  Lu  Lu19  1  0.026124  0.749967  0.989062  1
  Bi  Bi20  1  0.433856  0.003739  0.672752  1
  Bi  Bi21  1  0.934357  0.496758  0.827762  1
  Bi  Bi22  1  0.566078  0.503709  0.327209  1
  Bi  Bi23  1  0.066209  0.996293  0.172408  1
  Bi  Bi24  1  0.566188  0.996474  0.327289  1
  Bi  Bi25  1  0.066177  0.504023  0.172222  1
  Bi  Bi26  1  0.433677  0.496517  0.672892  1
  Bi  Bi27  1  0.933982  0.003637  0.827690  1
  Bi  Bi28  1  0.407345  0.748034  0.957903  1
  Bi  Bi29  1  0.908523  0.749982  0.541723  1
  Bi  Bi30  1  0.591259  0.250452  0.041592  1
  Bi  Bi31  1  0.091487  0.249960  0.458333  1
