# generated using pymatgen
data_Nd15Tm(CdCo)4
_symmetry_space_group_name_H-M   'P 1'
_cell_length_a   9.81413428
_cell_length_b   9.81413376
_cell_length_c   9.83630300
_cell_angle_alpha   59.92524433
_cell_angle_beta   59.92524608
_cell_angle_gamma   60.12762342
_symmetry_Int_Tables_number   1
_chemical_formula_structural   Nd15Tm(CdCo)4
_chemical_formula_sum   'Nd15 Tm1 Cd4 Co4'
_cell_volume   669.80040795
_cell_formula_units_Z   1
loop_
 _symmetry_equiv_pos_site_id
 _symmetry_equiv_pos_as_xyz
  1  'x, y, z'
loop_
 _atom_site_type_symbol
 _atom_site_label
 _atom_site_symmetry_multiplicity
 _atom_site_fract_x
 _atom_site_fract_y
 _atom_site_fract_z
 _atom_site_occupancy
  Nd  Nd0  1  0.152386  0.539401  0.154107  1
  Nd  Nd1  1  0.685875  0.311279  0.688966  1
  Nd  Nd2  1  0.685875  0.311279  0.313880  1
  Nd  Nd3  1  0.940656  0.559858  0.562546  1
  Nd  Nd4  1  0.539401  0.152386  0.154107  1
  Nd  Nd5  1  0.155457  0.155457  0.539399  1
  Nd  Nd6  1  0.940646  0.940646  0.559354  1
  Nd  Nd7  1  0.311279  0.685875  0.313880  1
  Nd  Nd8  1  0.559858  0.940656  0.936940  1
  Nd  Nd9  1  0.559858  0.940656  0.562546  1
  Nd  Nd10  1  0.690113  0.690113  0.309887  1
  Nd  Nd11  1  0.560258  0.560258  0.939742  1
  Nd  Nd12  1  0.940656  0.559858  0.936940  1
  Nd  Nd13  1  0.311279  0.685875  0.688966  1
  Nd  Nd14  1  0.155457  0.155457  0.149686  1
  Tm  Tm15  1  0.309862  0.309862  0.690138  1
  Cd  Cd16  1  0.922550  0.239052  0.919199  1
  Cd  Cd17  1  0.920699  0.920699  0.920341  1
  Cd  Cd18  1  0.920699  0.920699  0.238261  1
  Cd  Cd19  1  0.239052  0.922550  0.919199  1
  Co  Co20  1  0.358714  0.358714  0.919939  1
  Co  Co21  1  0.358712  0.921942  0.359673  1
  Co  Co22  1  0.921942  0.358712  0.359673  1
  Co  Co23  1  0.358714  0.358714  0.362634  1
