# generated using pymatgen
data_Ac2Yb(ErSn2)2
_symmetry_space_group_name_H-M   'P 1'
_cell_length_a   8.21274100
_cell_length_b   8.54200400
_cell_length_c   16.02030700
_cell_angle_alpha   90.00000000
_cell_angle_beta   90.00000000
_cell_angle_gamma   90.00000000
_symmetry_Int_Tables_number   1
_chemical_formula_structural   Ac2Yb(ErSn2)2
_chemical_formula_sum   'Ac8 Yb4 Er8 Sn16'
_cell_volume   1123.87686595
_cell_formula_units_Z   4
loop_
 _symmetry_equiv_pos_site_id
 _symmetry_equiv_pos_as_xyz
  1  'x, y, z'
loop_
 _atom_site_type_symbol
 _atom_site_label
 _atom_site_symmetry_multiplicity
 _atom_site_fract_x
 _atom_site_fract_y
 _atom_site_fract_z
 _atom_site_occupancy
  Ac  Ac0  1  0.502704  0.677622  0.595990  1
  Ac  Ac1  1  0.002704  0.822378  0.904010  1
  Ac  Ac2  1  0.497296  0.322378  0.095990  1
  Ac  Ac3  1  0.997296  0.177622  0.404010  1
  Ac  Ac4  1  0.497296  0.322378  0.404010  1
  Ac  Ac5  1  0.997296  0.177622  0.095990  1
  Ac  Ac6  1  0.502704  0.677622  0.904010  1
  Ac  Ac7  1  0.002704  0.822378  0.595990  1
  Yb  Yb8  1  0.826811  0.501581  0.750000  1
  Yb  Yb9  1  0.326811  0.998419  0.750000  1
  Yb  Yb10  1  0.173189  0.498419  0.250000  1
  Yb  Yb11  1  0.673189  0.001581  0.250000  1
  Er  Er12  1  0.664013  0.169453  0.624708  1
  Er  Er13  1  0.164013  0.330547  0.875292  1
  Er  Er14  1  0.335987  0.830547  0.124708  1
  Er  Er15  1  0.835987  0.669453  0.375292  1
  Er  Er16  1  0.335987  0.830547  0.375292  1
  Er  Er17  1  0.835987  0.669453  0.124708  1
  Er  Er18  1  0.664013  0.169453  0.875292  1
  Er  Er19  1  0.164013  0.330547  0.624708  1
  Sn  Sn20  1  0.672226  0.958750  0.460640  1
  Sn  Sn21  1  0.172226  0.541250  0.039360  1
  Sn  Sn22  1  0.327774  0.041250  0.960640  1
  Sn  Sn23  1  0.827774  0.458750  0.539360  1
  Sn  Sn24  1  0.327774  0.041250  0.539360  1
  Sn  Sn25  1  0.827774  0.458750  0.960640  1
  Sn  Sn26  1  0.672226  0.958750  0.039360  1
  Sn  Sn27  1  0.172226  0.541250  0.460640  1
  Sn  Sn28  1  0.464072  0.370095  0.750000  1
  Sn  Sn29  1  0.964072  0.129905  0.750000  1
  Sn  Sn30  1  0.535928  0.629905  0.250000  1
  Sn  Sn31  1  0.035928  0.870095  0.250000  1
  Sn  Sn32  1  0.702381  0.875973  0.750000  1
  Sn  Sn33  1  0.202381  0.624027  0.750000  1
  Sn  Sn34  1  0.297619  0.124027  0.250000  1
  Sn  Sn35  1  0.797619  0.375973  0.250000  1
