# generated using pymatgen
data_HfZrBiRh5
_symmetry_space_group_name_H-M   'P 1'
_cell_length_a   4.17432200
_cell_length_b   5.74958042
_cell_length_c   11.26248858
_cell_angle_alpha   89.84278183
_cell_angle_beta   90.00000000
_cell_angle_gamma   90.00000000
_symmetry_Int_Tables_number   1
_chemical_formula_structural   HfZrBiRh5
_chemical_formula_sum   'Hf2 Zr2 Bi2 Rh10'
_cell_volume   270.30546629
_cell_formula_units_Z   2
loop_
 _symmetry_equiv_pos_site_id
 _symmetry_equiv_pos_as_xyz
  1  'x, y, z'
loop_
 _atom_site_type_symbol
 _atom_site_label
 _atom_site_symmetry_multiplicity
 _atom_site_fract_x
 _atom_site_fract_y
 _atom_site_fract_z
 _atom_site_occupancy
  Hf  Hf0  1  0.500000  0.671917  0.854739  1
  Hf  Hf1  1  0.500000  0.328083  0.145261  1
  Zr  Zr2  1  0.500000  0.174579  0.644837  1
  Zr  Zr3  1  0.500000  0.825421  0.355163  1
  Bi  Bi4  1  0.000000  0.500000  0.500000  1
  Bi  Bi5  1  0.000000  0.000000  0.000000  1
  Rh  Rh6  1  0.500000  0.205991  0.884829  1
  Rh  Rh7  1  0.500000  0.794009  0.115171  1
  Rh  Rh8  1  0.500000  0.705151  0.617115  1
  Rh  Rh9  1  0.500000  0.294849  0.382885  1
  Rh  Rh10  1  0.000000  0.438133  0.750994  1
  Rh  Rh11  1  0.000000  0.561867  0.249006  1
  Rh  Rh12  1  0.000000  0.000000  0.500000  1
  Rh  Rh13  1  0.000000  0.500000  0.000000  1
  Rh  Rh14  1  0.000000  0.063826  0.248961  1
  Rh  Rh15  1  0.000000  0.936174  0.751039  1
