# generated using pymatgen
data_U2P7(IrRu5)2
_symmetry_space_group_name_H-M   'P 1'
_cell_length_a   9.57702186
_cell_length_b   9.61734099
_cell_length_c   3.83556200
_cell_angle_alpha   90.00000000
_cell_angle_beta   90.00000000
_cell_angle_gamma   120.08406922
_symmetry_Int_Tables_number   1
_chemical_formula_structural   U2P7(IrRu5)2
_chemical_formula_sum   'U2 P7 Ir2 Ru10'
_cell_volume   305.68674080
_cell_formula_units_Z   1
loop_
 _symmetry_equiv_pos_site_id
 _symmetry_equiv_pos_as_xyz
  1  'x, y, z'
loop_
 _atom_site_type_symbol
 _atom_site_label
 _atom_site_symmetry_multiplicity
 _atom_site_fract_x
 _atom_site_fract_y
 _atom_site_fract_z
 _atom_site_occupancy
  U  U0  1  0.668311  0.334582  0.500000  1
  U  U1  1  0.328630  0.665233  0.000000  1
  P  P2  1  0.601353  0.709634  0.500000  1
  P  P3  1  0.999095  0.000000  0.000000  1
  P  P4  1  0.286961  0.889218  0.500000  1
  P  P5  1  0.106332  0.400166  0.500000  1
  P  P6  1  0.887891  0.597046  0.000000  1
  P  P7  1  0.405134  0.286580  0.000000  1
  P  P8  1  0.713949  0.116181  0.000000  1
  Ir  Ir9  1  0.548463  0.928628  0.500000  1
  Ir  Ir10  1  0.379810  0.451707  0.500000  1
  Ru  Ru11  1  0.883782  0.140337  0.500000  1
  Ru  Ru12  1  0.261279  0.118685  0.500000  1
  Ru  Ru13  1  0.858261  0.743820  0.500000  1
  Ru  Ru14  1  0.728195  0.878058  0.000000  1
  Ru  Ru15  1  0.121323  0.852790  0.000000  1
  Ru  Ru16  1  0.150595  0.269438  0.000000  1
  Ru  Ru17  1  0.450848  0.070260  0.000000  1
  Ru  Ru18  1  0.930524  0.378070  0.000000  1
  Ru  Ru19  1  0.621982  0.549667  0.000000  1
  Ru  Ru20  1  0.067284  0.619898  0.500000  1
