# generated using pymatgen
data_NdAgAu
_symmetry_space_group_name_H-M   'P 1'
_cell_length_a   7.84634000
_cell_length_b   7.84633934
_cell_length_c   3.98924400
_cell_angle_alpha   90.00000000
_cell_angle_beta   90.00000000
_cell_angle_gamma   120.00000280
_symmetry_Int_Tables_number   1
_chemical_formula_structural   NdAgAu
_chemical_formula_sum   'Nd3 Ag3 Au3'
_cell_volume   212.69409342
_cell_formula_units_Z   3
loop_
 _symmetry_equiv_pos_site_id
 _symmetry_equiv_pos_as_xyz
  1  'x, y, z'
loop_
 _atom_site_type_symbol
 _atom_site_label
 _atom_site_symmetry_multiplicity
 _atom_site_fract_x
 _atom_site_fract_y
 _atom_site_fract_z
 _atom_site_occupancy
  Nd  Nd0  1  0.000000  0.604216  0.500000  1
  Nd  Nd1  1  0.604216  0.000000  0.500000  1
  Nd  Nd2  1  0.395784  0.395784  0.500000  1
  Ag  Ag3  1  0.000000  0.261889  0.000000  1
  Ag  Ag4  1  0.261889  0.000000  0.000000  1
  Ag  Ag5  1  0.738111  0.738111  0.000000  1
  Au  Au6  1  0.000000  0.000000  0.500000  1
  Au  Au7  1  0.666667  0.333333  0.000000  1
  Au  Au8  1  0.333333  0.666667  0.000000  1
