# generated using pymatgen
data_Pr10Sn3Bi3N2
_symmetry_space_group_name_H-M   'P 1'
_cell_length_a   9.41695300
_cell_length_b   9.41695230
_cell_length_c   6.68853100
_cell_angle_alpha   90.00000000
_cell_angle_beta   90.00000000
_cell_angle_gamma   119.99999896
_symmetry_Int_Tables_number   1
_chemical_formula_structural   Pr10Sn3Bi3N2
_chemical_formula_sum   'Pr10 Sn3 Bi3 N2'
_cell_volume   513.66757713
_cell_formula_units_Z   1
loop_
 _symmetry_equiv_pos_site_id
 _symmetry_equiv_pos_as_xyz
  1  'x, y, z'
loop_
 _atom_site_type_symbol
 _atom_site_label
 _atom_site_symmetry_multiplicity
 _atom_site_fract_x
 _atom_site_fract_y
 _atom_site_fract_z
 _atom_site_occupancy
  Pr  Pr0  1  0.666667  0.333333  0.004591  1
  Pr  Pr1  1  0.333333  0.666667  0.004591  1
  Pr  Pr2  1  0.333333  0.666667  0.495409  1
  Pr  Pr3  1  0.666667  0.333333  0.495409  1
  Pr  Pr4  1  0.784971  0.784971  0.750000  1
  Pr  Pr5  1  0.215029  0.000000  0.750000  1
  Pr  Pr6  1  0.000000  0.215029  0.750000  1
  Pr  Pr7  1  0.214466  0.214466  0.250000  1
  Pr  Pr8  1  0.785534  0.000000  0.250000  1
  Pr  Pr9  1  0.000000  0.785534  0.250000  1
  Sn  Sn10  1  0.599241  0.599241  0.250000  1
  Sn  Sn11  1  0.400759  0.000000  0.250000  1
  Sn  Sn12  1  0.000000  0.400759  0.250000  1
  Bi  Bi13  1  0.401142  0.401142  0.750000  1
  Bi  Bi14  1  0.598858  0.000000  0.750000  1
  Bi  Bi15  1  0.000000  0.598858  0.750000  1
  N  N16  1  0.000000  0.000000  0.998233  1
  N  N17  1  0.000000  0.000000  0.501767  1
