# generated using pymatgen
data_HoTm7Sc12Si15Ge
_symmetry_space_group_name_H-M   'P 1'
_cell_length_a   7.05695681
_cell_length_b   7.34824101
_cell_length_c   13.91242135
_cell_angle_alpha   90.02921866
_cell_angle_beta   89.88862713
_cell_angle_gamma   90.04312219
_symmetry_Int_Tables_number   1
_chemical_formula_structural   HoTm7Sc12Si15Ge
_chemical_formula_sum   'Ho1 Tm7 Sc12 Si15 Ge1'
_cell_volume   721.44391371
_cell_formula_units_Z   1
loop_
 _symmetry_equiv_pos_site_id
 _symmetry_equiv_pos_as_xyz
  1  'x, y, z'
loop_
 _atom_site_type_symbol
 _atom_site_label
 _atom_site_symmetry_multiplicity
 _atom_site_fract_x
 _atom_site_fract_y
 _atom_site_fract_z
 _atom_site_occupancy
  Ho  Ho0  1  0.012231  0.176215  0.096255  1
  Tm  Tm1  1  0.987858  0.823571  0.903513  1
  Tm  Tm2  1  0.488325  0.676580  0.903552  1
  Tm  Tm3  1  0.987455  0.824466  0.596586  1
  Tm  Tm4  1  0.511953  0.323654  0.096548  1
  Tm  Tm5  1  0.010827  0.175852  0.402832  1
  Tm  Tm6  1  0.512569  0.322115  0.402698  1
  Tm  Tm7  1  0.490908  0.678110  0.596894  1
  Sc  Sc8  1  0.161033  0.503506  0.751179  1
  Sc  Sc9  1  0.838746  0.496668  0.250141  1
  Sc  Sc10  1  0.339148  0.003322  0.250021  1
  Sc  Sc11  1  0.661060  0.996419  0.750073  1
  Sc  Sc12  1  0.332899  0.174510  0.626099  1
  Sc  Sc13  1  0.668235  0.823697  0.374438  1
  Sc  Sc14  1  0.167792  0.677592  0.374323  1
  Sc  Sc15  1  0.668727  0.822721  0.125153  1
  Sc  Sc16  1  0.829881  0.323117  0.625368  1
  Sc  Sc17  1  0.331241  0.176766  0.874725  1
  Sc  Sc18  1  0.830926  0.323157  0.874746  1
  Sc  Sc19  1  0.168900  0.676985  0.125248  1
  Si  Si20  1  0.032977  0.114221  0.750145  1
  Si  Si21  1  0.967019  0.886236  0.249678  1
  Si  Si22  1  0.466789  0.613988  0.249725  1
  Si  Si23  1  0.532576  0.386442  0.750234  1
  Si  Si24  1  0.285012  0.870370  0.750267  1
  Si  Si25  1  0.714614  0.128885  0.249820  1
  Si  Si26  1  0.214996  0.371134  0.250156  1
  Si  Si27  1  0.785699  0.629233  0.750101  1
  Si  Si28  1  0.835164  0.535758  0.459846  1
  Si  Si29  1  0.339852  0.965330  0.460478  1
  Si  Si30  1  0.840485  0.534922  0.039298  1
  Si  Si31  1  0.659882  0.035027  0.539363  1
  Si  Si32  1  0.159407  0.465822  0.960624  1
  Si  Si33  1  0.659053  0.034581  0.960511  1
  Si  Si34  1  0.341356  0.965082  0.039418  1
  Ge  Ge35  1  0.164408  0.463948  0.539945  1
