# generated using pymatgen
data_TaV6Si2B4W3
_symmetry_space_group_name_H-M   'P 1'
_cell_length_a   6.87566285
_cell_length_b   6.93152412
_cell_length_c   6.90178516
_cell_angle_alpha   129.46038408
_cell_angle_beta   129.18931794
_cell_angle_gamma   74.80033420
_symmetry_Int_Tables_number   1
_chemical_formula_structural   TaV6Si2B4W3
_chemical_formula_sum   'Ta1 V6 Si2 B4 W3'
_cell_volume   191.41565480
_cell_formula_units_Z   1
loop_
 _symmetry_equiv_pos_site_id
 _symmetry_equiv_pos_as_xyz
  1  'x, y, z'
loop_
 _atom_site_type_symbol
 _atom_site_label
 _atom_site_symmetry_multiplicity
 _atom_site_fract_x
 _atom_site_fract_y
 _atom_site_fract_z
 _atom_site_occupancy
  Ta  Ta0  1  0.522037  0.691680  0.498618  1
  V  V1  1  0.191234  0.035824  0.497838  1
  V  V2  1  0.470422  0.303456  0.499752  1
  V  V3  1  0.803293  0.969715  0.499479  1
  V  V4  1  0.307204  0.802351  0.836379  1
  V  V5  1  0.005866  0.001883  0.003421  1
  V  V6  1  0.499683  0.500950  0.996765  1
  Si  Si7  1  0.243662  0.230836  0.983528  1
  Si  Si8  1  0.748395  0.750985  0.008980  1
  B  B9  1  0.614574  0.120341  0.731095  1
  B  B10  1  0.126676  0.379856  0.503044  1
  B  B11  1  0.882903  0.627343  0.503906  1
  B  B12  1  0.384150  0.889220  0.267974  1
  W  W13  1  0.030058  0.530195  0.836304  1
  W  W14  1  0.693592  0.193186  0.163600  1
  W  W15  1  0.976252  0.472179  0.169318  1
