# generated using pymatgen
data_V5Si2Mo
_symmetry_space_group_name_H-M   'P 1'
_cell_length_a   4.76202000
_cell_length_b   4.73067900
_cell_length_c   4.73067900
_cell_angle_alpha   90.00000000
_cell_angle_beta   90.00000000
_cell_angle_gamma   90.00000000
_symmetry_Int_Tables_number   1
_chemical_formula_structural   V5Si2Mo
_chemical_formula_sum   'V5 Si2 Mo1'
_cell_volume   106.57078753
_cell_formula_units_Z   1
loop_
 _symmetry_equiv_pos_site_id
 _symmetry_equiv_pos_as_xyz
  1  'x, y, z'
loop_
 _atom_site_type_symbol
 _atom_site_label
 _atom_site_symmetry_multiplicity
 _atom_site_fract_x
 _atom_site_fract_y
 _atom_site_fract_z
 _atom_site_occupancy
  V  V0  1  0.000894  0.500000  0.247416  1
  V  V1  1  0.000894  0.500000  0.752584  1
  V  V2  1  0.499106  0.747416  0.000000  1
  V  V3  1  0.499106  0.252584  0.000000  1
  V  V4  1  0.750000  0.000000  0.500000  1
  Si  Si5  1  0.504886  0.500000  0.500000  1
  Si  Si6  1  0.995114  0.000000  0.000000  1
  Mo  Mo7  1  0.250000  0.000000  0.500000  1
