# generated using pymatgen
data_LiAlHgF6
_symmetry_space_group_name_H-M   'P 1'
_cell_length_a   5.12870800
_cell_length_b   5.12870727
_cell_length_c   9.80584800
_cell_angle_alpha   90.00000000
_cell_angle_beta   90.00000000
_cell_angle_gamma   120.00001759
_symmetry_Int_Tables_number   1
_chemical_formula_structural   LiAlHgF6
_chemical_formula_sum   'Li2 Al2 Hg2 F12'
_cell_volume   223.37347323
_cell_formula_units_Z   2
loop_
 _symmetry_equiv_pos_site_id
 _symmetry_equiv_pos_as_xyz
  1  'x, y, z'
loop_
 _atom_site_type_symbol
 _atom_site_label
 _atom_site_symmetry_multiplicity
 _atom_site_fract_x
 _atom_site_fract_y
 _atom_site_fract_z
 _atom_site_occupancy
  Li  Li0  1  0.333333  0.666667  0.250000  1
  Li  Li1  1  0.666667  0.333333  0.750000  1
  Al  Al2  1  0.666667  0.333333  0.250000  1
  Al  Al3  1  0.333333  0.666667  0.750000  1
  Hg  Hg4  1  0.000000  0.000000  0.000000  1
  Hg  Hg5  1  0.000000  0.000000  0.500000  1
  F  F6  1  0.379906  0.029758  0.144996  1
  F  F7  1  0.620094  0.649852  0.644996  1
  F  F8  1  0.350148  0.970242  0.644996  1
  F  F9  1  0.029758  0.379906  0.644996  1
  F  F10  1  0.970242  0.620094  0.355004  1
  F  F11  1  0.970242  0.350148  0.144996  1
  F  F12  1  0.649852  0.620094  0.144996  1
  F  F13  1  0.649852  0.029758  0.355004  1
  F  F14  1  0.029758  0.649852  0.855004  1
  F  F15  1  0.379906  0.350148  0.355004  1
  F  F16  1  0.620094  0.970242  0.855004  1
  F  F17  1  0.350148  0.379906  0.855004  1
