# generated using pymatgen
data_Tb4Tm4Sc12Si15Os
_symmetry_space_group_name_H-M   'P 1'
_cell_length_a   7.07759984
_cell_length_b   7.43112610
_cell_length_c   13.94876065
_cell_angle_alpha   90.01494169
_cell_angle_beta   89.96834189
_cell_angle_gamma   90.18090282
_symmetry_Int_Tables_number   1
_chemical_formula_structural   Tb4Tm4Sc12Si15Os
_chemical_formula_sum   'Tb4 Tm4 Sc12 Si15 Os1'
_cell_volume   733.62481315
_cell_formula_units_Z   1
loop_
 _symmetry_equiv_pos_site_id
 _symmetry_equiv_pos_as_xyz
  1  'x, y, z'
loop_
 _atom_site_type_symbol
 _atom_site_label
 _atom_site_symmetry_multiplicity
 _atom_site_fract_x
 _atom_site_fract_y
 _atom_site_fract_z
 _atom_site_occupancy
  Tb  Tb0  1  0.511726  0.323382  0.095125  1
  Tb  Tb1  1  0.010884  0.177704  0.404970  1
  Tb  Tb2  1  0.511452  0.323587  0.403738  1
  Tb  Tb3  1  0.488410  0.676166  0.595945  1
  Tm  Tm4  1  0.011804  0.179203  0.095944  1
  Tm  Tm5  1  0.990724  0.827967  0.903299  1
  Tm  Tm6  1  0.487585  0.678241  0.903100  1
  Tm  Tm7  1  0.990482  0.828055  0.597668  1
  Sc  Sc8  1  0.155982  0.498163  0.750417  1
  Sc  Sc9  1  0.838259  0.495212  0.249532  1
  Sc  Sc10  1  0.339107  0.005916  0.249518  1
  Sc  Sc11  1  0.668956  0.996555  0.750337  1
  Sc  Sc12  1  0.317396  0.171356  0.627711  1
  Sc  Sc13  1  0.672887  0.825687  0.374064  1
  Sc  Sc14  1  0.170927  0.678882  0.374221  1
  Sc  Sc15  1  0.672401  0.825332  0.125069  1
  Sc  Sc16  1  0.837013  0.319098  0.628115  1
  Sc  Sc17  1  0.316818  0.171701  0.873034  1
  Sc  Sc18  1  0.837846  0.318118  0.872761  1
  Sc  Sc19  1  0.171113  0.679016  0.125070  1
  Si  Si20  1  0.968657  0.885589  0.249323  1
  Si  Si21  1  0.468808  0.615786  0.249624  1
  Si  Si22  1  0.529115  0.389515  0.750986  1
  Si  Si23  1  0.285075  0.865280  0.751014  1
  Si  Si24  1  0.714904  0.129523  0.248868  1
  Si  Si25  1  0.212781  0.371086  0.248972  1
  Si  Si26  1  0.779185  0.628107  0.751229  1
  Si  Si27  1  0.158141  0.470553  0.537794  1
  Si  Si28  1  0.845242  0.538109  0.462340  1
  Si  Si29  1  0.345190  0.965340  0.460447  1
  Si  Si30  1  0.845772  0.536225  0.037977  1
  Si  Si31  1  0.656919  0.033179  0.538854  1
  Si  Si32  1  0.160495  0.470113  0.962422  1
  Si  Si33  1  0.656457  0.031399  0.960943  1
  Si  Si34  1  0.343016  0.965062  0.039385  1
  Os  Os35  1  0.028471  0.105792  0.750186  1
