# generated using pymatgen
data_CuMo12Pt6RhN4
_symmetry_space_group_name_H-M   'P 1'
_cell_length_a   6.87371545
_cell_length_b   6.87371504
_cell_length_c   6.87371486
_cell_angle_alpha   89.93817109
_cell_angle_beta   89.93816851
_cell_angle_gamma   89.93816697
_symmetry_Int_Tables_number   1
_chemical_formula_structural   CuMo12Pt6RhN4
_chemical_formula_sum   'Cu1 Mo12 Pt6 Rh1 N4'
_cell_volume   324.76844672
_cell_formula_units_Z   1
loop_
 _symmetry_equiv_pos_site_id
 _symmetry_equiv_pos_as_xyz
  1  'x, y, z'
loop_
 _atom_site_type_symbol
 _atom_site_label
 _atom_site_symmetry_multiplicity
 _atom_site_fract_x
 _atom_site_fract_y
 _atom_site_fract_z
 _atom_site_occupancy
  Cu  Cu0  1  0.191979  0.191979  0.191979  1
  Mo  Mo1  1  0.622866  0.700053  0.948624  1
  Mo  Mo2  1  0.455627  0.874430  0.303643  1
  Mo  Mo3  1  0.700053  0.948624  0.622866  1
  Mo  Mo4  1  0.548368  0.375338  0.203012  1
  Mo  Mo5  1  0.375338  0.203012  0.548368  1
  Mo  Mo6  1  0.203012  0.548368  0.375338  1
  Mo  Mo7  1  0.874430  0.303643  0.455627  1
  Mo  Mo8  1  0.047522  0.122373  0.799559  1
  Mo  Mo9  1  0.303643  0.455627  0.874430  1
  Mo  Mo10  1  0.122373  0.799559  0.047522  1
  Mo  Mo11  1  0.799559  0.047522  0.122373  1
  Mo  Mo12  1  0.948624  0.622866  0.700053  1
  Pt  Pt13  1  0.307694  0.809882  0.688924  1
  Pt  Pt14  1  0.431057  0.061778  0.950002  1
  Pt  Pt15  1  0.809882  0.688924  0.307694  1
  Pt  Pt16  1  0.688924  0.307694  0.809882  1
  Pt  Pt17  1  0.061778  0.950002  0.431057  1
  Pt  Pt18  1  0.950002  0.431057  0.061778  1
  Rh  Rh19  1  0.556811  0.556811  0.556811  1
  N  N20  1  0.375291  0.625964  0.125552  1
  N  N21  1  0.873654  0.873654  0.873654  1
  N  N22  1  0.125552  0.375291  0.625964  1
  N  N23  1  0.625964  0.125552  0.375291  1
