# generated using pymatgen
data_Sr8Li3Tl2In2N5
_symmetry_space_group_name_H-M   'P 1'
_cell_length_a   11.44981715
_cell_length_b   11.44981820
_cell_length_c   11.44983332
_cell_angle_alpha   160.23073269
_cell_angle_beta   112.66196460
_cell_angle_gamma   70.95214523
_symmetry_Int_Tables_number   1
_chemical_formula_structural   Sr8Li3Tl2In2N5
_chemical_formula_sum   'Sr8 Li3 Tl2 In2 N5'
_cell_volume   465.34175537
_cell_formula_units_Z   1
loop_
 _symmetry_equiv_pos_site_id
 _symmetry_equiv_pos_as_xyz
  1  'x, y, z'
loop_
 _atom_site_type_symbol
 _atom_site_label
 _atom_site_symmetry_multiplicity
 _atom_site_fract_x
 _atom_site_fract_y
 _atom_site_fract_z
 _atom_site_occupancy
  Sr  Sr0  1  0.560586  0.710621  0.849775  1
  Sr  Sr1  1  0.746443  0.902061  0.844637  1
  Sr  Sr2  1  0.439414  0.289379  0.150225  1
  Sr  Sr3  1  0.860847  0.710811  0.150225  1
  Sr  Sr4  1  0.139153  0.289189  0.849775  1
  Sr  Sr5  1  0.253557  0.097939  0.155363  1
  Sr  Sr6  1  0.057424  0.901807  0.155363  1
  Sr  Sr7  1  0.942576  0.098193  0.844637  1
  Li  Li8  1  0.192752  0.692752  0.500000  1
  Li  Li9  1  0.807248  0.307248  0.500000  1
  Li  Li10  1  0.000000  0.500000  0.500000  1
  Tl  Tl11  1  0.647877  0.499872  0.147749  1
  Tl  Tl12  1  0.352123  0.500128  0.852251  1
  In  In13  1  0.412964  0.912964  0.500000  1
  In  In14  1  0.587036  0.087036  0.500000  1
  N  N15  1  0.343668  0.691903  0.651689  1
  N  N16  1  0.959787  0.308021  0.651689  1
  N  N17  1  0.040213  0.691979  0.348311  1
  N  N18  1  0.000000  0.000000  0.000000  1
  N  N19  1  0.656332  0.308097  0.348311  1
