# generated using pymatgen
data_Hf13Ta3(Co2N)4
_symmetry_space_group_name_H-M   'P 1'
_cell_length_a   8.46756725
_cell_length_b   8.46756682
_cell_length_c   8.42010613
_cell_angle_alpha   59.81336462
_cell_angle_beta   59.81336046
_cell_angle_gamma   59.99999671
_symmetry_Int_Tables_number   1
_chemical_formula_structural   Hf13Ta3(Co2N)4
_chemical_formula_sum   'Hf13 Ta3 Co8 N4'
_cell_volume   425.68555255
_cell_formula_units_Z   1
loop_
 _symmetry_equiv_pos_site_id
 _symmetry_equiv_pos_as_xyz
  1  'x, y, z'
loop_
 _atom_site_type_symbol
 _atom_site_label
 _atom_site_symmetry_multiplicity
 _atom_site_fract_x
 _atom_site_fract_y
 _atom_site_fract_z
 _atom_site_occupancy
  Hf  Hf0  1  0.625000  0.625000  0.125000  1
  Hf  Hf1  1  0.813945  0.813945  0.186731  1
  Hf  Hf2  1  0.187859  0.187859  0.811759  1
  Hf  Hf3  1  0.812523  0.187859  0.811759  1
  Hf  Hf4  1  0.185378  0.813945  0.186731  1
  Hf  Hf5  1  0.187859  0.812523  0.811759  1
  Hf  Hf6  1  0.813945  0.185378  0.186731  1
  Hf  Hf7  1  0.436055  0.436055  0.063269  1
  Hf  Hf8  1  0.062141  0.062141  0.438241  1
  Hf  Hf9  1  0.437477  0.062141  0.438241  1
  Hf  Hf10  1  0.064622  0.436055  0.063269  1
  Hf  Hf11  1  0.062141  0.437477  0.438241  1
  Hf  Hf12  1  0.436055  0.064622  0.063269  1
  Ta  Ta13  1  0.125000  0.625000  0.625000  1
  Ta  Ta14  1  0.625000  0.125000  0.625000  1
  Ta  Ta15  1  0.625000  0.625000  0.625000  1
  Co  Co16  1  0.757773  0.410232  0.421763  1
  Co  Co17  1  0.410232  0.757773  0.421763  1
  Co  Co18  1  0.416823  0.416823  0.749532  1
  Co  Co19  1  0.410232  0.410232  0.421763  1
  Co  Co20  1  0.492227  0.839768  0.828237  1
  Co  Co21  1  0.839768  0.492227  0.828237  1
  Co  Co22  1  0.833177  0.833177  0.500468  1
  Co  Co23  1  0.839768  0.839768  0.828237  1
  N  N24  1  0.625000  0.125000  0.125000  1
  N  N25  1  0.125000  0.625000  0.125000  1
  N  N26  1  0.125000  0.125000  0.625000  1
  N  N27  1  0.125000  0.125000  0.125000  1
