# generated using pymatgen
data_HoGa(Ni7B2)3
_symmetry_space_group_name_H-M   'P 1'
_cell_length_a   7.46789134
_cell_length_b   7.46789187
_cell_length_c   7.46789200
_cell_angle_alpha   60.00000830
_cell_angle_beta   60.00000594
_cell_angle_gamma   60.00001144
_symmetry_Int_Tables_number   1
_chemical_formula_structural   HoGa(Ni7B2)3
_chemical_formula_sum   'Ho1 Ga1 Ni21 B6'
_cell_volume   294.49581430
_cell_formula_units_Z   1
loop_
 _symmetry_equiv_pos_site_id
 _symmetry_equiv_pos_as_xyz
  1  'x, y, z'
loop_
 _atom_site_type_symbol
 _atom_site_label
 _atom_site_symmetry_multiplicity
 _atom_site_fract_x
 _atom_site_fract_y
 _atom_site_fract_z
 _atom_site_occupancy
  Ho  Ho0  1  0.750000  0.750000  0.750000  1
  Ga  Ga1  1  0.250000  0.250000  0.250000  1
  Ni  Ni2  1  0.000000  0.000000  0.000000  1
  Ni  Ni3  1  0.608272  0.608272  0.175183  1
  Ni  Ni4  1  0.608272  0.175183  0.608272  1
  Ni  Ni5  1  0.175183  0.608272  0.608272  1
  Ni  Ni6  1  0.608272  0.608272  0.608272  1
  Ni  Ni7  1  0.378988  0.378988  0.863036  1
  Ni  Ni8  1  0.378988  0.863036  0.378988  1
  Ni  Ni9  1  0.863036  0.378988  0.378988  1
  Ni  Ni10  1  0.378988  0.378988  0.378988  1
  Ni  Ni11  1  0.000197  0.000197  0.337012  1
  Ni  Ni12  1  0.662595  0.000197  0.337012  1
  Ni  Ni13  1  0.000197  0.662595  0.337012  1
  Ni  Ni14  1  0.662595  0.337012  0.000197  1
  Ni  Ni15  1  0.000197  0.337012  0.000197  1
  Ni  Ni16  1  0.000197  0.337012  0.662595  1
  Ni  Ni17  1  0.337012  0.662595  0.000197  1
  Ni  Ni18  1  0.337012  0.000197  0.662595  1
  Ni  Ni19  1  0.337012  0.000197  0.000197  1
  Ni  Ni20  1  0.000197  0.000197  0.662595  1
  Ni  Ni21  1  0.000197  0.662595  0.000197  1
  Ni  Ni22  1  0.662595  0.000197  0.000197  1
  B  B23  1  0.729009  0.729009  0.270991  1
  B  B24  1  0.270991  0.729009  0.270991  1
  B  B25  1  0.729009  0.270991  0.270991  1
  B  B26  1  0.270991  0.270991  0.729009  1
  B  B27  1  0.729009  0.270991  0.729009  1
  B  B28  1  0.270991  0.729009  0.729009  1
