# generated using pymatgen
data_Yb4Hf(UH8)3
_symmetry_space_group_name_H-M   'P 1'
_cell_length_a   6.50903500
_cell_length_b   6.56246300
_cell_length_c   6.51163800
_cell_angle_alpha   90.00000000
_cell_angle_beta   90.00000000
_cell_angle_gamma   90.00000000
_symmetry_Int_Tables_number   1
_chemical_formula_structural   Yb4Hf(UH8)3
_chemical_formula_sum   'Yb4 Hf1 U3 H24'
_cell_volume   278.14657947
_cell_formula_units_Z   1
loop_
 _symmetry_equiv_pos_site_id
 _symmetry_equiv_pos_as_xyz
  1  'x, y, z'
loop_
 _atom_site_type_symbol
 _atom_site_label
 _atom_site_symmetry_multiplicity
 _atom_site_fract_x
 _atom_site_fract_y
 _atom_site_fract_z
 _atom_site_occupancy
  Yb  Yb0  1  0.237993  0.000000  0.500000  1
  Yb  Yb1  1  0.762007  0.000000  0.500000  1
  Yb  Yb2  1  0.000000  0.500000  0.250340  1
  Yb  Yb3  1  0.000000  0.500000  0.749660  1
  Hf  Hf4  1  0.000000  0.000000  0.000000  1
  U  U5  1  0.500000  0.500000  0.500000  1
  U  U6  1  0.500000  0.754645  0.000000  1
  U  U7  1  0.500000  0.245355  0.000000  1
  H  H8  1  0.000000  0.151236  0.277639  1
  H  H9  1  0.500000  0.209088  0.661561  1
  H  H10  1  0.500000  0.790912  0.338439  1
  H  H11  1  0.789891  0.651322  0.500000  1
  H  H12  1  0.210109  0.651322  0.500000  1
  H  H13  1  0.350372  0.500000  0.813249  1
  H  H14  1  0.649628  0.500000  0.813249  1
  H  H15  1  0.302110  0.000000  0.144515  1
  H  H16  1  0.160363  0.275017  0.000000  1
  H  H17  1  0.839637  0.724983  0.000000  1
  H  H18  1  0.302110  0.000000  0.855485  1
  H  H19  1  0.839637  0.275017  0.000000  1
  H  H20  1  0.697890  0.000000  0.144515  1
  H  H21  1  0.697890  0.000000  0.855485  1
  H  H22  1  0.160363  0.724983  0.000000  1
  H  H23  1  0.000000  0.848764  0.722361  1
  H  H24  1  0.000000  0.151236  0.722361  1
  H  H25  1  0.000000  0.848764  0.277639  1
  H  H26  1  0.649628  0.500000  0.186751  1
  H  H27  1  0.350372  0.500000  0.186751  1
  H  H28  1  0.789891  0.348678  0.500000  1
  H  H29  1  0.210109  0.348678  0.500000  1
  H  H30  1  0.500000  0.790912  0.661561  1
  H  H31  1  0.500000  0.209088  0.338439  1
