# generated using pymatgen
data_BaEuVH9
_symmetry_space_group_name_H-M   'P 1'
_cell_length_a   8.86662000
_cell_length_b   8.86661949
_cell_length_c   5.23668300
_cell_angle_alpha   90.00000000
_cell_angle_beta   90.00000000
_cell_angle_gamma   120.00000936
_symmetry_Int_Tables_number   1
_chemical_formula_structural   BaEuVH9
_chemical_formula_sum   'Ba3 Eu3 V3 H27'
_cell_volume   356.53571690
_cell_formula_units_Z   3
loop_
 _symmetry_equiv_pos_site_id
 _symmetry_equiv_pos_as_xyz
  1  'x, y, z'
loop_
 _atom_site_type_symbol
 _atom_site_label
 _atom_site_symmetry_multiplicity
 _atom_site_fract_x
 _atom_site_fract_y
 _atom_site_fract_z
 _atom_site_occupancy
  Ba  Ba0  1  0.000000  0.593393  0.000000  1
  Ba  Ba1  1  0.406607  0.406607  0.000000  1
  Ba  Ba2  1  0.593393  0.000000  0.000000  1
  Eu  Eu3  1  0.000000  0.263894  0.500000  1
  Eu  Eu4  1  0.736106  0.736106  0.500000  1
  Eu  Eu5  1  0.263894  0.000000  0.500000  1
  V  V6  1  0.666667  0.333333  0.500000  1
  V  V7  1  0.333333  0.666667  0.500000  1
  V  V8  1  0.000000  0.000000  0.000000  1
  H  H9  1  0.791805  0.307978  0.734336  1
  H  H10  1  0.692022  0.483826  0.734336  1
  H  H11  1  0.516174  0.208195  0.734336  1
  H  H12  1  0.208195  0.516174  0.265664  1
  H  H13  1  0.516174  0.208195  0.265664  1
  H  H14  1  0.791805  0.307978  0.265664  1
  H  H15  1  0.692022  0.483826  0.265664  1
  H  H16  1  0.307978  0.791805  0.734336  1
  H  H17  1  0.483826  0.692022  0.734336  1
  H  H18  1  0.197465  0.000000  0.000000  1
  H  H19  1  0.802535  0.802535  0.000000  1
  H  H20  1  0.000000  0.197465  0.000000  1
  H  H21  1  0.862766  0.000000  0.239386  1
  H  H22  1  0.137234  0.137234  0.760614  1
  H  H23  1  0.000000  0.862766  0.760614  1
  H  H24  1  0.000000  0.862766  0.239386  1
  H  H25  1  0.137234  0.137234  0.239386  1
  H  H26  1  0.862766  0.000000  0.760614  1
  H  H27  1  0.130153  0.640126  0.500000  1
  H  H28  1  0.509974  0.869847  0.500000  1
  H  H29  1  0.359874  0.490026  0.500000  1
  H  H30  1  0.490026  0.359874  0.500000  1
  H  H31  1  0.869847  0.509974  0.500000  1
  H  H32  1  0.640126  0.130153  0.500000  1
  H  H33  1  0.208195  0.516174  0.734336  1
  H  H34  1  0.307978  0.791805  0.265664  1
  H  H35  1  0.483826  0.692022  0.265664  1
