# generated using pymatgen
data_DyRe2AgH18
_symmetry_space_group_name_H-M   'P 1'
_cell_length_a   5.18498331
_cell_length_b   5.18858280
_cell_length_c   7.86884200
_cell_angle_alpha   86.90200606
_cell_angle_beta   93.20765247
_cell_angle_gamma   127.29434815
_symmetry_Int_Tables_number   1
_chemical_formula_structural   DyRe2AgH18
_chemical_formula_sum   'Dy1 Re2 Ag1 H18'
_cell_volume   168.09108328
_cell_formula_units_Z   1
loop_
 _symmetry_equiv_pos_site_id
 _symmetry_equiv_pos_as_xyz
  1  'x, y, z'
loop_
 _atom_site_type_symbol
 _atom_site_label
 _atom_site_symmetry_multiplicity
 _atom_site_fract_x
 _atom_site_fract_y
 _atom_site_fract_z
 _atom_site_occupancy
  Dy  Dy0  1  0.000000  0.000000  0.500000  1
  Re  Re1  1  0.355259  0.646417  0.736401  1
  Re  Re2  1  0.644741  0.353583  0.263599  1
  Ag  Ag3  1  0.000000  0.000000  0.000000  1
  H  H4  1  0.399894  0.600231  0.527853  1
  H  H5  1  0.600106  0.399769  0.472147  1
  H  H6  1  0.431042  0.571087  0.931794  1
  H  H7  1  0.568958  0.428913  0.068206  1
  H  H8  1  0.506586  0.945658  0.875630  1
  H  H9  1  0.942893  0.503780  0.124207  1
  H  H10  1  0.609358  0.016913  0.647454  1
  H  H11  1  0.016180  0.608591  0.352411  1
  H  H12  1  0.493414  0.054342  0.124370  1
  H  H13  1  0.057107  0.496220  0.875793  1
  H  H14  1  0.390642  0.983087  0.352546  1
  H  H15  1  0.983820  0.391409  0.647589  1
  H  H16  1  0.733069  0.724788  0.748300  1
  H  H17  1  0.722546  0.730732  0.251882  1
  H  H18  1  0.266931  0.275212  0.251700  1
  H  H19  1  0.277454  0.269268  0.748118  1
  H  H20  1  0.172707  0.828096  0.711717  1
  H  H21  1  0.827293  0.171904  0.288283  1
