# generated using pymatgen
data_Zr8Fe2Co6Si13As
_symmetry_space_group_name_H-M   'P 1'
_cell_length_a   9.50247772
_cell_length_b   9.50232955
_cell_length_c   9.48797799
_cell_angle_alpha   94.16482998
_cell_angle_beta   94.16661787
_cell_angle_gamma   148.75274745
_symmetry_Int_Tables_number   1
_chemical_formula_structural   Zr8Fe2Co6Si13As
_chemical_formula_sum   'Zr8 Fe2 Co6 Si13 As1'
_cell_volume   427.93904095
_cell_formula_units_Z   1
loop_
 _symmetry_equiv_pos_site_id
 _symmetry_equiv_pos_as_xyz
  1  'x, y, z'
loop_
 _atom_site_type_symbol
 _atom_site_label
 _atom_site_symmetry_multiplicity
 _atom_site_fract_x
 _atom_site_fract_y
 _atom_site_fract_z
 _atom_site_occupancy
  Zr  Zr0  1  0.694681  0.497335  0.196903  1
  Zr  Zr1  1  0.498082  0.695693  0.198033  1
  Zr  Zr2  1  0.497776  0.300508  0.803112  1
  Zr  Zr3  1  0.300055  0.497658  0.801944  1
  Zr  Zr4  1  0.863207  0.863322  0.723138  1
  Zr  Zr5  1  0.140220  0.863833  0.000025  1
  Zr  Zr6  1  0.863663  0.140519  0.999980  1
  Zr  Zr7  1  0.140164  0.140276  0.276876  1
  Fe  Fe8  1  0.897946  0.103016  0.500926  1
  Fe  Fe9  1  0.396884  0.601950  0.499034  1
  Co  Co10  1  0.102916  0.897905  0.500648  1
  Co  Co11  1  0.897963  0.397146  0.794504  1
  Co  Co12  1  0.602126  0.102670  0.205487  1
  Co  Co13  1  0.103457  0.602658  0.205506  1
  Co  Co14  1  0.602309  0.397311  0.499316  1
  Co  Co15  1  0.396666  0.897199  0.794507  1
  Si  Si16  1  0.250583  0.250785  0.999991  1
  Si  Si17  1  0.091833  0.498963  0.588809  1
  Si  Si18  1  0.500612  0.092965  0.591633  1
  Si  Si19  1  0.503092  0.910196  0.411215  1
  Si  Si20  1  0.908951  0.501318  0.408380  1
  Si  Si21  1  0.695626  0.997956  0.696282  1
  Si  Si22  1  0.998656  0.695417  0.696835  1
  Si  Si23  1  0.711479  0.712314  0.422414  1
  Si  Si24  1  0.289836  0.711799  0.999971  1
  Si  Si25  1  0.301864  0.998638  0.303190  1
  Si  Si26  1  0.711822  0.289791  0.999976  1
  Si  Si27  1  0.289145  0.289958  0.577663  1
  Si  Si28  1  0.999329  0.301649  0.303712  1
  As  As29  1  0.749057  0.749255  0.999990  1
