# generated using pymatgen
data_YTaNb5Cl18
_symmetry_space_group_name_H-M   'P 1'
_cell_length_a   10.17509456
_cell_length_b   10.17506557
_cell_length_c   10.17742000
_cell_angle_alpha   55.96703760
_cell_angle_beta   55.96471292
_cell_angle_gamma   55.97899420
_symmetry_Int_Tables_number   1
_chemical_formula_structural   YTaNb5Cl18
_chemical_formula_sum   'Y1 Ta1 Nb5 Cl18'
_cell_volume   675.50476288
_cell_formula_units_Z   1
loop_
 _symmetry_equiv_pos_site_id
 _symmetry_equiv_pos_as_xyz
  1  'x, y, z'
loop_
 _atom_site_type_symbol
 _atom_site_label
 _atom_site_symmetry_multiplicity
 _atom_site_fract_x
 _atom_site_fract_y
 _atom_site_fract_z
 _atom_site_occupancy
  Y  Y0  1  0.999361  0.999797  0.000328  1
  Ta  Ta1  1  0.408267  0.300436  0.649781  1
  Nb  Nb2  1  0.350044  0.592097  0.699827  1
  Nb  Nb3  1  0.700189  0.350146  0.591671  1
  Nb  Nb4  1  0.300123  0.650295  0.407971  1
  Nb  Nb5  1  0.650260  0.408360  0.299797  1
  Nb  Nb6  1  0.592258  0.700501  0.349472  1
  Cl  Cl7  1  0.566594  0.161329  0.444542  1
  Cl  Cl8  1  0.224683  0.368816  0.907052  1
  Cl  Cl9  1  0.908722  0.223444  0.370625  1
  Cl  Cl10  1  0.370556  0.908590  0.223718  1
  Cl  Cl11  1  0.776463  0.629356  0.091322  1
  Cl  Cl12  1  0.091206  0.776325  0.629541  1
  Cl  Cl13  1  0.703002  0.958503  0.159875  1
  Cl  Cl14  1  0.957900  0.159622  0.703402  1
  Cl  Cl15  1  0.160260  0.703058  0.957992  1
  Cl  Cl16  1  0.298160  0.045239  0.837628  1
  Cl  Cl17  1  0.042167  0.839603  0.296846  1
  Cl  Cl18  1  0.839875  0.296287  0.042424  1
  Cl  Cl19  1  0.558138  0.431323  0.838890  1
  Cl  Cl20  1  0.162961  0.439277  0.570219  1
  Cl  Cl21  1  0.441785  0.568490  0.161222  1
  Cl  Cl22  1  0.431390  0.838753  0.558223  1
  Cl  Cl23  1  0.838882  0.558138  0.431439  1
  Cl  Cl24  1  0.626754  0.092216  0.776192  1
