# generated using pymatgen
data_DyY(Ho2Os)2
_symmetry_space_group_name_H-M   'P 1'
_cell_length_a   6.30576900
_cell_length_b   7.38045100
_cell_length_c   9.04458200
_cell_angle_alpha   90.00000000
_cell_angle_beta   90.00000000
_cell_angle_gamma   90.00000000
_symmetry_Int_Tables_number   1
_chemical_formula_structural   DyY(Ho2Os)2
_chemical_formula_sum   'Dy2 Y2 Ho8 Os4'
_cell_volume   420.92959248
_cell_formula_units_Z   2
loop_
 _symmetry_equiv_pos_site_id
 _symmetry_equiv_pos_as_xyz
  1  'x, y, z'
loop_
 _atom_site_type_symbol
 _atom_site_label
 _atom_site_symmetry_multiplicity
 _atom_site_fract_x
 _atom_site_fract_y
 _atom_site_fract_z
 _atom_site_occupancy
  Dy  Dy0  1  0.130554  0.461079  0.750000  1
  Dy  Dy1  1  0.369446  0.961079  0.750000  1
  Y  Y2  1  0.870581  0.538030  0.250000  1
  Y  Y3  1  0.629419  0.038030  0.250000  1
  Ho  Ho4  1  0.331275  0.675638  0.062305  1
  Ho  Ho5  1  0.168725  0.175638  0.437695  1
  Ho  Ho6  1  0.668487  0.324316  0.563373  1
  Ho  Ho7  1  0.831513  0.824316  0.936627  1
  Ho  Ho8  1  0.668487  0.324316  0.936627  1
  Ho  Ho9  1  0.831513  0.824316  0.563373  1
  Ho  Ho10  1  0.331275  0.675638  0.437695  1
  Ho  Ho11  1  0.168725  0.175638  0.062305  1
  Os  Os12  1  0.043984  0.884557  0.250000  1
  Os  Os13  1  0.456016  0.384557  0.250000  1
  Os  Os14  1  0.960561  0.116430  0.750000  1
  Os  Os15  1  0.539439  0.616430  0.750000  1
