# generated using pymatgen
data_Tb15Ho5(CoPd2)4
_symmetry_space_group_name_H-M   'P 1'
_cell_length_a   7.92992201
_cell_length_b   8.22085802
_cell_length_c   11.79950204
_cell_angle_alpha   89.99234097
_cell_angle_beta   89.99508398
_cell_angle_gamma   89.99840969
_symmetry_Int_Tables_number   1
_chemical_formula_structural   Tb15Ho5(CoPd2)4
_chemical_formula_sum   'Tb15 Ho5 Co4 Pd8'
_cell_volume   769.21853002
_cell_formula_units_Z   1
loop_
 _symmetry_equiv_pos_site_id
 _symmetry_equiv_pos_as_xyz
  1  'x, y, z'
loop_
 _atom_site_type_symbol
 _atom_site_label
 _atom_site_symmetry_multiplicity
 _atom_site_fract_x
 _atom_site_fract_y
 _atom_site_fract_z
 _atom_site_occupancy
  Tb  Tb0  1  0.164344  0.749557  0.214574  1
  Tb  Tb1  1  0.664202  0.250557  0.285569  1
  Tb  Tb2  1  0.835474  0.249827  0.785434  1
  Tb  Tb3  1  0.336255  0.750150  0.714373  1
  Tb  Tb4  1  0.460823  0.750067  0.004723  1
  Tb  Tb5  1  0.960340  0.250352  0.495391  1
  Tb  Tb6  1  0.539317  0.250121  0.995300  1
  Tb  Tb7  1  0.038636  0.749499  0.504740  1
  Tb  Tb8  1  0.629849  0.749349  0.306683  1
  Tb  Tb9  1  0.129546  0.250366  0.193581  1
  Tb  Tb10  1  0.370770  0.250040  0.693571  1
  Tb  Tb11  1  0.870220  0.750219  0.805917  1
  Tb  Tb12  1  0.828638  0.965490  0.080566  1
  Tb  Tb13  1  0.328497  0.034704  0.419379  1
  Tb  Tb14  1  0.171320  0.464921  0.919425  1
  Ho  Ho15  1  0.670791  0.534805  0.580805  1
  Ho  Ho16  1  0.170800  0.034625  0.919200  1
  Ho  Ho17  1  0.671060  0.965342  0.580778  1
  Ho  Ho18  1  0.829061  0.534198  0.080655  1
  Ho  Ho19  1  0.329333  0.465573  0.419506  1
  Co  Co20  1  0.436674  0.749797  0.495669  1
  Co  Co21  1  0.935740  0.249975  0.004594  1
  Co  Co22  1  0.564486  0.250264  0.504647  1
  Co  Co23  1  0.064037  0.749855  0.995364  1
  Pd  Pd24  1  0.934983  0.982764  0.329617  1
  Pd  Pd25  1  0.434979  0.017370  0.170469  1
  Pd  Pd26  1  0.064542  0.482805  0.670267  1
  Pd  Pd27  1  0.565222  0.517431  0.829338  1
  Pd  Pd28  1  0.064836  0.017307  0.670516  1
  Pd  Pd29  1  0.564949  0.982729  0.829362  1
  Pd  Pd30  1  0.935173  0.517235  0.329401  1
  Pd  Pd31  1  0.435102  0.482708  0.170589  1
