# generated using pymatgen
data_HoSiNi3Pt
_symmetry_space_group_name_H-M   'P 1'
_cell_length_a   4.74295415
_cell_length_b   5.01760556
_cell_length_c   3.99614100
_cell_angle_alpha   90.00000000
_cell_angle_beta   90.00000000
_cell_angle_gamma   115.13741301
_symmetry_Int_Tables_number   1
_chemical_formula_structural   HoSiNi3Pt
_chemical_formula_sum   'Ho1 Si1 Ni3 Pt1'
_cell_volume   86.09436826
_cell_formula_units_Z   1
loop_
 _symmetry_equiv_pos_site_id
 _symmetry_equiv_pos_as_xyz
  1  'x, y, z'
loop_
 _atom_site_type_symbol
 _atom_site_label
 _atom_site_symmetry_multiplicity
 _atom_site_fract_x
 _atom_site_fract_y
 _atom_site_fract_z
 _atom_site_occupancy
  Ho  Ho0  1  0.000000  0.000000  0.000000  1
  Si  Si1  1  0.500000  0.500000  0.500000  1
  Ni  Ni2  1  0.322548  0.627094  0.000000  1
  Ni  Ni3  1  0.677452  0.372906  0.000000  1
  Ni  Ni4  1  0.000000  0.500000  0.500000  1
  Pt  Pt5  1  0.500000  0.000000  0.500000  1
