# generated using pymatgen
data_Ba4Yb4Si3Pb
_symmetry_space_group_name_H-M   'P 1'
_cell_length_a   5.11711300
_cell_length_b   8.62795659
_cell_length_c   9.32622198
_cell_angle_alpha   90.85236208
_cell_angle_beta   90.00000000
_cell_angle_gamma   90.00000000
_symmetry_Int_Tables_number   1
_chemical_formula_structural   Ba4Yb4Si3Pb
_chemical_formula_sum   'Ba4 Yb4 Si3 Pb1'
_cell_volume   411.70927286
_cell_formula_units_Z   1
loop_
 _symmetry_equiv_pos_site_id
 _symmetry_equiv_pos_as_xyz
  1  'x, y, z'
loop_
 _atom_site_type_symbol
 _atom_site_label
 _atom_site_symmetry_multiplicity
 _atom_site_fract_x
 _atom_site_fract_y
 _atom_site_fract_z
 _atom_site_occupancy
  Ba  Ba0  1  0.250000  0.530421  0.318221  1
  Ba  Ba1  1  0.250000  0.023884  0.169575  1
  Ba  Ba2  1  0.750000  0.481704  0.684290  1
  Ba  Ba3  1  0.750000  0.969760  0.825643  1
  Yb  Yb4  1  0.250000  0.642207  0.926766  1
  Yb  Yb5  1  0.250000  0.137117  0.588068  1
  Yb  Yb6  1  0.750000  0.362632  0.062862  1
  Yb  Yb7  1  0.750000  0.846244  0.426359  1
  Si  Si8  1  0.250000  0.283162  0.893700  1
  Si  Si9  1  0.250000  0.778916  0.611157  1
  Si  Si10  1  0.750000  0.719734  0.103952  1
  Pb  Pb11  1  0.750000  0.224218  0.389411  1
