# generated using pymatgen
data_CaDy2Ho4Co6Sn23
_symmetry_space_group_name_H-M   'P 1'
_cell_length_a   9.69507566
_cell_length_b   9.69711802
_cell_length_c   9.93432900
_cell_angle_alpha   90.00000000
_cell_angle_beta   90.02108610
_cell_angle_gamma   120.00696379
_symmetry_Int_Tables_number   1
_chemical_formula_structural   CaDy2Ho4Co6Sn23
_chemical_formula_sum   'Ca1 Dy2 Ho4 Co6 Sn23'
_cell_volume   808.78397091
_cell_formula_units_Z   1
loop_
 _symmetry_equiv_pos_site_id
 _symmetry_equiv_pos_as_xyz
  1  'x, y, z'
loop_
 _atom_site_type_symbol
 _atom_site_label
 _atom_site_symmetry_multiplicity
 _atom_site_fract_x
 _atom_site_fract_y
 _atom_site_fract_z
 _atom_site_occupancy
  Ca  Ca0  1  0.999955  0.999978  0.000157  1
  Dy  Dy1  1  0.520368  0.479627  0.694309  1
  Dy  Dy2  1  0.520368  0.040740  0.694309  1
  Ho  Ho3  1  0.959912  0.479956  0.694521  1
  Ho  Ho4  1  0.040092  0.520046  0.305403  1
  Ho  Ho5  1  0.479874  0.959889  0.305448  1
  Ho  Ho6  1  0.479874  0.519984  0.305448  1
  Co  Co7  1  0.169203  0.830361  0.800522  1
  Co  Co8  1  0.169203  0.338841  0.800522  1
  Co  Co9  1  0.661481  0.830741  0.800642  1
  Co  Co10  1  0.338692  0.169346  0.199394  1
  Co  Co11  1  0.830611  0.661170  0.199589  1
  Co  Co12  1  0.830611  0.169440  0.199589  1
  Sn  Sn13  1  0.666609  0.333303  0.185108  1
  Sn  Sn14  1  0.667311  0.333656  0.881846  1
  Sn  Sn15  1  0.333376  0.666688  0.118802  1
  Sn  Sn16  1  0.346245  0.346280  0.000008  1
  Sn  Sn17  1  0.000044  0.653774  0.000081  1
  Sn  Sn18  1  0.653746  0.000082  0.000077  1
  Sn  Sn19  1  0.653746  0.653664  0.000077  1
  Sn  Sn20  1  0.333333  0.666667  0.815043  1
  Sn  Sn21  1  0.436995  0.218498  0.453835  1
  Sn  Sn22  1  0.218313  0.781199  0.545637  1
  Sn  Sn23  1  0.218313  0.437111  0.545637  1
  Sn  Sn24  1  0.562815  0.781406  0.545523  1
  Sn  Sn25  1  0.117367  0.882601  0.273456  1
  Sn  Sn26  1  0.781571  0.562870  0.454042  1
  Sn  Sn27  1  0.781571  0.218704  0.454042  1
  Sn  Sn28  1  0.346245  0.999964  0.000008  1
  Sn  Sn29  1  0.117367  0.234765  0.273456  1
  Sn  Sn30  1  0.765457  0.882728  0.273323  1
  Sn  Sn31  1  0.233963  0.116981  0.726718  1
  Sn  Sn32  1  0.882868  0.765400  0.726690  1
  Sn  Sn33  1  0.882868  0.117468  0.726690  1
  Sn  Sn34  1  0.999594  0.999798  0.499964  1
  Sn  Sn35  1  0.000044  0.346271  0.000081  1
