# generated using pymatgen
data_KCu9Si4
_symmetry_space_group_name_H-M   'P 1'
_cell_length_a   8.20640689
_cell_length_b   8.20640425
_cell_length_c   8.20710566
_cell_angle_alpha   120.49880968
_cell_angle_beta   120.49876479
_cell_angle_gamma   89.10814693
_symmetry_Int_Tables_number   1
_chemical_formula_structural   KCu9Si4
_chemical_formula_sum   'K2 Cu18 Si8'
_cell_volume   387.92988283
_cell_formula_units_Z   2
loop_
 _symmetry_equiv_pos_site_id
 _symmetry_equiv_pos_as_xyz
  1  'x, y, z'
loop_
 _atom_site_type_symbol
 _atom_site_label
 _atom_site_symmetry_multiplicity
 _atom_site_fract_x
 _atom_site_fract_y
 _atom_site_fract_z
 _atom_site_occupancy
  K  K0  1  0.750001  0.750000  0.000000  1
  K  K1  1  0.249999  0.250000  0.000000  1
  Cu  Cu2  1  0.435432  0.704638  0.140082  1
  Cu  Cu3  1  0.704669  0.564549  0.269189  1
  Cu  Cu4  1  0.295331  0.435451  0.730811  1
  Cu  Cu5  1  0.935450  0.795330  0.730809  1
  Cu  Cu6  1  0.564568  0.295362  0.859918  1
  Cu  Cu7  1  0.306424  0.559787  0.500004  1
  Cu  Cu8  1  0.059787  0.806425  0.500005  1
  Cu  Cu9  1  0.693576  0.440213  0.499996  1
  Cu  Cu10  1  0.940213  0.193575  0.499995  1
  Cu  Cu11  1  0.440239  0.940239  0.746689  1
  Cu  Cu12  1  0.193549  0.693550  0.253292  1
  Cu  Cu13  1  0.559761  0.059761  0.253311  1
  Cu  Cu14  1  0.204640  0.935432  0.140082  1
  Cu  Cu15  1  0.064550  0.204670  0.269191  1
  Cu  Cu16  1  0.000000  0.500000  0.500000  1
  Cu  Cu17  1  0.500000  0.000000  0.500000  1
  Cu  Cu18  1  0.806451  0.306450  0.746708  1
  Cu  Cu19  1  0.795360  0.064568  0.859918  1
  Si  Si20  1  0.292114  0.792114  0.852781  1
  Si  Si21  1  0.060700  0.560700  0.852803  1
  Si  Si22  1  0.560686  0.707973  0.500053  1
  Si  Si23  1  0.792026  0.939313  0.499947  1
  Si  Si24  1  0.439314  0.292027  0.499947  1
  Si  Si25  1  0.939300  0.439300  0.147197  1
  Si  Si26  1  0.707886  0.207886  0.147219  1
  Si  Si27  1  0.207974  0.060687  0.500053  1
