# generated using pymatgen
data_Yb4Sm4Sc12Si15Pt
_symmetry_space_group_name_H-M   'P 1'
_cell_length_a   7.14402761
_cell_length_b   7.48933237
_cell_length_c   14.10704102
_cell_angle_alpha   89.96444209
_cell_angle_beta   89.89125122
_cell_angle_gamma   89.95695141
_symmetry_Int_Tables_number   1
_chemical_formula_structural   Yb4Sm4Sc12Si15Pt
_chemical_formula_sum   'Yb4 Sm4 Sc12 Si15 Pt1'
_cell_volume   754.78136612
_cell_formula_units_Z   1
loop_
 _symmetry_equiv_pos_site_id
 _symmetry_equiv_pos_as_xyz
  1  'x, y, z'
loop_
 _atom_site_type_symbol
 _atom_site_label
 _atom_site_symmetry_multiplicity
 _atom_site_fract_x
 _atom_site_fract_y
 _atom_site_fract_z
 _atom_site_occupancy
  Yb  Yb0  1  0.009294  0.173158  0.095044  1
  Yb  Yb1  1  0.992729  0.828105  0.905377  1
  Yb  Yb2  1  0.489373  0.676431  0.905442  1
  Yb  Yb3  1  0.991610  0.827097  0.595528  1
  Sm  Sm4  1  0.511412  0.325855  0.096823  1
  Sm  Sm5  1  0.011651  0.174399  0.405210  1
  Sm  Sm6  1  0.513249  0.325748  0.403121  1
  Sm  Sm7  1  0.485281  0.676821  0.594750  1
  Sc  Sc8  1  0.155636  0.507157  0.751940  1
  Sc  Sc9  1  0.841364  0.496045  0.249195  1
  Sc  Sc10  1  0.338138  0.005527  0.248637  1
  Sc  Sc11  1  0.667777  0.992632  0.750424  1
  Sc  Sc12  1  0.323041  0.171251  0.625187  1
  Sc  Sc13  1  0.672791  0.826679  0.374479  1
  Sc  Sc14  1  0.172424  0.678231  0.375217  1
  Sc  Sc15  1  0.674793  0.827253  0.124362  1
  Sc  Sc16  1  0.829629  0.322788  0.626613  1
  Sc  Sc17  1  0.321898  0.170174  0.873934  1
  Sc  Sc18  1  0.828003  0.322619  0.874601  1
  Sc  Sc19  1  0.172016  0.678342  0.124753  1
  Si  Si20  1  0.966685  0.879309  0.250702  1
  Si  Si21  1  0.469238  0.620887  0.249874  1
  Si  Si22  1  0.526090  0.385007  0.749591  1
  Si  Si23  1  0.288420  0.874755  0.748479  1
  Si  Si24  1  0.715668  0.122265  0.250816  1
  Si  Si25  1  0.216366  0.379214  0.250967  1
  Si  Si26  1  0.775570  0.616549  0.749135  1
  Si  Si27  1  0.154682  0.463663  0.537472  1
  Si  Si28  1  0.848715  0.536134  0.460019  1
  Si  Si29  1  0.350330  0.966679  0.458220  1
  Si  Si30  1  0.850600  0.535149  0.041004  1
  Si  Si31  1  0.654762  0.035619  0.538619  1
  Si  Si32  1  0.152284  0.463390  0.961472  1
  Si  Si33  1  0.649907  0.036923  0.960811  1
  Si  Si34  1  0.351343  0.967058  0.042375  1
  Pt  Pt35  1  0.027235  0.111087  0.749807  1
