# generated using pymatgen
data_Er5Tm5Rh4
_symmetry_space_group_name_H-M   'P 1'
_cell_length_a   6.35261936
_cell_length_b   7.12364457
_cell_length_c   8.51970064
_cell_angle_alpha   96.84397114
_cell_angle_beta   111.83905660
_cell_angle_gamma   89.96014414
_symmetry_Int_Tables_number   1
_chemical_formula_structural   Er5Tm5Rh4
_chemical_formula_sum   'Er5 Tm5 Rh4'
_cell_volume   354.93036616
_cell_formula_units_Z   1
loop_
 _symmetry_equiv_pos_site_id
 _symmetry_equiv_pos_as_xyz
  1  'x, y, z'
loop_
 _atom_site_type_symbol
 _atom_site_label
 _atom_site_symmetry_multiplicity
 _atom_site_fract_x
 _atom_site_fract_y
 _atom_site_fract_z
 _atom_site_occupancy
  Er  Er0  1  0.790722  0.082181  0.812085  1
  Er  Er1  1  0.978191  0.418071  0.188012  1
  Er  Er2  1  0.209442  0.917512  0.187811  1
  Er  Er3  1  0.021473  0.582182  0.811841  1
  Er  Er4  1  0.209318  0.186069  0.561308  1
  Tm  Tm5  1  0.647571  0.314019  0.438075  1
  Tm  Tm6  1  0.790412  0.813836  0.438249  1
  Tm  Tm7  1  0.352443  0.686110  0.561855  1
  Tm  Tm8  1  0.423322  0.250174  0.000298  1
  Tm  Tm9  1  0.576797  0.749968  0.999960  1
  Rh  Rh10  1  0.597503  0.426782  0.778970  1
  Rh  Rh11  1  0.818080  0.073659  0.221188  1
  Rh  Rh12  1  0.403264  0.573716  0.221610  1
  Rh  Rh13  1  0.181463  0.925722  0.778738  1
