# generated using pymatgen
data_YbTmAl3Ir
_symmetry_space_group_name_H-M   'P 1'
_cell_length_a   5.50780200
_cell_length_b   5.50780111
_cell_length_c   8.67289400
_cell_angle_alpha   90.00000000
_cell_angle_beta   90.00000000
_cell_angle_gamma   119.99999334
_symmetry_Int_Tables_number   1
_chemical_formula_structural   YbTmAl3Ir
_chemical_formula_sum   'Yb2 Tm2 Al6 Ir2'
_cell_volume   227.85117259
_cell_formula_units_Z   2
loop_
 _symmetry_equiv_pos_site_id
 _symmetry_equiv_pos_as_xyz
  1  'x, y, z'
loop_
 _atom_site_type_symbol
 _atom_site_label
 _atom_site_symmetry_multiplicity
 _atom_site_fract_x
 _atom_site_fract_y
 _atom_site_fract_z
 _atom_site_occupancy
  Yb  Yb0  1  0.333333  0.666666  0.556119  1
  Yb  Yb1  1  0.333333  0.666666  0.943880  1
  Tm  Tm2  1  0.666666  0.333334  0.052372  1
  Tm  Tm3  1  0.666666  0.333334  0.447628  1
  Al  Al4  1  0.162436  0.324874  0.250000  1
  Al  Al5  1  0.162437  0.837564  0.250000  1
  Al  Al6  1  0.675127  0.837564  0.250000  1
  Al  Al7  1  0.326578  0.163288  0.750000  1
  Al  Al8  1  0.836709  0.163288  0.750000  1
  Al  Al9  1  0.836710  0.673422  0.750000  1
  Ir  Ir10  1  0.000000  0.000000  0.000347  1
  Ir  Ir11  1  0.000000  0.000000  0.499653  1
