# generated using pymatgen
data_Dy2HoLu(NiAs)4
_symmetry_space_group_name_H-M   'P 1'
_cell_length_a   4.02627000
_cell_length_b   4.02626991
_cell_length_c   15.36741300
_cell_angle_alpha   90.00000000
_cell_angle_beta   90.00000000
_cell_angle_gamma   120.00000073
_symmetry_Int_Tables_number   1
_chemical_formula_structural   Dy2HoLu(NiAs)4
_chemical_formula_sum   'Dy2 Ho1 Lu1 Ni4 As4'
_cell_volume   215.74322793
_cell_formula_units_Z   1
loop_
 _symmetry_equiv_pos_site_id
 _symmetry_equiv_pos_as_xyz
  1  'x, y, z'
loop_
 _atom_site_type_symbol
 _atom_site_label
 _atom_site_symmetry_multiplicity
 _atom_site_fract_x
 _atom_site_fract_y
 _atom_site_fract_z
 _atom_site_occupancy
  Dy  Dy0  1  0.000000  0.000000  0.997087  1
  Dy  Dy1  1  0.000000  0.000000  0.502913  1
  Ho  Ho2  1  0.000000  0.000000  0.250000  1
  Lu  Lu3  1  0.000000  0.000000  0.750000  1
  Ni  Ni4  1  0.333333  0.666667  0.130280  1
  Ni  Ni5  1  0.666667  0.333333  0.858434  1
  Ni  Ni6  1  0.666667  0.333333  0.641566  1
  Ni  Ni7  1  0.333333  0.666667  0.369720  1
  As  As8  1  0.333333  0.666667  0.622559  1
  As  As9  1  0.666667  0.333333  0.379338  1
  As  As10  1  0.666667  0.333333  0.120662  1
  As  As11  1  0.333333  0.666667  0.877441  1
