# generated using pymatgen
data_Na3Sc(IO3)6
_symmetry_space_group_name_H-M   'P 1'
_cell_length_a   6.82631695
_cell_length_b   6.89813911
_cell_length_c   10.43805675
_cell_angle_alpha   99.25037653
_cell_angle_beta   108.31888310
_cell_angle_gamma   101.03648109
_symmetry_Int_Tables_number   1
_chemical_formula_structural   Na3Sc(IO3)6
_chemical_formula_sum   'Na3 Sc1 I6 O18'
_cell_volume   444.91898966
_cell_formula_units_Z   1
loop_
 _symmetry_equiv_pos_site_id
 _symmetry_equiv_pos_as_xyz
  1  'x, y, z'
loop_
 _atom_site_type_symbol
 _atom_site_label
 _atom_site_symmetry_multiplicity
 _atom_site_fract_x
 _atom_site_fract_y
 _atom_site_fract_z
 _atom_site_occupancy
  Na  Na0  1  0.397708  0.539361  0.304794  1
  Na  Na1  1  0.602292  0.460639  0.695206  1
  Na  Na2  1  0.000000  0.500000  0.500000  1
  Sc  Sc3  1  0.000000  0.000000  0.000000  1
  I  I4  1  0.566060  0.033596  0.197741  1
  I  I5  1  0.433940  0.966404  0.802259  1
  I  I6  1  0.788414  0.529223  0.108605  1
  I  I7  1  0.211586  0.470777  0.891395  1
  I  I8  1  0.149905  0.070537  0.387757  1
  I  I9  1  0.850095  0.929463  0.612243  1
  O  O10  1  0.583947  0.654319  0.134261  1
  O  O11  1  0.416053  0.345681  0.865739  1
  O  O12  1  0.992418  0.362788  0.724272  1
  O  O13  1  0.007582  0.637212  0.275728  1
  O  O14  1  0.600654  0.310184  0.241890  1
  O  O15  1  0.399346  0.689816  0.758110  1
  O  O16  1  0.056767  0.109445  0.208756  1
  O  O17  1  0.943233  0.890555  0.791244  1
  O  O18  1  0.311159  0.959442  0.041516  1
  O  O19  1  0.688841  0.040558  0.958484  1
  O  O20  1  0.301327  0.332496  0.473782  1
  O  O21  1  0.698673  0.667504  0.526218  1
  O  O22  1  0.894791  0.101474  0.409545  1
  O  O23  1  0.105209  0.898526  0.590455  1
  O  O24  1  0.554337  0.047093  0.678659  1
  O  O25  1  0.445663  0.952907  0.321341  1
  O  O26  1  0.113327  0.315475  0.999954  1
  O  O27  1  0.886673  0.684525  0.000046  1
