# generated using pymatgen
data_Pu3Te4
_symmetry_space_group_name_H-M   'P 1'
_cell_length_a   4.35250100
_cell_length_b   7.56147924
_cell_length_c   7.53576900
_cell_angle_alpha   71.97326450
_cell_angle_beta   90.00000000
_cell_angle_gamma   90.00000000
_symmetry_Int_Tables_number   1
_chemical_formula_structural   Pu3Te4
_chemical_formula_sum   'Pu3 Te4'
_cell_volume   235.83792699
_cell_formula_units_Z   1
loop_
 _symmetry_equiv_pos_site_id
 _symmetry_equiv_pos_as_xyz
  1  'x, y, z'
loop_
 _atom_site_type_symbol
 _atom_site_label
 _atom_site_symmetry_multiplicity
 _atom_site_fract_x
 _atom_site_fract_y
 _atom_site_fract_z
 _atom_site_occupancy
  Pu  Pu0  1  0.000000  0.500000  0.500000  1
  Pu  Pu1  1  0.000000  0.000000  0.000000  1
  Pu  Pu2  1  0.500000  0.500000  0.000000  1
  Te  Te3  1  0.500000  0.756742  0.257994  1
  Te  Te4  1  0.000000  0.249026  0.251439  1
  Te  Te5  1  0.500000  0.243258  0.742006  1
  Te  Te6  1  0.000000  0.750974  0.748561  1
