# generated using pymatgen
data_Ce12Al6Os3Ru2Au
_symmetry_space_group_name_H-M   'P 1'
_cell_length_a   7.83579495
_cell_length_b   7.85610348
_cell_length_c   9.83655303
_cell_angle_alpha   90.88618620
_cell_angle_beta   89.55577640
_cell_angle_gamma   120.08576857
_symmetry_Int_Tables_number   1
_chemical_formula_structural   Ce12Al6Os3Ru2Au
_chemical_formula_sum   'Ce12 Al6 Os3 Ru2 Au1'
_cell_volume   523.88490538
_cell_formula_units_Z   1
loop_
 _symmetry_equiv_pos_site_id
 _symmetry_equiv_pos_as_xyz
  1  'x, y, z'
loop_
 _atom_site_type_symbol
 _atom_site_label
 _atom_site_symmetry_multiplicity
 _atom_site_fract_x
 _atom_site_fract_y
 _atom_site_fract_z
 _atom_site_occupancy
  Ce  Ce0  1  0.000000  0.601229  0.500691  1
  Ce  Ce1  1  0.595516  0.002866  0.502305  1
  Ce  Ce2  1  0.404484  0.407351  0.502305  1
  Ce  Ce3  1  0.000000  0.381547  0.023677  1
  Ce  Ce4  1  0.420137  0.004680  0.005184  1
  Ce  Ce5  1  0.579863  0.584544  0.005184  1
  Ce  Ce6  1  0.000000  0.730399  0.173511  1
  Ce  Ce7  1  0.736236  0.996952  0.175484  1
  Ce  Ce8  1  0.263764  0.260716  0.175484  1
  Ce  Ce9  1  0.000000  0.260490  0.674903  1
  Ce  Ce10  1  0.275140  0.012209  0.661308  1
  Ce  Ce11  1  0.724860  0.737069  0.661308  1
  Al  Al12  1  0.666514  0.332332  0.276125  1
  Al  Al13  1  0.333486  0.665819  0.276125  1
  Al  Al14  1  0.333311  0.666277  0.774383  1
  Al  Al15  1  0.666689  0.332965  0.774383  1
  Al  Al16  1  0.000000  0.001667  0.418929  1
  Al  Al17  1  0.000000  0.003485  0.917551  1
  Os  Os18  1  0.000000  0.337836  0.340803  1
  Os  Os19  1  0.336122  0.001077  0.334944  1
  Os  Os20  1  0.663878  0.664955  0.334944  1
  Ru  Ru21  1  0.657046  0.000482  0.839777  1
  Ru  Ru22  1  0.342954  0.343435  0.839777  1
  Au  Au23  1  0.000000  0.669619  0.840165  1
