# generated using pymatgen
data_Hf4TaVGa6
_symmetry_space_group_name_H-M   'P 1'
_cell_length_a   5.45091900
_cell_length_b   8.45929200
_cell_length_c   9.06351100
_cell_angle_alpha   90.00000000
_cell_angle_beta   90.00000000
_cell_angle_gamma   90.00000000
_symmetry_Int_Tables_number   1
_chemical_formula_structural   Hf4TaVGa6
_chemical_formula_sum   'Hf8 Ta2 V2 Ga12'
_cell_volume   417.92678976
_cell_formula_units_Z   2
loop_
 _symmetry_equiv_pos_site_id
 _symmetry_equiv_pos_as_xyz
  1  'x, y, z'
loop_
 _atom_site_type_symbol
 _atom_site_label
 _atom_site_symmetry_multiplicity
 _atom_site_fract_x
 _atom_site_fract_y
 _atom_site_fract_z
 _atom_site_occupancy
  Hf  Hf0  1  0.754473  0.470468  0.621069  1
  Hf  Hf1  1  0.254473  0.529532  0.378931  1
  Hf  Hf2  1  0.745527  0.970468  0.378931  1
  Hf  Hf3  1  0.245527  0.029532  0.621069  1
  Hf  Hf4  1  0.749337  0.364873  0.181605  1
  Hf  Hf5  1  0.249337  0.635127  0.818395  1
  Hf  Hf6  1  0.750663  0.864873  0.818395  1
  Hf  Hf7  1  0.250663  0.135127  0.181605  1
  Ta  Ta8  1  0.000000  0.250000  0.890564  1
  Ta  Ta9  1  0.500000  0.750000  0.109436  1
  V  V10  1  0.000000  0.750000  0.108421  1
  V  V11  1  0.500000  0.250000  0.891579  1
  Ga  Ga12  1  0.000000  0.750000  0.570372  1
  Ga  Ga13  1  0.500000  0.250000  0.429628  1
  Ga  Ga14  1  0.000000  0.250000  0.429251  1
  Ga  Ga15  1  0.500000  0.750000  0.570749  1
  Ga  Ga16  1  0.749544  0.044085  0.078104  1
  Ga  Ga17  1  0.249544  0.955915  0.921896  1
  Ga  Ga18  1  0.750456  0.544085  0.921896  1
  Ga  Ga19  1  0.250456  0.455915  0.078104  1
  Ga  Ga20  1  0.741485  0.134760  0.658519  1
  Ga  Ga21  1  0.241485  0.865240  0.341481  1
  Ga  Ga22  1  0.758515  0.634760  0.341481  1
  Ga  Ga23  1  0.258515  0.365240  0.658519  1
