# generated using pymatgen
data_Tb10In8Ni3Rh
_symmetry_space_group_name_H-M   'P 1'
_cell_length_a   3.61282400
_cell_length_b   8.08228487
_cell_length_c   18.07694723
_cell_angle_alpha   90.07817104
_cell_angle_beta   90.00000000
_cell_angle_gamma   90.00000000
_symmetry_Int_Tables_number   1
_chemical_formula_structural   Tb10In8Ni3Rh
_chemical_formula_sum   'Tb10 In8 Ni3 Rh1'
_cell_volume   527.84406760
_cell_formula_units_Z   1
loop_
 _symmetry_equiv_pos_site_id
 _symmetry_equiv_pos_as_xyz
  1  'x, y, z'
loop_
 _atom_site_type_symbol
 _atom_site_label
 _atom_site_symmetry_multiplicity
 _atom_site_fract_x
 _atom_site_fract_y
 _atom_site_fract_z
 _atom_site_occupancy
  Tb  Tb0  1  0.000000  0.500021  0.501409  1
  Tb  Tb1  1  0.000000  0.999925  0.999062  1
  Tb  Tb2  1  0.000000  0.744084  0.280131  1
  Tb  Tb3  1  0.000000  0.255857  0.720158  1
  Tb  Tb4  1  0.000000  0.755685  0.778265  1
  Tb  Tb5  1  0.000000  0.248942  0.222116  1
  Tb  Tb6  1  0.000000  0.617146  0.086099  1
  Tb  Tb7  1  0.000000  0.382783  0.910752  1
  Tb  Tb8  1  0.000000  0.882927  0.588354  1
  Tb  Tb9  1  0.000000  0.115891  0.412495  1
  In  In10  1  0.500000  0.705486  0.929433  1
  In  In11  1  0.500000  0.292503  0.068246  1
  In  In12  1  0.500000  0.794204  0.432550  1
  In  In13  1  0.500000  0.204334  0.568763  1
  In  In14  1  0.500000  0.573022  0.652547  1
  In  In15  1  0.500000  0.427465  0.351259  1
  In  In16  1  0.500000  0.927867  0.152417  1
  In  In17  1  0.500000  0.073111  0.846554  1
  Ni  Ni18  1  0.500000  0.477379  0.803093  1
  Ni  Ni19  1  0.500000  0.977241  0.695978  1
  Ni  Ni20  1  0.500000  0.020133  0.304345  1
  Rh  Rh21  1  0.500000  0.523997  0.195970  1
