# generated using pymatgen
data_LaPrSn8(IrRh)2
_symmetry_space_group_name_H-M   'P 1'
_cell_length_a   4.56009400
_cell_length_b   7.25535700
_cell_length_c   18.71612800
_cell_angle_alpha   90.00000000
_cell_angle_beta   90.00000000
_cell_angle_gamma   90.00000000
_symmetry_Int_Tables_number   1
_chemical_formula_structural   LaPrSn8(IrRh)2
_chemical_formula_sum   'La2 Pr2 Sn16 Ir4 Rh4'
_cell_volume   619.22515222
_cell_formula_units_Z   2
loop_
 _symmetry_equiv_pos_site_id
 _symmetry_equiv_pos_as_xyz
  1  'x, y, z'
loop_
 _atom_site_type_symbol
 _atom_site_label
 _atom_site_symmetry_multiplicity
 _atom_site_fract_x
 _atom_site_fract_y
 _atom_site_fract_z
 _atom_site_occupancy
  La  La0  1  0.250000  0.998494  0.858451  1
  La  La1  1  0.250000  0.501506  0.358451  1
  Pr  Pr2  1  0.750000  0.001269  0.141636  1
  Pr  Pr3  1  0.750000  0.498731  0.641636  1
  Sn  Sn4  1  0.250000  0.302551  0.182199  1
  Sn  Sn5  1  0.250000  0.197449  0.682199  1
  Sn  Sn6  1  0.750000  0.696207  0.817555  1
  Sn  Sn7  1  0.750000  0.803793  0.317555  1
  Sn  Sn8  1  0.250000  0.722266  0.194525  1
  Sn  Sn9  1  0.250000  0.777734  0.694525  1
  Sn  Sn10  1  0.750000  0.279309  0.805054  1
  Sn  Sn11  1  0.750000  0.220691  0.305054  1
  Sn  Sn12  1  0.250000  0.864688  0.032226  1
  Sn  Sn13  1  0.250000  0.635312  0.532226  1
  Sn  Sn14  1  0.750000  0.135673  0.968481  1
  Sn  Sn15  1  0.750000  0.364327  0.468481  1
  Sn  Sn16  1  0.250000  0.519197  0.931713  1
  Sn  Sn17  1  0.250000  0.980803  0.431713  1
  Sn  Sn18  1  0.750000  0.480539  0.068189  1
  Sn  Sn19  1  0.750000  0.019461  0.568189  1
  Ir  Ir20  1  0.250000  0.250676  0.034898  1
  Ir  Ir21  1  0.250000  0.249324  0.534898  1
  Ir  Ir22  1  0.750000  0.749492  0.965429  1
  Ir  Ir23  1  0.750000  0.750508  0.465429  1
  Rh  Rh24  1  0.250000  0.017225  0.286726  1
  Rh  Rh25  1  0.250000  0.482775  0.786726  1
  Rh  Rh26  1  0.750000  0.982449  0.712918  1
  Rh  Rh27  1  0.750000  0.517551  0.212918  1
