# generated using pymatgen
data_Sm3Bi5(Os2O11)2
_symmetry_space_group_name_H-M   'P 1'
_cell_length_a   6.62293025
_cell_length_b   7.56226948
_cell_length_c   9.88295774
_cell_angle_alpha   101.19072396
_cell_angle_beta   92.01767928
_cell_angle_gamma   90.00397568
_symmetry_Int_Tables_number   1
_chemical_formula_structural   Sm3Bi5(Os2O11)2
_chemical_formula_sum   'Sm3 Bi5 Os4 O22'
_cell_volume   485.25747396
_cell_formula_units_Z   1
loop_
 _symmetry_equiv_pos_site_id
 _symmetry_equiv_pos_as_xyz
  1  'x, y, z'
loop_
 _atom_site_type_symbol
 _atom_site_label
 _atom_site_symmetry_multiplicity
 _atom_site_fract_x
 _atom_site_fract_y
 _atom_site_fract_z
 _atom_site_occupancy
  Sm  Sm0  1  0.753509  0.370032  0.480405  1
  Sm  Sm1  1  0.255343  0.632382  0.520282  1
  Sm  Sm2  1  0.761829  0.872906  0.486533  1
  Bi  Bi3  1  0.252420  0.127956  0.514190  1
  Bi  Bi4  1  0.471766  0.956016  0.820246  1
  Bi  Bi5  1  0.525291  0.043596  0.180876  1
  Bi  Bi6  1  0.413879  0.455465  0.825587  1
  Bi  Bi7  1  0.586635  0.544232  0.177904  1
  Os  Os8  1  0.937555  0.702270  0.808820  1
  Os  Os9  1  0.061251  0.297096  0.189690  1
  Os  Os10  1  0.936063  0.203685  0.810352  1
  Os  Os11  1  0.060241  0.796332  0.188887  1
  O  O12  1  0.230815  0.721500  0.764318  1
  O  O13  1  0.768876  0.277656  0.236197  1
  O  O14  1  0.641027  0.677273  0.827519  1
  O  O15  1  0.356624  0.321708  0.169286  1
  O  O16  1  0.641144  0.240314  0.839595  1
  O  O17  1  0.355396  0.759883  0.165347  1
  O  O18  1  0.889645  0.162274  0.602672  1
  O  O19  1  0.100738  0.829117  0.397147  1
  O  O20  1  0.227541  0.160676  0.763867  1
  O  O21  1  0.769844  0.840533  0.238540  1
  O  O22  1  0.904429  0.640997  0.599654  1
  O  O23  1  0.097560  0.367699  0.396634  1
  O  O24  1  0.008930  0.544464  0.179841  1
  O  O25  1  0.982896  0.453789  0.813422  1
  O  O26  1  0.996361  0.771675  0.999304  1
  O  O27  1  0.000710  0.227990  0.999688  1
  O  O28  1  0.569680  0.600920  0.397417  1
  O  O29  1  0.434581  0.397459  0.605447  1
  O  O30  1  0.140748  0.052580  0.213704  1
  O  O31  1  0.858911  0.946923  0.785077  1
  O  O32  1  0.548279  0.099415  0.400498  1
  O  O33  1  0.459482  0.903187  0.601055  1
