# generated using pymatgen
data_Ca3Pr17(Ga2Pb)4
_symmetry_space_group_name_H-M   'P 1'
_cell_length_a   8.17261700
_cell_length_b   8.17261700
_cell_length_c   14.57680800
_cell_angle_alpha   90.00000000
_cell_angle_beta   90.00000000
_cell_angle_gamma   90.00000000
_symmetry_Int_Tables_number   1
_chemical_formula_structural   Ca3Pr17(Ga2Pb)4
_chemical_formula_sum   'Ca3 Pr17 Ga8 Pb4'
_cell_volume   973.60932960
_cell_formula_units_Z   1
loop_
 _symmetry_equiv_pos_site_id
 _symmetry_equiv_pos_as_xyz
  1  'x, y, z'
loop_
 _atom_site_type_symbol
 _atom_site_label
 _atom_site_symmetry_multiplicity
 _atom_site_fract_x
 _atom_site_fract_y
 _atom_site_fract_z
 _atom_site_occupancy
  Ca  Ca0  1  0.000000  0.500000  0.741250  1
  Ca  Ca1  1  0.000000  0.500000  0.246813  1
  Ca  Ca2  1  0.500000  0.000000  0.252249  1
  Pr  Pr3  1  0.824680  0.834021  0.607179  1
  Pr  Pr4  1  0.168591  0.833904  0.106476  1
  Pr  Pr5  1  0.166260  0.829286  0.392066  1
  Pr  Pr6  1  0.833740  0.170714  0.392066  1
  Pr  Pr7  1  0.670714  0.666260  0.392066  1
  Pr  Pr8  1  0.665979  0.324680  0.607179  1
  Pr  Pr9  1  0.334021  0.675320  0.607179  1
  Pr  Pr10  1  0.666096  0.668591  0.106476  1
  Pr  Pr11  1  0.673128  0.337088  0.892636  1
  Pr  Pr12  1  0.837088  0.826872  0.892636  1
  Pr  Pr13  1  0.329286  0.333740  0.392066  1
  Pr  Pr14  1  0.175320  0.165979  0.607179  1
  Pr  Pr15  1  0.831409  0.166096  0.106476  1
  Pr  Pr16  1  0.326872  0.662912  0.892636  1
  Pr  Pr17  1  0.333904  0.331409  0.106476  1
  Pr  Pr18  1  0.162912  0.173128  0.892636  1
  Pr  Pr19  1  0.500000  0.000000  0.774597  1
  Ga  Ga20  1  0.621848  0.378732  0.249827  1
  Ga  Ga21  1  0.123439  0.878940  0.747942  1
  Ga  Ga22  1  0.378940  0.376561  0.747942  1
  Ga  Ga23  1  0.378152  0.621268  0.249827  1
  Ga  Ga24  1  0.878732  0.878152  0.249827  1
  Ga  Ga25  1  0.621060  0.623439  0.747942  1
  Ga  Ga26  1  0.876561  0.121060  0.747942  1
  Ga  Ga27  1  0.121268  0.121848  0.249827  1
  Pb  Pb28  1  0.000000  0.500000  0.501178  1
  Pb  Pb29  1  0.500000  0.000000  0.494302  1
  Pb  Pb30  1  0.500000  0.000000  0.002862  1
  Pb  Pb31  1  0.000000  0.500000  0.002249  1
