# generated using pymatgen
data_Rb4MnCdTe4
_symmetry_space_group_name_H-M   'P 1'
_cell_length_a   9.13845297
_cell_length_b   9.13845244
_cell_length_c   9.13845213
_cell_angle_alpha   133.19987379
_cell_angle_beta   129.63281886
_cell_angle_gamma   71.19121732
_symmetry_Int_Tables_number   1
_chemical_formula_structural   Rb4MnCdTe4
_chemical_formula_sum   'Rb4 Mn1 Cd1 Te4'
_cell_volume   419.48809875
_cell_formula_units_Z   1
loop_
 _symmetry_equiv_pos_site_id
 _symmetry_equiv_pos_as_xyz
  1  'x, y, z'
loop_
 _atom_site_type_symbol
 _atom_site_label
 _atom_site_symmetry_multiplicity
 _atom_site_fract_x
 _atom_site_fract_y
 _atom_site_fract_z
 _atom_site_occupancy
  Rb  Rb0  1  0.467273  0.143232  0.323657  1
  Rb  Rb1  1  0.819575  0.643616  0.176343  1
  Rb  Rb2  1  0.532727  0.856384  0.675959  1
  Rb  Rb3  1  0.180425  0.356768  0.824041  1
  Mn  Mn4  1  0.000000  0.250000  0.250000  1
  Cd  Cd5  1  0.000000  0.750000  0.750000  1
  Te  Te6  1  0.087517  0.905244  0.205068  1
  Te  Te7  1  0.912483  0.117549  0.817725  1
  Te  Te8  1  0.299824  0.594756  0.682275  1
  Te  Te9  1  0.700176  0.382451  0.294932  1
