# generated using pymatgen
data_Ho4BOs2C3
_symmetry_space_group_name_H-M   'P 1'
_cell_length_a   5.10956100
_cell_length_b   6.53680612
_cell_length_c   9.78957997
_cell_angle_alpha   90.33781519
_cell_angle_beta   90.00000000
_cell_angle_gamma   90.00000000
_symmetry_Int_Tables_number   1
_chemical_formula_structural   Ho4BOs2C3
_chemical_formula_sum   'Ho8 B2 Os4 C6'
_cell_volume   326.96833972
_cell_formula_units_Z   2
loop_
 _symmetry_equiv_pos_site_id
 _symmetry_equiv_pos_as_xyz
  1  'x, y, z'
loop_
 _atom_site_type_symbol
 _atom_site_label
 _atom_site_symmetry_multiplicity
 _atom_site_fract_x
 _atom_site_fract_y
 _atom_site_fract_z
 _atom_site_occupancy
  Ho  Ho0  1  0.250000  0.679592  0.550039  1
  Ho  Ho1  1  0.750000  0.320408  0.449961  1
  Ho  Ho2  1  0.750000  0.825850  0.052958  1
  Ho  Ho3  1  0.250000  0.174150  0.947042  1
  Ho  Ho4  1  0.250000  0.523370  0.211612  1
  Ho  Ho5  1  0.750000  0.476630  0.788388  1
  Ho  Ho6  1  0.750000  0.973527  0.715796  1
  Ho  Ho7  1  0.250000  0.026473  0.284204  1
  B  B8  1  0.250000  0.451856  0.757304  1
  B  B9  1  0.750000  0.548144  0.242696  1
  Os  Os10  1  0.250000  0.726730  0.863633  1
  Os  Os11  1  0.750000  0.273270  0.136367  1
  Os  Os12  1  0.750000  0.787536  0.371138  1
  Os  Os13  1  0.250000  0.212464  0.628862  1
  C  C14  1  0.750000  0.044139  0.260539  1
  C  C15  1  0.250000  0.955861  0.739461  1
  C  C16  1  0.250000  0.822849  0.051699  1
  C  C17  1  0.750000  0.177151  0.948301  1
  C  C18  1  0.750000  0.675083  0.553743  1
  C  C19  1  0.250000  0.324917  0.446257  1
