# generated using pymatgen
data_Tb4CeDy(Al3Ru)8
_symmetry_space_group_name_H-M   'P 1'
_cell_length_a   8.82978020
_cell_length_b   8.83352575
_cell_length_c   9.58448300
_cell_angle_alpha   90.00000000
_cell_angle_beta   90.00000000
_cell_angle_gamma   120.03686250
_symmetry_Int_Tables_number   1
_chemical_formula_structural   Tb4CeDy(Al3Ru)8
_chemical_formula_sum   'Tb4 Ce1 Dy1 Al24 Ru8'
_cell_volume   647.17518436
_cell_formula_units_Z   1
loop_
 _symmetry_equiv_pos_site_id
 _symmetry_equiv_pos_as_xyz
  1  'x, y, z'
loop_
 _atom_site_type_symbol
 _atom_site_label
 _atom_site_symmetry_multiplicity
 _atom_site_fract_x
 _atom_site_fract_y
 _atom_site_fract_z
 _atom_site_occupancy
  Tb  Tb0  1  0.804911  0.612863  0.250000  1
  Tb  Tb1  1  0.614922  0.807438  0.750000  1
  Tb  Tb2  1  0.193184  0.806106  0.750000  1
  Tb  Tb3  1  0.193148  0.386969  0.750000  1
  Ce  Ce4  1  0.388520  0.194284  0.250000  1
  Dy  Dy5  1  0.804599  0.192302  0.250000  1
  Al  Al6  1  0.438295  0.875294  0.250000  1
  Al  Al7  1  0.121156  0.560438  0.250000  1
  Al  Al8  1  0.438012  0.563019  0.250000  1
  Al  Al9  1  0.560938  0.121560  0.750000  1
  Al  Al10  1  0.877793  0.438845  0.750000  1
  Al  Al11  1  0.560896  0.439315  0.750000  1
  Al  Al12  1  0.161132  0.836843  0.421817  1
  Al  Al13  1  0.160954  0.324197  0.421773  1
  Al  Al14  1  0.675781  0.838050  0.422648  1
  Al  Al15  1  0.838049  0.161752  0.578212  1
  Al  Al16  1  0.838015  0.676216  0.578400  1
  Al  Al17  1  0.323787  0.161878  0.578928  1
  Al  Al18  1  0.838049  0.161752  0.921788  1
  Al  Al19  1  0.838015  0.676216  0.921600  1
  Al  Al20  1  0.323787  0.161878  0.921072  1
  Al  Al21  1  0.161132  0.836843  0.078183  1
  Al  Al22  1  0.160954  0.324197  0.078227  1
  Al  Al23  1  0.675781  0.838050  0.077352  1
  Al  Al24  1  0.333538  0.666725  0.513748  1
  Al  Al25  1  0.668952  0.334396  0.487666  1
  Al  Al26  1  0.668952  0.334396  0.012334  1
  Al  Al27  1  0.333538  0.666725  0.986252  1
  Al  Al28  1  0.999333  0.000088  0.250000  1
  Al  Al29  1  0.001035  0.000460  0.750000  1
  Ru  Ru30  1  0.999555  0.999740  0.500221  1
  Ru  Ru31  1  0.999555  0.999740  0.999779  1
  Ru  Ru32  1  0.500472  0.000668  0.498729  1
  Ru  Ru33  1  0.001055  0.500387  0.500853  1
  Ru  Ru34  1  0.500343  0.499656  0.498795  1
  Ru  Ru35  1  0.500472  0.000668  0.001271  1
  Ru  Ru36  1  0.001055  0.500387  0.999147  1
  Ru  Ru37  1  0.500343  0.499656  0.001205  1
