# generated using pymatgen
data_Y5TmLu14(Cd3Pd)2
_symmetry_space_group_name_H-M   'P 1'
_cell_length_a   9.56322486
_cell_length_b   9.56289968
_cell_length_c   9.63694100
_cell_angle_alpha   89.99978835
_cell_angle_beta   90.00002397
_cell_angle_gamma   120.00980466
_symmetry_Int_Tables_number   1
_chemical_formula_structural   Y5TmLu14(Cd3Pd)2
_chemical_formula_sum   'Y5 Tm1 Lu14 Cd6 Pd2'
_cell_volume   763.16928456
_cell_formula_units_Z   1
loop_
 _symmetry_equiv_pos_site_id
 _symmetry_equiv_pos_as_xyz
  1  'x, y, z'
loop_
 _atom_site_type_symbol
 _atom_site_label
 _atom_site_symmetry_multiplicity
 _atom_site_fract_x
 _atom_site_fract_y
 _atom_site_fract_z
 _atom_site_occupancy
  Y  Y0  1  0.541463  0.083672  0.250001  1
  Y  Y1  1  0.916321  0.458542  0.250003  1
  Y  Y2  1  0.458488  0.541534  0.750004  1
  Y  Y3  1  0.458558  0.917417  0.749996  1
  Y  Y4  1  0.082531  0.541443  0.750000  1
  Tm  Tm5  1  0.541484  0.458514  0.249999  1
  Lu  Lu6  1  0.000123  0.999827  0.499942  1
  Lu  Lu7  1  0.000123  0.999833  0.000055  1
  Lu  Lu8  1  0.208172  0.791828  0.442595  1
  Lu  Lu9  1  0.208972  0.416073  0.442293  1
  Lu  Lu10  1  0.583965  0.791042  0.442317  1
  Lu  Lu11  1  0.791828  0.208147  0.557192  1
  Lu  Lu12  1  0.790891  0.583257  0.556633  1
  Lu  Lu13  1  0.416712  0.209072  0.556645  1
  Lu  Lu14  1  0.791827  0.208151  0.942809  1
  Lu  Lu15  1  0.790891  0.583254  0.943368  1
  Lu  Lu16  1  0.416713  0.209074  0.943355  1
  Lu  Lu17  1  0.208172  0.791821  0.057405  1
  Lu  Lu18  1  0.208972  0.416075  0.057705  1
  Lu  Lu19  1  0.583963  0.791042  0.057681  1
  Cd  Cd20  1  0.886986  0.113054  0.249974  1
  Cd  Cd21  1  0.884711  0.772721  0.250006  1
  Cd  Cd22  1  0.227286  0.115300  0.249972  1
  Cd  Cd23  1  0.113033  0.886943  0.750038  1
  Cd  Cd24  1  0.113437  0.226185  0.749981  1
  Cd  Cd25  1  0.773881  0.886579  0.750030  1
  Pd  Pd26  1  0.333708  0.666421  0.249993  1
  Pd  Pd27  1  0.666797  0.333176  0.750009  1
