# generated using pymatgen
data_Ho2TmAl3NiAu2
_symmetry_space_group_name_H-M   'P 1'
_cell_length_a   7.22249400
_cell_length_b   7.21257794
_cell_length_c   3.98867100
_cell_angle_alpha   90.00000000
_cell_angle_beta   90.00000000
_cell_angle_gamma   120.04549858
_symmetry_Int_Tables_number   1
_chemical_formula_structural   Ho2TmAl3NiAu2
_chemical_formula_sum   'Ho2 Tm1 Al3 Ni1 Au2'
_cell_volume   179.86110656
_cell_formula_units_Z   1
loop_
 _symmetry_equiv_pos_site_id
 _symmetry_equiv_pos_as_xyz
  1  'x, y, z'
loop_
 _atom_site_type_symbol
 _atom_site_label
 _atom_site_symmetry_multiplicity
 _atom_site_fract_x
 _atom_site_fract_y
 _atom_site_fract_z
 _atom_site_occupancy
  Ho  Ho0  1  0.999812  0.403358  0.500000  1
  Ho  Ho1  1  0.596453  0.596642  0.500000  1
  Tm  Tm2  1  0.402602  0.000000  0.500000  1
  Al  Al3  1  0.000688  0.773517  0.000000  1
  Al  Al4  1  0.227171  0.226483  0.000000  1
  Al  Al5  1  0.773062  0.000000  0.000000  1
  Ni  Ni6  1  0.001342  0.000000  0.500000  1
  Au  Au7  1  0.334036  0.669202  0.000000  1
  Au  Au8  1  0.664835  0.330798  0.000000  1
