# generated using pymatgen
data_Nd16MgCd3(TcPd)2
_symmetry_space_group_name_H-M   'P 1'
_cell_length_a   10.00942644
_cell_length_b   10.00942637
_cell_length_c   10.10837809
_cell_angle_alpha   59.38548495
_cell_angle_beta   59.38548629
_cell_angle_gamma   59.21050296
_symmetry_Int_Tables_number   1
_chemical_formula_structural   Nd16MgCd3(TcPd)2
_chemical_formula_sum   'Nd16 Mg1 Cd3 Tc2 Pd2'
_cell_volume   705.14434652
_cell_formula_units_Z   1
loop_
 _symmetry_equiv_pos_site_id
 _symmetry_equiv_pos_as_xyz
  1  'x, y, z'
loop_
 _atom_site_type_symbol
 _atom_site_label
 _atom_site_symmetry_multiplicity
 _atom_site_fract_x
 _atom_site_fract_y
 _atom_site_fract_z
 _atom_site_occupancy
  Nd  Nd0  1  0.348622  0.348622  0.355414  1
  Nd  Nd1  1  0.347680  0.347680  0.950040  1
  Nd  Nd2  1  0.341999  0.960514  0.347355  1
  Nd  Nd3  1  0.960514  0.341999  0.347355  1
  Nd  Nd4  1  0.814250  0.190555  0.192407  1
  Nd  Nd5  1  0.188680  0.816211  0.804948  1
  Nd  Nd6  1  0.190555  0.814250  0.192407  1
  Nd  Nd7  1  0.816211  0.188680  0.804948  1
  Nd  Nd8  1  0.190807  0.190807  0.808871  1
  Nd  Nd9  1  0.807210  0.807210  0.195430  1
  Nd  Nd10  1  0.936372  0.556954  0.567959  1
  Nd  Nd11  1  0.555840  0.937655  0.940890  1
  Nd  Nd12  1  0.556954  0.936372  0.567959  1
  Nd  Nd13  1  0.937655  0.555840  0.940890  1
  Nd  Nd14  1  0.563547  0.563547  0.935013  1
  Nd  Nd15  1  0.939878  0.939878  0.561836  1
  Mg  Mg16  1  0.574947  0.574947  0.574352  1
  Cd  Cd17  1  0.580957  0.580957  0.258755  1
  Cd  Cd18  1  0.581227  0.257332  0.580331  1
  Cd  Cd19  1  0.257332  0.581227  0.580331  1
  Tc  Tc20  1  0.142511  0.142511  0.131648  1
  Tc  Tc21  1  0.143377  0.143377  0.581841  1
  Pd  Pd22  1  0.148305  0.574571  0.139509  1
  Pd  Pd23  1  0.574571  0.148305  0.139509  1
