# generated using pymatgen
data_Dy5Ho11(In3Ir)2
_symmetry_space_group_name_H-M   'P 1'
_cell_length_a   10.38993310
_cell_length_b   10.38993384
_cell_length_c   7.04086701
_cell_angle_alpha   89.99554803
_cell_angle_beta   90.00444927
_cell_angle_gamma   119.98476957
_symmetry_Int_Tables_number   1
_chemical_formula_structural   Dy5Ho11(In3Ir)2
_chemical_formula_sum   'Dy5 Ho11 In6 Ir2'
_cell_volume   658.33801842
_cell_formula_units_Z   1
loop_
 _symmetry_equiv_pos_site_id
 _symmetry_equiv_pos_as_xyz
  1  'x, y, z'
loop_
 _atom_site_type_symbol
 _atom_site_label
 _atom_site_symmetry_multiplicity
 _atom_site_fract_x
 _atom_site_fract_y
 _atom_site_fract_z
 _atom_site_occupancy
  Dy  Dy0  1  0.533190  0.066391  0.506565  1
  Dy  Dy1  1  0.933609  0.466810  0.506565  1
  Dy  Dy2  1  0.533131  0.466869  0.506574  1
  Dy  Dy3  1  0.466789  0.933539  0.006544  1
  Dy  Dy4  1  0.066461  0.533211  0.006544  1
  Ho  Ho5  1  0.466661  0.533339  0.006613  1
  Ho  Ho6  1  0.176554  0.352945  0.713639  1
  Ho  Ho7  1  0.647055  0.823446  0.713639  1
  Ho  Ho8  1  0.176405  0.823595  0.713509  1
  Ho  Ho9  1  0.823406  0.647078  0.213395  1
  Ho  Ho10  1  0.352922  0.176594  0.213395  1
  Ho  Ho11  1  0.823584  0.176416  0.213501  1
  Ho  Ho12  1  0.666591  0.333409  0.887686  1
  Ho  Ho13  1  0.333416  0.666584  0.387583  1
  Ho  Ho14  1  0.000015  0.999985  0.493145  1
  Ho  Ho15  1  0.999990  0.000010  0.993183  1
  In  In16  1  0.837343  0.674696  0.751965  1
  In  In17  1  0.325304  0.162657  0.751965  1
  In  In18  1  0.837349  0.162651  0.751915  1
  In  In19  1  0.162714  0.325352  0.251861  1
  In  In20  1  0.674648  0.837286  0.251861  1
  In  In21  1  0.162643  0.837357  0.251945  1
  Ir  Ir22  1  0.666671  0.333329  0.282096  1
  Ir  Ir23  1  0.333549  0.666451  0.782357  1
