# generated using pymatgen
data_Pr7P12Pd17
_symmetry_space_group_name_H-M   'P 1'
_cell_length_a   12.44250619
_cell_length_b   12.44250545
_cell_length_c   13.68137928
_cell_angle_alpha   68.29954905
_cell_angle_beta   68.29955020
_cell_angle_gamma   19.02241838
_symmetry_Int_Tables_number   1
_chemical_formula_structural   Pr7P12Pd17
_chemical_formula_sum   'Pr7 P12 Pd17'
_cell_volume   640.01407698
_cell_formula_units_Z   1
loop_
 _symmetry_equiv_pos_site_id
 _symmetry_equiv_pos_as_xyz
  1  'x, y, z'
loop_
 _atom_site_type_symbol
 _atom_site_label
 _atom_site_symmetry_multiplicity
 _atom_site_fract_x
 _atom_site_fract_y
 _atom_site_fract_z
 _atom_site_occupancy
  Pr  Pr0  1  0.500000  0.500000  0.500000  1
  Pr  Pr1  1  0.365032  0.365032  0.000067  1
  Pr  Pr2  1  0.634968  0.634968  0.999933  1
  Pr  Pr3  1  0.233343  0.233343  0.313900  1
  Pr  Pr4  1  0.766657  0.766657  0.686100  1
  Pr  Pr5  1  0.418068  0.418068  0.261945  1
  Pr  Pr6  1  0.581932  0.581932  0.738055  1
  P  P7  1  0.060929  0.060929  0.925228  1
  P  P8  1  0.939071  0.939071  0.074772  1
  P  P9  1  0.886666  0.886666  0.827233  1
  P  P10  1  0.113334  0.113334  0.172767  1
  P  P11  1  0.188149  0.188149  0.619545  1
  P  P12  1  0.811851  0.811851  0.380455  1
  P  P13  1  0.364790  0.364790  0.579596  1
  P  P14  1  0.635210  0.635210  0.420404  1
  P  P15  1  0.010742  0.010742  0.670569  1
  P  P16  1  0.989258  0.989258  0.329431  1
  P  P17  1  0.232906  0.232906  0.882477  1
  P  P18  1  0.767094  0.767094  0.117523  1
  Pd  Pd19  1  0.838703  0.838703  0.193688  1
  Pd  Pd20  1  0.161297  0.161297  0.806312  1
  Pd  Pd21  1  0.026212  0.026212  0.124718  1
  Pd  Pd22  1  0.973788  0.973788  0.875282  1
  Pd  Pd23  1  0.890067  0.890067  0.457926  1
  Pd  Pd24  1  0.109933  0.109933  0.542074  1
  Pd  Pd25  1  0.500000  0.500000  0.000000  1
  Pd  Pd26  1  0.546893  0.546893  0.253565  1
  Pd  Pd27  1  0.453107  0.453107  0.746435  1
  Pd  Pd28  1  0.296609  0.296609  0.487255  1
  Pd  Pd29  1  0.703391  0.703391  0.512745  1
  Pd  Pd30  1  0.666345  0.666345  0.222516  1
  Pd  Pd31  1  0.333655  0.333655  0.777484  1
  Pd  Pd32  1  0.907397  0.907397  0.644318  1
  Pd  Pd33  1  0.092603  0.092603  0.355682  1
  Pd  Pd34  1  0.217713  0.217713  0.070322  1
  Pd  Pd35  1  0.782287  0.782287  0.929678  1
