# generated using pymatgen
data_SmHo2Sc2(In2Pt)2
_symmetry_space_group_name_H-M   'P 1'
_cell_length_a   3.55891200
_cell_length_b   8.06810400
_cell_length_c   17.96824400
_cell_angle_alpha   90.00000000
_cell_angle_beta   90.00000000
_cell_angle_gamma   90.00000000
_symmetry_Int_Tables_number   1
_chemical_formula_structural   SmHo2Sc2(In2Pt)2
_chemical_formula_sum   'Sm2 Ho4 Sc4 In8 Pt4'
_cell_volume   515.93426720
_cell_formula_units_Z   2
loop_
 _symmetry_equiv_pos_site_id
 _symmetry_equiv_pos_as_xyz
  1  'x, y, z'
loop_
 _atom_site_type_symbol
 _atom_site_label
 _atom_site_symmetry_multiplicity
 _atom_site_fract_x
 _atom_site_fract_y
 _atom_site_fract_z
 _atom_site_occupancy
  Sm  Sm0  1  0.000000  0.000000  0.000000  1
  Sm  Sm1  1  0.000000  0.500000  0.500000  1
  Ho  Ho2  1  0.000000  0.240725  0.216030  1
  Ho  Ho3  1  0.000000  0.759275  0.783970  1
  Ho  Ho4  1  0.000000  0.259275  0.716030  1
  Ho  Ho5  1  0.000000  0.740725  0.283970  1
  Sc  Sc6  1  0.000000  0.118867  0.413051  1
  Sc  Sc7  1  0.000000  0.881133  0.586949  1
  Sc  Sc8  1  0.000000  0.381133  0.913051  1
  Sc  Sc9  1  0.000000  0.618867  0.086949  1
  In  In10  1  0.500000  0.412234  0.349018  1
  In  In11  1  0.500000  0.587766  0.650982  1
  In  In12  1  0.500000  0.087766  0.849018  1
  In  In13  1  0.500000  0.912234  0.150982  1
  In  In14  1  0.500000  0.311114  0.060539  1
  In  In15  1  0.500000  0.688886  0.939461  1
  In  In16  1  0.500000  0.188886  0.560539  1
  In  In17  1  0.500000  0.811114  0.439461  1
  Pt  Pt18  1  0.500000  0.030468  0.306935  1
  Pt  Pt19  1  0.500000  0.969532  0.693065  1
  Pt  Pt20  1  0.500000  0.469532  0.806935  1
  Pt  Pt21  1  0.500000  0.530468  0.193065  1
