# generated using pymatgen
data_Nd3Y12Ho(CdPd)4
_symmetry_space_group_name_H-M   'P 1'
_cell_length_a   9.80732611
_cell_length_b   9.79777473
_cell_length_c   9.79775481
_cell_angle_alpha   59.88774502
_cell_angle_beta   60.01158456
_cell_angle_gamma   60.01164042
_symmetry_Int_Tables_number   1
_chemical_formula_structural   Nd3Y12Ho(CdPd)4
_chemical_formula_sum   'Nd3 Y12 Ho1 Cd4 Pd4'
_cell_volume   665.26690183
_cell_formula_units_Z   1
loop_
 _symmetry_equiv_pos_site_id
 _symmetry_equiv_pos_as_xyz
  1  'x, y, z'
loop_
 _atom_site_type_symbol
 _atom_site_label
 _atom_site_symmetry_multiplicity
 _atom_site_fract_x
 _atom_site_fract_y
 _atom_site_fract_z
 _atom_site_occupancy
  Nd  Nd0  1  0.351585  0.353104  0.353108  1
  Nd  Nd1  1  0.356622  0.356595  0.934037  1
  Nd  Nd2  1  0.356617  0.934040  0.356601  1
  Y  Y3  1  0.811065  0.189934  0.189935  1
  Y  Y4  1  0.186034  0.813552  0.813553  1
  Y  Y5  1  0.188428  0.812500  0.188447  1
  Y  Y6  1  0.812041  0.187949  0.811377  1
  Y  Y7  1  0.188420  0.188448  0.812507  1
  Y  Y8  1  0.812051  0.811375  0.187952  1
  Y  Y9  1  0.935019  0.566075  0.566086  1
  Y  Y10  1  0.566130  0.934046  0.934040  1
  Y  Y11  1  0.567139  0.933346  0.566778  1
  Y  Y12  1  0.935135  0.564794  0.935278  1
  Y  Y13  1  0.567137  0.566774  0.933346  1
  Y  Y14  1  0.935133  0.935282  0.564794  1
  Ho  Ho15  1  0.935162  0.356343  0.356328  1
  Cd  Cd16  1  0.586576  0.580943  0.580936  1
  Cd  Cd17  1  0.585496  0.579986  0.250955  1
  Cd  Cd18  1  0.585499  0.250954  0.579982  1
  Cd  Cd19  1  0.251032  0.581573  0.581569  1
  Pd  Pd20  1  0.139831  0.147189  0.147193  1
  Pd  Pd21  1  0.137787  0.144911  0.568516  1
  Pd  Pd22  1  0.137791  0.568514  0.144899  1
  Pd  Pd23  1  0.572270  0.141769  0.141781  1
