# generated using pymatgen
data_LaSbPtO6
_symmetry_space_group_name_H-M   'P 1'
_cell_length_a   5.33379042
_cell_length_b   5.33381487
_cell_length_c   5.22012570
_cell_angle_alpha   90.04790159
_cell_angle_beta   90.04905204
_cell_angle_gamma   119.92845855
_symmetry_Int_Tables_number   1
_chemical_formula_structural   LaSbPtO6
_chemical_formula_sum   'La1 Sb1 Pt1 O6'
_cell_volume   128.70561331
_cell_formula_units_Z   1
loop_
 _symmetry_equiv_pos_site_id
 _symmetry_equiv_pos_as_xyz
  1  'x, y, z'
loop_
 _atom_site_type_symbol
 _atom_site_label
 _atom_site_symmetry_multiplicity
 _atom_site_fract_x
 _atom_site_fract_y
 _atom_site_fract_z
 _atom_site_occupancy
  La  La0  1  0.482548  0.517457  0.499999  1
  Sb  Sb1  1  0.149262  0.850740  0.999997  1
  Pt  Pt2  1  0.815684  0.184321  0.999996  1
  O  O3  1  0.120333  0.153306  0.212444  1
  O  O4  1  0.480939  0.881303  0.213179  1
  O  O5  1  0.848517  0.520520  0.213207  1
  O  O6  1  0.479481  0.151482  0.786782  1
  O  O7  1  0.118695  0.519062  0.786811  1
  O  O8  1  0.846697  0.879670  0.787552  1
