# generated using pymatgen
data_Ta2Ti17Si16Os
_symmetry_space_group_name_H-M   'P 1'
_cell_length_a   6.68583362
_cell_length_b   6.68815672
_cell_length_c   12.19605270
_cell_angle_alpha   89.75268349
_cell_angle_beta   90.18464813
_cell_angle_gamma   89.97952528
_symmetry_Int_Tables_number   1
_chemical_formula_structural   Ta2Ti17Si16Os
_chemical_formula_sum   'Ta2 Ti17 Si16 Os1'
_cell_volume   545.34956027
_cell_formula_units_Z   1
loop_
 _symmetry_equiv_pos_site_id
 _symmetry_equiv_pos_as_xyz
  1  'x, y, z'
loop_
 _atom_site_type_symbol
 _atom_site_label
 _atom_site_symmetry_multiplicity
 _atom_site_fract_x
 _atom_site_fract_y
 _atom_site_fract_z
 _atom_site_occupancy
  Ta  Ta0  1  0.997126  0.147812  0.625102  1
  Ta  Ta1  1  0.827755  0.828482  0.499522  1
  Ti  Ti2  1  0.352760  0.500513  0.870551  1
  Ti  Ti3  1  0.649525  0.504302  0.370477  1
  Ti  Ti4  1  0.499956  0.352015  0.130167  1
  Ti  Ti5  1  0.505091  0.650234  0.628958  1
  Ti  Ti6  1  0.005781  0.848480  0.120188  1
  Ti  Ti7  1  0.148037  0.996235  0.375282  1
  Ti  Ti8  1  0.848720  0.005644  0.879646  1
  Ti  Ti9  1  0.003141  0.344294  0.220616  1
  Ti  Ti10  1  0.155269  0.500045  0.469806  1
  Ti  Ti11  1  0.839137  0.500648  0.971633  1
  Ti  Ti12  1  0.500055  0.155818  0.530016  1
  Ti  Ti13  1  0.500632  0.839079  0.029051  1
  Ti  Ti14  1  0.998496  0.656817  0.721590  1
  Ti  Ti15  1  0.342707  0.002945  0.778946  1
  Ti  Ti16  1  0.657159  0.997847  0.278213  1
  Ti  Ti17  1  0.328669  0.670537  0.246881  1
  Ti  Ti18  1  0.671753  0.328770  0.752815  1
  Si  Si19  1  0.046807  0.303680  0.818877  1
  Si  Si20  1  0.198985  0.539003  0.062757  1
  Si  Si21  1  0.797598  0.453682  0.564015  1
  Si  Si22  1  0.539116  0.198779  0.937661  1
  Si  Si23  1  0.452169  0.800715  0.433492  1
  Si  Si24  1  0.958030  0.696360  0.311761  1
  Si  Si25  1  0.300918  0.046162  0.183650  1
  Si  Si26  1  0.692045  0.956437  0.688597  1
  Si  Si27  1  0.298027  0.360202  0.675156  1
  Si  Si28  1  0.140592  0.794912  0.921841  1
  Si  Si29  1  0.858154  0.208186  0.421322  1
  Si  Si30  1  0.794546  0.140312  0.078775  1
  Si  Si31  1  0.208774  0.853525  0.575539  1
  Si  Si32  1  0.706126  0.644343  0.173170  1
  Si  Si33  1  0.357583  0.294404  0.326293  1
  Si  Si34  1  0.645064  0.705681  0.827179  1
  Os  Os35  1  0.173702  0.173103  0.000455  1
