# generated using pymatgen
data_Y16ScHg3Rh4
_symmetry_space_group_name_H-M   'P 1'
_cell_length_a   9.73400928
_cell_length_b   9.64364466
_cell_length_c   9.64364500
_cell_angle_alpha   60.00000228
_cell_angle_beta   60.30662215
_cell_angle_gamma   60.30661993
_symmetry_Int_Tables_number   1
_chemical_formula_structural   Y16ScHg3Rh4
_chemical_formula_sum   'Y16 Sc1 Hg3 Rh4'
_cell_volume   643.06737930
_cell_formula_units_Z   1
loop_
 _symmetry_equiv_pos_site_id
 _symmetry_equiv_pos_as_xyz
  1  'x, y, z'
loop_
 _atom_site_type_symbol
 _atom_site_label
 _atom_site_symmetry_multiplicity
 _atom_site_fract_x
 _atom_site_fract_y
 _atom_site_fract_z
 _atom_site_occupancy
  Y  Y0  1  0.598934  0.598208  0.598208  1
  Y  Y1  1  0.598934  0.598208  0.204653  1
  Y  Y2  1  0.598934  0.204653  0.598208  1
  Y  Y3  1  0.184504  0.605166  0.605166  1
  Y  Y4  1  0.057361  0.441383  0.441383  1
  Y  Y5  1  0.432055  0.064964  0.064964  1
  Y  Y6  1  0.432055  0.064964  0.438015  1
  Y  Y7  1  0.057361  0.441383  0.059875  1
  Y  Y8  1  0.432055  0.438015  0.064964  1
  Y  Y9  1  0.057361  0.059875  0.441383  1
  Y  Y10  1  0.188329  0.814199  0.814199  1
  Y  Y11  1  0.815811  0.185008  0.185008  1
  Y  Y12  1  0.815811  0.185008  0.814174  1
  Y  Y13  1  0.188329  0.814199  0.183273  1
  Y  Y14  1  0.815811  0.814174  0.185008  1
  Y  Y15  1  0.188329  0.183273  0.814199  1
  Sc  Sc16  1  0.551881  0.816039  0.816039  1
  Hg  Hg17  1  0.835167  0.837306  0.837306  1
  Hg  Hg18  1  0.835167  0.837306  0.490220  1
  Hg  Hg19  1  0.835167  0.490220  0.837306  1
  Rh  Rh20  1  0.385639  0.396472  0.396472  1
  Rh  Rh21  1  0.385639  0.396472  0.821419  1
  Rh  Rh22  1  0.385639  0.821419  0.396472  1
  Rh  Rh23  1  0.823731  0.392090  0.392090  1
