# generated using pymatgen
data_Tb6Al24Ir3Ru3Pt2
_symmetry_space_group_name_H-M   'P 1'
_cell_length_a   8.84130568
_cell_length_b   8.84304465
_cell_length_c   9.57053038
_cell_angle_alpha   90.04916338
_cell_angle_beta   89.87535441
_cell_angle_gamma   119.83886322
_symmetry_Int_Tables_number   1
_chemical_formula_structural   Tb6Al24Ir3Ru3Pt2
_chemical_formula_sum   'Tb6 Al24 Ir3 Ru3 Pt2'
_cell_volume   649.06277978
_cell_formula_units_Z   1
loop_
 _symmetry_equiv_pos_site_id
 _symmetry_equiv_pos_as_xyz
  1  'x, y, z'
loop_
 _atom_site_type_symbol
 _atom_site_label
 _atom_site_symmetry_multiplicity
 _atom_site_fract_x
 _atom_site_fract_y
 _atom_site_fract_z
 _atom_site_occupancy
  Tb  Tb0  1  0.384272  0.191482  0.248097  1
  Tb  Tb1  1  0.807649  0.191988  0.251494  1
  Tb  Tb2  1  0.808661  0.616621  0.250211  1
  Tb  Tb3  1  0.615728  0.808518  0.751903  1
  Tb  Tb4  1  0.192351  0.808012  0.748506  1
  Tb  Tb5  1  0.191339  0.383379  0.749789  1
  Al  Al6  1  0.437696  0.874802  0.250062  1
  Al  Al7  1  0.125403  0.562634  0.246127  1
  Al  Al8  1  0.436705  0.563708  0.252487  1
  Al  Al9  1  0.562304  0.125198  0.749938  1
  Al  Al10  1  0.874597  0.437366  0.753873  1
  Al  Al11  1  0.563295  0.436292  0.747513  1
  Al  Al12  1  0.166360  0.840919  0.421733  1
  Al  Al13  1  0.166766  0.325283  0.423843  1
  Al  Al14  1  0.673538  0.836513  0.424930  1
  Al  Al15  1  0.833640  0.159081  0.578267  1
  Al  Al16  1  0.833234  0.674717  0.576157  1
  Al  Al17  1  0.326462  0.163487  0.575070  1
  Al  Al18  1  0.838485  0.165494  0.923402  1
  Al  Al19  1  0.842805  0.674324  0.924542  1
  Al  Al20  1  0.325694  0.159596  0.924016  1
  Al  Al21  1  0.161515  0.834506  0.076598  1
  Al  Al22  1  0.157195  0.325676  0.075458  1
  Al  Al23  1  0.674306  0.840404  0.075984  1
  Al  Al24  1  0.337000  0.668254  0.532221  1
  Al  Al25  1  0.663000  0.331746  0.467779  1
  Al  Al26  1  0.671433  0.333156  0.031057  1
  Al  Al27  1  0.328567  0.666844  0.968943  1
  Al  Al28  1  0.001095  0.999724  0.249989  1
  Al  Al29  1  0.998905  0.000276  0.750011  1
  Ir  Ir30  1  0.500000  0.000000  0.500000  1
  Ir  Ir31  1  0.500000  0.500000  0.500000  1
  Ir  Ir32  1  0.500000  0.000000  0.000000  1
  Ru  Ru33  1  0.000000  0.000000  0.500000  1
  Ru  Ru34  1  0.000000  0.000000  0.000000  1
  Ru  Ru35  1  0.000000  0.500000  0.000000  1
  Pt  Pt36  1  0.000000  0.500000  0.500000  1
  Pt  Pt37  1  0.500000  0.500000  0.000000  1
