# generated using pymatgen
data_HoEr(Cu2P)4
_symmetry_space_group_name_H-M   'P 1'
_cell_length_a   7.22697264
_cell_length_b   7.22697238
_cell_length_c   3.79128300
_cell_angle_alpha   90.00000000
_cell_angle_beta   90.00000000
_cell_angle_gamma   90.11683568
_symmetry_Int_Tables_number   1
_chemical_formula_structural   HoEr(Cu2P)4
_chemical_formula_sum   'Ho1 Er1 Cu8 P4'
_cell_volume   198.01500731
_cell_formula_units_Z   1
loop_
 _symmetry_equiv_pos_site_id
 _symmetry_equiv_pos_as_xyz
  1  'x, y, z'
loop_
 _atom_site_type_symbol
 _atom_site_label
 _atom_site_symmetry_multiplicity
 _atom_site_fract_x
 _atom_site_fract_y
 _atom_site_fract_z
 _atom_site_occupancy
  Ho  Ho0  1  0.500000  0.500000  0.000000  1
  Er  Er1  1  0.000000  0.000000  0.500000  1
  Cu  Cu2  1  0.584636  0.164968  0.500000  1
  Cu  Cu3  1  0.415364  0.835032  0.500000  1
  Cu  Cu4  1  0.084432  0.334637  0.000000  1
  Cu  Cu5  1  0.915568  0.665363  0.000000  1
  Cu  Cu6  1  0.164968  0.584636  0.500000  1
  Cu  Cu7  1  0.835032  0.415364  0.500000  1
  Cu  Cu8  1  0.334637  0.084432  0.000000  1
  Cu  Cu9  1  0.665363  0.915568  0.000000  1
  P  P10  1  0.713223  0.713223  0.500000  1
  P  P11  1  0.286777  0.286777  0.500000  1
  P  P12  1  0.212450  0.787550  0.000000  1
  P  P13  1  0.787550  0.212450  0.000000  1
