# generated using pymatgen
data_Er2TiCr2O8
_symmetry_space_group_name_H-M   'P 1'
_cell_length_a   6.26839713
_cell_length_b   6.26839575
_cell_length_c   5.11728719
_cell_angle_alpha   71.57569068
_cell_angle_beta   71.57570270
_cell_angle_gamma   57.91421163
_symmetry_Int_Tables_number   1
_chemical_formula_structural   Er2TiCr2O8
_chemical_formula_sum   'Er2 Ti1 Cr2 O8'
_cell_volume   158.85759513
_cell_formula_units_Z   1
loop_
 _symmetry_equiv_pos_site_id
 _symmetry_equiv_pos_as_xyz
  1  'x, y, z'
loop_
 _atom_site_type_symbol
 _atom_site_label
 _atom_site_symmetry_multiplicity
 _atom_site_fract_x
 _atom_site_fract_y
 _atom_site_fract_z
 _atom_site_occupancy
  Er  Er0  1  0.727212  0.724594  0.337073  1
  Er  Er1  1  0.275406  0.272788  0.662927  1
  Ti  Ti2  1  0.725415  0.274585  0.000000  1
  Cr  Cr3  1  0.002734  0.997266  0.500000  1
  Cr  Cr4  1  0.251127  0.748873  0.000000  1
  O  O5  1  0.402389  0.385915  0.932744  1
  O  O6  1  0.614085  0.597611  0.067256  1
  O  O7  1  0.895822  0.897251  0.917564  1
  O  O8  1  0.102749  0.104178  0.082436  1
  O  O9  1  0.340491  0.892291  0.594234  1
  O  O10  1  0.891340  0.336478  0.602142  1
  O  O11  1  0.107709  0.659509  0.405766  1
  O  O12  1  0.663522  0.108660  0.397858  1
