# generated using pymatgen
data_Nd11SmFe2I17
_symmetry_space_group_name_H-M   'P 1'
_cell_length_a   9.97402422
_cell_length_b   11.97598785
_cell_length_c   12.03113643
_cell_angle_alpha   93.49885807
_cell_angle_beta   104.76331726
_cell_angle_gamma   114.27295570
_symmetry_Int_Tables_number   1
_chemical_formula_structural   Nd11SmFe2I17
_chemical_formula_sum   'Nd11 Sm1 Fe2 I17'
_cell_volume   1244.20619704
_cell_formula_units_Z   1
loop_
 _symmetry_equiv_pos_site_id
 _symmetry_equiv_pos_as_xyz
  1  'x, y, z'
loop_
 _atom_site_type_symbol
 _atom_site_label
 _atom_site_symmetry_multiplicity
 _atom_site_fract_x
 _atom_site_fract_y
 _atom_site_fract_z
 _atom_site_occupancy
  Nd  Nd0  1  0.056731  0.509470  0.321864  1
  Nd  Nd1  1  0.989950  0.809281  0.586159  1
  Nd  Nd2  1  0.653314  0.241131  0.281237  1
  Nd  Nd3  1  0.010965  0.189596  0.417093  1
  Nd  Nd4  1  0.221402  0.671254  0.985882  1
  Nd  Nd5  1  0.255989  0.981975  0.890580  1
  Nd  Nd6  1  0.351414  0.759200  0.717383  1
  Nd  Nd7  1  0.945024  0.493972  0.679263  1
  Nd  Nd8  1  0.741371  0.014879  0.108467  1
  Nd  Nd9  1  0.142472  0.286370  0.152500  1
  Nd  Nd10  1  0.776708  0.329515  0.011387  1
  Sm  Sm11  1  0.855072  0.713074  0.847202  1
  Fe  Fe12  1  0.103842  0.738288  0.786095  1
  Fe  Fe13  1  0.895944  0.261441  0.214122  1
  I  I14  1  0.784670  0.528425  0.417396  1
  I  I15  1  0.642660  0.421261  0.760822  1
  I  I16  1  0.843106  0.894990  0.325116  1
  I  I17  1  0.326034  0.212873  0.369000  1
  I  I18  1  0.156909  0.105159  0.674986  1
  I  I19  1  0.587705  0.052866  0.843213  1
  I  I20  1  0.756239  0.185330  0.537319  1
  I  I21  1  0.550626  0.708662  0.953171  1
  I  I22  1  0.357268  0.580472  0.239871  1
  I  I23  1  0.215664  0.471288  0.582009  1
  I  I24  1  0.055400  0.367342  0.897295  1
  I  I25  1  0.450435  0.291079  0.046746  1
  I  I26  1  0.998984  0.999186  0.999773  1
  I  I27  1  0.243808  0.814871  0.462228  1
  I  I28  1  0.413130  0.947704  0.157011  1
  I  I29  1  0.674126  0.786452  0.632927  1
  I  I30  1  0.943042  0.632597  0.101884  1
