# generated using pymatgen
data_Tm8Mn3FeC8
_symmetry_space_group_name_H-M   'P 1'
_cell_length_a   4.94391700
_cell_length_b   6.24623389
_cell_length_c   9.53410989
_cell_angle_alpha   90.08913461
_cell_angle_beta   90.00000000
_cell_angle_gamma   90.00000000
_symmetry_Int_Tables_number   1
_chemical_formula_structural   Tm8Mn3FeC8
_chemical_formula_sum   'Tm8 Mn3 Fe1 C8'
_cell_volume   294.42117452
_cell_formula_units_Z   1
loop_
 _symmetry_equiv_pos_site_id
 _symmetry_equiv_pos_as_xyz
  1  'x, y, z'
loop_
 _atom_site_type_symbol
 _atom_site_label
 _atom_site_symmetry_multiplicity
 _atom_site_fract_x
 _atom_site_fract_y
 _atom_site_fract_z
 _atom_site_occupancy
  Tm  Tm0  1  0.250000  0.817313  0.944256  1
  Tm  Tm1  1  0.250000  0.317368  0.556214  1
  Tm  Tm2  1  0.750000  0.182809  0.055589  1
  Tm  Tm3  1  0.750000  0.680744  0.445012  1
  Tm  Tm4  1  0.250000  0.476427  0.215513  1
  Tm  Tm5  1  0.250000  0.976820  0.286073  1
  Tm  Tm6  1  0.750000  0.522265  0.783503  1
  Tm  Tm7  1  0.750000  0.022763  0.715844  1
  Mn  Mn8  1  0.250000  0.271945  0.859522  1
  Mn  Mn9  1  0.250000  0.772175  0.640362  1
  Mn  Mn10  1  0.750000  0.727949  0.141781  1
  Fe  Fe11  1  0.750000  0.227835  0.358609  1
  C  C12  1  0.250000  0.037354  0.739176  1
  C  C13  1  0.250000  0.537922  0.760606  1
  C  C14  1  0.750000  0.961661  0.259665  1
  C  C15  1  0.750000  0.462912  0.239172  1
  C  C16  1  0.250000  0.689150  0.458762  1
  C  C17  1  0.250000  0.190165  0.040398  1
  C  C18  1  0.750000  0.312840  0.539376  1
  C  C19  1  0.750000  0.811584  0.960568  1
