# generated using pymatgen
data_Pr8Tm9Lu3Pb16
_symmetry_space_group_name_H-M   'P 1'
_cell_length_a   8.23636531
_cell_length_b   8.36793916
_cell_length_c   15.71973400
_cell_angle_alpha   90.00000000
_cell_angle_beta   90.00000000
_cell_angle_gamma   90.12216091
_symmetry_Int_Tables_number   1
_chemical_formula_structural   Pr8Tm9Lu3Pb16
_chemical_formula_sum   'Pr8 Tm9 Lu3 Pb16'
_cell_volume   1083.42367166
_cell_formula_units_Z   1
loop_
 _symmetry_equiv_pos_site_id
 _symmetry_equiv_pos_as_xyz
  1  'x, y, z'
loop_
 _atom_site_type_symbol
 _atom_site_label
 _atom_site_symmetry_multiplicity
 _atom_site_fract_x
 _atom_site_fract_y
 _atom_site_fract_z
 _atom_site_occupancy
  Pr  Pr0  1  0.478527  0.677557  0.596430  1
  Pr  Pr1  1  0.978521  0.822625  0.903488  1
  Pr  Pr2  1  0.521442  0.322734  0.096351  1
  Pr  Pr3  1  0.021496  0.177454  0.403610  1
  Pr  Pr4  1  0.521442  0.322734  0.403649  1
  Pr  Pr5  1  0.021496  0.177454  0.096390  1
  Pr  Pr6  1  0.478527  0.677557  0.903570  1
  Pr  Pr7  1  0.978521  0.822625  0.596512  1
  Tm  Tm8  1  0.639448  0.158077  0.623500  1
  Tm  Tm9  1  0.139367  0.341791  0.876468  1
  Tm  Tm10  1  0.360327  0.841753  0.123381  1
  Tm  Tm11  1  0.860768  0.658173  0.376534  1
  Tm  Tm12  1  0.360327  0.841753  0.376619  1
  Tm  Tm13  1  0.860768  0.658173  0.123466  1
  Tm  Tm14  1  0.639448  0.158077  0.876500  1
  Tm  Tm15  1  0.139367  0.341791  0.623532  1
  Tm  Tm16  1  0.694524  0.994439  0.250000  1
  Lu  Lu17  1  0.805414  0.494044  0.750000  1
  Lu  Lu18  1  0.305362  0.005635  0.750000  1
  Lu  Lu19  1  0.194746  0.505998  0.250000  1
  Pb  Pb20  1  0.700508  0.957535  0.456502  1
  Pb  Pb21  1  0.200467  0.541902  0.043828  1
  Pb  Pb22  1  0.299276  0.042556  0.956116  1
  Pb  Pb23  1  0.799444  0.457894  0.543980  1
  Pb  Pb24  1  0.299276  0.042556  0.543884  1
  Pb  Pb25  1  0.799444  0.457894  0.956020  1
  Pb  Pb26  1  0.700508  0.957535  0.043498  1
  Pb  Pb27  1  0.200467  0.541902  0.456172  1
  Pb  Pb28  1  0.444092  0.370627  0.750000  1
  Pb  Pb29  1  0.943994  0.129114  0.750000  1
  Pb  Pb30  1  0.555830  0.629156  0.250000  1
  Pb  Pb31  1  0.056586  0.870501  0.250000  1
  Pb  Pb32  1  0.667554  0.848887  0.750000  1
  Pb  Pb33  1  0.167406  0.651064  0.750000  1
  Pb  Pb34  1  0.332589  0.151196  0.250000  1
  Pb  Pb35  1  0.832719  0.349237  0.250000  1
