# generated using pymatgen
data_Y4Al18RePd5
_symmetry_space_group_name_H-M   'P 1'
_cell_length_a   7.65090227
_cell_length_b   7.65090192
_cell_length_c   9.52544677
_cell_angle_alpha   90.15995937
_cell_angle_beta   90.15996538
_cell_angle_gamma   119.83868565
_symmetry_Int_Tables_number   1
_chemical_formula_structural   Y4Al18RePd5
_chemical_formula_sum   'Y4 Al18 Re1 Pd5'
_cell_volume   483.65779978
_cell_formula_units_Z   1
loop_
 _symmetry_equiv_pos_site_id
 _symmetry_equiv_pos_as_xyz
  1  'x, y, z'
loop_
 _atom_site_type_symbol
 _atom_site_label
 _atom_site_symmetry_multiplicity
 _atom_site_fract_x
 _atom_site_fract_y
 _atom_site_fract_z
 _atom_site_occupancy
  Y  Y0  1  0.993355  0.666471  0.248093  1
  Y  Y1  1  0.003179  0.330507  0.751614  1
  Y  Y2  1  0.669493  0.996821  0.248386  1
  Y  Y3  1  0.333529  0.006645  0.751907  1
  Al  Al4  1  0.127819  0.129366  0.249791  1
  Al  Al5  1  0.870634  0.872181  0.750209  1
  Al  Al6  1  0.998996  0.333836  0.074423  1
  Al  Al7  1  0.995313  0.660673  0.925299  1
  Al  Al8  1  0.000273  0.667948  0.577597  1
  Al  Al9  1  0.332052  0.999727  0.422403  1
  Al  Al10  1  0.001007  0.334389  0.423794  1
  Al  Al11  1  0.665611  0.998993  0.576206  1
  Al  Al12  1  0.666164  0.001004  0.925577  1
  Al  Al13  1  0.339327  0.004687  0.074701  1
  Al  Al14  1  0.333689  0.335005  0.559283  1
  Al  Al15  1  0.664995  0.666311  0.440717  1
  Al  Al16  1  0.667198  0.661072  0.054046  1
  Al  Al17  1  0.338928  0.332802  0.945954  1
  Al  Al18  1  0.336773  0.545953  0.249623  1
  Al  Al19  1  0.661733  0.455065  0.752972  1
  Al  Al20  1  0.544935  0.338267  0.247028  1
  Al  Al21  1  0.454047  0.663227  0.750377  1
  Re  Re22  1  0.673132  0.326868  0.000000  1
  Pd  Pd23  1  0.328361  0.671639  0.000000  1
  Pd  Pd24  1  0.327431  0.672569  0.500000  1
  Pd  Pd25  1  0.671543  0.328457  0.500000  1
  Pd  Pd26  1  0.000895  0.999105  0.000000  1
  Pd  Pd27  1  0.999587  0.000413  0.500000  1
