# generated using pymatgen
data_Sm2YSn3Hg2
_symmetry_space_group_name_H-M   'P 1'
_cell_length_a   6.50343538
_cell_length_b   6.50343528
_cell_length_c   10.30668800
_cell_angle_alpha   90.00000000
_cell_angle_beta   90.00000000
_cell_angle_gamma   102.75364929
_symmetry_Int_Tables_number   1
_chemical_formula_structural   Sm2YSn3Hg2
_chemical_formula_sum   'Sm4 Y2 Sn6 Hg4'
_cell_volume   425.16312521
_cell_formula_units_Z   2
loop_
 _symmetry_equiv_pos_site_id
 _symmetry_equiv_pos_as_xyz
  1  'x, y, z'
loop_
 _atom_site_type_symbol
 _atom_site_label
 _atom_site_symmetry_multiplicity
 _atom_site_fract_x
 _atom_site_fract_y
 _atom_site_fract_z
 _atom_site_occupancy
  Sm  Sm0  1  0.794994  0.205006  0.000000  1
  Sm  Sm1  1  0.205006  0.794994  0.000000  1
  Sm  Sm2  1  0.205006  0.794994  0.500000  1
  Sm  Sm3  1  0.794994  0.205006  0.500000  1
  Y  Y4  1  0.623886  0.623886  0.250000  1
  Y  Y5  1  0.376114  0.376114  0.750000  1
  Sn  Sn6  1  0.063875  0.492431  0.250000  1
  Sn  Sn7  1  0.936125  0.507569  0.750000  1
  Sn  Sn8  1  0.492431  0.063875  0.250000  1
  Sn  Sn9  1  0.507569  0.936125  0.750000  1
  Sn  Sn10  1  0.012066  0.012066  0.250000  1
  Sn  Sn11  1  0.987934  0.987934  0.750000  1
  Hg  Hg12  1  0.313733  0.313733  0.039335  1
  Hg  Hg13  1  0.686267  0.686267  0.960665  1
  Hg  Hg14  1  0.686267  0.686267  0.539335  1
  Hg  Hg15  1  0.313733  0.313733  0.460665  1
