# generated using pymatgen
data_Dy2Fe3Ni7P6
_symmetry_space_group_name_H-M   'P 1'
_cell_length_a   3.69696200
_cell_length_b   10.30464000
_cell_length_c   11.88859000
_cell_angle_alpha   90.00000000
_cell_angle_beta   90.00000000
_cell_angle_gamma   90.00000000
_symmetry_Int_Tables_number   1
_chemical_formula_structural   Dy2Fe3Ni7P6
_chemical_formula_sum   'Dy4 Fe6 Ni14 P12'
_cell_volume   452.90609000
_cell_formula_units_Z   2
loop_
 _symmetry_equiv_pos_site_id
 _symmetry_equiv_pos_as_xyz
  1  'x, y, z'
loop_
 _atom_site_type_symbol
 _atom_site_label
 _atom_site_symmetry_multiplicity
 _atom_site_fract_x
 _atom_site_fract_y
 _atom_site_fract_z
 _atom_site_occupancy
  Dy  Dy0  1  0.250000  0.576080  0.704529  1
  Dy  Dy1  1  0.250000  0.923920  0.204529  1
  Dy  Dy2  1  0.750000  0.419247  0.295353  1
  Dy  Dy3  1  0.750000  0.080753  0.795353  1
  Fe  Fe4  1  0.750000  0.125376  0.298837  1
  Fe  Fe5  1  0.750000  0.374624  0.798837  1
  Fe  Fe6  1  0.250000  0.465064  0.932310  1
  Fe  Fe7  1  0.250000  0.034936  0.432310  1
  Fe  Fe8  1  0.750000  0.539227  0.068973  1
  Fe  Fe9  1  0.750000  0.960773  0.568973  1
  Ni  Ni10  1  0.250000  0.716581  0.997944  1
  Ni  Ni11  1  0.250000  0.783419  0.497944  1
  Ni  Ni12  1  0.750000  0.288823  0.007926  1
  Ni  Ni13  1  0.750000  0.211177  0.507926  1
  Ni  Ni14  1  0.250000  0.406256  0.485349  1
  Ni  Ni15  1  0.250000  0.093744  0.985349  1
  Ni  Ni16  1  0.750000  0.590000  0.511743  1
  Ni  Ni17  1  0.750000  0.910000  0.011743  1
  Ni  Ni18  1  0.250000  0.226730  0.171862  1
  Ni  Ni19  1  0.250000  0.273270  0.671862  1
  Ni  Ni20  1  0.750000  0.773295  0.824456  1
  Ni  Ni21  1  0.750000  0.726705  0.324456  1
  Ni  Ni22  1  0.250000  0.874756  0.702968  1
  Ni  Ni23  1  0.250000  0.625244  0.202968  1
  P  P24  1  0.250000  0.429383  0.111440  1
  P  P25  1  0.250000  0.070617  0.611440  1
  P  P26  1  0.750000  0.569137  0.886930  1
  P  P27  1  0.750000  0.930863  0.386930  1
  P  P28  1  0.250000  0.272622  0.864014  1
  P  P29  1  0.250000  0.227378  0.364014  1
  P  P30  1  0.750000  0.733967  0.131711  1
  P  P31  1  0.750000  0.766033  0.631711  1
  P  P32  1  0.250000  0.603987  0.393176  1
  P  P33  1  0.250000  0.896013  0.893176  1
  P  P34  1  0.750000  0.393087  0.610481  1
  P  P35  1  0.750000  0.106913  0.110481  1
