# generated using pymatgen
data_Sc3Ni20(BP2)2
_symmetry_space_group_name_H-M   'P 1'
_cell_length_a   7.76997337
_cell_length_b   7.76997249
_cell_length_c   7.72345500
_cell_angle_alpha   60.19785012
_cell_angle_beta   60.19785384
_cell_angle_gamma   59.54449573
_symmetry_Int_Tables_number   1
_chemical_formula_structural   Sc3Ni20(BP2)2
_chemical_formula_sum   'Sc3 Ni20 B2 P4'
_cell_volume   329.53517740
_cell_formula_units_Z   1
loop_
 _symmetry_equiv_pos_site_id
 _symmetry_equiv_pos_as_xyz
  1  'x, y, z'
loop_
 _atom_site_type_symbol
 _atom_site_label
 _atom_site_symmetry_multiplicity
 _atom_site_fract_x
 _atom_site_fract_y
 _atom_site_fract_z
 _atom_site_occupancy
  Sc  Sc0  1  0.000000  0.000000  0.997883  1
  Sc  Sc1  1  0.750242  0.750242  0.747110  1
  Sc  Sc2  1  0.249758  0.249758  0.247594  1
  Ni  Ni3  1  0.616688  0.616688  0.150883  1
  Ni  Ni4  1  0.619787  0.154894  0.620811  1
  Ni  Ni5  1  0.154894  0.619787  0.620811  1
  Ni  Ni6  1  0.610528  0.610528  0.622925  1
  Ni  Ni7  1  0.389472  0.389472  0.843981  1
  Ni  Ni8  1  0.380213  0.845106  0.395493  1
  Ni  Ni9  1  0.845106  0.380213  0.395493  1
  Ni  Ni10  1  0.383312  0.383312  0.384260  1
  Ni  Ni11  1  0.000000  0.000000  0.355567  1
  Ni  Ni12  1  0.645789  0.000775  0.352915  1
  Ni  Ni13  1  0.000775  0.645789  0.352915  1
  Ni  Ni14  1  0.652775  0.347225  0.988647  1
  Ni  Ni15  1  0.999225  0.354211  0.999480  1
  Ni  Ni16  1  0.988222  0.343279  0.656155  1
  Ni  Ni17  1  0.347225  0.652775  0.988647  1
  Ni  Ni18  1  0.343279  0.988222  0.656155  1
  Ni  Ni19  1  0.354211  0.999225  0.999480  1
  Ni  Ni20  1  0.000000  0.000000  0.660217  1
  Ni  Ni21  1  0.011778  0.656721  0.987655  1
  Ni  Ni22  1  0.656721  0.011778  0.987655  1
  B  B23  1  0.734576  0.265424  0.733421  1
  B  B24  1  0.265424  0.734576  0.733421  1
  P  P25  1  0.736229  0.736229  0.261781  1
  P  P26  1  0.263840  0.736160  0.262202  1
  P  P27  1  0.736160  0.263840  0.262202  1
  P  P28  1  0.263771  0.263771  0.734238  1
