# generated using pymatgen
data_Li4Ac3LaGe8
_symmetry_space_group_name_H-M   'P 1'
_cell_length_a   4.13426600
_cell_length_b   8.04926418
_cell_length_c   11.11439723
_cell_angle_alpha   90.02369613
_cell_angle_beta   90.00000000
_cell_angle_gamma   90.00000000
_symmetry_Int_Tables_number   1
_chemical_formula_structural   Li4Ac3LaGe8
_chemical_formula_sum   'Li4 Ac3 La1 Ge8'
_cell_volume   369.86264778
_cell_formula_units_Z   1
loop_
 _symmetry_equiv_pos_site_id
 _symmetry_equiv_pos_as_xyz
  1  'x, y, z'
loop_
 _atom_site_type_symbol
 _atom_site_label
 _atom_site_symmetry_multiplicity
 _atom_site_fract_x
 _atom_site_fract_y
 _atom_site_fract_z
 _atom_site_occupancy
  Li  Li0  1  0.250000  0.992611  0.388306  1
  Li  Li1  1  0.250000  0.493954  0.113343  1
  Li  Li2  1  0.750000  0.006779  0.609910  1
  Li  Li3  1  0.750000  0.506092  0.888030  1
  Ac  Ac4  1  0.250000  0.139376  0.866800  1
  Ac  Ac5  1  0.250000  0.637262  0.632148  1
  Ac  Ac6  1  0.750000  0.862434  0.134393  1
  La  La7  1  0.750000  0.364111  0.366299  1
  Ge  Ge8  1  0.250000  0.216740  0.564484  1
  Ge  Ge9  1  0.250000  0.712549  0.930451  1
  Ge  Ge10  1  0.750000  0.782856  0.429247  1
  Ge  Ge11  1  0.750000  0.288677  0.073414  1
  Ge  Ge12  1  0.250000  0.657986  0.320283  1
  Ge  Ge13  1  0.250000  0.169082  0.185494  1
  Ge  Ge14  1  0.750000  0.334126  0.677697  1
  Ge  Ge15  1  0.750000  0.835367  0.819699  1
