# generated using pymatgen
data_KSrMoN3
_symmetry_space_group_name_H-M   'P 1'
_cell_length_a   6.53974645
_cell_length_b   6.53974707
_cell_length_c   12.73723911
_cell_angle_alpha   90.03088552
_cell_angle_beta   90.03088567
_cell_angle_gamma   124.67833135
_symmetry_Int_Tables_number   1
_chemical_formula_structural   KSrMoN3
_chemical_formula_sum   'K4 Sr4 Mo4 N12'
_cell_volume   447.97983764
_cell_formula_units_Z   4
loop_
 _symmetry_equiv_pos_site_id
 _symmetry_equiv_pos_as_xyz
  1  'x, y, z'
loop_
 _atom_site_type_symbol
 _atom_site_label
 _atom_site_symmetry_multiplicity
 _atom_site_fract_x
 _atom_site_fract_y
 _atom_site_fract_z
 _atom_site_occupancy
  K  K0  1  0.963674  0.549039  0.360948  1
  K  K1  1  0.450961  0.036326  0.139052  1
  K  K2  1  0.036326  0.450961  0.639052  1
  K  K3  1  0.549039  0.963674  0.860948  1
  Sr  Sr4  1  0.131529  0.347274  0.082529  1
  Sr  Sr5  1  0.652726  0.868471  0.417471  1
  Sr  Sr6  1  0.868471  0.652726  0.917471  1
  Sr  Sr7  1  0.347274  0.131529  0.582529  1
  Mo  Mo8  1  0.767793  0.726872  0.163321  1
  Mo  Mo9  1  0.273128  0.232207  0.336679  1
  Mo  Mo10  1  0.232207  0.273128  0.836679  1
  Mo  Mo11  1  0.726872  0.767793  0.663321  1
  N  N12  1  0.473185  0.526815  0.250000  1
  N  N13  1  0.526815  0.473185  0.750000  1
  N  N14  1  0.910314  0.568612  0.120197  1
  N  N15  1  0.431388  0.089686  0.379803  1
  N  N16  1  0.089686  0.431388  0.879803  1
  N  N17  1  0.568612  0.910314  0.620197  1
  N  N18  1  0.829234  0.691896  0.546559  1
  N  N19  1  0.308104  0.170766  0.953441  1
  N  N20  1  0.170766  0.308104  0.453441  1
  N  N21  1  0.691896  0.829234  0.046559  1
  N  N22  1  0.985272  0.014728  0.250000  1
  N  N23  1  0.014728  0.985272  0.750000  1
