# generated using pymatgen
data_Pr9Nd3Os2(PtBr6)2
_symmetry_space_group_name_H-M   'P 1'
_cell_length_a   10.61967640
_cell_length_b   10.62267481
_cell_length_c   10.54495972
_cell_angle_alpha   109.54652649
_cell_angle_beta   109.41191731
_cell_angle_gamma   109.78241842
_symmetry_Int_Tables_number   1
_chemical_formula_structural   Pr9Nd3Os2(PtBr6)2
_chemical_formula_sum   'Pr9 Nd3 Os2 Pt2 Br12'
_cell_volume   912.00773904
_cell_formula_units_Z   1
loop_
 _symmetry_equiv_pos_site_id
 _symmetry_equiv_pos_as_xyz
  1  'x, y, z'
loop_
 _atom_site_type_symbol
 _atom_site_label
 _atom_site_symmetry_multiplicity
 _atom_site_fract_x
 _atom_site_fract_y
 _atom_site_fract_z
 _atom_site_occupancy
  Pr  Pr0  1  0.230145  0.468501  0.488626  1
  Pr  Pr1  1  0.262163  0.741175  0.231628  1
  Pr  Pr2  1  0.031385  0.269748  0.011136  1
  Pr  Pr3  1  0.009270  0.030442  0.268646  1
  Pr  Pr4  1  0.480035  0.741632  0.011610  1
  Pr  Pr5  1  0.485764  0.235462  0.470787  1
  Pr  Pr6  1  0.014906  0.484085  0.749269  1
  Pr  Pr7  1  0.264786  0.014837  0.029226  1
  Pr  Pr8  1  0.234610  0.265451  0.750248  1
  Nd  Nd9  1  0.468936  0.490033  0.231119  1
  Nd  Nd10  1  0.758870  0.237607  0.269057  1
  Nd  Nd11  1  0.758674  0.020801  0.488304  1
  Os  Os12  1  0.998553  0.249111  0.498771  1
  Os  Os13  1  0.250856  0.500342  0.001250  1
  Pt  Pt14  1  0.251120  0.250095  0.250007  1
  Pt  Pt15  1  0.500697  0.001116  0.250588  1
  Br  Br16  1  0.250366  0.755307  0.746433  1
  Br  Br17  1  0.508912  0.503957  0.753577  1
  Br  Br18  1  0.994202  0.747426  0.997007  1
  Br  Br19  1  0.744660  0.248921  0.753009  1
  Br  Br20  1  0.995471  0.991079  0.745881  1
  Br  Br21  1  0.250418  0.997202  0.503026  1
  Br  Br22  1  0.752254  0.505368  0.501877  1
  Br  Br23  1  0.503485  0.250345  0.998158  1
  Br  Br24  1  0.753905  0.745628  0.250784  1
  Br  Br25  1  0.746443  0.997223  0.993583  1
  Br  Br26  1  0.995014  0.503797  0.250000  1
  Br  Br27  1  0.504099  0.753312  0.506396  1
