# generated using pymatgen
data_HoEr6Sn23Ru6
_symmetry_space_group_name_H-M   'P 1'
_cell_length_a   9.83266900
_cell_length_b   9.83267049
_cell_length_c   10.06908800
_cell_angle_alpha   90.00000000
_cell_angle_beta   90.00000000
_cell_angle_gamma   120.00000507
_symmetry_Int_Tables_number   1
_chemical_formula_structural   HoEr6Sn23Ru6
_chemical_formula_sum   'Ho1 Er6 Sn23 Ru6'
_cell_volume   843.07003040
_cell_formula_units_Z   1
loop_
 _symmetry_equiv_pos_site_id
 _symmetry_equiv_pos_as_xyz
  1  'x, y, z'
loop_
 _atom_site_type_symbol
 _atom_site_label
 _atom_site_symmetry_multiplicity
 _atom_site_fract_x
 _atom_site_fract_y
 _atom_site_fract_z
 _atom_site_occupancy
  Ho  Ho0  1  0.000000  0.000000  0.000000  1
  Er  Er1  1  0.484839  0.515161  0.302819  1
  Er  Er2  1  0.515161  0.484839  0.697181  1
  Er  Er3  1  0.484839  0.969679  0.302819  1
  Er  Er4  1  0.515161  0.030321  0.697181  1
  Er  Er5  1  0.030321  0.515161  0.302819  1
  Er  Er6  1  0.969679  0.484839  0.697181  1
  Sn  Sn7  1  0.118773  0.881227  0.274039  1
  Sn  Sn8  1  0.881227  0.118773  0.725961  1
  Sn  Sn9  1  0.118773  0.237546  0.274039  1
  Sn  Sn10  1  0.881227  0.762454  0.725961  1
  Sn  Sn11  1  0.762454  0.881227  0.274039  1
  Sn  Sn12  1  0.237546  0.118773  0.725961  1
  Sn  Sn13  1  0.779848  0.220152  0.462588  1
  Sn  Sn14  1  0.220152  0.779848  0.537412  1
  Sn  Sn15  1  0.779848  0.559698  0.462588  1
  Sn  Sn16  1  0.220152  0.440302  0.537412  1
  Sn  Sn17  1  0.440302  0.220152  0.462588  1
  Sn  Sn18  1  0.559698  0.779848  0.537412  1
  Sn  Sn19  1  0.348918  0.000000  0.000000  1
  Sn  Sn20  1  0.651082  0.000000  0.000000  1
  Sn  Sn21  1  0.000000  0.348918  0.000000  1
  Sn  Sn22  1  0.000000  0.651082  0.000000  1
  Sn  Sn23  1  0.651082  0.651082  0.000000  1
  Sn  Sn24  1  0.348918  0.348918  0.000000  1
  Sn  Sn25  1  0.333333  0.666667  0.129034  1
  Sn  Sn26  1  0.666667  0.333333  0.870966  1
  Sn  Sn27  1  0.333333  0.666667  0.822145  1
  Sn  Sn28  1  0.666667  0.333333  0.177855  1
  Sn  Sn29  1  0.000000  0.000000  0.500000  1
  Ru  Ru30  1  0.829837  0.170163  0.202437  1
  Ru  Ru31  1  0.170163  0.829837  0.797563  1
  Ru  Ru32  1  0.829837  0.659676  0.202437  1
  Ru  Ru33  1  0.170163  0.340324  0.797563  1
  Ru  Ru34  1  0.340324  0.170163  0.202437  1
  Ru  Ru35  1  0.659676  0.829837  0.797563  1
