# generated using pymatgen
data_Sc2Ga(H6Ir)2
_symmetry_space_group_name_H-M   'P 1'
_cell_length_a   4.70850700
_cell_length_b   4.70850840
_cell_length_c   8.48797900
_cell_angle_alpha   90.00000000
_cell_angle_beta   90.00000000
_cell_angle_gamma   119.99999721
_symmetry_Int_Tables_number   1
_chemical_formula_structural   Sc2Ga(H6Ir)2
_chemical_formula_sum   'Sc2 Ga1 H12 Ir2'
_cell_volume   162.96769011
_cell_formula_units_Z   1
loop_
 _symmetry_equiv_pos_site_id
 _symmetry_equiv_pos_as_xyz
  1  'x, y, z'
loop_
 _atom_site_type_symbol
 _atom_site_label
 _atom_site_symmetry_multiplicity
 _atom_site_fract_x
 _atom_site_fract_y
 _atom_site_fract_z
 _atom_site_occupancy
  Sc  Sc0  1  0.666667  0.333333  0.370066  1
  Sc  Sc1  1  0.333333  0.666667  0.629934  1
  Ga  Ga2  1  0.000000  0.000000  0.000000  1
  H  H3  1  0.159715  0.840285  0.393786  1
  H  H4  1  0.680571  0.840285  0.393786  1
  H  H5  1  0.159715  0.319429  0.393786  1
  H  H6  1  0.840285  0.159715  0.606214  1
  H  H7  1  0.319429  0.159715  0.606214  1
  H  H8  1  0.840285  0.680571  0.606214  1
  H  H9  1  0.500415  0.000830  0.833976  1
  H  H10  1  0.500415  0.499585  0.833976  1
  H  H11  1  0.999170  0.499585  0.833976  1
  H  H12  1  0.499585  0.999170  0.166024  1
  H  H13  1  0.499585  0.500415  0.166024  1
  H  H14  1  0.000830  0.500415  0.166024  1
  Ir  Ir15  1  0.666667  0.333333  0.716295  1
  Ir  Ir16  1  0.333333  0.666667  0.283705  1
