# generated using pymatgen
data_SbPPbO5
_symmetry_space_group_name_H-M   'P 1'
_cell_length_a   6.02680552
_cell_length_b   7.02720803
_cell_length_c   6.96526181
_cell_angle_alpha   106.14129092
_cell_angle_beta   109.13879761
_cell_angle_gamma   103.38765438
_symmetry_Int_Tables_number   1
_chemical_formula_structural   SbPPbO5
_chemical_formula_sum   'Sb2 P2 Pb2 O10'
_cell_volume   250.20369735
_cell_formula_units_Z   2
loop_
 _symmetry_equiv_pos_site_id
 _symmetry_equiv_pos_as_xyz
  1  'x, y, z'
loop_
 _atom_site_type_symbol
 _atom_site_label
 _atom_site_symmetry_multiplicity
 _atom_site_fract_x
 _atom_site_fract_y
 _atom_site_fract_z
 _atom_site_occupancy
  Sb  Sb0  1  0.620112  0.261825  0.559802  1
  Sb  Sb1  1  0.379888  0.738175  0.440198  1
  P  P2  1  0.180230  0.663494  0.865930  1
  P  P3  1  0.819770  0.336506  0.134070  1
  Pb  Pb4  1  0.166023  0.116837  0.828960  1
  Pb  Pb5  1  0.833977  0.883163  0.171040  1
  O  O6  1  0.269035  0.989511  0.460320  1
  O  O7  1  0.955741  0.577944  0.285032  1
  O  O8  1  0.654038  0.317403  0.898514  1
  O  O9  1  0.362305  0.777667  0.784617  1
  O  O10  1  0.345962  0.682597  0.101486  1
  O  O11  1  0.730965  0.010489  0.539680  1
  O  O12  1  0.983473  0.771352  0.869040  1
  O  O13  1  0.044259  0.422056  0.714968  1
  O  O14  1  0.016527  0.228648  0.130960  1
  O  O15  1  0.637695  0.222333  0.215383  1
