# generated using pymatgen
data_Zr3ScSi4Ge2Ir7
_symmetry_space_group_name_H-M   'P 1'
_cell_length_a   7.04357412
_cell_length_b   7.06000765
_cell_length_c   7.06000861
_cell_angle_alpha   109.86664116
_cell_angle_beta   109.21087592
_cell_angle_gamma   109.21088039
_symmetry_Int_Tables_number   1
_chemical_formula_structural   Zr3ScSi4Ge2Ir7
_chemical_formula_sum   'Zr3 Sc1 Si4 Ge2 Ir7'
_cell_volume   270.66800542
_cell_formula_units_Z   1
loop_
 _symmetry_equiv_pos_site_id
 _symmetry_equiv_pos_as_xyz
  1  'x, y, z'
loop_
 _atom_site_type_symbol
 _atom_site_label
 _atom_site_symmetry_multiplicity
 _atom_site_fract_x
 _atom_site_fract_y
 _atom_site_fract_z
 _atom_site_occupancy
  Zr  Zr0  1  0.000180  0.000836  0.528893  1
  Zr  Zr1  1  0.999820  0.471107  0.999164  1
  Zr  Zr2  1  0.500000  0.000744  0.999256  1
  Sc  Sc3  1  0.500000  0.500949  0.499051  1
  Si  Si4  1  0.002412  0.318981  0.324740  1
  Si  Si5  1  0.333006  0.329992  0.005508  1
  Si  Si6  1  0.666994  0.994492  0.670008  1
  Si  Si7  1  0.997588  0.675260  0.681019  1
  Ge  Ge8  1  0.697298  0.693215  0.000876  1
  Ge  Ge9  1  0.302702  0.999124  0.306785  1
  Ir  Ir10  1  0.752382  0.250946  0.500783  1
  Ir  Ir11  1  0.751644  0.498972  0.252382  1
  Ir  Ir12  1  0.500000  0.248799  0.751201  1
  Ir  Ir13  1  0.247618  0.499217  0.749054  1
  Ir  Ir14  1  0.248356  0.747618  0.501028  1
  Ir  Ir15  1  0.500000  0.749552  0.250448  1
  Ir  Ir16  1  0.000000  0.020195  0.979805  1
