# generated using pymatgen
data_CaNb6OsS12
_symmetry_space_group_name_H-M   'P 1'
_cell_length_a   5.77184500
_cell_length_b   5.77184491
_cell_length_c   13.18193800
_cell_angle_alpha   90.00000000
_cell_angle_beta   90.00000000
_cell_angle_gamma   120.00000627
_symmetry_Int_Tables_number   1
_chemical_formula_structural   CaNb6OsS12
_chemical_formula_sum   'Ca1 Nb6 Os1 S12'
_cell_volume   380.31125791
_cell_formula_units_Z   1
loop_
 _symmetry_equiv_pos_site_id
 _symmetry_equiv_pos_as_xyz
  1  'x, y, z'
loop_
 _atom_site_type_symbol
 _atom_site_label
 _atom_site_symmetry_multiplicity
 _atom_site_fract_x
 _atom_site_fract_y
 _atom_site_fract_z
 _atom_site_occupancy
  Ca  Ca0  1  0.333333  0.666667  0.250000  1
  Nb  Nb1  1  0.333333  0.666667  0.975632  1
  Nb  Nb2  1  0.000000  0.000000  0.975474  1
  Nb  Nb3  1  0.000000  0.000000  0.524526  1
  Nb  Nb4  1  0.333333  0.666667  0.524368  1
  Nb  Nb5  1  0.666667  0.333333  0.978532  1
  Nb  Nb6  1  0.666667  0.333333  0.521468  1
  Os  Os7  1  0.666667  0.333333  0.750000  1
  S  S8  1  0.331730  0.002313  0.097583  1
  S  S9  1  0.666674  0.000721  0.642353  1
  S  S10  1  0.997687  0.329416  0.097583  1
  S  S11  1  0.670584  0.002313  0.402417  1
  S  S12  1  0.331730  0.329416  0.402417  1
  S  S13  1  0.997687  0.668270  0.402417  1
  S  S14  1  0.670584  0.668270  0.097583  1
  S  S15  1  0.334048  0.333326  0.642353  1
  S  S16  1  0.999279  0.665952  0.642353  1
  S  S17  1  0.334048  0.000721  0.857647  1
  S  S18  1  0.666674  0.665952  0.857647  1
  S  S19  1  0.999279  0.333326  0.857647  1
