# generated using pymatgen
data_Li30Si7Ag
_symmetry_space_group_name_H-M   'P 1'
_cell_length_a   9.20253834
_cell_length_b   9.20253731
_cell_length_c   9.24401400
_cell_angle_alpha   109.56254711
_cell_angle_beta   109.56254484
_cell_angle_gamma   109.37974450
_symmetry_Int_Tables_number   1
_chemical_formula_structural   Li30Si7Ag
_chemical_formula_sum   'Li30 Si7 Ag1'
_cell_volume   601.95383107
_cell_formula_units_Z   1
loop_
 _symmetry_equiv_pos_site_id
 _symmetry_equiv_pos_as_xyz
  1  'x, y, z'
loop_
 _atom_site_type_symbol
 _atom_site_label
 _atom_site_symmetry_multiplicity
 _atom_site_fract_x
 _atom_site_fract_y
 _atom_site_fract_z
 _atom_site_occupancy
  Li  Li0  1  0.335792  0.800329  0.733132  1
  Li  Li1  1  0.121036  0.748891  0.871951  1
  Li  Li2  1  0.730196  0.354802  0.816477  1
  Li  Li3  1  0.624606  0.769804  0.586280  1
  Li  Li4  1  0.029809  0.912236  0.689882  1
  Li  Li5  1  0.084056  0.272514  0.113599  1
  Li  Li6  1  0.915188  0.695610  0.032472  1
  Li  Li7  1  0.272475  0.115396  0.085360  1
  Li  Li8  1  0.188457  0.415944  0.529542  1
  Li  Li9  1  0.780423  0.584812  0.617285  1
  Li  Li10  1  0.699671  0.035463  0.932802  1
  Li  Li11  1  0.534787  0.198680  0.405241  1
  Li  Li12  1  0.627855  0.378964  0.250915  1
  Li  Li13  1  0.464537  0.164208  0.897339  1
  Li  Li14  1  0.892166  0.129509  0.758414  1
  Li  Li15  1  0.972336  0.386019  0.661894  1
  Li  Li16  1  0.413683  0.527664  0.189557  1
  Li  Li17  1  0.113981  0.086317  0.275875  1
  Li  Li18  1  0.301320  0.836107  0.206561  1
  Li  Li19  1  0.751109  0.872145  0.123060  1
  Li  Li20  1  0.882428  0.470191  0.160073  1
  Li  Li21  1  0.587764  0.617572  0.777646  1
  Li  Li22  1  0.384604  0.657079  0.969964  1
  Li  Li23  1  0.804390  0.719577  0.336862  1
  Li  Li24  1  0.663893  0.965213  0.370455  1
  Li  Li25  1  0.145198  0.875394  0.461674  1
  Li  Li26  1  0.227486  0.311543  0.841085  1
  Li  Li27  1  0.370491  0.262656  0.628905  1
  Li  Li28  1  0.842921  0.227525  0.312885  1
  Li  Li29  1  0.237344  0.607834  0.366249  1
  Si  Si30  1  0.584706  0.497456  0.996835  1
  Si  Si31  1  0.500000  0.000000  0.085280  1
  Si  Si32  1  0.001665  0.085826  0.502428  1
  Si  Si33  1  0.002544  0.587250  0.499379  1
  Si  Si34  1  0.084160  0.498335  0.000763  1
  Si  Si35  1  0.414174  0.415840  0.416603  1
  Si  Si36  1  0.912750  0.915294  0.912129  1
  Ag  Ag37  1  0.500000  0.000000  0.583146  1
