# generated using pymatgen
data_Tb2Nd4Sm4B2Br15
_symmetry_space_group_name_H-M   'P 1'
_cell_length_a   9.31566464
_cell_length_b   10.08108176
_cell_length_c   10.93001365
_cell_angle_alpha   91.36823837
_cell_angle_beta   114.36469851
_cell_angle_gamma   110.79205564
_symmetry_Int_Tables_number   1
_chemical_formula_structural   Tb2Nd4Sm4B2Br15
_chemical_formula_sum   'Tb2 Nd4 Sm4 B2 Br15'
_cell_volume   856.48497639
_cell_formula_units_Z   1
loop_
 _symmetry_equiv_pos_site_id
 _symmetry_equiv_pos_as_xyz
  1  'x, y, z'
loop_
 _atom_site_type_symbol
 _atom_site_label
 _atom_site_symmetry_multiplicity
 _atom_site_fract_x
 _atom_site_fract_y
 _atom_site_fract_z
 _atom_site_occupancy
  Tb  Tb0  1  0.718631  0.073218  0.047029  1
  Tb  Tb1  1  0.281369  0.926782  0.952971  1
  Nd  Nd2  1  0.801505  0.409757  0.277251  1
  Nd  Nd3  1  0.198495  0.590243  0.722749  1
  Nd  Nd4  1  0.674807  0.746696  0.819391  1
  Nd  Nd5  1  0.325193  0.253304  0.180609  1
  Sm  Sm6  1  0.525489  0.705826  0.094771  1
  Sm  Sm7  1  0.474511  0.294174  0.905229  1
  Sm  Sm8  1  0.585302  0.038897  0.322508  1
  Sm  Sm9  1  0.414698  0.961103  0.677492  1
  B  B10  1  0.467750  0.822749  0.878847  1
  B  B11  1  0.532250  0.177251  0.121153  1
  Br  Br12  1  0.000000  0.000000  0.000000  1
  Br  Br13  1  0.634725  0.885263  0.581292  1
  Br  Br14  1  0.365275  0.114737  0.418708  1
  Br  Br15  1  0.880718  0.294493  0.528624  1
  Br  Br16  1  0.119282  0.705507  0.471376  1
  Br  Br17  1  0.288430  0.764476  0.174730  1
  Br  Br18  1  0.711570  0.235524  0.825270  1
  Br  Br19  1  0.048726  0.335603  0.221279  1
  Br  Br20  1  0.165328  0.054560  0.708286  1
  Br  Br21  1  0.834672  0.945440  0.291714  1
  Br  Br22  1  0.233881  0.410868  0.944506  1
  Br  Br23  1  0.766119  0.589132  0.055494  1
  Br  Br24  1  0.408266  0.458800  0.659077  1
  Br  Br25  1  0.591734  0.541200  0.340923  1
  Br  Br26  1  0.951274  0.664397  0.778721  1
