# generated using pymatgen
data_Dy2ThFe8Os
_symmetry_space_group_name_H-M   'P 1'
_cell_length_a   5.12469450
_cell_length_b   5.12469371
_cell_length_c   8.84839572
_cell_angle_alpha   73.16699226
_cell_angle_beta   73.16699730
_cell_angle_gamma   60.00000134
_symmetry_Int_Tables_number   1
_chemical_formula_structural   Dy2ThFe8Os
_chemical_formula_sum   'Dy2 Th1 Fe8 Os1'
_cell_volume   189.66347487
_cell_formula_units_Z   1
loop_
 _symmetry_equiv_pos_site_id
 _symmetry_equiv_pos_as_xyz
  1  'x, y, z'
loop_
 _atom_site_type_symbol
 _atom_site_label
 _atom_site_symmetry_multiplicity
 _atom_site_fract_x
 _atom_site_fract_y
 _atom_site_fract_z
 _atom_site_occupancy
  Dy  Dy0  1  0.142483  0.142483  0.572550  1
  Dy  Dy1  1  0.857517  0.857517  0.427450  1
  Th  Th2  1  0.000000  0.000000  0.000000  1
  Fe  Fe3  1  0.079554  0.582043  0.756359  1
  Fe  Fe4  1  0.582043  0.582043  0.756359  1
  Fe  Fe5  1  0.582043  0.079554  0.756359  1
  Fe  Fe6  1  0.920446  0.417957  0.243641  1
  Fe  Fe7  1  0.417957  0.417957  0.243641  1
  Fe  Fe8  1  0.417957  0.920446  0.243641  1
  Fe  Fe9  1  0.332577  0.332577  0.002268  1
  Fe  Fe10  1  0.667422  0.667422  0.997732  1
  Os  Os11  1  0.500000  0.500000  0.500000  1
