# generated using pymatgen
data_Y2ZnOs3
_symmetry_space_group_name_H-M   'P 1'
_cell_length_a   5.36783231
_cell_length_b   5.36783253
_cell_length_c   8.81938300
_cell_angle_alpha   90.00000000
_cell_angle_beta   90.00000000
_cell_angle_gamma   120.08015455
_symmetry_Int_Tables_number   1
_chemical_formula_structural   Y2ZnOs3
_chemical_formula_sum   'Y4 Zn2 Os6'
_cell_volume   219.89501818
_cell_formula_units_Z   2
loop_
 _symmetry_equiv_pos_site_id
 _symmetry_equiv_pos_as_xyz
  1  'x, y, z'
loop_
 _atom_site_type_symbol
 _atom_site_label
 _atom_site_symmetry_multiplicity
 _atom_site_fract_x
 _atom_site_fract_y
 _atom_site_fract_z
 _atom_site_occupancy
  Y  Y0  1  0.338585  0.661415  0.430765  1
  Y  Y1  1  0.672779  0.327221  0.557022  1
  Y  Y2  1  0.672779  0.327221  0.942978  1
  Y  Y3  1  0.338585  0.661415  0.069235  1
  Zn  Zn4  1  0.160256  0.353404  0.750000  1
  Zn  Zn5  1  0.646596  0.839744  0.750000  1
  Os  Os6  1  0.011825  0.988175  0.502182  1
  Os  Os7  1  0.011825  0.988175  0.997818  1
  Os  Os8  1  0.823785  0.176215  0.250000  1
  Os  Os9  1  0.836372  0.666380  0.250000  1
  Os  Os10  1  0.333620  0.163628  0.250000  1
  Os  Os11  1  0.152993  0.847007  0.750000  1
