# generated using pymatgen
data_La5Si12Ir19
_symmetry_space_group_name_H-M   'P 1'
_cell_length_a   12.98424600
_cell_length_b   12.98424660
_cell_length_c   4.05431800
_cell_angle_alpha   90.00000000
_cell_angle_beta   90.00000000
_cell_angle_gamma   120.00000357
_symmetry_Int_Tables_number   1
_chemical_formula_structural   La5Si12Ir19
_chemical_formula_sum   'La5 Si12 Ir19'
_cell_volume   591.94576225
_cell_formula_units_Z   1
loop_
 _symmetry_equiv_pos_site_id
 _symmetry_equiv_pos_as_xyz
  1  'x, y, z'
loop_
 _atom_site_type_symbol
 _atom_site_label
 _atom_site_symmetry_multiplicity
 _atom_site_fract_x
 _atom_site_fract_y
 _atom_site_fract_z
 _atom_site_occupancy
  La  La0  1  0.000000  0.815604  0.500000  1
  La  La1  1  0.184396  0.184396  0.500000  1
  La  La2  1  0.815604  0.000000  0.500000  1
  La  La3  1  0.333333  0.666667  0.000000  1
  La  La4  1  0.666667  0.333333  0.000000  1
  Si  Si5  1  0.000000  0.185785  0.000000  1
  Si  Si6  1  0.814215  0.814215  0.000000  1
  Si  Si7  1  0.185785  0.000000  0.000000  1
  Si  Si8  1  0.520835  0.688437  0.500000  1
  Si  Si9  1  0.311563  0.832398  0.500000  1
  Si  Si10  1  0.167602  0.479165  0.500000  1
  Si  Si11  1  0.479165  0.167602  0.500000  1
  Si  Si12  1  0.688437  0.520835  0.500000  1
  Si  Si13  1  0.832398  0.311563  0.500000  1
  Si  Si14  1  0.000000  0.629005  0.000000  1
  Si  Si15  1  0.370995  0.370995  0.000000  1
  Si  Si16  1  0.629005  0.000000  0.000000  1
  Ir  Ir17  1  0.000000  0.286099  0.500000  1
  Ir  Ir18  1  0.713901  0.713901  0.500000  1
  Ir  Ir19  1  0.286099  0.000000  0.500000  1
  Ir  Ir20  1  0.621283  0.803878  0.000000  1
  Ir  Ir21  1  0.196122  0.817405  0.000000  1
  Ir  Ir22  1  0.182595  0.378717  0.000000  1
  Ir  Ir23  1  0.378717  0.182595  0.000000  1
  Ir  Ir24  1  0.803878  0.621283  0.000000  1
  Ir  Ir25  1  0.817405  0.196122  0.000000  1
  Ir  Ir26  1  0.513069  0.874997  0.500000  1
  Ir  Ir27  1  0.125003  0.638072  0.500000  1
  Ir  Ir28  1  0.361928  0.486931  0.500000  1
  Ir  Ir29  1  0.486931  0.361928  0.500000  1
  Ir  Ir30  1  0.874997  0.513069  0.500000  1
  Ir  Ir31  1  0.638072  0.125003  0.500000  1
  Ir  Ir32  1  0.000000  0.000000  0.000000  1
  Ir  Ir33  1  0.000000  0.447458  0.000000  1
  Ir  Ir34  1  0.552542  0.552542  0.000000  1
  Ir  Ir35  1  0.447458  0.000000  0.000000  1
