# generated using pymatgen
data_YTh3In2(CoCu)2
_symmetry_space_group_name_H-M   'P 1'
_cell_length_a   7.68774642
_cell_length_b   7.68774655
_cell_length_c   3.69786800
_cell_angle_alpha   90.00000000
_cell_angle_beta   90.00000000
_cell_angle_gamma   91.86008483
_symmetry_Int_Tables_number   1
_chemical_formula_structural   YTh3In2(CoCu)2
_chemical_formula_sum   'Y1 Th3 In2 Co2 Cu2'
_cell_volume   218.43418608
_cell_formula_units_Z   1
loop_
 _symmetry_equiv_pos_site_id
 _symmetry_equiv_pos_as_xyz
  1  'x, y, z'
loop_
 _atom_site_type_symbol
 _atom_site_label
 _atom_site_symmetry_multiplicity
 _atom_site_fract_x
 _atom_site_fract_y
 _atom_site_fract_z
 _atom_site_occupancy
  Y  Y0  1  0.832345  0.667655  0.500000  1
  Th  Th1  1  0.687513  0.189933  0.500000  1
  Th  Th2  1  0.310067  0.812487  0.500000  1
  Th  Th3  1  0.159231  0.340769  0.500000  1
  In  In4  1  0.505440  0.505977  0.000000  1
  In  In5  1  0.994023  0.994560  0.000000  1
  Co  Co6  1  0.137828  0.623214  0.000000  1
  Co  Co7  1  0.876786  0.362172  0.000000  1
  Cu  Cu8  1  0.617997  0.882003  0.000000  1
  Cu  Cu9  1  0.378771  0.121229  0.000000  1
