# generated using pymatgen
data_CrFe(Sb6Pd)2
_symmetry_space_group_name_H-M   'P 1'
_cell_length_a   8.13993673
_cell_length_b   8.12309238
_cell_length_c   9.38770691
_cell_angle_alpha   55.16049997
_cell_angle_beta   54.51037379
_cell_angle_gamma   70.57340318
_symmetry_Int_Tables_number   1
_chemical_formula_structural   CrFe(Sb6Pd)2
_chemical_formula_sum   'Cr1 Fe1 Sb12 Pd2'
_cell_volume   414.81787080
_cell_formula_units_Z   1
loop_
 _symmetry_equiv_pos_site_id
 _symmetry_equiv_pos_as_xyz
  1  'x, y, z'
loop_
 _atom_site_type_symbol
 _atom_site_label
 _atom_site_symmetry_multiplicity
 _atom_site_fract_x
 _atom_site_fract_y
 _atom_site_fract_z
 _atom_site_occupancy
  Cr  Cr0  1  0.500000  0.000000  0.500000  1
  Fe  Fe1  1  0.000000  0.500000  0.500000  1
  Sb  Sb2  1  0.677329  0.660232  0.489872  1
  Sb  Sb3  1  0.322671  0.339768  0.510128  1
  Sb  Sb4  1  0.650733  0.651884  0.196589  1
  Sb  Sb5  1  0.349267  0.348116  0.803411  1
  Sb  Sb6  1  0.156461  0.847873  0.654155  1
  Sb  Sb7  1  0.843539  0.152127  0.345845  1
  Sb  Sb8  1  0.854456  0.167846  0.652095  1
  Sb  Sb9  1  0.145544  0.832154  0.347905  1
  Sb  Sb10  1  0.819293  0.492898  0.833594  1
  Sb  Sb11  1  0.180707  0.507102  0.166406  1
  Sb  Sb12  1  0.502885  0.189426  0.156830  1
  Sb  Sb13  1  0.497115  0.810574  0.843170  1
  Pd  Pd14  1  0.000000  0.500000  0.000000  1
  Pd  Pd15  1  0.500000  0.000000  0.000000  1
