# generated using pymatgen
data_Sc6Co5Sn6Pt
_symmetry_space_group_name_H-M   'P 1'
_cell_length_a   7.35917200
_cell_length_b   7.35917122
_cell_length_c   6.86952000
_cell_angle_alpha   90.00000000
_cell_angle_beta   90.00000000
_cell_angle_gamma   120.00000351
_symmetry_Int_Tables_number   1
_chemical_formula_structural   Sc6Co5Sn6Pt
_chemical_formula_sum   'Sc6 Co5 Sn6 Pt1'
_cell_volume   322.19208654
_cell_formula_units_Z   1
loop_
 _symmetry_equiv_pos_site_id
 _symmetry_equiv_pos_as_xyz
  1  'x, y, z'
loop_
 _atom_site_type_symbol
 _atom_site_label
 _atom_site_symmetry_multiplicity
 _atom_site_fract_x
 _atom_site_fract_y
 _atom_site_fract_z
 _atom_site_occupancy
  Sc  Sc0  1  0.394558  0.996422  0.247373  1
  Sc  Sc1  1  0.601863  0.605442  0.247373  1
  Sc  Sc2  1  0.003578  0.398137  0.247373  1
  Sc  Sc3  1  0.393869  0.995264  0.752955  1
  Sc  Sc4  1  0.601395  0.606131  0.752955  1
  Sc  Sc5  1  0.004736  0.398605  0.752955  1
  Co  Co6  1  0.000000  0.000000  0.771244  1
  Co  Co7  1  0.000000  0.000000  0.228913  1
  Co  Co8  1  0.666667  0.333333  0.996665  1
  Co  Co9  1  0.333333  0.666667  0.498187  1
  Co  Co10  1  0.333333  0.666667  0.002089  1
  Sn  Sn11  1  0.279736  0.277050  0.000146  1
  Sn  Sn12  1  0.997314  0.720264  0.000146  1
  Sn  Sn13  1  0.009125  0.744659  0.500001  1
  Sn  Sn14  1  0.735534  0.990875  0.500001  1
  Sn  Sn15  1  0.255341  0.264466  0.500001  1
  Sn  Sn16  1  0.722950  0.002686  0.000146  1
  Pt  Pt17  1  0.666667  0.333333  0.501475  1
