# generated using pymatgen
data_YHo2Mn(Co4P3)2
_symmetry_space_group_name_H-M   'P 1'
_cell_length_a   3.68400900
_cell_length_b   10.52223900
_cell_length_c   12.18001200
_cell_angle_alpha   90.00000000
_cell_angle_beta   90.00000000
_cell_angle_gamma   90.00000000
_symmetry_Int_Tables_number   1
_chemical_formula_structural   YHo2Mn(Co4P3)2
_chemical_formula_sum   'Y2 Ho4 Mn2 Co16 P12'
_cell_volume   472.14626745
_cell_formula_units_Z   2
loop_
 _symmetry_equiv_pos_site_id
 _symmetry_equiv_pos_as_xyz
  1  'x, y, z'
loop_
 _atom_site_type_symbol
 _atom_site_label
 _atom_site_symmetry_multiplicity
 _atom_site_fract_x
 _atom_site_fract_y
 _atom_site_fract_z
 _atom_site_occupancy
  Y  Y0  1  0.000000  0.500000  0.522618  1
  Y  Y1  1  0.500000  0.000000  0.477382  1
  Ho  Ho2  1  0.500000  0.818137  0.205026  1
  Ho  Ho3  1  0.500000  0.181863  0.205026  1
  Ho  Ho4  1  0.000000  0.681863  0.794974  1
  Ho  Ho5  1  0.000000  0.318137  0.794974  1
  Mn  Mn6  1  0.500000  0.500000  0.158562  1
  Mn  Mn7  1  0.000000  0.000000  0.841438  1
  Co  Co8  1  0.500000  0.500000  0.703490  1
  Co  Co9  1  0.000000  0.000000  0.296510  1
  Co  Co10  1  0.000000  0.500000  0.986256  1
  Co  Co11  1  0.500000  0.000000  0.013744  1
  Co  Co12  1  0.500000  0.333059  0.993779  1
  Co  Co13  1  0.500000  0.666941  0.993779  1
  Co  Co14  1  0.000000  0.166941  0.006221  1
  Co  Co15  1  0.000000  0.833059  0.006221  1
  Co  Co16  1  0.500000  0.296469  0.430306  1
  Co  Co17  1  0.500000  0.703531  0.430306  1
  Co  Co18  1  0.000000  0.203531  0.569694  1
  Co  Co19  1  0.000000  0.796469  0.569694  1
  Co  Co20  1  0.500000  0.879353  0.709585  1
  Co  Co21  1  0.500000  0.120647  0.709585  1
  Co  Co22  1  0.000000  0.620647  0.290415  1
  Co  Co23  1  0.000000  0.379353  0.290415  1
  P  P24  1  0.500000  0.500000  0.882718  1
  P  P25  1  0.000000  0.000000  0.117282  1
  P  P26  1  0.500000  0.500000  0.344552  1
  P  P27  1  0.000000  0.000000  0.655448  1
  P  P28  1  0.500000  0.310987  0.616616  1
  P  P29  1  0.500000  0.689013  0.616616  1
  P  P30  1  0.000000  0.189013  0.383384  1
  P  P31  1  0.000000  0.810987  0.383384  1
  P  P32  1  0.500000  0.847245  0.892742  1
  P  P33  1  0.500000  0.152755  0.892742  1
  P  P34  1  0.000000  0.652755  0.107258  1
  P  P35  1  0.000000  0.347245  0.107258  1
