# generated using pymatgen
data_La2Cr3Ni9P7
_symmetry_space_group_name_H-M   'P 1'
_cell_length_a   9.23207000
_cell_length_b   9.23206987
_cell_length_c   3.73543500
_cell_angle_alpha   90.00000000
_cell_angle_beta   90.00000000
_cell_angle_gamma   119.99999426
_symmetry_Int_Tables_number   1
_chemical_formula_structural   La2Cr3Ni9P7
_chemical_formula_sum   'La2 Cr3 Ni9 P7'
_cell_volume   275.72110602
_cell_formula_units_Z   1
loop_
 _symmetry_equiv_pos_site_id
 _symmetry_equiv_pos_as_xyz
  1  'x, y, z'
loop_
 _atom_site_type_symbol
 _atom_site_label
 _atom_site_symmetry_multiplicity
 _atom_site_fract_x
 _atom_site_fract_y
 _atom_site_fract_z
 _atom_site_occupancy
  La  La0  1  0.333333  0.666667  0.000000  1
  La  La1  1  0.666667  0.333333  0.500000  1
  Cr  Cr2  1  0.214925  0.114283  0.500000  1
  Cr  Cr3  1  0.885717  0.100643  0.500000  1
  Cr  Cr4  1  0.899357  0.785075  0.500000  1
  Ni  Ni5  1  0.125300  0.274977  0.000000  1
  Ni  Ni6  1  0.725023  0.850324  0.000000  1
  Ni  Ni7  1  0.149676  0.874700  0.000000  1
  Ni  Ni8  1  0.429851  0.369577  0.000000  1
  Ni  Ni9  1  0.630423  0.060275  0.000000  1
  Ni  Ni10  1  0.939725  0.570149  0.000000  1
  Ni  Ni11  1  0.051817  0.432911  0.500000  1
  Ni  Ni12  1  0.567089  0.618906  0.500000  1
  Ni  Ni13  1  0.381094  0.948183  0.500000  1
  P  P14  1  0.292380  0.395871  0.500000  1
  P  P15  1  0.604129  0.896509  0.500000  1
  P  P16  1  0.103491  0.707620  0.500000  1
  P  P17  1  0.399982  0.105191  0.000000  1
  P  P18  1  0.894809  0.294791  0.000000  1
  P  P19  1  0.705209  0.600018  0.000000  1
  P  P20  1  0.000000  0.000000  0.000000  1
