# generated using pymatgen
data_NaLu9(Bi3C)2
_symmetry_space_group_name_H-M   'P 1'
_cell_length_a   9.00335300
_cell_length_b   9.00335239
_cell_length_c   6.37064500
_cell_angle_alpha   90.00000000
_cell_angle_beta   90.00000000
_cell_angle_gamma   119.99999857
_symmetry_Int_Tables_number   1
_chemical_formula_structural   NaLu9(Bi3C)2
_chemical_formula_sum   'Na1 Lu9 Bi6 C2'
_cell_volume   447.22139268
_cell_formula_units_Z   1
loop_
 _symmetry_equiv_pos_site_id
 _symmetry_equiv_pos_as_xyz
  1  'x, y, z'
loop_
 _atom_site_type_symbol
 _atom_site_label
 _atom_site_symmetry_multiplicity
 _atom_site_fract_x
 _atom_site_fract_y
 _atom_site_fract_z
 _atom_site_occupancy
  Na  Na0  1  0.666667  0.333333  0.500000  1
  Lu  Lu1  1  0.333333  0.666667  0.500000  1
  Lu  Lu2  1  0.333333  0.666667  0.000000  1
  Lu  Lu3  1  0.666667  0.333333  0.000000  1
  Lu  Lu4  1  0.795398  0.795629  0.249830  1
  Lu  Lu5  1  0.204371  0.999768  0.249830  1
  Lu  Lu6  1  0.000232  0.204602  0.249830  1
  Lu  Lu7  1  0.204371  0.204602  0.750170  1
  Lu  Lu8  1  0.795398  0.999768  0.750170  1
  Lu  Lu9  1  0.000232  0.795629  0.750170  1
  Bi  Bi10  1  0.399948  0.400207  0.249871  1
  Bi  Bi11  1  0.599793  0.999741  0.249871  1
  Bi  Bi12  1  0.000259  0.600052  0.249871  1
  Bi  Bi13  1  0.599793  0.600052  0.750129  1
  Bi  Bi14  1  0.399948  0.999741  0.750129  1
  Bi  Bi15  1  0.000259  0.400207  0.750129  1
  C  C16  1  0.000000  0.000000  0.500000  1
  C  C17  1  0.000000  0.000000  0.000000  1
