# generated using pymatgen
data_Zr10Hg8Ir3Rh
_symmetry_space_group_name_H-M   'P 1'
_cell_length_a   3.30740200
_cell_length_b   7.72774730
_cell_length_c   17.78787374
_cell_angle_alpha   90.03237743
_cell_angle_beta   90.00000000
_cell_angle_gamma   90.00000000
_symmetry_Int_Tables_number   1
_chemical_formula_structural   Zr10Hg8Ir3Rh
_chemical_formula_sum   'Zr10 Hg8 Ir3 Rh1'
_cell_volume   454.63604529
_cell_formula_units_Z   1
loop_
 _symmetry_equiv_pos_site_id
 _symmetry_equiv_pos_as_xyz
  1  'x, y, z'
loop_
 _atom_site_type_symbol
 _atom_site_label
 _atom_site_symmetry_multiplicity
 _atom_site_fract_x
 _atom_site_fract_y
 _atom_site_fract_z
 _atom_site_occupancy
  Zr  Zr0  1  0.000000  0.134318  0.919456  1
  Zr  Zr1  1  0.000000  0.759048  0.780236  1
  Zr  Zr2  1  0.000000  0.634029  0.580723  1
  Zr  Zr3  1  0.000000  0.258752  0.719514  1
  Zr  Zr4  1  0.000000  0.365678  0.419182  1
  Zr  Zr5  1  0.000000  0.242127  0.219728  1
  Zr  Zr6  1  0.000000  0.000254  0.499932  1
  Zr  Zr7  1  0.000000  0.739629  0.280352  1
  Zr  Zr8  1  0.000000  0.499923  0.000349  1
  Zr  Zr9  1  0.000000  0.865982  0.080930  1
  Hg  Hg10  1  0.500000  0.797181  0.934249  1
  Hg  Hg11  1  0.500000  0.561832  0.147568  1
  Hg  Hg12  1  0.500000  0.440667  0.852674  1
  Hg  Hg13  1  0.500000  0.058128  0.351073  1
  Hg  Hg14  1  0.500000  0.296951  0.565868  1
  Hg  Hg15  1  0.500000  0.940615  0.647493  1
  Hg  Hg16  1  0.500000  0.703306  0.433877  1
  Hg  Hg17  1  0.500000  0.202170  0.067243  1
  Ir  Ir18  1  0.500000  0.545983  0.693575  1
  Ir  Ir19  1  0.500000  0.453953  0.306174  1
  Ir  Ir20  1  0.500000  0.046263  0.806525  1
  Rh  Rh21  1  0.500000  0.953211  0.193280  1
