# generated using pymatgen
data_DyY9B2I15
_symmetry_space_group_name_H-M   'P 1'
_cell_length_a   9.63613822
_cell_length_b   10.38452922
_cell_length_c   11.33453713
_cell_angle_alpha   91.76019948
_cell_angle_beta   114.40853801
_cell_angle_gamma   110.43728612
_symmetry_Int_Tables_number   1
_chemical_formula_structural   DyY9B2I15
_chemical_formula_sum   'Dy1 Y9 B2 I15'
_cell_volume   947.25009473
_cell_formula_units_Z   1
loop_
 _symmetry_equiv_pos_site_id
 _symmetry_equiv_pos_as_xyz
  1  'x, y, z'
loop_
 _atom_site_type_symbol
 _atom_site_label
 _atom_site_symmetry_multiplicity
 _atom_site_fract_x
 _atom_site_fract_y
 _atom_site_fract_z
 _atom_site_occupancy
  Dy  Dy0  1  0.292598  0.930044  0.954411  1
  Y  Y1  1  0.784333  0.393482  0.267852  1
  Y  Y2  1  0.215667  0.606551  0.732162  1
  Y  Y3  1  0.663109  0.752028  0.825383  1
  Y  Y4  1  0.336921  0.247936  0.174609  1
  Y  Y5  1  0.523160  0.712838  0.085801  1
  Y  Y6  1  0.476857  0.287175  0.914204  1
  Y  Y7  1  0.580453  0.043800  0.309015  1
  Y  Y8  1  0.419521  0.956193  0.690981  1
  Y  Y9  1  0.707577  0.069963  0.045595  1
  B  B10  1  0.468400  0.823016  0.880215  1
  B  B11  1  0.531227  0.176902  0.119735  1
  I  I12  1  0.000063  0.999978  0.999985  1
  I  I13  1  0.638512  0.882470  0.582971  1
  I  I14  1  0.361489  0.117535  0.417034  1
  I  I15  1  0.884802  0.299336  0.531127  1
  I  I16  1  0.115202  0.700667  0.468870  1
  I  I17  1  0.284674  0.760209  0.177425  1
  I  I18  1  0.715314  0.239869  0.822464  1
  I  I19  1  0.054864  0.340138  0.225626  1
  I  I20  1  0.160189  0.055947  0.702067  1
  I  I21  1  0.839858  0.943988  0.298052  1
  I  I22  1  0.228266  0.409873  0.942037  1
  I  I23  1  0.771739  0.590132  0.057964  1
  I  I24  1  0.409788  0.459547  0.660004  1
  I  I25  1  0.590201  0.540455  0.339995  1
  I  I26  1  0.945215  0.659927  0.774418  1
