# generated using pymatgen
data_Y4CuSi8Au15
_symmetry_space_group_name_H-M   'P 1'
_cell_length_a   4.37770700
_cell_length_b   4.40080900
_cell_length_c   27.05557200
_cell_angle_alpha   90.00000000
_cell_angle_beta   90.00000000
_cell_angle_gamma   90.00000000
_symmetry_Int_Tables_number   1
_chemical_formula_structural   Y4CuSi8Au15
_chemical_formula_sum   'Y4 Cu1 Si8 Au15'
_cell_volume   521.23783357
_cell_formula_units_Z   1
loop_
 _symmetry_equiv_pos_site_id
 _symmetry_equiv_pos_as_xyz
  1  'x, y, z'
loop_
 _atom_site_type_symbol
 _atom_site_label
 _atom_site_symmetry_multiplicity
 _atom_site_fract_x
 _atom_site_fract_y
 _atom_site_fract_z
 _atom_site_occupancy
  Y  Y0  1  0.000000  0.500000  0.747047  1
  Y  Y1  1  0.500000  0.000000  0.250386  1
  Y  Y2  1  0.500000  0.500000  0.999898  1
  Y  Y3  1  0.500000  0.500000  0.501834  1
  Cu  Cu4  1  0.000000  0.000000  0.661947  1
  Si  Si5  1  0.000000  0.000000  0.956777  1
  Si  Si6  1  0.000000  0.000000  0.458492  1
  Si  Si7  1  0.500000  0.000000  0.791155  1
  Si  Si8  1  0.500000  0.000000  0.703923  1
  Si  Si9  1  0.000000  0.500000  0.207349  1
  Si  Si10  1  0.000000  0.500000  0.293504  1
  Si  Si11  1  0.000000  0.000000  0.042800  1
  Si  Si12  1  0.000000  0.000000  0.544860  1
  Au  Au13  1  0.500000  0.000000  0.086131  1
  Au  Au14  1  0.500000  0.500000  0.662758  1
  Au  Au15  1  0.500000  0.500000  0.834801  1
  Au  Au16  1  0.000000  0.500000  0.085405  1
  Au  Au17  1  0.500000  0.000000  0.914062  1
  Au  Au18  1  0.000000  0.500000  0.415638  1
  Au  Au19  1  0.500000  0.500000  0.337365  1
  Au  Au20  1  0.500000  0.000000  0.414612  1
  Au  Au21  1  0.000000  0.000000  0.335617  1
  Au  Au22  1  0.000000  0.000000  0.165081  1
  Au  Au23  1  0.500000  0.000000  0.587502  1
  Au  Au24  1  0.000000  0.000000  0.834581  1
  Au  Au25  1  0.500000  0.500000  0.163515  1
  Au  Au26  1  0.000000  0.500000  0.589213  1
  Au  Au27  1  0.000000  0.500000  0.913749  1
