# generated using pymatgen
data_Tb7DyRe3B24Os
_symmetry_space_group_name_H-M   'P 1'
_cell_length_a   3.69282400
_cell_length_b   9.19941941
_cell_length_c   11.58997300
_cell_angle_alpha   90.07679290
_cell_angle_beta   90.00000000
_cell_angle_gamma   90.00000000
_symmetry_Int_Tables_number   1
_chemical_formula_structural   Tb7DyRe3B24Os
_chemical_formula_sum   'Tb7 Dy1 Re3 B24 Os1'
_cell_volume   393.73231757
_cell_formula_units_Z   1
loop_
 _symmetry_equiv_pos_site_id
 _symmetry_equiv_pos_as_xyz
  1  'x, y, z'
loop_
 _atom_site_type_symbol
 _atom_site_label
 _atom_site_symmetry_multiplicity
 _atom_site_fract_x
 _atom_site_fract_y
 _atom_site_fract_z
 _atom_site_occupancy
  Tb  Tb0  1  0.000000  0.322383  0.414161  1
  Tb  Tb1  1  0.000000  0.676940  0.587634  1
  Tb  Tb2  1  0.000000  0.824802  0.084509  1
  Tb  Tb3  1  0.000000  0.176314  0.913562  1
  Tb  Tb4  1  0.000000  0.942628  0.369740  1
  Tb  Tb5  1  0.000000  0.056539  0.629663  1
  Tb  Tb6  1  0.000000  0.442794  0.129972  1
  Dy  Dy7  1  0.000000  0.556860  0.870564  1
  Re  Re8  1  0.000000  0.362324  0.678186  1
  Re  Re9  1  0.000000  0.138432  0.179493  1
  Re  Re10  1  0.000000  0.861381  0.821007  1
  B  B11  1  0.500000  0.554080  0.432505  1
  B  B12  1  0.500000  0.446747  0.567161  1
  B  B13  1  0.500000  0.053390  0.067127  1
  B  B14  1  0.500000  0.946597  0.932698  1
  B  B15  1  0.500000  0.748068  0.418161  1
  B  B16  1  0.500000  0.251287  0.581486  1
  B  B17  1  0.500000  0.248577  0.081550  1
  B  B18  1  0.500000  0.751499  0.918542  1
  B  B19  1  0.500000  0.790483  0.265845  1
  B  B20  1  0.500000  0.208643  0.734056  1
  B  B21  1  0.500000  0.291231  0.234485  1
  B  B22  1  0.500000  0.708185  0.766152  1
  B  B23  1  0.500000  0.631706  0.186426  1
  B  B24  1  0.500000  0.369141  0.813594  1
  B  B25  1  0.500000  0.131504  0.314240  1
  B  B26  1  0.500000  0.868361  0.686216  1
  B  B27  1  0.500000  0.983485  0.211736  1
  B  B28  1  0.500000  0.016693  0.787935  1
  B  B29  1  0.500000  0.484252  0.288260  1
  B  B30  1  0.500000  0.517256  0.712072  1
  B  B31  1  0.500000  0.602303  0.028711  1
  B  B32  1  0.500000  0.398132  0.971592  1
  B  B33  1  0.500000  0.101467  0.471320  1
  B  B34  1  0.500000  0.897247  0.528348  1
  Os  Os35  1  0.000000  0.638268  0.321288  1
