# generated using pymatgen
data_Ta(PtRh)4
_symmetry_space_group_name_H-M   'P 1'
_cell_length_a   6.23070363
_cell_length_b   6.23070395
_cell_length_c   6.23070504
_cell_angle_alpha   95.63057924
_cell_angle_beta   95.63056517
_cell_angle_gamma   143.49184392
_symmetry_Int_Tables_number   1
_chemical_formula_structural   Ta(PtRh)4
_chemical_formula_sum   'Ta1 Pt4 Rh4'
_cell_volume   136.66533600
_cell_formula_units_Z   1
loop_
 _symmetry_equiv_pos_site_id
 _symmetry_equiv_pos_as_xyz
  1  'x, y, z'
loop_
 _atom_site_type_symbol
 _atom_site_label
 _atom_site_symmetry_multiplicity
 _atom_site_fract_x
 _atom_site_fract_y
 _atom_site_fract_z
 _atom_site_occupancy
  Ta  Ta0  1  0.000000  0.000000  0.000000  1
  Pt  Pt1  1  0.000000  0.327348  0.327348  1
  Pt  Pt2  1  0.000000  0.672652  0.672652  1
  Pt  Pt3  1  0.672652  0.000000  0.672652  1
  Pt  Pt4  1  0.327348  0.000000  0.327348  1
  Rh  Rh5  1  0.338910  0.338910  0.677820  1
  Rh  Rh6  1  0.661090  0.661090  0.322180  1
  Rh  Rh7  1  0.661090  0.338910  0.000000  1
  Rh  Rh8  1  0.338910  0.661090  0.000000  1
