# generated using pymatgen
data_Er8Mn(Si4Pt)3
_symmetry_space_group_name_H-M   'P 1'
_cell_length_a   8.14743200
_cell_length_b   8.14743835
_cell_length_c   7.85025400
_cell_angle_alpha   89.99988829
_cell_angle_beta   90.00014331
_cell_angle_gamma   119.99995906
_symmetry_Int_Tables_number   1
_chemical_formula_structural   Er8Mn(Si4Pt)3
_chemical_formula_sum   'Er8 Mn1 Si12 Pt3'
_cell_volume   451.29066193
_cell_formula_units_Z   1
loop_
 _symmetry_equiv_pos_site_id
 _symmetry_equiv_pos_as_xyz
  1  'x, y, z'
loop_
 _atom_site_type_symbol
 _atom_site_label
 _atom_site_symmetry_multiplicity
 _atom_site_fract_x
 _atom_site_fract_y
 _atom_site_fract_z
 _atom_site_occupancy
  Er  Er0  1  0.000002  0.000000  0.252529  1
  Er  Er1  1  0.000001  0.000000  0.749206  1
  Er  Er2  1  0.488120  0.511879  0.253944  1
  Er  Er3  1  0.488120  0.976241  0.253943  1
  Er  Er4  1  0.023760  0.511880  0.253942  1
  Er  Er5  1  0.509065  0.490938  0.745397  1
  Er  Er6  1  0.981868  0.490935  0.745399  1
  Er  Er7  1  0.509066  0.018129  0.745400  1
  Mn  Mn8  1  0.333335  0.666666  0.543140  1
  Si  Si9  1  0.836515  0.163485  0.496572  1
  Si  Si10  1  0.836515  0.673030  0.496571  1
  Si  Si11  1  0.326971  0.163485  0.496571  1
  Si  Si12  1  0.834813  0.165188  0.001901  1
  Si  Si13  1  0.834813  0.669626  0.001902  1
  Si  Si14  1  0.330375  0.165188  0.001902  1
  Si  Si15  1  0.165179  0.834820  0.999250  1
  Si  Si16  1  0.669640  0.834821  0.999251  1
  Si  Si17  1  0.165180  0.330360  0.999251  1
  Si  Si18  1  0.171860  0.828139  0.501939  1
  Si  Si19  1  0.656279  0.828140  0.501940  1
  Si  Si20  1  0.171859  0.343720  0.501940  1
  Pt  Pt21  1  0.666661  0.333331  0.468545  1
  Pt  Pt22  1  0.666667  0.333334  0.030247  1
  Pt  Pt23  1  0.333333  0.666667  0.959319  1
