# generated using pymatgen
data_AgP4(RhO7)2
_symmetry_space_group_name_H-M   'P 1'
_cell_length_a   4.85136167
_cell_length_b   6.97038972
_cell_length_c   8.10799740
_cell_angle_alpha   90.72721372
_cell_angle_beta   92.40404321
_cell_angle_gamma   104.96226301
_symmetry_Int_Tables_number   1
_chemical_formula_structural   AgP4(RhO7)2
_chemical_formula_sum   'Ag1 P4 Rh2 O14'
_cell_volume   264.57161330
_cell_formula_units_Z   1
loop_
 _symmetry_equiv_pos_site_id
 _symmetry_equiv_pos_as_xyz
  1  'x, y, z'
loop_
 _atom_site_type_symbol
 _atom_site_label
 _atom_site_symmetry_multiplicity
 _atom_site_fract_x
 _atom_site_fract_y
 _atom_site_fract_z
 _atom_site_occupancy
  Ag  Ag0  1  0.500000  0.000000  0.000000  1
  P  P1  1  0.484814  0.374763  0.246871  1
  P  P2  1  0.888565  0.761952  0.304598  1
  P  P3  1  0.111435  0.238048  0.695403  1
  P  P4  1  0.515186  0.625236  0.753129  1
  Rh  Rh5  1  0.000000  0.500001  0.000000  1
  Rh  Rh6  1  0.500000  0.000000  0.500000  1
  O  O7  1  0.648263  0.319550  0.098650  1
  O  O8  1  0.963874  0.751801  0.121021  1
  O  O9  1  0.242745  0.467295  0.197045  1
  O  O10  1  0.695372  0.907149  0.308611  1
  O  O11  1  0.369194  0.194378  0.350670  1
  O  O12  1  0.709997  0.541941  0.356359  1
  O  O13  1  0.136087  0.799420  0.433092  1
  O  O14  1  0.863913  0.200580  0.566907  1
  O  O15  1  0.290003  0.458058  0.643641  1
  O  O16  1  0.630805  0.805621  0.649330  1
  O  O17  1  0.304628  0.092851  0.691388  1
  O  O18  1  0.757257  0.532706  0.802956  1
  O  O19  1  0.036126  0.248198  0.878978  1
  O  O20  1  0.351737  0.680450  0.901350  1
