# generated using pymatgen
data_Ca4TbDy3(BO4)4
_symmetry_space_group_name_H-M   'P 1'
_cell_length_a   3.61728100
_cell_length_b   9.69216142
_cell_length_c   10.53472345
_cell_angle_alpha   89.96640684
_cell_angle_beta   90.00000000
_cell_angle_gamma   90.00000000
_symmetry_Int_Tables_number   1
_chemical_formula_structural   Ca4TbDy3(BO4)4
_chemical_formula_sum   'Ca4 Tb1 Dy3 B4 O16'
_cell_volume   369.33966454
_cell_formula_units_Z   1
loop_
 _symmetry_equiv_pos_site_id
 _symmetry_equiv_pos_as_xyz
  1  'x, y, z'
loop_
 _atom_site_type_symbol
 _atom_site_label
 _atom_site_symmetry_multiplicity
 _atom_site_fract_x
 _atom_site_fract_y
 _atom_site_fract_z
 _atom_site_occupancy
  Ca  Ca0  1  0.250000  0.671236  0.083530  1
  Ca  Ca1  1  0.750000  0.328822  0.916210  1
  Ca  Ca2  1  0.750000  0.171421  0.416624  1
  Ca  Ca3  1  0.250000  0.828649  0.583637  1
  Tb  Tb4  1  0.250000  0.087972  0.112441  1
  Dy  Dy5  1  0.750000  0.911939  0.887518  1
  Dy  Dy6  1  0.750000  0.587863  0.387842  1
  Dy  Dy7  1  0.250000  0.412105  0.612221  1
  B  B8  1  0.250000  0.368239  0.199964  1
  B  B9  1  0.750000  0.631971  0.800180  1
  B  B10  1  0.750000  0.867815  0.300358  1
  B  B11  1  0.250000  0.131968  0.699860  1
  O  O12  1  0.250000  0.500387  0.250643  1
  O  O13  1  0.750000  0.499878  0.749356  1
  O  O14  1  0.750000  0.000053  0.249744  1
  O  O15  1  0.250000  0.999838  0.750600  1
  O  O16  1  0.250000  0.250531  0.276857  1
  O  O17  1  0.750000  0.750049  0.723674  1
  O  O18  1  0.750000  0.749912  0.223728  1
  O  O19  1  0.250000  0.250091  0.776230  1
  O  O20  1  0.250000  0.349514  0.068039  1
  O  O21  1  0.750000  0.650520  0.932082  1
  O  O22  1  0.750000  0.849185  0.432248  1
  O  O23  1  0.250000  0.150662  0.567922  1
  O  O24  1  0.250000  0.613576  0.505889  1
  O  O25  1  0.750000  0.386466  0.494101  1
  O  O26  1  0.750000  0.113583  0.993021  1
  O  O27  1  0.250000  0.885754  0.005481  1
