# generated using pymatgen
data_Er3Bi3(MoO7)2
_symmetry_space_group_name_H-M   'P 1'
_cell_length_a   6.40899803
_cell_length_b   6.65745106
_cell_length_c   7.61557871
_cell_angle_alpha   106.75225609
_cell_angle_beta   89.78748260
_cell_angle_gamma   98.34656636
_symmetry_Int_Tables_number   1
_chemical_formula_structural   Er3Bi3(MoO7)2
_chemical_formula_sum   'Er3 Bi3 Mo2 O14'
_cell_volume   307.60293917
_cell_formula_units_Z   1
loop_
 _symmetry_equiv_pos_site_id
 _symmetry_equiv_pos_as_xyz
  1  'x, y, z'
loop_
 _atom_site_type_symbol
 _atom_site_label
 _atom_site_symmetry_multiplicity
 _atom_site_fract_x
 _atom_site_fract_y
 _atom_site_fract_z
 _atom_site_occupancy
  Er  Er0  1  0.547543  0.990948  0.748972  1
  Er  Er1  1  0.455728  0.006519  0.254338  1
  Er  Er2  1  0.254586  0.540184  0.885829  1
  Bi  Bi3  1  0.742664  0.476349  0.110846  1
  Bi  Bi4  1  0.727035  0.457557  0.615495  1
  Bi  Bi5  1  0.262814  0.538614  0.387082  1
  Mo  Mo6  1  0.004158  0.007615  0.502318  1
  Mo  Mo7  1  0.006258  0.004742  0.999468  1
  O  O8  1  0.443101  0.652731  0.163237  1
  O  O9  1  0.540972  0.342239  0.827947  1
  O  O10  1  0.292829  0.921832  0.948500  1
  O  O11  1  0.712086  0.048092  0.051043  1
  O  O12  1  0.296801  0.916539  0.509587  1
  O  O13  1  0.705056  0.086773  0.492679  1
  O  O14  1  0.528773  0.357464  0.346173  1
  O  O15  1  0.454213  0.640414  0.662772  1
  O  O16  1  0.936415  0.675677  0.953383  1
  O  O17  1  0.085098  0.309900  0.031865  1
  O  O18  1  0.095477  0.303249  0.627414  1
  O  O19  1  0.901350  0.713813  0.379287  1
  O  O20  1  0.898210  0.943817  0.736849  1
  O  O21  1  0.108834  0.064932  0.264915  1
