# generated using pymatgen
data_Tb3PaZn2Rh3
_symmetry_space_group_name_H-M   'P 1'
_cell_length_a   7.56333228
_cell_length_b   7.56333073
_cell_length_c   3.84627800
_cell_angle_alpha   90.00000000
_cell_angle_beta   90.00000000
_cell_angle_gamma   121.02753031
_symmetry_Int_Tables_number   1
_chemical_formula_structural   Tb3PaZn2Rh3
_chemical_formula_sum   'Tb3 Pa1 Zn2 Rh3'
_cell_volume   188.54155517
_cell_formula_units_Z   1
loop_
 _symmetry_equiv_pos_site_id
 _symmetry_equiv_pos_as_xyz
  1  'x, y, z'
loop_
 _atom_site_type_symbol
 _atom_site_label
 _atom_site_symmetry_multiplicity
 _atom_site_fract_x
 _atom_site_fract_y
 _atom_site_fract_z
 _atom_site_occupancy
  Tb  Tb0  1  0.038192  0.587543  0.500000  1
  Tb  Tb1  1  0.362929  0.362929  0.500000  1
  Tb  Tb2  1  0.587543  0.038192  0.500000  1
  Pa  Pa3  1  0.741213  0.741213  0.000000  1
  Zn  Zn4  1  0.985612  0.248657  0.000000  1
  Zn  Zn5  1  0.248657  0.985612  0.000000  1
  Rh  Rh6  1  0.370770  0.677626  0.000000  1
  Rh  Rh7  1  0.987455  0.987455  0.500000  1
  Rh  Rh8  1  0.677626  0.370770  0.000000  1
