# generated using pymatgen
data_TmPuAl9IrRh2
_symmetry_space_group_name_H-M   'P 1'
_cell_length_a   7.56588640
_cell_length_b   7.55258364
_cell_length_c   9.49153696
_cell_angle_alpha   89.96664444
_cell_angle_beta   89.98564838
_cell_angle_gamma   119.41019368
_symmetry_Int_Tables_number   1
_chemical_formula_structural   TmPuAl9IrRh2
_chemical_formula_sum   'Tm2 Pu2 Al18 Ir2 Rh4'
_cell_volume   472.46860110
_cell_formula_units_Z   2
loop_
 _symmetry_equiv_pos_site_id
 _symmetry_equiv_pos_as_xyz
  1  'x, y, z'
loop_
 _atom_site_type_symbol
 _atom_site_label
 _atom_site_symmetry_multiplicity
 _atom_site_fract_x
 _atom_site_fract_y
 _atom_site_fract_z
 _atom_site_occupancy
  Tm  Tm0  1  0.674239  0.998737  0.250493  1
  Tm  Tm1  1  0.325761  0.001263  0.749507  1
  Pu  Pu2  1  0.993084  0.670712  0.251138  1
  Pu  Pu3  1  0.006916  0.329288  0.748862  1
  Al  Al4  1  0.128284  0.128532  0.249844  1
  Al  Al5  1  0.871716  0.871468  0.750156  1
  Al  Al6  1  0.001767  0.337205  0.073148  1
  Al  Al7  1  0.998233  0.662795  0.926852  1
  Al  Al8  1  0.997899  0.663377  0.573567  1
  Al  Al9  1  0.335575  0.000733  0.424405  1
  Al  Al10  1  0.002101  0.336623  0.426433  1
  Al  Al11  1  0.664425  0.999267  0.575595  1
  Al  Al12  1  0.664820  0.000038  0.924250  1
  Al  Al13  1  0.335180  0.999962  0.075750  1
  Al  Al14  1  0.333883  0.332492  0.551789  1
  Al  Al15  1  0.666117  0.667508  0.448211  1
  Al  Al16  1  0.666589  0.667675  0.052523  1
  Al  Al17  1  0.333411  0.332325  0.947477  1
  Al  Al18  1  0.338750  0.552591  0.249319  1
  Al  Al19  1  0.661250  0.447409  0.750681  1
  Al  Al20  1  0.548234  0.340794  0.249232  1
  Al  Al21  1  0.451766  0.659206  0.750768  1
  Ir  Ir22  1  0.330466  0.674051  0.500528  1
  Ir  Ir23  1  0.669534  0.325949  0.499472  1
  Rh  Rh24  1  0.668646  0.325419  0.000387  1
  Rh  Rh25  1  0.331354  0.674581  0.999613  1
  Rh  Rh26  1  0.000000  0.000000  0.000000  1
  Rh  Rh27  1  0.000000  0.000000  0.500000  1
