# generated using pymatgen
data_Pr3Dy2P12Ir6Ru13
_symmetry_space_group_name_H-M   'P 1'
_cell_length_a   12.66897053
_cell_length_b   12.63033118
_cell_length_c   4.00921700
_cell_angle_alpha   90.00000000
_cell_angle_beta   90.00000000
_cell_angle_gamma   119.87936126
_symmetry_Int_Tables_number   1
_chemical_formula_structural   Pr3Dy2P12Ir6Ru13
_chemical_formula_sum   'Pr3 Dy2 P12 Ir6 Ru13'
_cell_volume   556.25371012
_cell_formula_units_Z   1
loop_
 _symmetry_equiv_pos_site_id
 _symmetry_equiv_pos_as_xyz
  1  'x, y, z'
loop_
 _atom_site_type_symbol
 _atom_site_label
 _atom_site_symmetry_multiplicity
 _atom_site_fract_x
 _atom_site_fract_y
 _atom_site_fract_z
 _atom_site_occupancy
  Pr  Pr0  1  0.813111  0.001790  0.500000  1
  Pr  Pr1  1  0.186186  0.187080  0.500000  1
  Pr  Pr2  1  0.999840  0.813046  0.500000  1
  Dy  Dy3  1  0.666372  0.332925  0.000000  1
  Dy  Dy4  1  0.333259  0.666552  0.000000  1
  P  P5  1  0.627832  0.003212  0.000000  1
  P  P6  1  0.373817  0.373381  0.000000  1
  P  P7  1  0.999892  0.626063  0.000000  1
  P  P8  1  0.690111  0.516677  0.500000  1
  P  P9  1  0.826363  0.306514  0.500000  1
  P  P10  1  0.311281  0.828625  0.500000  1
  P  P11  1  0.517500  0.688766  0.500000  1
  P  P12  1  0.184994  0.000302  0.000000  1
  P  P13  1  0.813666  0.814607  0.000000  1
  P  P14  1  0.997689  0.187182  0.000000  1
  P  P15  1  0.482480  0.170882  0.500000  1
  P  P16  1  0.172173  0.483206  0.500000  1
  Ir  Ir17  1  0.620375  0.803985  0.000000  1
  Ir  Ir18  1  0.184820  0.379684  0.000000  1
  Ir  Ir19  1  0.379026  0.182919  0.000000  1
  Ir  Ir20  1  0.195171  0.817088  0.000000  1
  Ir  Ir21  1  0.803562  0.620112  0.000000  1
  Ir  Ir22  1  0.999282  0.000478  0.000000  1
  Ru  Ru23  1  0.872856  0.507611  0.500000  1
  Ru  Ru24  1  0.491927  0.363032  0.500000  1
  Ru  Ru25  1  0.634692  0.124176  0.500000  1
  Ru  Ru26  1  0.128649  0.638030  0.500000  1
  Ru  Ru27  1  0.363662  0.491142  0.500000  1
  Ru  Ru28  1  0.507972  0.870509  0.500000  1
  Ru  Ru29  1  0.712116  0.711777  0.500000  1
  Ru  Ru30  1  0.001955  0.289676  0.500000  1
  Ru  Ru31  1  0.446139  0.997918  0.000000  1
  Ru  Ru32  1  0.552083  0.551774  0.000000  1
  Ru  Ru33  1  0.003757  0.449761  0.000000  1
  Ru  Ru34  1  0.817592  0.199427  0.000000  1
  Ru  Ru35  1  0.287801  0.000092  0.500000  1
