# generated using pymatgen
data_ZrScBe17
_symmetry_space_group_name_H-M   'P 1'
_cell_length_a   5.67369348
_cell_length_b   5.67369366
_cell_length_c   5.67369400
_cell_angle_alpha   82.90786355
_cell_angle_beta   82.90786063
_cell_angle_gamma   82.90785322
_symmetry_Int_Tables_number   1
_chemical_formula_structural   ZrScBe17
_chemical_formula_sum   'Zr1 Sc1 Be17'
_cell_volume   178.76722886
_cell_formula_units_Z   1
loop_
 _symmetry_equiv_pos_site_id
 _symmetry_equiv_pos_as_xyz
  1  'x, y, z'
loop_
 _atom_site_type_symbol
 _atom_site_label
 _atom_site_symmetry_multiplicity
 _atom_site_fract_x
 _atom_site_fract_y
 _atom_site_fract_z
 _atom_site_occupancy
  Zr  Zr0  1  0.836581  0.836581  0.836581  1
  Sc  Sc1  1  0.162700  0.162700  0.162700  1
  Be  Be2  1  0.501396  0.501396  0.999613  1
  Be  Be3  1  0.999611  0.501395  0.501397  1
  Be  Be4  1  0.501395  0.999611  0.501397  1
  Be  Be5  1  0.787001  0.213173  0.499012  1
  Be  Be6  1  0.499013  0.787000  0.213173  1
  Be  Be7  1  0.213174  0.499011  0.787001  1
  Be  Be8  1  0.213173  0.787001  0.499012  1
  Be  Be9  1  0.499011  0.213174  0.787001  1
  Be  Be10  1  0.787000  0.499013  0.213173  1
  Be  Be11  1  0.402938  0.402938  0.402938  1
  Be  Be12  1  0.596941  0.596941  0.596941  1
  Be  Be13  1  0.157735  0.658284  0.157734  1
  Be  Be14  1  0.157734  0.157734  0.658285  1
  Be  Be15  1  0.658284  0.157735  0.157734  1
  Be  Be16  1  0.341584  0.842363  0.842364  1
  Be  Be17  1  0.842364  0.842364  0.341583  1
  Be  Be18  1  0.842363  0.341584  0.842364  1
