# generated using pymatgen
data_Pa2TiZnPd12
_symmetry_space_group_name_H-M   'P 1'
_cell_length_a   5.69661800
_cell_length_b   5.69661895
_cell_length_c   9.39314400
_cell_angle_alpha   90.00000000
_cell_angle_beta   90.00000000
_cell_angle_gamma   119.99999449
_symmetry_Int_Tables_number   1
_chemical_formula_structural   Pa2TiZnPd12
_chemical_formula_sum   'Pa2 Ti1 Zn1 Pd12'
_cell_volume   263.98296599
_cell_formula_units_Z   1
loop_
 _symmetry_equiv_pos_site_id
 _symmetry_equiv_pos_as_xyz
  1  'x, y, z'
loop_
 _atom_site_type_symbol
 _atom_site_label
 _atom_site_symmetry_multiplicity
 _atom_site_fract_x
 _atom_site_fract_y
 _atom_site_fract_z
 _atom_site_occupancy
  Pa  Pa0  1  0.333333  0.666667  0.254566  1
  Pa  Pa1  1  0.666667  0.333333  0.745434  1
  Ti  Ti2  1  0.000000  0.000000  0.000000  1
  Zn  Zn3  1  0.000000  0.000000  0.500000  1
  Pd  Pd4  1  0.500000  0.500000  0.500000  1
  Pd  Pd5  1  0.500000  0.000000  0.500000  1
  Pd  Pd6  1  0.000000  0.500000  0.500000  1
  Pd  Pd7  1  0.500000  0.500000  0.000000  1
  Pd  Pd8  1  0.500000  0.000000  0.000000  1
  Pd  Pd9  1  0.000000  0.500000  0.000000  1
  Pd  Pd10  1  0.833385  0.666771  0.246591  1
  Pd  Pd11  1  0.333229  0.166615  0.246591  1
  Pd  Pd12  1  0.833385  0.166615  0.246591  1
  Pd  Pd13  1  0.166615  0.333229  0.753409  1
  Pd  Pd14  1  0.666771  0.833385  0.753409  1
  Pd  Pd15  1  0.166615  0.833385  0.753409  1
