# generated using pymatgen
data_Pu(Ta2N3)2
_symmetry_space_group_name_H-M   'P 1'
_cell_length_a   5.30238200
_cell_length_b   5.30238242
_cell_length_c   10.83949300
_cell_angle_alpha   90.00000000
_cell_angle_beta   90.00000000
_cell_angle_gamma   119.99999737
_symmetry_Int_Tables_number   1
_chemical_formula_structural   Pu(Ta2N3)2
_chemical_formula_sum   'Pu2 Ta8 N12'
_cell_volume   263.92569382
_cell_formula_units_Z   2
loop_
 _symmetry_equiv_pos_site_id
 _symmetry_equiv_pos_as_xyz
  1  'x, y, z'
loop_
 _atom_site_type_symbol
 _atom_site_label
 _atom_site_symmetry_multiplicity
 _atom_site_fract_x
 _atom_site_fract_y
 _atom_site_fract_z
 _atom_site_occupancy
  Pu  Pu0  1  0.666667  0.333333  0.000000  1
  Pu  Pu1  1  0.333333  0.666667  0.000000  1
  Ta  Ta2  1  0.676720  0.676720  0.738133  1
  Ta  Ta3  1  0.323280  0.000000  0.738133  1
  Ta  Ta4  1  0.000000  0.323280  0.738133  1
  Ta  Ta5  1  0.323280  0.323280  0.261867  1
  Ta  Ta6  1  0.676720  0.000000  0.261867  1
  Ta  Ta7  1  0.000000  0.676720  0.261867  1
  Ta  Ta8  1  0.333333  0.666667  0.500000  1
  Ta  Ta9  1  0.666667  0.333333  0.500000  1
  N  N10  1  0.657774  0.657774  0.386058  1
  N  N11  1  0.342226  0.000000  0.386058  1
  N  N12  1  0.000000  0.342226  0.386058  1
  N  N13  1  0.342226  0.342226  0.613942  1
  N  N14  1  0.657774  0.000000  0.613942  1
  N  N15  1  0.000000  0.657774  0.613942  1
  N  N16  1  0.341808  0.341808  0.854781  1
  N  N17  1  0.658192  0.000000  0.854781  1
  N  N18  1  0.000000  0.658192  0.854781  1
  N  N19  1  0.658192  0.658192  0.145219  1
  N  N20  1  0.341808  0.000000  0.145219  1
  N  N21  1  0.000000  0.341808  0.145219  1
