# generated using pymatgen
data_Nd8Dy2B2Cl15
_symmetry_space_group_name_H-M   'P 1'
_cell_length_a   8.98699485
_cell_length_b   9.79534889
_cell_length_c   10.61981000
_cell_angle_alpha   90.94365504
_cell_angle_beta   114.57974910
_cell_angle_gamma   110.98761077
_symmetry_Int_Tables_number   1
_chemical_formula_structural   Nd8Dy2B2Cl15
_chemical_formula_sum   'Nd8 Dy2 B2 Cl15'
_cell_volume   778.53745446
_cell_formula_units_Z   1
loop_
 _symmetry_equiv_pos_site_id
 _symmetry_equiv_pos_as_xyz
  1  'x, y, z'
loop_
 _atom_site_type_symbol
 _atom_site_label
 _atom_site_symmetry_multiplicity
 _atom_site_fract_x
 _atom_site_fract_y
 _atom_site_fract_z
 _atom_site_occupancy
  Nd  Nd0  1  0.810208  0.418220  0.278244  1
  Nd  Nd1  1  0.189792  0.581780  0.721756  1
  Nd  Nd2  1  0.681563  0.744241  0.818917  1
  Nd  Nd3  1  0.318437  0.255759  0.181083  1
  Nd  Nd4  1  0.527851  0.699633  0.102255  1
  Nd  Nd5  1  0.472149  0.300367  0.897745  1
  Nd  Nd6  1  0.592039  0.036399  0.333098  1
  Nd  Nd7  1  0.407961  0.963601  0.666902  1
  Dy  Dy8  1  0.725989  0.075304  0.047473  1
  Dy  Dy9  1  0.274011  0.924696  0.952527  1
  B  B10  1  0.467003  0.822201  0.877770  1
  B  B11  1  0.532997  0.177799  0.122230  1
  Cl  Cl12  1  0.000000  0.000000  0.000000  1
  Cl  Cl13  1  0.633811  0.882316  0.585285  1
  Cl  Cl14  1  0.366189  0.117684  0.414715  1
  Cl  Cl15  1  0.882976  0.299591  0.523672  1
  Cl  Cl16  1  0.117024  0.700409  0.476328  1
  Cl  Cl17  1  0.288683  0.769082  0.172091  1
  Cl  Cl18  1  0.711317  0.230918  0.827909  1
  Cl  Cl19  1  0.042323  0.331675  0.217511  1
  Cl  Cl20  1  0.164156  0.051379  0.713725  1
  Cl  Cl21  1  0.835844  0.948621  0.286275  1
  Cl  Cl22  1  0.233414  0.410542  0.945640  1
  Cl  Cl23  1  0.766586  0.589458  0.054360  1
  Cl  Cl24  1  0.406821  0.466789  0.658685  1
  Cl  Cl25  1  0.593179  0.533211  0.341315  1
  Cl  Cl26  1  0.957677  0.668325  0.782489  1
