# generated using pymatgen
data_Hf9Nb(Sn3Ge)2
_symmetry_space_group_name_H-M   'P 1'
_cell_length_a   8.60553100
_cell_length_b   8.60553208
_cell_length_c   5.80942500
_cell_angle_alpha   90.00000000
_cell_angle_beta   90.00000000
_cell_angle_gamma   119.99999199
_symmetry_Int_Tables_number   1
_chemical_formula_structural   Hf9Nb(Sn3Ge)2
_chemical_formula_sum   'Hf9 Nb1 Sn6 Ge2'
_cell_volume   372.57972484
_cell_formula_units_Z   1
loop_
 _symmetry_equiv_pos_site_id
 _symmetry_equiv_pos_as_xyz
  1  'x, y, z'
loop_
 _atom_site_type_symbol
 _atom_site_label
 _atom_site_symmetry_multiplicity
 _atom_site_fract_x
 _atom_site_fract_y
 _atom_site_fract_z
 _atom_site_occupancy
  Hf  Hf0  1  0.666667  0.333333  0.500000  1
  Hf  Hf1  1  0.666667  0.333333  0.000000  1
  Hf  Hf2  1  0.333333  0.666667  0.500000  1
  Hf  Hf3  1  0.265594  0.999989  0.250340  1
  Hf  Hf4  1  0.265594  0.265605  0.749660  1
  Hf  Hf5  1  0.000011  0.734406  0.749660  1
  Hf  Hf6  1  0.000011  0.265605  0.250340  1
  Hf  Hf7  1  0.734395  0.734406  0.250340  1
  Hf  Hf8  1  0.734395  0.999989  0.749660  1
  Nb  Nb9  1  0.333333  0.666667  0.000000  1
  Sn  Sn10  1  0.606651  0.997951  0.248098  1
  Sn  Sn11  1  0.606651  0.608700  0.751902  1
  Sn  Sn12  1  0.002049  0.393349  0.751902  1
  Sn  Sn13  1  0.002049  0.608700  0.248098  1
  Sn  Sn14  1  0.391300  0.393349  0.248098  1
  Sn  Sn15  1  0.391300  0.997951  0.751902  1
  Ge  Ge16  1  0.000000  0.000000  0.000000  1
  Ge  Ge17  1  0.000000  0.000000  0.500000  1
