# generated using pymatgen
data_Y6Er4InSb5
_symmetry_space_group_name_H-M   'P 1'
_cell_length_a   6.38253300
_cell_length_b   8.94294463
_cell_length_c   8.94979838
_cell_angle_alpha   119.97467554
_cell_angle_beta   89.99823635
_cell_angle_gamma   90.00352260
_symmetry_Int_Tables_number   1
_chemical_formula_structural   Y6Er4InSb5
_chemical_formula_sum   'Y6 Er4 In1 Sb5'
_cell_volume   442.51527131
_cell_formula_units_Z   1
loop_
 _symmetry_equiv_pos_site_id
 _symmetry_equiv_pos_as_xyz
  1  'x, y, z'
loop_
 _atom_site_type_symbol
 _atom_site_label
 _atom_site_symmetry_multiplicity
 _atom_site_fract_x
 _atom_site_fract_y
 _atom_site_fract_z
 _atom_site_occupancy
  Y  Y0  1  0.749947  0.243407  0.000000  1
  Y  Y1  1  0.749965  0.752652  0.756674  1
  Y  Y2  1  0.749965  0.995978  0.243326  1
  Y  Y3  1  0.249989  0.757007  0.000000  1
  Y  Y4  1  0.249956  0.247472  0.245119  1
  Y  Y5  1  0.249956  0.002352  0.754881  1
  Er  Er6  1  0.499313  0.335315  0.669193  1
  Er  Er7  1  0.499313  0.666122  0.330807  1
  Er  Er8  1  0.000636  0.666169  0.330914  1
  Er  Er9  1  0.000636  0.335255  0.669086  1
  In  In10  1  0.750484  0.604541  0.000000  1
  Sb  Sb11  1  0.749946  0.389281  0.390158  1
  Sb  Sb12  1  0.749946  0.999123  0.609842  1
  Sb  Sb13  1  0.250002  0.392778  0.000000  1
  Sb  Sb14  1  0.249975  0.610986  0.609424  1
  Sb  Sb15  1  0.249975  0.001562  0.390576  1
