# generated using pymatgen
data_TbHo(AsPd)2
_symmetry_space_group_name_H-M   'P 1'
_cell_length_a   4.14368300
_cell_length_b   7.06462672
_cell_length_c   7.96568982
_cell_angle_alpha   89.94817390
_cell_angle_beta   90.00000000
_cell_angle_gamma   90.00000000
_symmetry_Int_Tables_number   1
_chemical_formula_structural   TbHo(AsPd)2
_chemical_formula_sum   'Tb2 Ho2 As4 Pd4'
_cell_volume   233.18411208
_cell_formula_units_Z   2
loop_
 _symmetry_equiv_pos_site_id
 _symmetry_equiv_pos_as_xyz
  1  'x, y, z'
loop_
 _atom_site_type_symbol
 _atom_site_label
 _atom_site_symmetry_multiplicity
 _atom_site_fract_x
 _atom_site_fract_y
 _atom_site_fract_z
 _atom_site_occupancy
  Tb  Tb0  1  0.250000  0.031055  0.191331  1
  Tb  Tb1  1  0.750000  0.968945  0.808669  1
  Ho  Ho2  1  0.250000  0.531007  0.309100  1
  Ho  Ho3  1  0.750000  0.468993  0.690900  1
  As  As4  1  0.250000  0.747664  0.620444  1
  As  As5  1  0.750000  0.252336  0.379556  1
  As  As6  1  0.250000  0.249773  0.878836  1
  As  As7  1  0.750000  0.750227  0.121164  1
  Pd  Pd8  1  0.750000  0.357638  0.062163  1
  Pd  Pd9  1  0.250000  0.642362  0.937837  1
  Pd  Pd10  1  0.750000  0.856559  0.437751  1
  Pd  Pd11  1  0.250000  0.143441  0.562249  1
