# generated using pymatgen
data_CaSm6OsBr12
_symmetry_space_group_name_H-M   'P 1'
_cell_length_a   9.46169563
_cell_length_b   9.46796982
_cell_length_c   9.46999094
_cell_angle_alpha   107.05399082
_cell_angle_beta   106.95211890
_cell_angle_gamma   107.01224851
_symmetry_Int_Tables_number   1
_chemical_formula_structural   CaSm6OsBr12
_chemical_formula_sum   'Ca1 Sm6 Os1 Br12'
_cell_volume   706.39614070
_cell_formula_units_Z   1
loop_
 _symmetry_equiv_pos_site_id
 _symmetry_equiv_pos_as_xyz
  1  'x, y, z'
loop_
 _atom_site_type_symbol
 _atom_site_label
 _atom_site_symmetry_multiplicity
 _atom_site_fract_x
 _atom_site_fract_y
 _atom_site_fract_z
 _atom_site_occupancy
  Ca  Ca0  1  0.500000  0.500000  0.500000  1
  Sm  Sm1  1  0.314279  0.102488  0.026673  1
  Sm  Sm2  1  0.026487  0.314693  0.102573  1
  Sm  Sm3  1  0.102667  0.026436  0.314335  1
  Sm  Sm4  1  0.897333  0.973564  0.685666  1
  Sm  Sm5  1  0.973513  0.685308  0.897428  1
  Sm  Sm6  1  0.685722  0.897512  0.973328  1
  Os  Os7  1  0.000000  0.000000  0.000000  1
  Br  Br8  1  0.682299  0.221140  0.069160  1
  Br  Br9  1  0.379842  0.454636  0.162007  1
  Br  Br10  1  0.069196  0.682238  0.220995  1
  Br  Br11  1  0.778898  0.930792  0.317623  1
  Br  Br12  1  0.454656  0.162004  0.379806  1
  Br  Br13  1  0.162016  0.379825  0.454660  1
  Br  Br14  1  0.837984  0.620176  0.545340  1
  Br  Br15  1  0.545344  0.837997  0.620194  1
  Br  Br16  1  0.221103  0.069209  0.682377  1
  Br  Br17  1  0.930804  0.317762  0.779006  1
  Br  Br18  1  0.620159  0.545364  0.837993  1
  Br  Br19  1  0.317702  0.778860  0.930840  1
