# generated using pymatgen
data_Dy3Ho3(CI3)2
_symmetry_space_group_name_H-M   'P 1'
_cell_length_a   3.89557400
_cell_length_b   8.68569660
_cell_length_c   11.91736040
_cell_angle_alpha   92.21278367
_cell_angle_beta   90.00000000
_cell_angle_gamma   90.00000000
_symmetry_Int_Tables_number   1
_chemical_formula_structural   Dy3Ho3(CI3)2
_chemical_formula_sum   'Dy3 Ho3 C2 I6'
_cell_volume   402.93243101
_cell_formula_units_Z   1
loop_
 _symmetry_equiv_pos_site_id
 _symmetry_equiv_pos_as_xyz
  1  'x, y, z'
loop_
 _atom_site_type_symbol
 _atom_site_label
 _atom_site_symmetry_multiplicity
 _atom_site_fract_x
 _atom_site_fract_y
 _atom_site_fract_z
 _atom_site_occupancy
  Dy  Dy0  1  0.250000  0.918663  0.599045  1
  Dy  Dy1  1  0.750000  0.081300  0.401117  1
  Dy  Dy2  1  0.250000  0.887236  0.188818  1
  Ho  Ho3  1  0.750000  0.112800  0.810392  1
  Ho  Ho4  1  0.250000  0.290692  0.614816  1
  Ho  Ho5  1  0.750000  0.709217  0.385265  1
  C  C6  1  0.250000  0.882033  0.387874  1
  C  C7  1  0.750000  0.117966  0.612900  1
  I  I8  1  0.250000  0.860240  0.871872  1
  I  I9  1  0.750000  0.140899  0.127920  1
  I  I10  1  0.250000  0.374444  0.869771  1
  I  I11  1  0.750000  0.624533  0.130144  1
  I  I12  1  0.250000  0.382883  0.368679  1
  I  I13  1  0.750000  0.617093  0.631386  1
