# generated using pymatgen
data_Y3Ho5(TcC2)4
_symmetry_space_group_name_H-M   'P 1'
_cell_length_a   5.08592900
_cell_length_b   6.56696927
_cell_length_c   9.85851341
_cell_angle_alpha   89.96696673
_cell_angle_beta   90.00000000
_cell_angle_gamma   90.00000000
_symmetry_Int_Tables_number   1
_chemical_formula_structural   Y3Ho5(TcC2)4
_chemical_formula_sum   'Y3 Ho5 Tc4 C8'
_cell_volume   329.26580958
_cell_formula_units_Z   1
loop_
 _symmetry_equiv_pos_site_id
 _symmetry_equiv_pos_as_xyz
  1  'x, y, z'
loop_
 _atom_site_type_symbol
 _atom_site_label
 _atom_site_symmetry_multiplicity
 _atom_site_fract_x
 _atom_site_fract_y
 _atom_site_fract_z
 _atom_site_occupancy
  Y  Y0  1  0.250000  0.466965  0.784064  1
  Y  Y1  1  0.750000  0.033129  0.284031  1
  Y  Y2  1  0.250000  0.966976  0.715919  1
  Ho  Ho3  1  0.750000  0.533113  0.215994  1
  Ho  Ho4  1  0.250000  0.823321  0.058059  1
  Ho  Ho5  1  0.750000  0.676549  0.557930  1
  Ho  Ho6  1  0.250000  0.323419  0.441920  1
  Ho  Ho7  1  0.750000  0.176752  0.942042  1
  Tc  Tc8  1  0.250000  0.281945  0.133578  1
  Tc  Tc9  1  0.750000  0.218526  0.633386  1
  Tc  Tc10  1  0.250000  0.781421  0.366357  1
  Tc  Tc11  1  0.750000  0.718326  0.866634  1
  C  C12  1  0.250000  0.177399  0.951475  1
  C  C13  1  0.750000  0.821751  0.049081  1
  C  C14  1  0.250000  0.677261  0.548545  1
  C  C15  1  0.750000  0.323037  0.451098  1
  C  C16  1  0.250000  0.048922  0.258490  1
  C  C17  1  0.750000  0.451190  0.758483  1
  C  C18  1  0.250000  0.548866  0.241374  1
  C  C19  1  0.750000  0.951132  0.741538  1
