# generated using pymatgen
data_Er10IrRu3
_symmetry_space_group_name_H-M   'P 1'
_cell_length_a   6.28163107
_cell_length_b   7.27146220
_cell_length_c   8.38008940
_cell_angle_alpha   96.79656336
_cell_angle_beta   111.92772119
_cell_angle_gamma   90.13259215
_symmetry_Int_Tables_number   1
_chemical_formula_structural   Er10IrRu3
_chemical_formula_sum   'Er10 Ir1 Ru3'
_cell_volume   352.13779251
_cell_formula_units_Z   1
loop_
 _symmetry_equiv_pos_site_id
 _symmetry_equiv_pos_as_xyz
  1  'x, y, z'
loop_
 _atom_site_type_symbol
 _atom_site_label
 _atom_site_symmetry_multiplicity
 _atom_site_fract_x
 _atom_site_fract_y
 _atom_site_fract_z
 _atom_site_occupancy
  Er  Er0  1  0.792694  0.582556  0.814582  1
  Er  Er1  1  0.978401  0.914932  0.186952  1
  Er  Er2  1  0.208168  0.415354  0.185954  1
  Er  Er3  1  0.024127  0.085655  0.814601  1
  Er  Er4  1  0.204637  0.684008  0.564335  1
  Er  Er5  1  0.641907  0.815526  0.434327  1
  Er  Er6  1  0.793961  0.315004  0.434904  1
  Er  Er7  1  0.357141  0.185801  0.563707  1
  Er  Er8  1  0.419289  0.749661  0.000451  1
  Er  Er9  1  0.580591  0.251394  0.000796  1
  Ir  Ir10  1  0.601417  0.923186  0.779033  1
  Ru  Ru11  1  0.823645  0.576802  0.220239  1
  Ru  Ru12  1  0.396480  0.076005  0.220629  1
  Ru  Ru13  1  0.177542  0.424114  0.779488  1
