# generated using pymatgen
data_Er12Tl2Fe2Ru
_symmetry_space_group_name_H-M   'P 1'
_cell_length_a   8.30704809
_cell_length_b   8.30704807
_cell_length_c   8.30704800
_cell_angle_alpha   108.68271043
_cell_angle_beta   108.68270311
_cell_angle_gamma   111.06003522
_symmetry_Int_Tables_number   1
_chemical_formula_structural   Er12Tl2Fe2Ru
_chemical_formula_sum   'Er12 Tl2 Fe2 Ru1'
_cell_volume   441.02875949
_cell_formula_units_Z   1
loop_
 _symmetry_equiv_pos_site_id
 _symmetry_equiv_pos_as_xyz
  1  'x, y, z'
loop_
 _atom_site_type_symbol
 _atom_site_label
 _atom_site_symmetry_multiplicity
 _atom_site_fract_x
 _atom_site_fract_y
 _atom_site_fract_z
 _atom_site_occupancy
  Er  Er0  1  0.192723  0.431042  0.238319  1
  Er  Er1  1  0.807277  0.568958  0.761681  1
  Er  Er2  1  0.192719  0.954401  0.761682  1
  Er  Er3  1  0.954417  0.192736  0.761680  1
  Er  Er4  1  0.807281  0.045599  0.238318  1
  Er  Er5  1  0.045583  0.807264  0.238320  1
  Er  Er6  1  0.431056  0.192736  0.238319  1
  Er  Er7  1  0.568944  0.807264  0.761681  1
  Er  Er8  1  0.307809  0.307798  0.615611  1
  Er  Er9  1  0.692191  0.692202  0.384389  1
  Er  Er10  1  0.692188  0.307798  0.999989  1
  Er  Er11  1  0.307812  0.692202  0.000011  1
  Tl  Tl12  1  0.000000  0.500000  0.500000  1
  Tl  Tl13  1  0.500000  0.000000  0.500000  1
  Fe  Fe14  1  0.385187  0.385189  0.000002  1
  Fe  Fe15  1  0.614813  0.614811  0.999998  1
  Ru  Ru16  1  0.000000  0.000000  0.000000  1
