# generated using pymatgen
data_Tb12In2GaTc3
_symmetry_space_group_name_H-M   'P 1'
_cell_length_a   8.60863303
_cell_length_b   8.60869438
_cell_length_c   8.60863200
_cell_angle_alpha   113.27370235
_cell_angle_beta   112.18123440
_cell_angle_gamma   103.14018137
_symmetry_Int_Tables_number   1
_chemical_formula_structural   Tb12In2GaTc3
_chemical_formula_sum   'Tb12 In2 Ga1 Tc3'
_cell_volume   486.63824780
_cell_formula_units_Z   1
loop_
 _symmetry_equiv_pos_site_id
 _symmetry_equiv_pos_as_xyz
  1  'x, y, z'
loop_
 _atom_site_type_symbol
 _atom_site_label
 _atom_site_symmetry_multiplicity
 _atom_site_fract_x
 _atom_site_fract_y
 _atom_site_fract_z
 _atom_site_occupancy
  Tb  Tb0  1  0.444582  0.242210  0.202378  1
  Tb  Tb1  1  0.559042  0.760282  0.798759  1
  Tb  Tb2  1  0.039832  0.242210  0.797627  1
  Tb  Tb3  1  0.961523  0.760282  0.201239  1
  Tb  Tb4  1  0.192408  0.289361  0.466888  1
  Tb  Tb5  1  0.822469  0.725514  0.533108  1
  Tb  Tb6  1  0.192405  0.725514  0.903047  1
  Tb  Tb7  1  0.822473  0.289361  0.096951  1
  Tb  Tb8  1  0.327902  0.641393  0.313490  1
  Tb  Tb9  1  0.654300  0.338868  0.684569  1
  Tb  Tb10  1  0.327927  0.014438  0.686511  1
  Tb  Tb11  1  0.654287  0.969733  0.315447  1
  In  In12  1  0.501852  0.501822  0.999970  1
  In  In13  1  0.998781  0.998781  0.999999  1
  Ga  Ga14  1  0.878231  0.378225  0.499995  1
  Tc  Tc15  1  0.326501  0.002213  0.324301  1
  Tc  Tc16  1  0.677912  0.002213  0.675713  1
  Tc  Tc17  1  0.117572  0.617579  0.500007  1
