# generated using pymatgen
data_Dy3Y7FeHg3
_symmetry_space_group_name_H-M   'P 1'
_cell_length_a   9.59876600
_cell_length_b   9.59876619
_cell_length_c   9.63531800
_cell_angle_alpha   90.00000000
_cell_angle_beta   90.00000000
_cell_angle_gamma   119.99999245
_symmetry_Int_Tables_number   1
_chemical_formula_structural   Dy3Y7FeHg3
_chemical_formula_sum   'Dy6 Y14 Fe2 Hg6'
_cell_volume   768.82506738
_cell_formula_units_Z   2
loop_
 _symmetry_equiv_pos_site_id
 _symmetry_equiv_pos_as_xyz
  1  'x, y, z'
loop_
 _atom_site_type_symbol
 _atom_site_label
 _atom_site_symmetry_multiplicity
 _atom_site_fract_x
 _atom_site_fract_y
 _atom_site_fract_z
 _atom_site_occupancy
  Dy  Dy0  1  0.212271  0.787729  0.435634  1
  Dy  Dy1  1  0.212271  0.424544  0.435634  1
  Dy  Dy2  1  0.575456  0.787729  0.435634  1
  Dy  Dy3  1  0.787729  0.212271  0.564366  1
  Dy  Dy4  1  0.787729  0.575456  0.564366  1
  Dy  Dy5  1  0.424544  0.212271  0.564366  1
  Y  Y6  1  0.000000  0.000000  0.500000  1
  Y  Y7  1  0.000000  0.000000  0.000000  1
  Y  Y8  1  0.541766  0.458234  0.250507  1
  Y  Y9  1  0.541766  0.083531  0.250507  1
  Y  Y10  1  0.916469  0.458234  0.250507  1
  Y  Y11  1  0.458234  0.541766  0.749493  1
  Y  Y12  1  0.458234  0.916469  0.749493  1
  Y  Y13  1  0.083531  0.541766  0.749493  1
  Y  Y14  1  0.788292  0.211708  0.935989  1
  Y  Y15  1  0.788292  0.576583  0.935989  1
  Y  Y16  1  0.423417  0.211708  0.935989  1
  Y  Y17  1  0.211708  0.788292  0.064011  1
  Y  Y18  1  0.211708  0.423417  0.064011  1
  Y  Y19  1  0.576583  0.788292  0.064011  1
  Fe  Fe20  1  0.333333  0.666667  0.252420  1
  Fe  Fe21  1  0.666667  0.333333  0.747580  1
  Hg  Hg22  1  0.881816  0.118184  0.249869  1
  Hg  Hg23  1  0.881816  0.763634  0.249869  1
  Hg  Hg24  1  0.236366  0.118184  0.249869  1
  Hg  Hg25  1  0.118184  0.881816  0.750131  1
  Hg  Hg26  1  0.118184  0.236366  0.750131  1
  Hg  Hg27  1  0.763634  0.881816  0.750131  1
