# generated using pymatgen
data_Ba19SrSi11Bi
_symmetry_space_group_name_H-M   'P 1'
_cell_length_a   8.48193300
_cell_length_b   8.48193300
_cell_length_c   16.95267700
_cell_angle_alpha   90.00000000
_cell_angle_beta   90.00000000
_cell_angle_gamma   90.00000000
_symmetry_Int_Tables_number   1
_chemical_formula_structural   Ba19SrSi11Bi
_chemical_formula_sum   'Ba19 Sr1 Si11 Bi1'
_cell_volume   1219.62961862
_cell_formula_units_Z   1
loop_
 _symmetry_equiv_pos_site_id
 _symmetry_equiv_pos_as_xyz
  1  'x, y, z'
loop_
 _atom_site_type_symbol
 _atom_site_label
 _atom_site_symmetry_multiplicity
 _atom_site_fract_x
 _atom_site_fract_y
 _atom_site_fract_z
 _atom_site_occupancy
  Ba  Ba0  1  0.318682  0.677759  0.109620  1
  Ba  Ba1  1  0.177759  0.181318  0.109620  1
  Ba  Ba2  1  0.326653  0.690206  0.395085  1
  Ba  Ba3  1  0.662675  0.699567  0.888439  1
  Ba  Ba4  1  0.190206  0.173347  0.395085  1
  Ba  Ba5  1  0.673347  0.309794  0.395085  1
  Ba  Ba6  1  0.172722  0.810231  0.606544  1
  Ba  Ba7  1  0.337325  0.300433  0.888439  1
  Ba  Ba8  1  0.199567  0.837325  0.888439  1
  Ba  Ba9  1  0.500000  0.000000  0.237080  1
  Ba  Ba10  1  0.827278  0.189769  0.606544  1
  Ba  Ba11  1  0.310231  0.327278  0.606544  1
  Ba  Ba12  1  0.809794  0.826653  0.395085  1
  Ba  Ba13  1  0.800433  0.162675  0.888439  1
  Ba  Ba14  1  0.822241  0.818682  0.109620  1
  Ba  Ba15  1  0.000000  0.500000  0.270789  1
  Ba  Ba16  1  0.000000  0.500000  0.764474  1
  Ba  Ba17  1  0.681318  0.322241  0.109620  1
  Ba  Ba18  1  0.689769  0.672722  0.606544  1
  Sr  Sr19  1  0.500000  0.000000  0.721894  1
  Si  Si20  1  0.104387  0.100647  0.748620  1
  Si  Si21  1  0.399353  0.604387  0.748620  1
  Si  Si22  1  0.601236  0.601407  0.251577  1
  Si  Si23  1  0.500000  0.000000  0.017184  1
  Si  Si24  1  0.101407  0.898764  0.251577  1
  Si  Si25  1  0.600647  0.395613  0.748620  1
  Si  Si26  1  0.895613  0.899353  0.748620  1
  Si  Si27  1  0.398764  0.398593  0.251577  1
  Si  Si28  1  0.898593  0.101236  0.251577  1
  Si  Si29  1  0.500000  0.000000  0.513946  1
  Si  Si30  1  0.000000  0.500000  0.486508  1
  Bi  Bi31  1  0.000000  0.500000  0.988577  1
