# generated using pymatgen
data_DyHo7(ErSn4)2
_symmetry_space_group_name_H-M   'P 1'
_cell_length_a   8.00996900
_cell_length_b   8.14190508
_cell_length_c   15.39179402
_cell_angle_alpha   89.98956558
_cell_angle_beta   90.00000000
_cell_angle_gamma   90.00000000
_symmetry_Int_Tables_number   1
_chemical_formula_structural   DyHo7(ErSn4)2
_chemical_formula_sum   'Dy2 Ho14 Er4 Sn16'
_cell_volume   1003.79749046
_cell_formula_units_Z   2
loop_
 _symmetry_equiv_pos_site_id
 _symmetry_equiv_pos_as_xyz
  1  'x, y, z'
loop_
 _atom_site_type_symbol
 _atom_site_label
 _atom_site_symmetry_multiplicity
 _atom_site_fract_x
 _atom_site_fract_y
 _atom_site_fract_z
 _atom_site_occupancy
  Dy  Dy0  1  0.520975  0.320742  0.596947  1
  Dy  Dy1  1  0.020975  0.179258  0.903053  1
  Ho  Ho2  1  0.367887  0.837049  0.877597  1
  Ho  Ho3  1  0.867887  0.662951  0.622403  1
  Ho  Ho4  1  0.632211  0.162508  0.377121  1
  Ho  Ho5  1  0.132211  0.337492  0.122879  1
  Ho  Ho6  1  0.632299  0.162701  0.122901  1
  Ho  Ho7  1  0.132299  0.337299  0.377099  1
  Ho  Ho8  1  0.367947  0.837244  0.622397  1
  Ho  Ho9  1  0.867947  0.662756  0.877603  1
  Ho  Ho10  1  0.521847  0.321146  0.902882  1
  Ho  Ho11  1  0.021847  0.178854  0.597118  1
  Ho  Ho12  1  0.478453  0.678769  0.402369  1
  Ho  Ho13  1  0.978453  0.821231  0.097631  1
  Ho  Ho14  1  0.478407  0.678617  0.097477  1
  Ho  Ho15  1  0.978407  0.821383  0.402523  1
  Er  Er16  1  0.199061  0.503093  0.750038  1
  Er  Er17  1  0.699061  0.996907  0.749962  1
  Er  Er18  1  0.800808  0.497010  0.249992  1
  Er  Er19  1  0.300808  0.002990  0.250008  1
  Sn  Sn20  1  0.293372  0.037113  0.041840  1
  Sn  Sn21  1  0.793372  0.462887  0.458160  1
  Sn  Sn22  1  0.708559  0.963534  0.541524  1
  Sn  Sn23  1  0.208559  0.536466  0.958476  1
  Sn  Sn24  1  0.706301  0.963020  0.958509  1
  Sn  Sn25  1  0.206301  0.536980  0.541491  1
  Sn  Sn26  1  0.292043  0.037489  0.458570  1
  Sn  Sn27  1  0.792043  0.462511  0.041430  1
  Sn  Sn28  1  0.565184  0.618031  0.750164  1
  Sn  Sn29  1  0.065184  0.881969  0.749836  1
  Sn  Sn30  1  0.434978  0.381601  0.249874  1
  Sn  Sn31  1  0.934978  0.118399  0.250126  1
  Sn  Sn32  1  0.331206  0.149136  0.750460  1
  Sn  Sn33  1  0.831206  0.350864  0.749540  1
  Sn  Sn34  1  0.668461  0.850792  0.249887  1
  Sn  Sn35  1  0.168461  0.649208  0.250113  1
