# generated using pymatgen
data_Tm8P14Ir15Rh
_symmetry_space_group_name_H-M   'P 1'
_cell_length_a   3.93782600
_cell_length_b   12.57335488
_cell_length_c   13.09520233
_cell_angle_alpha   80.77899188
_cell_angle_beta   90.00000000
_cell_angle_gamma   90.00000000
_symmetry_Int_Tables_number   1
_chemical_formula_structural   Tm8P14Ir15Rh
_chemical_formula_sum   'Tm8 P14 Ir15 Rh1'
_cell_volume   639.98706304
_cell_formula_units_Z   1
loop_
 _symmetry_equiv_pos_site_id
 _symmetry_equiv_pos_as_xyz
  1  'x, y, z'
loop_
 _atom_site_type_symbol
 _atom_site_label
 _atom_site_symmetry_multiplicity
 _atom_site_fract_x
 _atom_site_fract_y
 _atom_site_fract_z
 _atom_site_occupancy
  Tm  Tm0  1  0.750000  0.790754  0.562669  1
  Tm  Tm1  1  0.250000  0.209118  0.437485  1
  Tm  Tm2  1  0.750000  0.479316  0.706888  1
  Tm  Tm3  1  0.250000  0.520430  0.293080  1
  Tm  Tm4  1  0.750000  0.719106  0.899028  1
  Tm  Tm5  1  0.250000  0.101298  0.791615  1
  Tm  Tm6  1  0.750000  0.898849  0.208737  1
  Tm  Tm7  1  0.250000  0.281072  0.100914  1
  P  P8  1  0.250000  0.906565  0.413240  1
  P  P9  1  0.750000  0.470880  0.129835  1
  P  P10  1  0.250000  0.529111  0.870265  1
  P  P11  1  0.750000  0.093034  0.586442  1
  P  P12  1  0.250000  0.741548  0.079545  1
  P  P13  1  0.750000  0.258453  0.920365  1
  P  P14  1  0.750000  0.156871  0.281454  1
  P  P15  1  0.250000  0.843417  0.718533  1
  P  P16  1  0.250000  0.052558  0.100852  1
  P  P17  1  0.750000  0.947435  0.898846  1
  P  P18  1  0.250000  0.310878  0.690084  1
  P  P19  1  0.750000  0.689009  0.309997  1
  P  P20  1  0.250000  0.608483  0.566830  1
  P  P21  1  0.750000  0.391550  0.433220  1
  Ir  Ir22  1  0.750000  0.010001  0.425148  1
  Ir  Ir23  1  0.250000  0.662061  0.729001  1
  Ir  Ir24  1  0.750000  0.337859  0.271082  1
  Ir  Ir25  1  0.250000  0.554738  0.045016  1
  Ir  Ir26  1  0.750000  0.445359  0.954987  1
  Ir  Ir27  1  0.250000  0.059529  0.273804  1
  Ir  Ir28  1  0.750000  0.941036  0.725714  1
  Ir  Ir29  1  0.250000  0.420952  0.522861  1
  Ir  Ir30  1  0.750000  0.578908  0.477194  1
  Ir  Ir31  1  0.250000  0.915281  0.997584  1
  Ir  Ir32  1  0.750000  0.084724  0.002297  1
  Ir  Ir33  1  0.250000  0.729099  0.394553  1
  Ir  Ir34  1  0.750000  0.270749  0.605244  1
  Ir  Ir35  1  0.250000  0.342071  0.857884  1
  Ir  Ir36  1  0.750000  0.657998  0.142148  1
  Rh  Rh37  1  0.250000  0.989901  0.575559  1
