# generated using pymatgen
data_Zr6AlC2Se
_symmetry_space_group_name_H-M   'P 1'
_cell_length_a   6.05796827
_cell_length_b   6.05796921
_cell_length_c   8.89808600
_cell_angle_alpha   90.00000000
_cell_angle_beta   90.00000000
_cell_angle_gamma   146.66815800
_symmetry_Int_Tables_number   1
_chemical_formula_structural   Zr6AlC2Se
_chemical_formula_sum   'Zr6 Al1 C2 Se1'
_cell_volume   179.43545492
_cell_formula_units_Z   1
loop_
 _symmetry_equiv_pos_site_id
 _symmetry_equiv_pos_as_xyz
  1  'x, y, z'
loop_
 _atom_site_type_symbol
 _atom_site_label
 _atom_site_symmetry_multiplicity
 _atom_site_fract_x
 _atom_site_fract_y
 _atom_site_fract_z
 _atom_site_occupancy
  Zr  Zr0  1  0.950658  0.049342  0.750000  1
  Zr  Zr1  1  0.060068  0.939932  0.250000  1
  Zr  Zr2  1  0.625692  0.374308  0.547693  1
  Zr  Zr3  1  0.372332  0.627668  0.445844  1
  Zr  Zr4  1  0.372332  0.627668  0.054156  1
  Zr  Zr5  1  0.625692  0.374308  0.952307  1
  Al  Al6  1  0.251117  0.748883  0.750000  1
  C  C7  1  0.998389  0.001611  0.495808  1
  C  C8  1  0.998389  0.001611  0.004192  1
  Se  Se9  1  0.745328  0.254672  0.250000  1
