# generated using pymatgen
data_K4RuO4
_symmetry_space_group_name_H-M   'P 1'
_cell_length_a   5.64608235
_cell_length_b   5.64608233
_cell_length_c   6.24326409
_cell_angle_alpha   76.25442059
_cell_angle_beta   76.25441456
_cell_angle_gamma   68.60668307
_symmetry_Int_Tables_number   1
_chemical_formula_structural   K4RuO4
_chemical_formula_sum   'K4 Ru1 O4'
_cell_volume   177.47959358
_cell_formula_units_Z   1
loop_
 _symmetry_equiv_pos_site_id
 _symmetry_equiv_pos_as_xyz
  1  'x, y, z'
loop_
 _atom_site_type_symbol
 _atom_site_label
 _atom_site_symmetry_multiplicity
 _atom_site_fract_x
 _atom_site_fract_y
 _atom_site_fract_z
 _atom_site_occupancy
  K  K0  1  0.377467  0.377467  0.866083  1
  K  K1  1  0.807878  0.807878  0.580804  1
  K  K2  1  0.622533  0.622533  0.133917  1
  K  K3  1  0.192122  0.192122  0.419196  1
  Ru  Ru4  1  0.000000  0.000000  0.000000  1
  O  O5  1  0.896303  0.321353  0.801063  1
  O  O6  1  0.321353  0.896303  0.801063  1
  O  O7  1  0.678647  0.103697  0.198937  1
  O  O8  1  0.103697  0.678647  0.198937  1
