# generated using pymatgen
data_Ho4Sc6Tl3Sb5
_symmetry_space_group_name_H-M   'P 1'
_cell_length_a   7.79804500
_cell_length_b   7.83195638
_cell_length_c   14.67604900
_cell_angle_alpha   90.00000000
_cell_angle_beta   90.00000000
_cell_angle_gamma   90.31502771
_symmetry_Int_Tables_number   1
_chemical_formula_structural   Ho4Sc6Tl3Sb5
_chemical_formula_sum   'Ho8 Sc12 Tl6 Sb10'
_cell_volume   896.31070978
_cell_formula_units_Z   2
loop_
 _symmetry_equiv_pos_site_id
 _symmetry_equiv_pos_as_xyz
  1  'x, y, z'
loop_
 _atom_site_type_symbol
 _atom_site_label
 _atom_site_symmetry_multiplicity
 _atom_site_fract_x
 _atom_site_fract_y
 _atom_site_fract_z
 _atom_site_occupancy
  Ho  Ho0  1  0.978959  0.184559  0.095889  1
  Ho  Ho1  1  0.021041  0.815441  0.904111  1
  Ho  Ho2  1  0.519670  0.684053  0.910034  1
  Ho  Ho3  1  0.021041  0.815441  0.595889  1
  Ho  Ho4  1  0.480330  0.315947  0.089966  1
  Ho  Ho5  1  0.978959  0.184559  0.404111  1
  Ho  Ho6  1  0.480330  0.315947  0.410034  1
  Ho  Ho7  1  0.519670  0.684053  0.589966  1
  Sc  Sc8  1  0.183558  0.495824  0.750000  1
  Sc  Sc9  1  0.816442  0.504176  0.250000  1
  Sc  Sc10  1  0.314277  0.994384  0.250000  1
  Sc  Sc11  1  0.685723  0.005616  0.750000  1
  Sc  Sc12  1  0.359156  0.154822  0.626310  1
  Sc  Sc13  1  0.640844  0.845178  0.373690  1
  Sc  Sc14  1  0.141161  0.655823  0.376052  1
  Sc  Sc15  1  0.640844  0.845178  0.126310  1
  Sc  Sc16  1  0.858839  0.344177  0.623948  1
  Sc  Sc17  1  0.359156  0.154822  0.873690  1
  Sc  Sc18  1  0.858839  0.344177  0.876052  1
  Sc  Sc19  1  0.141161  0.655823  0.123948  1
  Tl  Tl20  1  0.448532  0.622767  0.250000  1
  Tl  Tl21  1  0.551468  0.377233  0.750000  1
  Tl  Tl22  1  0.332518  0.840715  0.750000  1
  Tl  Tl23  1  0.667482  0.159285  0.250000  1
  Tl  Tl24  1  0.181647  0.350253  0.250000  1
  Tl  Tl25  1  0.818353  0.649747  0.750000  1
  Sb  Sb26  1  0.052077  0.124938  0.750000  1
  Sb  Sb27  1  0.947923  0.875062  0.250000  1
  Sb  Sb28  1  0.203033  0.453271  0.544697  1
  Sb  Sb29  1  0.796967  0.546729  0.455303  1
  Sb  Sb30  1  0.292631  0.957339  0.456673  1
  Sb  Sb31  1  0.796967  0.546729  0.044697  1
  Sb  Sb32  1  0.707369  0.042661  0.543327  1
  Sb  Sb33  1  0.203033  0.453271  0.955303  1
  Sb  Sb34  1  0.707369  0.042661  0.956673  1
  Sb  Sb35  1  0.292631  0.957339  0.043327  1
