# generated using pymatgen
data_SmHo19Sn16
_symmetry_space_group_name_H-M   'P 1'
_cell_length_a   8.01645959
_cell_length_b   8.16010326
_cell_length_c   15.39701382
_cell_angle_alpha   90.01360963
_cell_angle_beta   89.91074756
_cell_angle_gamma   89.93793738
_symmetry_Int_Tables_number   1
_chemical_formula_structural   SmHo19Sn16
_chemical_formula_sum   'Sm1 Ho19 Sn16'
_cell_volume   1007.19594157
_cell_formula_units_Z   1
loop_
 _symmetry_equiv_pos_site_id
 _symmetry_equiv_pos_as_xyz
  1  'x, y, z'
loop_
 _atom_site_type_symbol
 _atom_site_label
 _atom_site_symmetry_multiplicity
 _atom_site_fract_x
 _atom_site_fract_y
 _atom_site_fract_z
 _atom_site_occupancy
  Sm  Sm0  1  0.019690  0.179872  0.901979  1
  Ho  Ho1  1  0.367520  0.834314  0.878284  1
  Ho  Ho2  1  0.867442  0.665364  0.621530  1
  Ho  Ho3  1  0.632494  0.165273  0.378337  1
  Ho  Ho4  1  0.132887  0.334946  0.121990  1
  Ho  Ho5  1  0.632726  0.165210  0.121791  1
  Ho  Ho6  1  0.132538  0.334687  0.378307  1
  Ho  Ho7  1  0.367507  0.834568  0.621585  1
  Ho  Ho8  1  0.867272  0.665431  0.878293  1
  Ho  Ho9  1  0.520424  0.320552  0.901309  1
  Ho  Ho10  1  0.020531  0.179816  0.598857  1
  Ho  Ho11  1  0.479599  0.679685  0.401329  1
  Ho  Ho12  1  0.979802  0.820062  0.098792  1
  Ho  Ho13  1  0.479714  0.679844  0.098659  1
  Ho  Ho14  1  0.979596  0.820297  0.401321  1
  Ho  Ho15  1  0.520464  0.320420  0.598497  1
  Ho  Ho16  1  0.198068  0.502787  0.749737  1
  Ho  Ho17  1  0.697420  0.997191  0.749639  1
  Ho  Ho18  1  0.802173  0.497489  0.250077  1
  Ho  Ho19  1  0.302199  0.002462  0.249987  1
  Sn  Sn20  1  0.294052  0.033822  0.042158  1
  Sn  Sn21  1  0.792684  0.465523  0.458389  1
  Sn  Sn22  1  0.707355  0.965664  0.541558  1
  Sn  Sn23  1  0.207821  0.535478  0.958639  1
  Sn  Sn24  1  0.705464  0.964247  0.958757  1
  Sn  Sn25  1  0.207245  0.534424  0.541551  1
  Sn  Sn26  1  0.292763  0.034449  0.458409  1
  Sn  Sn27  1  0.792686  0.465684  0.041626  1
  Sn  Sn28  1  0.564892  0.619702  0.749935  1
  Sn  Sn29  1  0.064965  0.879527  0.749823  1
  Sn  Sn30  1  0.435146  0.380427  0.250019  1
  Sn  Sn31  1  0.935100  0.119734  0.250065  1
  Sn  Sn32  1  0.328478  0.145846  0.749605  1
  Sn  Sn33  1  0.826501  0.355112  0.749145  1
  Sn  Sn34  1  0.672403  0.854118  0.249988  1
  Sn  Sn35  1  0.172378  0.645973  0.250033  1
