# generated using pymatgen
data_Pr3Nd2TlSi2
_symmetry_space_group_name_H-M   'P 1'
_cell_length_a   7.95346000
_cell_length_b   9.21409652
_cell_length_c   7.95376100
_cell_angle_alpha   115.51615812
_cell_angle_beta   90.00000000
_cell_angle_gamma   115.56863257
_symmetry_Int_Tables_number   1
_chemical_formula_structural   Pr3Nd2TlSi2
_chemical_formula_sum   'Pr6 Nd4 Tl2 Si4'
_cell_volume   461.97637804
_cell_formula_units_Z   2
loop_
 _symmetry_equiv_pos_site_id
 _symmetry_equiv_pos_as_xyz
  1  'x, y, z'
loop_
 _atom_site_type_symbol
 _atom_site_label
 _atom_site_symmetry_multiplicity
 _atom_site_fract_x
 _atom_site_fract_y
 _atom_site_fract_z
 _atom_site_occupancy
  Pr  Pr0  1  0.185431  0.721065  0.035815  1
  Pr  Pr1  1  0.035636  0.721065  0.535815  1
  Pr  Pr2  1  0.465219  0.278771  0.313472  1
  Pr  Pr3  1  0.814534  0.278813  0.964200  1
  Pr  Pr4  1  0.313550  0.278771  0.813472  1
  Pr  Pr5  1  0.964277  0.278813  0.464200  1
  Nd  Nd6  1  0.999758  0.999472  0.999750  1
  Nd  Nd7  1  0.499715  0.999472  0.499750  1
  Nd  Nd8  1  0.535704  0.722633  0.687022  1
  Nd  Nd9  1  0.686931  0.722633  0.187022  1
  Tl  Tl10  1  0.749305  0.501410  0.751110  1
  Tl  Tl11  1  0.252105  0.501410  0.251110  1
  Si  Si12  1  0.882070  0.998660  0.615729  1
  Si  Si13  1  0.115446  0.999177  0.382901  1
  Si  Si14  1  0.616590  0.998660  0.115729  1
  Si  Si15  1  0.383730  0.999177  0.882901  1
