# generated using pymatgen
data_TmFe2P2Rh
_symmetry_space_group_name_H-M   'P 1'
_cell_length_a   3.74175500
_cell_length_b   10.83538100
_cell_length_c   12.27534600
_cell_angle_alpha   90.00000000
_cell_angle_beta   90.00000000
_cell_angle_gamma   90.00000000
_symmetry_Int_Tables_number   1
_chemical_formula_structural   TmFe2P2Rh
_chemical_formula_sum   'Tm6 Fe12 P12 Rh6'
_cell_volume   497.68353918
_cell_formula_units_Z   6
loop_
 _symmetry_equiv_pos_site_id
 _symmetry_equiv_pos_as_xyz
  1  'x, y, z'
loop_
 _atom_site_type_symbol
 _atom_site_label
 _atom_site_symmetry_multiplicity
 _atom_site_fract_x
 _atom_site_fract_y
 _atom_site_fract_z
 _atom_site_occupancy
  Tm  Tm0  1  0.000000  0.500000  0.526204  1
  Tm  Tm1  1  0.500000  0.000000  0.479188  1
  Tm  Tm2  1  0.500000  0.822214  0.200801  1
  Tm  Tm3  1  0.500000  0.177786  0.200801  1
  Tm  Tm4  1  0.000000  0.683435  0.796558  1
  Tm  Tm5  1  0.000000  0.316565  0.796558  1
  Fe  Fe6  1  0.000000  0.500000  0.989122  1
  Fe  Fe7  1  0.500000  0.000000  0.007030  1
  Fe  Fe8  1  0.500000  0.331911  0.991783  1
  Fe  Fe9  1  0.500000  0.668089  0.991783  1
  Fe  Fe10  1  0.000000  0.167015  0.002761  1
  Fe  Fe11  1  0.000000  0.832985  0.002761  1
  Fe  Fe12  1  0.500000  0.294263  0.434461  1
  Fe  Fe13  1  0.500000  0.705737  0.434461  1
  Fe  Fe14  1  0.000000  0.196805  0.572890  1
  Fe  Fe15  1  0.000000  0.803195  0.572890  1
  Fe  Fe16  1  0.500000  0.882737  0.711971  1
  Fe  Fe17  1  0.500000  0.117263  0.711971  1
  P  P18  1  0.500000  0.500000  0.889914  1
  P  P19  1  0.000000  0.000000  0.106272  1
  P  P20  1  0.500000  0.500000  0.353979  1
  P  P21  1  0.000000  0.000000  0.654205  1
  P  P22  1  0.500000  0.295881  0.616786  1
  P  P23  1  0.500000  0.704119  0.616786  1
  P  P24  1  0.000000  0.190962  0.392516  1
  P  P25  1  0.000000  0.809038  0.392516  1
  P  P26  1  0.500000  0.842709  0.895506  1
  P  P27  1  0.500000  0.157291  0.895506  1
  P  P28  1  0.000000  0.660577  0.095205  1
  P  P29  1  0.000000  0.339423  0.095205  1
  Rh  Rh30  1  0.500000  0.500000  0.154704  1
  Rh  Rh31  1  0.000000  0.000000  0.843574  1
  Rh  Rh32  1  0.500000  0.500000  0.698376  1
  Rh  Rh33  1  0.000000  0.000000  0.298822  1
  Rh  Rh34  1  0.000000  0.627303  0.288066  1
  Rh  Rh35  1  0.000000  0.372697  0.288066  1
