# generated using pymatgen
data_IrAuS2
_symmetry_space_group_name_H-M   'P 1'
_cell_length_a   7.26486353
_cell_length_b   7.26486360
_cell_length_c   7.26486340
_cell_angle_alpha   28.86839445
_cell_angle_beta   28.86839679
_cell_angle_gamma   28.86839721
_symmetry_Int_Tables_number   1
_chemical_formula_structural   IrAuS2
_chemical_formula_sum   'Ir1 Au1 S2'
_cell_volume   79.03638124
_cell_formula_units_Z   1
loop_
 _symmetry_equiv_pos_site_id
 _symmetry_equiv_pos_as_xyz
  1  'x, y, z'
loop_
 _atom_site_type_symbol
 _atom_site_label
 _atom_site_symmetry_multiplicity
 _atom_site_fract_x
 _atom_site_fract_y
 _atom_site_fract_z
 _atom_site_occupancy
  Ir  Ir0  1  0.500000  0.500000  0.500000  1
  Au  Au1  1  0.000000  0.000000  0.000000  1
  S  S2  1  0.888333  0.888333  0.888333  1
  S  S3  1  0.111667  0.111667  0.111667  1
