# generated using pymatgen
data_Y3Ho9Ga2(TcNi)2
_symmetry_space_group_name_H-M   'P 1'
_cell_length_a   8.33827093
_cell_length_b   8.33831306
_cell_length_c   8.34698868
_cell_angle_alpha   104.44431763
_cell_angle_beta   110.82971684
_cell_angle_gamma   113.22524832
_symmetry_Int_Tables_number   1
_chemical_formula_structural   Y3Ho9Ga2(TcNi)2
_chemical_formula_sum   'Y3 Ho9 Ga2 Tc2 Ni2'
_cell_volume   444.20596445
_cell_formula_units_Z   1
loop_
 _symmetry_equiv_pos_site_id
 _symmetry_equiv_pos_as_xyz
  1  'x, y, z'
loop_
 _atom_site_type_symbol
 _atom_site_label
 _atom_site_symmetry_multiplicity
 _atom_site_fract_x
 _atom_site_fract_y
 _atom_site_fract_z
 _atom_site_occupancy
  Y  Y0  1  0.689613  0.255246  0.944857  1
  Y  Y1  1  0.309368  0.744848  0.054218  1
  Y  Y2  1  0.690126  0.744694  0.434819  1
  Ho  Ho3  1  0.308851  0.256115  0.564966  1
  Ho  Ho4  1  0.816572  0.149298  0.333124  1
  Ho  Ho5  1  0.815820  0.483136  0.666785  1
  Ho  Ho6  1  0.183651  0.850968  0.666785  1
  Ho  Ho7  1  0.183822  0.516550  0.333124  1
  Ho  Ho8  1  0.601266  0.779526  0.820870  1
  Ho  Ho9  1  0.959727  0.781009  0.179909  1
  Ho  Ho10  1  0.041341  0.219610  0.820864  1
  Ho  Ho11  1  0.398888  0.220180  0.179902  1
  Ga  Ga12  1  0.499685  0.499619  0.999304  1
  Ga  Ga13  1  0.499636  0.000095  0.499730  1
  Tc  Tc14  1  0.821412  0.499807  0.321221  1
  Tc  Tc15  1  0.179542  0.499240  0.678780  1
  Ni  Ni16  1  0.000421  0.117135  0.117563  1
  Ni  Ni17  1  0.000259  0.882925  0.883180  1
