# generated using pymatgen
data_Dy2AlCdPt2
_symmetry_space_group_name_H-M   'P 1'
_cell_length_a   4.36474900
_cell_length_b   6.97422661
_cell_length_c   8.23410009
_cell_angle_alpha   92.40602938
_cell_angle_beta   90.00000000
_cell_angle_gamma   90.00000000
_symmetry_Int_Tables_number   1
_chemical_formula_structural   Dy2AlCdPt2
_chemical_formula_sum   'Dy4 Al2 Cd2 Pt4'
_cell_volume   250.43120058
_cell_formula_units_Z   2
loop_
 _symmetry_equiv_pos_site_id
 _symmetry_equiv_pos_as_xyz
  1  'x, y, z'
loop_
 _atom_site_type_symbol
 _atom_site_label
 _atom_site_symmetry_multiplicity
 _atom_site_fract_x
 _atom_site_fract_y
 _atom_site_fract_z
 _atom_site_occupancy
  Dy  Dy0  1  0.250000  0.463780  0.185748  1
  Dy  Dy1  1  0.750000  0.536220  0.814252  1
  Dy  Dy2  1  0.750000  0.036102  0.677042  1
  Dy  Dy3  1  0.250000  0.963898  0.322958  1
  Al  Al4  1  0.750000  0.639271  0.442494  1
  Al  Al5  1  0.250000  0.360729  0.557506  1
  Cd  Cd6  1  0.250000  0.857699  0.935225  1
  Cd  Cd7  1  0.750000  0.142301  0.064775  1
  Pt  Pt8  1  0.250000  0.731283  0.599878  1
  Pt  Pt9  1  0.750000  0.268717  0.400122  1
  Pt  Pt10  1  0.750000  0.738783  0.143182  1
  Pt  Pt11  1  0.250000  0.261217  0.856818  1
