# generated using pymatgen
data_Ho6Tm4Si5As
_symmetry_space_group_name_H-M   'P 1'
_cell_length_a   8.38726950
_cell_length_b   8.38726867
_cell_length_c   6.24018100
_cell_angle_alpha   90.00000000
_cell_angle_beta   90.00000000
_cell_angle_gamma   120.08843195
_symmetry_Int_Tables_number   1
_chemical_formula_structural   Ho6Tm4Si5As
_chemical_formula_sum   'Ho6 Tm4 Si5 As1'
_cell_volume   379.82301954
_cell_formula_units_Z   1
loop_
 _symmetry_equiv_pos_site_id
 _symmetry_equiv_pos_as_xyz
  1  'x, y, z'
loop_
 _atom_site_type_symbol
 _atom_site_label
 _atom_site_symmetry_multiplicity
 _atom_site_fract_x
 _atom_site_fract_y
 _atom_site_fract_z
 _atom_site_occupancy
  Ho  Ho0  1  0.757847  0.757847  0.250000  1
  Ho  Ho1  1  0.243063  0.996827  0.250000  1
  Ho  Ho2  1  0.996827  0.243063  0.250000  1
  Ho  Ho3  1  0.243421  0.243421  0.750000  1
  Ho  Ho4  1  0.756073  0.000395  0.750000  1
  Ho  Ho5  1  0.000395  0.756073  0.750000  1
  Tm  Tm6  1  0.668661  0.333032  0.501253  1
  Tm  Tm7  1  0.333032  0.668661  0.501253  1
  Tm  Tm8  1  0.333032  0.668661  0.998747  1
  Tm  Tm9  1  0.668661  0.333032  0.998747  1
  Si  Si10  1  0.605297  0.999802  0.250000  1
  Si  Si11  1  0.999802  0.605297  0.250000  1
  Si  Si12  1  0.606351  0.606351  0.750000  1
  Si  Si13  1  0.394621  0.000883  0.750000  1
  Si  Si14  1  0.000883  0.394621  0.750000  1
  As  As15  1  0.392037  0.392037  0.250000  1
