# generated using pymatgen
data_Ba4Er(OsO6)2
_symmetry_space_group_name_H-M   'P 1'
_cell_length_a   10.09045704
_cell_length_b   10.09045701
_cell_length_c   10.09045701
_cell_angle_alpha   33.87711757
_cell_angle_beta   33.87711703
_cell_angle_gamma   33.87711500
_symmetry_Int_Tables_number   1
_chemical_formula_structural   Ba4Er(OsO6)2
_chemical_formula_sum   'Ba4 Er1 Os2 O12'
_cell_volume   284.48534881
_cell_formula_units_Z   1
loop_
 _symmetry_equiv_pos_site_id
 _symmetry_equiv_pos_as_xyz
  1  'x, y, z'
loop_
 _atom_site_type_symbol
 _atom_site_label
 _atom_site_symmetry_multiplicity
 _atom_site_fract_x
 _atom_site_fract_y
 _atom_site_fract_z
 _atom_site_occupancy
  Ba  Ba0  1  0.711709  0.711709  0.711709  1
  Ba  Ba1  1  0.288291  0.288291  0.288291  1
  Ba  Ba2  1  0.866517  0.866517  0.866517  1
  Ba  Ba3  1  0.133483  0.133483  0.133483  1
  Er  Er4  1  0.000000  0.000000  0.000000  1
  Os  Os5  1  0.579521  0.579521  0.579521  1
  Os  Os6  1  0.420479  0.420479  0.420479  1
  O  O7  1  0.222126  0.690173  0.222126  1
  O  O8  1  0.222126  0.222126  0.690173  1
  O  O9  1  0.690173  0.222126  0.222126  1
  O  O10  1  0.777874  0.309827  0.777874  1
  O  O11  1  0.777874  0.777874  0.309827  1
  O  O12  1  0.309827  0.777874  0.777874  1
  O  O13  1  0.388440  0.858382  0.388440  1
  O  O14  1  0.388440  0.388440  0.858382  1
  O  O15  1  0.858382  0.388440  0.388440  1
  O  O16  1  0.611560  0.141618  0.611560  1
  O  O17  1  0.611560  0.611560  0.141618  1
  O  O18  1  0.141618  0.611560  0.611560  1
