# generated using pymatgen
data_Ce2U2AsP3O20
_symmetry_space_group_name_H-M   'P 1'
_cell_length_a   5.63933585
_cell_length_b   9.01498414
_cell_length_c   9.34447384
_cell_angle_alpha   101.76904219
_cell_angle_beta   103.21322801
_cell_angle_gamma   98.46207834
_symmetry_Int_Tables_number   1
_chemical_formula_structural   Ce2U2AsP3O20
_chemical_formula_sum   'Ce2 U2 As1 P3 O20'
_cell_volume   443.30303084
_cell_formula_units_Z   1
loop_
 _symmetry_equiv_pos_site_id
 _symmetry_equiv_pos_as_xyz
  1  'x, y, z'
loop_
 _atom_site_type_symbol
 _atom_site_label
 _atom_site_symmetry_multiplicity
 _atom_site_fract_x
 _atom_site_fract_y
 _atom_site_fract_z
 _atom_site_occupancy
  Ce  Ce0  1  0.354858  0.296983  0.050774  1
  Ce  Ce1  1  0.646221  0.708262  0.959013  1
  U  U2  1  0.342634  0.804989  0.551904  1
  U  U3  1  0.657151  0.190927  0.441967  1
  As  As4  1  0.084942  0.513398  0.759351  1
  P  P5  1  0.913175  0.482383  0.238910  1
  P  P6  1  0.274144  0.922571  0.178800  1
  P  P7  1  0.720816  0.081286  0.822907  1
  O  O8  1  0.000820  0.148922  0.893021  1
  O  O9  1  0.993775  0.862003  0.109082  1
  O  O10  1  0.980867  0.356523  0.612183  1
  O  O11  1  0.034343  0.618324  0.376343  1
  O  O12  1  0.726831  0.355512  0.272933  1
  O  O13  1  0.294577  0.655105  0.728921  1
  O  O14  1  0.415627  0.817119  0.093002  1
  O  O15  1  0.572323  0.183314  0.907790  1
  O  O16  1  0.438324  0.301183  0.496015  1
  O  O17  1  0.572113  0.703575  0.499866  1
  O  O18  1  0.849218  0.585989  0.816479  1
  O  O19  1  0.115170  0.409571  0.178634  1
  O  O20  1  0.292384  0.477332  0.910237  1
  O  O21  1  0.734879  0.531025  0.109242  1
  O  O22  1  0.867271  0.080299  0.376605  1
  O  O23  1  0.120426  0.907970  0.611800  1
  O  O24  1  0.352095  0.931606  0.351245  1
  O  O25  1  0.640782  0.070146  0.649402  1
  O  O26  1  0.357904  0.093951  0.173548  1
  O  O27  1  0.646331  0.909731  0.830026  1
