# generated using pymatgen
data_ErLu(ZrPt)2
_symmetry_space_group_name_H-M   'P 1'
_cell_length_a   4.67177300
_cell_length_b   7.02765200
_cell_length_c   8.22685200
_cell_angle_alpha   90.00000000
_cell_angle_beta   90.00000000
_cell_angle_gamma   90.00000000
_symmetry_Int_Tables_number   1
_chemical_formula_structural   ErLu(ZrPt)2
_chemical_formula_sum   'Er2 Lu2 Zr4 Pt4'
_cell_volume   270.10067189
_cell_formula_units_Z   2
loop_
 _symmetry_equiv_pos_site_id
 _symmetry_equiv_pos_as_xyz
  1  'x, y, z'
loop_
 _atom_site_type_symbol
 _atom_site_label
 _atom_site_symmetry_multiplicity
 _atom_site_fract_x
 _atom_site_fract_y
 _atom_site_fract_z
 _atom_site_occupancy
  Er  Er0  1  0.250000  0.015432  0.677061  1
  Er  Er1  1  0.250000  0.515432  0.822939  1
  Lu  Lu2  1  0.750000  0.983374  0.321461  1
  Lu  Lu3  1  0.750000  0.483374  0.178539  1
  Zr  Zr4  1  0.250000  0.149188  0.081016  1
  Zr  Zr5  1  0.250000  0.649188  0.418984  1
  Zr  Zr6  1  0.750000  0.850767  0.921091  1
  Zr  Zr7  1  0.750000  0.350767  0.578909  1
  Pt  Pt8  1  0.250000  0.267516  0.404423  1
  Pt  Pt9  1  0.250000  0.767516  0.095577  1
  Pt  Pt10  1  0.750000  0.733721  0.592884  1
  Pt  Pt11  1  0.750000  0.233721  0.907116  1
