# generated using pymatgen
data_Rb2VCuSe4
_symmetry_space_group_name_H-M   'P 1'
_cell_length_a   14.15400167
_cell_length_b   12.63458641
_cell_length_c   7.54036901
_cell_angle_alpha   85.13654523
_cell_angle_beta   62.80261112
_cell_angle_gamma   32.06084629
_symmetry_Int_Tables_number   1
_chemical_formula_structural   Rb2VCuSe4
_chemical_formula_sum   'Rb4 V2 Cu2 Se8'
_cell_volume   488.72502912
_cell_formula_units_Z   2
loop_
 _symmetry_equiv_pos_site_id
 _symmetry_equiv_pos_as_xyz
  1  'x, y, z'
loop_
 _atom_site_type_symbol
 _atom_site_label
 _atom_site_symmetry_multiplicity
 _atom_site_fract_x
 _atom_site_fract_y
 _atom_site_fract_z
 _atom_site_occupancy
  Rb  Rb0  1  0.678972  0.678972  0.321028  1
  Rb  Rb1  1  0.928972  0.928972  0.571028  1
  Rb  Rb2  1  0.321028  0.321028  0.678972  1
  Rb  Rb3  1  0.571028  0.571028  0.928972  1
  V  V4  1  0.750000  0.750000  0.750000  1
  V  V5  1  0.500000  0.500000  0.500000  1
  Cu  Cu6  1  0.000000  0.000000  0.000000  1
  Cu  Cu7  1  0.250000  0.250000  0.250000  1
  Se  Se8  1  0.024971  0.366047  0.668131  1
  Se  Se9  1  0.225029  0.883953  0.581869  1
  Se  Se10  1  0.883953  0.225029  0.309150  1
  Se  Se11  1  0.581869  0.309150  0.225029  1
  Se  Se12  1  0.940850  0.668131  0.366047  1
  Se  Se13  1  0.668131  0.940850  0.024971  1
  Se  Se14  1  0.366047  0.024971  0.940850  1
  Se  Se15  1  0.309150  0.581869  0.883953  1
