# generated using pymatgen
data_Be2V3GaN
_symmetry_space_group_name_H-M   'P 1'
_cell_length_a   7.51054359
_cell_length_b   7.51054301
_cell_length_c   7.51054300
_cell_angle_alpha   60.00000444
_cell_angle_beta   60.00000699
_cell_angle_gamma   60.00000465
_symmetry_Int_Tables_number   1
_chemical_formula_structural   Be2V3GaN
_chemical_formula_sum   'Be8 V12 Ga4 N4'
_cell_volume   299.57053847
_cell_formula_units_Z   4
loop_
 _symmetry_equiv_pos_site_id
 _symmetry_equiv_pos_as_xyz
  1  'x, y, z'
loop_
 _atom_site_type_symbol
 _atom_site_label
 _atom_site_symmetry_multiplicity
 _atom_site_fract_x
 _atom_site_fract_y
 _atom_site_fract_z
 _atom_site_occupancy
  Be  Be0  1  0.749809  0.416731  0.416731  1
  Be  Be1  1  0.416731  0.749809  0.416731  1
  Be  Be2  1  0.416731  0.416731  0.749809  1
  Be  Be3  1  0.416731  0.416731  0.416731  1
  Be  Be4  1  0.500191  0.833269  0.833269  1
  Be  Be5  1  0.833269  0.500191  0.833269  1
  Be  Be6  1  0.833269  0.833269  0.500191  1
  Be  Be7  1  0.833269  0.833269  0.833269  1
  V  V8  1  0.814795  0.814795  0.185205  1
  V  V9  1  0.185205  0.185205  0.814795  1
  V  V10  1  0.814795  0.185205  0.814795  1
  V  V11  1  0.185205  0.814795  0.185205  1
  V  V12  1  0.185205  0.814795  0.814795  1
  V  V13  1  0.814795  0.185205  0.185205  1
  V  V14  1  0.435205  0.435205  0.064795  1
  V  V15  1  0.064795  0.064795  0.435205  1
  V  V16  1  0.435205  0.064795  0.435205  1
  V  V17  1  0.064795  0.435205  0.064795  1
  V  V18  1  0.064795  0.435205  0.435205  1
  V  V19  1  0.435205  0.064795  0.064795  1
  Ga  Ga20  1  0.125000  0.625000  0.625000  1
  Ga  Ga21  1  0.625000  0.125000  0.625000  1
  Ga  Ga22  1  0.625000  0.625000  0.125000  1
  Ga  Ga23  1  0.625000  0.625000  0.625000  1
  N  N24  1  0.625000  0.125000  0.125000  1
  N  N25  1  0.125000  0.625000  0.125000  1
  N  N26  1  0.125000  0.125000  0.625000  1
  N  N27  1  0.125000  0.125000  0.125000  1
