# generated using pymatgen
data_Tb5Dy2Pa(ReB6)4
_symmetry_space_group_name_H-M   'P 1'
_cell_length_a   3.70700600
_cell_length_b   9.19936827
_cell_length_c   11.57139807
_cell_angle_alpha   90.18989117
_cell_angle_beta   90.00000000
_cell_angle_gamma   90.00000000
_symmetry_Int_Tables_number   1
_chemical_formula_structural   Tb5Dy2Pa(ReB6)4
_chemical_formula_sum   'Tb5 Dy2 Pa1 Re4 B24'
_cell_volume   394.60696162
_cell_formula_units_Z   1
loop_
 _symmetry_equiv_pos_site_id
 _symmetry_equiv_pos_as_xyz
  1  'x, y, z'
loop_
 _atom_site_type_symbol
 _atom_site_label
 _atom_site_symmetry_multiplicity
 _atom_site_fract_x
 _atom_site_fract_y
 _atom_site_fract_z
 _atom_site_occupancy
  Tb  Tb0  1  0.000000  0.678456  0.586852  1
  Tb  Tb1  1  0.000000  0.823655  0.085595  1
  Tb  Tb2  1  0.000000  0.175735  0.913503  1
  Tb  Tb3  1  0.000000  0.942483  0.371612  1
  Tb  Tb4  1  0.000000  0.055608  0.629158  1
  Dy  Dy5  1  0.000000  0.443262  0.127678  1
  Dy  Dy6  1  0.000000  0.557223  0.870094  1
  Pa  Pa7  1  0.000000  0.323829  0.413904  1
  Re  Re8  1  0.000000  0.634769  0.322135  1
  Re  Re9  1  0.000000  0.362597  0.675861  1
  Re  Re10  1  0.000000  0.141348  0.181821  1
  Re  Re11  1  0.000000  0.861546  0.821388  1
  B  B12  1  0.500000  0.552287  0.431893  1
  B  B13  1  0.500000  0.445661  0.566882  1
  B  B14  1  0.500000  0.054069  0.067932  1
  B  B15  1  0.500000  0.946939  0.933367  1
  B  B16  1  0.500000  0.747538  0.418377  1
  B  B17  1  0.500000  0.251878  0.580794  1
  B  B18  1  0.500000  0.248344  0.081226  1
  B  B19  1  0.500000  0.751560  0.918719  1
  B  B20  1  0.500000  0.790594  0.266371  1
  B  B21  1  0.500000  0.208876  0.734035  1
  B  B22  1  0.500000  0.291762  0.234484  1
  B  B23  1  0.500000  0.708525  0.766129  1
  B  B24  1  0.500000  0.630992  0.185438  1
  B  B25  1  0.500000  0.369463  0.813439  1
  B  B26  1  0.500000  0.132758  0.314565  1
  B  B27  1  0.500000  0.868286  0.686635  1
  B  B28  1  0.500000  0.983591  0.212384  1
  B  B29  1  0.500000  0.016841  0.788262  1
  B  B30  1  0.500000  0.482855  0.287578  1
  B  B31  1  0.500000  0.517086  0.712599  1
  B  B32  1  0.500000  0.602091  0.028057  1
  B  B33  1  0.500000  0.397962  0.970702  1
  B  B34  1  0.500000  0.107275  0.470360  1
  B  B35  1  0.500000  0.892256  0.530170  1
