# generated using pymatgen
data_U4Fe3Si4Ni
_symmetry_space_group_name_H-M   'P 1'
_cell_length_a   3.90390200
_cell_length_b   6.54280590
_cell_length_c   7.28182584
_cell_angle_alpha   89.00002356
_cell_angle_beta   90.00000000
_cell_angle_gamma   90.00000000
_symmetry_Int_Tables_number   1
_chemical_formula_structural   U4Fe3Si4Ni
_chemical_formula_sum   'U4 Fe3 Si4 Ni1'
_cell_volume   185.96751344
_cell_formula_units_Z   1
loop_
 _symmetry_equiv_pos_site_id
 _symmetry_equiv_pos_as_xyz
  1  'x, y, z'
loop_
 _atom_site_type_symbol
 _atom_site_label
 _atom_site_symmetry_multiplicity
 _atom_site_fract_x
 _atom_site_fract_y
 _atom_site_fract_z
 _atom_site_occupancy
  U  U0  1  0.250000  0.159793  0.985750  1
  U  U1  1  0.750000  0.844323  0.007765  1
  U  U2  1  0.250000  0.356758  0.497503  1
  U  U3  1  0.750000  0.645330  0.512738  1
  Fe  Fe4  1  0.250000  0.561361  0.126195  1
  Fe  Fe5  1  0.750000  0.436072  0.877701  1
  Fe  Fe6  1  0.250000  0.940889  0.620506  1
  Si  Si7  1  0.250000  0.620270  0.804302  1
  Si  Si8  1  0.750000  0.384724  0.199763  1
  Si  Si9  1  0.250000  0.876458  0.301990  1
  Si  Si10  1  0.750000  0.114206  0.695689  1
  Ni  Ni11  1  0.750000  0.059816  0.370099  1
