# generated using pymatgen
data_Ba4La7TbSe16
_symmetry_space_group_name_H-M   'P 1'
_cell_length_a   4.39067700
_cell_length_b   13.13925168
_cell_length_c   15.73254872
_cell_angle_alpha   90.46359574
_cell_angle_beta   90.00000000
_cell_angle_gamma   90.00000000
_symmetry_Int_Tables_number   1
_chemical_formula_structural   Ba4La7TbSe16
_chemical_formula_sum   'Ba4 La7 Tb1 Se16'
_cell_volume   907.58433184
_cell_formula_units_Z   1
loop_
 _symmetry_equiv_pos_site_id
 _symmetry_equiv_pos_as_xyz
  1  'x, y, z'
loop_
 _atom_site_type_symbol
 _atom_site_label
 _atom_site_symmetry_multiplicity
 _atom_site_fract_x
 _atom_site_fract_y
 _atom_site_fract_z
 _atom_site_occupancy
  Ba  Ba0  1  0.250000  0.242094  0.338066  1
  Ba  Ba1  1  0.250000  0.743048  0.160182  1
  Ba  Ba2  1  0.750000  0.759499  0.665905  1
  Ba  Ba3  1  0.750000  0.255610  0.838747  1
  La  La4  1  0.250000  0.080138  0.603541  1
  La  La5  1  0.250000  0.583679  0.899325  1
  La  La6  1  0.750000  0.918350  0.397983  1
  La  La7  1  0.750000  0.417434  0.101717  1
  La  La8  1  0.250000  0.570964  0.390660  1
  La  La9  1  0.250000  0.067676  0.106267  1
  La  La10  1  0.750000  0.430468  0.609903  1
  Tb  Tb11  1  0.750000  0.935593  0.888576  1
  Se  Se12  1  0.250000  0.079890  0.916828  1
  Se  Se13  1  0.250000  0.584018  0.580696  1
  Se  Se14  1  0.750000  0.915022  0.070090  1
  Se  Se15  1  0.750000  0.416851  0.420295  1
  Se  Se16  1  0.250000  0.293364  0.678891  1
  Se  Se17  1  0.250000  0.800608  0.830770  1
  Se  Se18  1  0.750000  0.706545  0.320840  1
  Se  Se19  1  0.750000  0.204536  0.176779  1
  Se  Se20  1  0.250000  0.369664  0.973370  1
  Se  Se21  1  0.250000  0.868145  0.525516  1
  Se  Se22  1  0.750000  0.628391  0.027583  1
  Se  Se23  1  0.750000  0.130384  0.476572  1
  Se  Se24  1  0.250000  0.476006  0.217193  1
  Se  Se25  1  0.250000  0.975286  0.281086  1
  Se  Se26  1  0.750000  0.526503  0.783381  1
  Se  Se27  1  0.750000  0.020235  0.719238  1
