# generated using pymatgen
data_Er6Al24Ru2PtRh5
_symmetry_space_group_name_H-M   'P 1'
_cell_length_a   8.80992015
_cell_length_b   8.80991899
_cell_length_c   9.46399849
_cell_angle_alpha   89.94431598
_cell_angle_beta   90.05568769
_cell_angle_gamma   119.90365838
_symmetry_Int_Tables_number   1
_chemical_formula_structural   Er6Al24Ru2PtRh5
_chemical_formula_sum   'Er6 Al24 Ru2 Pt1 Rh5'
_cell_volume   636.75109966
_cell_formula_units_Z   1
loop_
 _symmetry_equiv_pos_site_id
 _symmetry_equiv_pos_as_xyz
  1  'x, y, z'
loop_
 _atom_site_type_symbol
 _atom_site_label
 _atom_site_symmetry_multiplicity
 _atom_site_fract_x
 _atom_site_fract_y
 _atom_site_fract_z
 _atom_site_occupancy
  Er  Er0  1  0.191234  0.383623  0.249554  1
  Er  Er1  1  0.808766  0.616377  0.750446  1
  Er  Er2  1  0.616377  0.808766  0.249554  1
  Er  Er3  1  0.383623  0.191234  0.750446  1
  Er  Er4  1  0.192036  0.807964  0.250422  1
  Er  Er5  1  0.807964  0.192036  0.749578  1
  Al  Al6  1  0.331541  0.668459  0.030885  1
  Al  Al7  1  0.668459  0.331541  0.969115  1
  Al  Al8  1  0.666983  0.333017  0.529781  1
  Al  Al9  1  0.333017  0.666983  0.470219  1
  Al  Al10  1  0.162901  0.325775  0.576333  1
  Al  Al11  1  0.837099  0.674225  0.423667  1
  Al  Al12  1  0.674225  0.837099  0.576333  1
  Al  Al13  1  0.840242  0.674588  0.077017  1
  Al  Al14  1  0.325775  0.162901  0.423667  1
  Al  Al15  1  0.159758  0.325412  0.922983  1
  Al  Al16  1  0.163327  0.836673  0.576396  1
  Al  Al17  1  0.325412  0.159758  0.077017  1
  Al  Al18  1  0.836673  0.163327  0.423604  1
  Al  Al19  1  0.674588  0.840242  0.922983  1
  Al  Al20  1  0.836892  0.163108  0.077138  1
  Al  Al21  1  0.163108  0.836892  0.922862  1
  Al  Al22  1  0.561616  0.123394  0.249613  1
  Al  Al23  1  0.438384  0.876606  0.750387  1
  Al  Al24  1  0.876606  0.438384  0.249613  1
  Al  Al25  1  0.123394  0.561616  0.750387  1
  Al  Al26  1  0.562743  0.437257  0.252510  1
  Al  Al27  1  0.437257  0.562743  0.747490  1
  Al  Al28  1  0.999674  0.000326  0.250233  1
  Al  Al29  1  0.000326  0.999674  0.749767  1
  Ru  Ru30  1  0.000000  0.000000  0.000000  1
  Ru  Ru31  1  0.000000  0.000000  0.500000  1
  Pt  Pt32  1  0.500000  0.500000  0.000000  1
  Rh  Rh33  1  0.500000  0.000000  0.000000  1
  Rh  Rh34  1  0.000000  0.500000  0.000000  1
  Rh  Rh35  1  0.500000  0.000000  0.500000  1
  Rh  Rh36  1  0.000000  0.500000  0.500000  1
  Rh  Rh37  1  0.500000  0.500000  0.500000  1
