# generated using pymatgen
data_YHo3(CdGa2)2
_symmetry_space_group_name_H-M   'P 1'
_cell_length_a   7.30975335
_cell_length_b   7.30975335
_cell_length_c   4.29054400
_cell_angle_alpha   90.00000000
_cell_angle_beta   90.00000000
_cell_angle_gamma   90.23483457
_symmetry_Int_Tables_number   1
_chemical_formula_structural   YHo3(CdGa2)2
_chemical_formula_sum   'Y1 Ho3 Cd2 Ga4'
_cell_volume   229.25254106
_cell_formula_units_Z   1
loop_
 _symmetry_equiv_pos_site_id
 _symmetry_equiv_pos_as_xyz
  1  'x, y, z'
loop_
 _atom_site_type_symbol
 _atom_site_label
 _atom_site_symmetry_multiplicity
 _atom_site_fract_x
 _atom_site_fract_y
 _atom_site_fract_z
 _atom_site_occupancy
  Y  Y0  1  0.328624  0.171376  0.499999  1
  Ho  Ho1  1  0.828889  0.329246  0.499999  1
  Ho  Ho2  1  0.170754  0.671111  0.499999  1
  Ho  Ho3  1  0.671624  0.828376  0.499999  1
  Cd  Cd4  1  0.999684  0.999872  0.000000  1
  Cd  Cd5  1  0.500128  0.500316  0.000000  1
  Ga  Ga6  1  0.627889  0.126591  0.000000  1
  Ga  Ga7  1  0.125899  0.374101  0.000000  1
  Ga  Ga8  1  0.873101  0.626899  0.000000  1
  Ga  Ga9  1  0.373409  0.872111  0.000000  1
