# generated using pymatgen
data_Tb7Ho3Cd4(InPd)4
_symmetry_space_group_name_H-M   'P 1'
_cell_length_a   3.63793300
_cell_length_b   8.12972006
_cell_length_c   18.38521213
_cell_angle_alpha   90.01350873
_cell_angle_beta   90.00000000
_cell_angle_gamma   90.00000000
_symmetry_Int_Tables_number   1
_chemical_formula_structural   Tb7Ho3Cd4(InPd)4
_chemical_formula_sum   'Tb7 Ho3 Cd4 In4 Pd4'
_cell_volume   543.74956248
_cell_formula_units_Z   1
loop_
 _symmetry_equiv_pos_site_id
 _symmetry_equiv_pos_as_xyz
  1  'x, y, z'
loop_
 _atom_site_type_symbol
 _atom_site_label
 _atom_site_symmetry_multiplicity
 _atom_site_fract_x
 _atom_site_fract_y
 _atom_site_fract_z
 _atom_site_occupancy
  Tb  Tb0  1  0.000000  0.499938  0.500015  1
  Tb  Tb1  1  0.000000  0.000098  0.999961  1
  Tb  Tb2  1  0.000000  0.741544  0.281198  1
  Tb  Tb3  1  0.000000  0.258686  0.718941  1
  Tb  Tb4  1  0.000000  0.758672  0.780935  1
  Tb  Tb5  1  0.000000  0.241141  0.219077  1
  Tb  Tb6  1  0.000000  0.612884  0.083178  1
  Ho  Ho7  1  0.000000  0.387582  0.916152  1
  Ho  Ho8  1  0.000000  0.887652  0.583661  1
  Ho  Ho9  1  0.000000  0.112316  0.416349  1
  Cd  Cd10  1  0.500000  0.711194  0.931339  1
  Cd  Cd11  1  0.500000  0.287967  0.068403  1
  Cd  Cd12  1  0.500000  0.789309  0.431793  1
  Cd  Cd13  1  0.500000  0.210784  0.568239  1
  In  In14  1  0.500000  0.577457  0.647897  1
  In  In15  1  0.500000  0.422510  0.352143  1
  In  In16  1  0.500000  0.923611  0.148107  1
  In  In17  1  0.500000  0.077207  0.852061  1
  Pd  Pd18  1  0.500000  0.524491  0.196667  1
  Pd  Pd19  1  0.500000  0.474926  0.803851  1
  Pd  Pd20  1  0.500000  0.974938  0.696060  1
  Pd  Pd21  1  0.500000  0.025092  0.303974  1
