# generated using pymatgen
data_Tb5Nd5(Si2Pb)2
_symmetry_space_group_name_H-M   'P 1'
_cell_length_a   7.79112681
_cell_length_b   7.79112774
_cell_length_c   9.22638800
_cell_angle_alpha   114.69482970
_cell_angle_beta   114.69483284
_cell_angle_gamma   90.71387599
_symmetry_Int_Tables_number   1
_chemical_formula_structural   Tb5Nd5(Si2Pb)2
_chemical_formula_sum   'Tb5 Nd5 Si4 Pb2'
_cell_volume   450.28264338
_cell_formula_units_Z   1
loop_
 _symmetry_equiv_pos_site_id
 _symmetry_equiv_pos_as_xyz
  1  'x, y, z'
loop_
 _atom_site_type_symbol
 _atom_site_label
 _atom_site_symmetry_multiplicity
 _atom_site_fract_x
 _atom_site_fract_y
 _atom_site_fract_z
 _atom_site_occupancy
  Tb  Tb0  1  0.501977  0.504047  0.006137  1
  Tb  Tb1  1  0.004047  0.001977  0.006137  1
  Tb  Tb2  1  0.965005  0.804585  0.269702  1
  Tb  Tb3  1  0.304585  0.465005  0.269702  1
  Tb  Tb4  1  0.807592  0.307592  0.267120  1
  Nd  Nd5  1  0.464586  0.964586  0.277722  1
  Nd  Nd6  1  0.033065  0.191343  0.725121  1
  Nd  Nd7  1  0.691343  0.533065  0.725121  1
  Nd  Nd8  1  0.192123  0.692123  0.727619  1
  Nd  Nd9  1  0.535393  0.035393  0.726144  1
  Si  Si10  1  0.630864  0.878934  0.006239  1
  Si  Si11  1  0.378934  0.130864  0.006239  1
  Si  Si12  1  0.879809  0.379809  0.006596  1
  Si  Si13  1  0.124166  0.624166  0.004218  1
  Pb  Pb14  1  0.747758  0.738753  0.488092  1
  Pb  Pb15  1  0.238753  0.247758  0.488092  1
