# generated using pymatgen
data_Zr2Cl15
_symmetry_space_group_name_H-M   'P 1'
_cell_length_a   7.69415529
_cell_length_b   13.80724707
_cell_length_c   14.67917269
_cell_angle_alpha   101.77835078
_cell_angle_beta   110.42718241
_cell_angle_gamma   105.52388408
_symmetry_Int_Tables_number   1
_chemical_formula_structural   Zr2Cl15
_chemical_formula_sum   'Zr4 Cl30'
_cell_volume   1329.42298086
_cell_formula_units_Z   2
loop_
 _symmetry_equiv_pos_site_id
 _symmetry_equiv_pos_as_xyz
  1  'x, y, z'
loop_
 _atom_site_type_symbol
 _atom_site_label
 _atom_site_symmetry_multiplicity
 _atom_site_fract_x
 _atom_site_fract_y
 _atom_site_fract_z
 _atom_site_occupancy
  Zr  Zr0  1  0.709310  0.264451  0.279153  1
  Zr  Zr1  1  0.290690  0.735549  0.720847  1
  Zr  Zr2  1  0.866651  0.591219  0.413617  1
  Zr  Zr3  1  0.133349  0.408781  0.586383  1
  Cl  Cl4  1  0.772812  0.928636  0.509063  1
  Cl  Cl5  1  0.227188  0.071364  0.490937  1
  Cl  Cl6  1  0.348623  0.735153  0.123664  1
  Cl  Cl7  1  0.651377  0.264847  0.876336  1
  Cl  Cl8  1  0.122683  0.973949  0.171820  1
  Cl  Cl9  1  0.877317  0.026051  0.828180  1
  Cl  Cl10  1  0.832740  0.903427  0.075940  1
  Cl  Cl11  1  0.167260  0.096573  0.924060  1
  Cl  Cl12  1  0.056279  0.655673  0.073993  1
  Cl  Cl13  1  0.943721  0.344327  0.926007  1
  Cl  Cl14  1  0.437941  0.453112  0.032618  1
  Cl  Cl15  1  0.562059  0.546888  0.967382  1
  Cl  Cl16  1  0.521482  0.150565  0.569239  1
  Cl  Cl17  1  0.478518  0.849435  0.430761  1
  Cl  Cl18  1  0.758241  0.191461  0.136238  1
  Cl  Cl19  1  0.241759  0.808539  0.863762  1
  Cl  Cl20  1  0.398615  0.280504  0.204802  1
  Cl  Cl21  1  0.601385  0.719496  0.795198  1
  Cl  Cl22  1  0.887967  0.461065  0.275555  1
  Cl  Cl23  1  0.112033  0.538935  0.724445  1
  Cl  Cl24  1  0.910228  0.689545  0.589143  1
  Cl  Cl25  1  0.089772  0.310455  0.410857  1
  Cl  Cl26  1  0.769730  0.406326  0.464420  1
  Cl  Cl27  1  0.230270  0.593674  0.535580  1
  Cl  Cl28  1  0.527979  0.561786  0.338023  1
  Cl  Cl29  1  0.472021  0.438214  0.661977  1
  Cl  Cl30  1  0.002973  0.735250  0.367644  1
  Cl  Cl31  1  0.997027  0.264750  0.632356  1
  Cl  Cl32  1  0.386956  0.883951  0.669400  1
  Cl  Cl33  1  0.613044  0.116049  0.330600  1
