# generated using pymatgen
data_LiEr6Zn22Si
_symmetry_space_group_name_H-M   'P 1'
_cell_length_a   9.04791318
_cell_length_b   9.04791205
_cell_length_c   9.04791300
_cell_angle_alpha   60.00000019
_cell_angle_beta   60.00000430
_cell_angle_gamma   59.99999665
_symmetry_Int_Tables_number   1
_chemical_formula_structural   LiEr6Zn22Si
_chemical_formula_sum   'Li1 Er6 Zn22 Si1'
_cell_volume   523.75745405
_cell_formula_units_Z   1
loop_
 _symmetry_equiv_pos_site_id
 _symmetry_equiv_pos_as_xyz
  1  'x, y, z'
loop_
 _atom_site_type_symbol
 _atom_site_label
 _atom_site_symmetry_multiplicity
 _atom_site_fract_x
 _atom_site_fract_y
 _atom_site_fract_z
 _atom_site_occupancy
  Li  Li0  1  0.000000  0.000000  0.000000  1
  Er  Er1  1  0.715705  0.284295  0.284295  1
  Er  Er2  1  0.284295  0.715705  0.715705  1
  Er  Er3  1  0.284295  0.715705  0.284295  1
  Er  Er4  1  0.715705  0.284295  0.715705  1
  Er  Er5  1  0.284295  0.284295  0.715705  1
  Er  Er6  1  0.715705  0.715705  0.284295  1
  Zn  Zn7  1  0.123593  0.123593  0.123593  1
  Zn  Zn8  1  0.876407  0.876407  0.876407  1
  Zn  Zn9  1  0.123593  0.123593  0.629223  1
  Zn  Zn10  1  0.123593  0.629223  0.123593  1
  Zn  Zn11  1  0.876407  0.876407  0.370777  1
  Zn  Zn12  1  0.876407  0.370777  0.876407  1
  Zn  Zn13  1  0.629223  0.123593  0.123593  1
  Zn  Zn14  1  0.370777  0.876407  0.876407  1
  Zn  Zn15  1  0.500000  0.000000  0.000000  1
  Zn  Zn16  1  0.000000  0.500000  0.500000  1
  Zn  Zn17  1  0.000000  0.500000  0.000000  1
  Zn  Zn18  1  0.500000  0.000000  0.500000  1
  Zn  Zn19  1  0.000000  0.000000  0.500000  1
  Zn  Zn20  1  0.500000  0.500000  0.000000  1
  Zn  Zn21  1  0.333963  0.333963  0.333963  1
  Zn  Zn22  1  0.666037  0.666037  0.666037  1
  Zn  Zn23  1  0.333963  0.333963  0.998111  1
  Zn  Zn24  1  0.333963  0.998111  0.333963  1
  Zn  Zn25  1  0.666037  0.666037  0.001889  1
  Zn  Zn26  1  0.666037  0.001889  0.666037  1
  Zn  Zn27  1  0.998111  0.333963  0.333963  1
  Zn  Zn28  1  0.001889  0.666037  0.666037  1
  Si  Si29  1  0.500000  0.500000  0.500000  1
