# generated using pymatgen
data_Hf7Zr3(Sn3Ge)2
_symmetry_space_group_name_H-M   'P 1'
_cell_length_a   8.66336900
_cell_length_b   8.66336820
_cell_length_c   5.88592800
_cell_angle_alpha   90.00000000
_cell_angle_beta   90.00000000
_cell_angle_gamma   119.99999924
_symmetry_Int_Tables_number   1
_chemical_formula_structural   Hf7Zr3(Sn3Ge)2
_chemical_formula_sum   'Hf7 Zr3 Sn6 Ge2'
_cell_volume   382.57727162
_cell_formula_units_Z   1
loop_
 _symmetry_equiv_pos_site_id
 _symmetry_equiv_pos_as_xyz
  1  'x, y, z'
loop_
 _atom_site_type_symbol
 _atom_site_label
 _atom_site_symmetry_multiplicity
 _atom_site_fract_x
 _atom_site_fract_y
 _atom_site_fract_z
 _atom_site_occupancy
  Hf  Hf0  1  0.666667  0.333333  0.998762  1
  Hf  Hf1  1  0.333333  0.666667  0.998762  1
  Hf  Hf2  1  0.333333  0.666667  0.501238  1
  Hf  Hf3  1  0.666667  0.333333  0.501238  1
  Hf  Hf4  1  0.731959  0.731959  0.750000  1
  Hf  Hf5  1  0.268041  0.000000  0.750000  1
  Hf  Hf6  1  0.000000  0.268041  0.750000  1
  Zr  Zr7  1  0.259641  0.259641  0.250000  1
  Zr  Zr8  1  0.740359  0.000000  0.250000  1
  Zr  Zr9  1  0.000000  0.740359  0.250000  1
  Sn  Sn10  1  0.390775  0.390775  0.750000  1
  Sn  Sn11  1  0.609225  0.000000  0.750000  1
  Sn  Sn12  1  0.000000  0.609225  0.750000  1
  Sn  Sn13  1  0.604494  0.604494  0.250000  1
  Sn  Sn14  1  0.395506  0.000000  0.250000  1
  Sn  Sn15  1  0.000000  0.395506  0.250000  1
  Ge  Ge16  1  0.000000  0.000000  0.990045  1
  Ge  Ge17  1  0.000000  0.000000  0.509955  1
