# generated using pymatgen
data_Cs3Sc3V4O16
_symmetry_space_group_name_H-M   'P 1'
_cell_length_a   5.40014720
_cell_length_b   7.63161828
_cell_length_c   11.96100446
_cell_angle_alpha   102.76786088
_cell_angle_beta   90.52935415
_cell_angle_gamma   94.64191648
_symmetry_Int_Tables_number   1
_chemical_formula_structural   Cs3Sc3V4O16
_chemical_formula_sum   'Cs3 Sc3 V4 O16'
_cell_volume   478.98323680
_cell_formula_units_Z   1
loop_
 _symmetry_equiv_pos_site_id
 _symmetry_equiv_pos_as_xyz
  1  'x, y, z'
loop_
 _atom_site_type_symbol
 _atom_site_label
 _atom_site_symmetry_multiplicity
 _atom_site_fract_x
 _atom_site_fract_y
 _atom_site_fract_z
 _atom_site_occupancy
  Cs  Cs0  1  0.878558  0.258830  0.515161  1
  Cs  Cs1  1  0.000000  0.000000  0.000000  1
  Cs  Cs2  1  0.121442  0.741170  0.484839  1
  Sc  Sc3  1  0.009994  0.556747  0.137196  1
  Sc  Sc4  1  0.990006  0.443253  0.862804  1
  Sc  Sc5  1  0.500000  0.500000  0.000000  1
  V  V6  1  0.483555  0.675130  0.757810  1
  V  V7  1  0.532597  0.868196  0.234894  1
  V  V8  1  0.516445  0.324870  0.242190  1
  V  V9  1  0.467403  0.131804  0.765106  1
  O  O10  1  0.671587  0.598797  0.859630  1
  O  O11  1  0.771959  0.216625  0.758637  1
  O  O12  1  0.328413  0.401203  0.140370  1
  O  O13  1  0.380571  0.357645  0.368001  1
  O  O14  1  0.305421  0.284810  0.869370  1
  O  O15  1  0.619429  0.642355  0.631999  1
  O  O16  1  0.809164  0.439764  0.260838  1
  O  O17  1  0.335355  0.102203  0.635285  1
  O  O18  1  0.694579  0.715190  0.130630  1
  O  O19  1  0.454022  0.917368  0.810224  1
  O  O20  1  0.182939  0.621849  0.994763  1
  O  O21  1  0.664645  0.897797  0.364715  1
  O  O22  1  0.228041  0.783375  0.241363  1
  O  O23  1  0.545978  0.082632  0.189776  1
  O  O24  1  0.817061  0.378151  0.005237  1
  O  O25  1  0.190836  0.560236  0.739162  1
