# generated using pymatgen
data_Hf18CuRe8Ru
_symmetry_space_group_name_H-M   'P 1'
_cell_length_a   8.60546700
_cell_length_b   8.60546722
_cell_length_c   8.53779500
_cell_angle_alpha   90.00000000
_cell_angle_beta   90.00000000
_cell_angle_gamma   120.00000299
_symmetry_Int_Tables_number   1
_chemical_formula_structural   Hf18CuRe8Ru
_chemical_formula_sum   'Hf18 Cu1 Re8 Ru1'
_cell_volume   547.55183607
_cell_formula_units_Z   1
loop_
 _symmetry_equiv_pos_site_id
 _symmetry_equiv_pos_as_xyz
  1  'x, y, z'
loop_
 _atom_site_type_symbol
 _atom_site_label
 _atom_site_symmetry_multiplicity
 _atom_site_fract_x
 _atom_site_fract_y
 _atom_site_fract_z
 _atom_site_occupancy
  Hf  Hf0  1  0.197230  0.802770  0.445860  1
  Hf  Hf1  1  0.197230  0.394458  0.445860  1
  Hf  Hf2  1  0.605542  0.802770  0.445860  1
  Hf  Hf3  1  0.804988  0.195012  0.554602  1
  Hf  Hf4  1  0.804988  0.609976  0.554602  1
  Hf  Hf5  1  0.390024  0.195012  0.554602  1
  Hf  Hf6  1  0.804988  0.195012  0.945398  1
  Hf  Hf7  1  0.804988  0.609976  0.945398  1
  Hf  Hf8  1  0.390024  0.195012  0.945398  1
  Hf  Hf9  1  0.197230  0.802770  0.054140  1
  Hf  Hf10  1  0.197230  0.394458  0.054140  1
  Hf  Hf11  1  0.605542  0.802770  0.054140  1
  Hf  Hf12  1  0.542390  0.457610  0.250000  1
  Hf  Hf13  1  0.542390  0.084782  0.250000  1
  Hf  Hf14  1  0.915218  0.457610  0.250000  1
  Hf  Hf15  1  0.458593  0.541407  0.750000  1
  Hf  Hf16  1  0.458593  0.917185  0.750000  1
  Hf  Hf17  1  0.082815  0.541407  0.750000  1
  Cu  Cu18  1  0.666667  0.333333  0.750000  1
  Re  Re19  1  0.889522  0.110478  0.250000  1
  Re  Re20  1  0.889522  0.779042  0.250000  1
  Re  Re21  1  0.220958  0.110478  0.250000  1
  Re  Re22  1  0.110505  0.889495  0.750000  1
  Re  Re23  1  0.110505  0.221012  0.750000  1
  Re  Re24  1  0.778988  0.889495  0.750000  1
  Re  Re25  1  0.000000  0.000000  0.499590  1
  Re  Re26  1  0.000000  0.000000  0.000410  1
  Ru  Ru27  1  0.333333  0.666667  0.250000  1
