# generated using pymatgen
data_NdY3Zn2(Co2B)6
_symmetry_space_group_name_H-M   'P 1'
_cell_length_a   5.13037406
_cell_length_b   5.12972058
_cell_length_c   12.66151000
_cell_angle_alpha   90.00024905
_cell_angle_beta   89.99970335
_cell_angle_gamma   120.01091885
_symmetry_Int_Tables_number   1
_chemical_formula_structural   NdY3Zn2(Co2B)6
_chemical_formula_sum   'Nd1 Y3 Zn2 Co12 B6'
_cell_volume   288.54335711
_cell_formula_units_Z   1
loop_
 _symmetry_equiv_pos_site_id
 _symmetry_equiv_pos_as_xyz
  1  'x, y, z'
loop_
 _atom_site_type_symbol
 _atom_site_label
 _atom_site_symmetry_multiplicity
 _atom_site_fract_x
 _atom_site_fract_y
 _atom_site_fract_z
 _atom_site_occupancy
  Nd  Nd0  1  0.999999  0.999991  0.999899  1
  Y  Y1  1  0.000000  0.000003  0.261610  1
  Y  Y2  1  0.999998  0.000003  0.499975  1
  Y  Y3  1  0.999999  0.000000  0.738294  1
  Zn  Zn4  1  0.333341  0.666546  0.000021  1
  Zn  Zn5  1  0.666670  0.333429  0.000021  1
  Co  Co6  1  0.499999  0.000002  0.613071  1
  Co  Co7  1  0.500000  0.999998  0.836387  1
  Co  Co8  1  0.500000  0.499998  0.836314  1
  Co  Co9  1  0.499999  0.500003  0.386936  1
  Co  Co10  1  0.999999  0.500002  0.613068  1
  Co  Co11  1  0.000001  0.500002  0.163662  1
  Co  Co12  1  0.000000  0.499999  0.836366  1
  Co  Co13  1  0.500001  0.500001  0.163708  1
  Co  Co14  1  0.499999  0.000003  0.386935  1
  Co  Co15  1  0.500001  0.000002  0.163637  1
  Co  Co16  1  0.499999  0.500002  0.613081  1
  Co  Co17  1  0.999999  0.500003  0.386942  1
  B  B18  1  0.666686  0.333273  0.729305  1
  B  B19  1  0.333313  0.666727  0.729305  1
  B  B20  1  0.333332  0.666747  0.270725  1
  B  B21  1  0.666651  0.333294  0.500007  1
  B  B22  1  0.666668  0.333259  0.270725  1
  B  B23  1  0.333346  0.666712  0.500007  1
