# generated using pymatgen
data_YTm7(InNi)2
_symmetry_space_group_name_H-M   'P 1'
_cell_length_a   9.48501820
_cell_length_b   9.48501835
_cell_length_c   9.48694600
_cell_angle_alpha   59.99326995
_cell_angle_beta   59.99326946
_cell_angle_gamma   60.01344394
_symmetry_Int_Tables_number   1
_chemical_formula_structural   YTm7(InNi)2
_chemical_formula_sum   'Y2 Tm14 In4 Ni4'
_cell_volume   603.51446569
_cell_formula_units_Z   2
loop_
 _symmetry_equiv_pos_site_id
 _symmetry_equiv_pos_as_xyz
  1  'x, y, z'
loop_
 _atom_site_type_symbol
 _atom_site_label
 _atom_site_symmetry_multiplicity
 _atom_site_fract_x
 _atom_site_fract_y
 _atom_site_fract_z
 _atom_site_occupancy
  Y  Y0  1  0.813433  0.813433  0.186567  1
  Y  Y1  1  0.186567  0.186567  0.813433  1
  Tm  Tm2  1  0.597047  0.597047  0.597830  1
  Tm  Tm3  1  0.597047  0.597047  0.208076  1
  Tm  Tm4  1  0.597830  0.208076  0.597047  1
  Tm  Tm5  1  0.208076  0.597830  0.597047  1
  Tm  Tm6  1  0.062731  0.437269  0.437269  1
  Tm  Tm7  1  0.437269  0.062731  0.062731  1
  Tm  Tm8  1  0.437269  0.062731  0.437269  1
  Tm  Tm9  1  0.062731  0.437269  0.062731  1
  Tm  Tm10  1  0.437046  0.437046  0.062954  1
  Tm  Tm11  1  0.062954  0.062954  0.437046  1
  Tm  Tm12  1  0.189100  0.810900  0.810900  1
  Tm  Tm13  1  0.810900  0.189100  0.189100  1
  Tm  Tm14  1  0.810900  0.189100  0.810900  1
  Tm  Tm15  1  0.189100  0.810900  0.189100  1
  In  In16  1  0.833092  0.833092  0.832494  1
  In  In17  1  0.833092  0.833092  0.501321  1
  In  In18  1  0.832494  0.501321  0.833092  1
  In  In19  1  0.501321  0.832494  0.833092  1
  Ni  Ni20  1  0.392770  0.392770  0.391542  1
  Ni  Ni21  1  0.392770  0.392770  0.822919  1
  Ni  Ni22  1  0.391542  0.822919  0.392770  1
  Ni  Ni23  1  0.822919  0.391542  0.392770  1
