# generated using pymatgen
data_Tb12InCo4Ni
_symmetry_space_group_name_H-M   'P 1'
_cell_length_a   8.31211509
_cell_length_b   8.31211362
_cell_length_c   8.31211404
_cell_angle_alpha   110.80887112
_cell_angle_beta   110.62370373
_cell_angle_gamma   107.00884827
_symmetry_Int_Tables_number   1
_chemical_formula_structural   Tb12InCo4Ni
_chemical_formula_sum   'Tb12 In1 Co4 Ni1'
_cell_volume   441.48167210
_cell_formula_units_Z   1
loop_
 _symmetry_equiv_pos_site_id
 _symmetry_equiv_pos_as_xyz
  1  'x, y, z'
loop_
 _atom_site_type_symbol
 _atom_site_label
 _atom_site_symmetry_multiplicity
 _atom_site_fract_x
 _atom_site_fract_y
 _atom_site_fract_z
 _atom_site_occupancy
  Tb  Tb0  1  0.405490  0.211118  0.194372  1
  Tb  Tb1  1  0.594510  0.788882  0.805628  1
  Tb  Tb2  1  0.016747  0.211118  0.805628  1
  Tb  Tb3  1  0.983253  0.788882  0.194372  1
  Tb  Tb4  1  0.185792  0.292588  0.478379  1
  Tb  Tb5  1  0.814208  0.707412  0.521621  1
  Tb  Tb6  1  0.185792  0.707412  0.893203  1
  Tb  Tb7  1  0.814208  0.292588  0.106797  1
  Tb  Tb8  1  0.315313  0.620431  0.305118  1
  Tb  Tb9  1  0.684687  0.379569  0.694882  1
  Tb  Tb10  1  0.315313  0.010196  0.694882  1
  Tb  Tb11  1  0.684687  0.989804  0.305118  1
  In  In12  1  0.500000  0.500000  0.000000  1
  Co  Co13  1  0.377932  0.000000  0.377932  1
  Co  Co14  1  0.622068  0.000000  0.622068  1
  Co  Co15  1  0.112292  0.612292  0.500000  1
  Co  Co16  1  0.887708  0.387708  0.500000  1
  Ni  Ni17  1  0.000000  0.000000  0.000000  1
