# generated using pymatgen
data_YbSm5Mn2(NbC6)2
_symmetry_space_group_name_H-M   'P 1'
_cell_length_a   8.37171805
_cell_length_b   8.38856417
_cell_length_c   5.21396800
_cell_angle_alpha   90.00000000
_cell_angle_beta   90.00000000
_cell_angle_gamma   120.38576162
_symmetry_Int_Tables_number   1
_chemical_formula_structural   YbSm5Mn2(NbC6)2
_chemical_formula_sum   'Yb1 Sm5 Mn2 Nb2 C12'
_cell_volume   315.86381307
_cell_formula_units_Z   1
loop_
 _symmetry_equiv_pos_site_id
 _symmetry_equiv_pos_as_xyz
  1  'x, y, z'
loop_
 _atom_site_type_symbol
 _atom_site_label
 _atom_site_symmetry_multiplicity
 _atom_site_fract_x
 _atom_site_fract_y
 _atom_site_fract_z
 _atom_site_occupancy
  Yb  Yb0  1  0.612667  0.676029  0.750000  1
  Sm  Sm1  1  0.936367  0.614486  0.250000  1
  Sm  Sm2  1  0.676178  0.060151  0.250000  1
  Sm  Sm3  1  0.323361  0.938501  0.750000  1
  Sm  Sm4  1  0.063942  0.386308  0.750000  1
  Sm  Sm5  1  0.387453  0.327584  0.250000  1
  Mn  Mn6  1  0.668099  0.332089  0.750000  1
  Mn  Mn7  1  0.332203  0.667003  0.250000  1
  Nb  Nb8  1  0.998583  0.998642  0.500822  1
  Nb  Nb9  1  0.998583  0.998642  0.999178  1
  C  C10  1  0.956626  0.755186  0.750000  1
  C  C11  1  0.203781  0.960079  0.250000  1
  C  C12  1  0.754963  0.797015  0.250000  1
  C  C13  1  0.246678  0.206528  0.750000  1
  C  C14  1  0.798186  0.040948  0.750000  1
  C  C15  1  0.041542  0.243071  0.250000  1
  C  C16  1  0.858146  0.567125  0.750000  1
  C  C17  1  0.291727  0.859512  0.250000  1
  C  C18  1  0.566287  0.708858  0.250000  1
  C  C19  1  0.435302  0.291166  0.750000  1
  C  C20  1  0.140372  0.432197  0.250000  1
  C  C21  1  0.708957  0.138881  0.750000  1
