# generated using pymatgen
data_Pr7Nd(IrO6)4
_symmetry_space_group_name_H-M   'P 1'
_cell_length_a   5.48564043
_cell_length_b   9.48880751
_cell_length_c   10.23059817
_cell_angle_alpha   90.07774272
_cell_angle_beta   89.98487621
_cell_angle_gamma   90.03688203
_symmetry_Int_Tables_number   1
_chemical_formula_structural   Pr7Nd(IrO6)4
_chemical_formula_sum   'Pr7 Nd1 Ir4 O24'
_cell_volume   532.52438059
_cell_formula_units_Z   1
loop_
 _symmetry_equiv_pos_site_id
 _symmetry_equiv_pos_as_xyz
  1  'x, y, z'
loop_
 _atom_site_type_symbol
 _atom_site_label
 _atom_site_symmetry_multiplicity
 _atom_site_fract_x
 _atom_site_fract_y
 _atom_site_fract_z
 _atom_site_occupancy
  Pr  Pr0  1  0.475505  0.601828  0.537565  1
  Pr  Pr1  1  0.975205  0.897517  0.462291  1
  Pr  Pr2  1  0.524818  0.102721  0.962613  1
  Pr  Pr3  1  0.024198  0.397782  0.037804  1
  Pr  Pr4  1  0.965266  0.781806  0.867106  1
  Pr  Pr5  1  0.465147  0.718896  0.133337  1
  Pr  Pr6  1  0.035453  0.281101  0.632474  1
  Nd  Nd7  1  0.535807  0.218490  0.367604  1
  Ir  Ir8  1  0.456140  0.997104  0.642440  1
  Ir  Ir9  1  0.955496  0.502189  0.356989  1
  Ir  Ir10  1  0.544228  0.496987  0.857058  1
  Ir  Ir11  1  0.044283  0.003871  0.143651  1
  O  O12  1  0.251084  0.088274  0.504564  1
  O  O13  1  0.748827  0.410621  0.494146  1
  O  O14  1  0.750552  0.588407  0.994576  1
  O  O15  1  0.250800  0.912470  0.006073  1
  O  O16  1  0.724337  0.112332  0.565065  1
  O  O17  1  0.225075  0.386618  0.432791  1
  O  O18  1  0.275891  0.612597  0.933821  1
  O  O19  1  0.775738  0.888351  0.066421  1
  O  O20  1  0.565553  0.850895  0.520165  1
  O  O21  1  0.065396  0.647749  0.479919  1
  O  O22  1  0.433993  0.351551  0.979679  1
  O  O23  1  0.935234  0.148938  0.020532  1
  O  O24  1  0.174447  0.860387  0.257815  1
  O  O25  1  0.675848  0.639686  0.742364  1
  O  O26  1  0.822152  0.359514  0.242358  1
  O  O27  1  0.324851  0.139842  0.757460  1
  O  O28  1  0.837906  0.058231  0.285811  1
  O  O29  1  0.339065  0.442532  0.714565  1
  O  O30  1  0.160187  0.557202  0.214629  1
  O  O31  1  0.661553  0.943227  0.784949  1
  O  O32  1  0.316231  0.131340  0.180819  1
  O  O33  1  0.815372  0.368999  0.820688  1
  O  O34  1  0.684276  0.630295  0.320945  1
  O  O35  1  0.184084  0.869651  0.678915  1
