# generated using pymatgen
data_PrHo5(CdHg2)6
_symmetry_space_group_name_H-M   'P 1'
_cell_length_a   5.11287269
_cell_length_b   7.08175200
_cell_length_c   15.55174700
_cell_angle_alpha   90.00000000
_cell_angle_beta   89.94122357
_cell_angle_gamma   90.00000000
_symmetry_Int_Tables_number   1
_chemical_formula_structural   PrHo5(CdHg2)6
_chemical_formula_sum   'Pr1 Ho5 Cd6 Hg12'
_cell_volume   563.09885828
_cell_formula_units_Z   1
loop_
 _symmetry_equiv_pos_site_id
 _symmetry_equiv_pos_as_xyz
  1  'x, y, z'
loop_
 _atom_site_type_symbol
 _atom_site_label
 _atom_site_symmetry_multiplicity
 _atom_site_fract_x
 _atom_site_fract_y
 _atom_site_fract_z
 _atom_site_occupancy
  Pr  Pr0  1  0.500151  0.500000  0.833333  1
  Ho  Ho1  1  0.999968  0.000000  0.000170  1
  Ho  Ho2  1  0.499870  0.500000  0.166551  1
  Ho  Ho3  1  0.999864  0.000000  0.333444  1
  Ho  Ho4  1  0.500058  0.500000  0.500159  1
  Ho  Ho5  1  0.000121  0.000000  0.666366  1
  Cd  Cd6  1  0.999929  0.500000  0.000446  1
  Cd  Cd7  1  0.499769  0.000000  0.167072  1
  Cd  Cd8  1  0.999920  0.500000  0.333364  1
  Cd  Cd9  1  0.500084  0.000000  0.499785  1
  Cd  Cd10  1  0.000195  0.500000  0.666156  1
  Cd  Cd11  1  0.500095  0.000000  0.833133  1
  Hg  Hg12  1  0.499889  0.247628  0.003147  1
  Hg  Hg13  1  0.499889  0.752371  0.003147  1
  Hg  Hg14  1  0.999781  0.246974  0.166636  1
  Hg  Hg15  1  0.999781  0.753027  0.166636  1
  Hg  Hg16  1  0.499867  0.252080  0.333452  1
  Hg  Hg17  1  0.499867  0.747921  0.333452  1
  Hg  Hg18  1  0.000125  0.247135  0.500120  1
  Hg  Hg19  1  0.000125  0.752866  0.500120  1
  Hg  Hg20  1  0.500208  0.247652  0.663443  1
  Hg  Hg21  1  0.500208  0.752349  0.663443  1
  Hg  Hg22  1  0.000118  0.238986  0.833213  1
  Hg  Hg23  1  0.000118  0.761015  0.833213  1
