# generated using pymatgen
data_ZrPO4F
_symmetry_space_group_name_H-M   'P 1'
_cell_length_a   5.44850966
_cell_length_b   5.45708925
_cell_length_c   7.87266156
_cell_angle_alpha   108.53794410
_cell_angle_beta   109.20731349
_cell_angle_gamma   90.43628243
_symmetry_Int_Tables_number   1
_chemical_formula_structural   ZrPO4F
_chemical_formula_sum   'Zr2 P2 O8 F2'
_cell_volume   207.92591041
_cell_formula_units_Z   2
loop_
 _symmetry_equiv_pos_site_id
 _symmetry_equiv_pos_as_xyz
  1  'x, y, z'
loop_
 _atom_site_type_symbol
 _atom_site_label
 _atom_site_symmetry_multiplicity
 _atom_site_fract_x
 _atom_site_fract_y
 _atom_site_fract_z
 _atom_site_occupancy
  Zr  Zr0  1  0.000000  0.000000  0.000000  1
  Zr  Zr1  1  0.500000  0.500000  0.500000  1
  P  P2  1  0.881503  0.611270  0.247377  1
  P  P3  1  0.118497  0.388730  0.752623  1
  O  O4  1  0.164535  0.668976  0.898113  1
  O  O5  1  0.146642  0.188764  0.856678  1
  O  O6  1  0.837462  0.341014  0.603831  1
  O  O7  1  0.321420  0.359989  0.652117  1
  O  O8  1  0.853358  0.811236  0.143322  1
  O  O9  1  0.162538  0.658986  0.396169  1
  O  O10  1  0.678580  0.640011  0.347883  1
  O  O11  1  0.835465  0.331024  0.101887  1
  F  F12  1  0.666753  0.836381  0.747147  1
  F  F13  1  0.333247  0.163619  0.252853  1
