# generated using pymatgen
data_Dy2PaCo3(NiP)6
_symmetry_space_group_name_H-M   'P 1'
_cell_length_a   3.77220100
_cell_length_b   10.44961800
_cell_length_c   12.25710200
_cell_angle_alpha   90.00000000
_cell_angle_beta   90.00000000
_cell_angle_gamma   90.00000000
_symmetry_Int_Tables_number   1
_chemical_formula_structural   Dy2PaCo3(NiP)6
_chemical_formula_sum   'Dy4 Pa2 Co6 Ni12 P12'
_cell_volume   483.15117556
_cell_formula_units_Z   2
loop_
 _symmetry_equiv_pos_site_id
 _symmetry_equiv_pos_as_xyz
  1  'x, y, z'
loop_
 _atom_site_type_symbol
 _atom_site_label
 _atom_site_symmetry_multiplicity
 _atom_site_fract_x
 _atom_site_fract_y
 _atom_site_fract_z
 _atom_site_occupancy
  Dy  Dy0  1  0.500000  0.813508  0.205733  1
  Dy  Dy1  1  0.500000  0.186492  0.205733  1
  Dy  Dy2  1  0.000000  0.686492  0.794267  1
  Dy  Dy3  1  0.000000  0.313508  0.794267  1
  Pa  Pa4  1  0.000000  0.500000  0.522259  1
  Pa  Pa5  1  0.500000  0.000000  0.477741  1
  Co  Co6  1  0.000000  0.500000  0.982068  1
  Co  Co7  1  0.500000  0.000000  0.017932  1
  Co  Co8  1  0.500000  0.335016  0.992977  1
  Co  Co9  1  0.500000  0.664984  0.992977  1
  Co  Co10  1  0.000000  0.164984  0.007023  1
  Co  Co11  1  0.000000  0.835016  0.007023  1
  Ni  Ni12  1  0.500000  0.301880  0.430874  1
  Ni  Ni13  1  0.500000  0.698120  0.430874  1
  Ni  Ni14  1  0.000000  0.198120  0.569126  1
  Ni  Ni15  1  0.000000  0.801880  0.569126  1
  Ni  Ni16  1  0.500000  0.879883  0.715316  1
  Ni  Ni17  1  0.500000  0.120117  0.715316  1
  Ni  Ni18  1  0.000000  0.620117  0.284684  1
  Ni  Ni19  1  0.000000  0.379883  0.284684  1
  Ni  Ni20  1  0.500000  0.500000  0.154631  1
  Ni  Ni21  1  0.000000  0.000000  0.845369  1
  Ni  Ni22  1  0.500000  0.500000  0.697885  1
  Ni  Ni23  1  0.000000  0.000000  0.302115  1
  P  P24  1  0.500000  0.309511  0.616270  1
  P  P25  1  0.500000  0.690489  0.616270  1
  P  P26  1  0.000000  0.190489  0.383730  1
  P  P27  1  0.000000  0.809511  0.383730  1
  P  P28  1  0.500000  0.500000  0.877992  1
  P  P29  1  0.000000  0.000000  0.122008  1
  P  P30  1  0.500000  0.846773  0.899173  1
  P  P31  1  0.500000  0.153227  0.899173  1
  P  P32  1  0.000000  0.653227  0.100827  1
  P  P33  1  0.000000  0.346773  0.100827  1
  P  P34  1  0.500000  0.500000  0.339861  1
  P  P35  1  0.000000  0.000000  0.660139  1
