# generated using pymatgen
data_Hg3Pb2SeO8
_symmetry_space_group_name_H-M   'P 1'
_cell_length_a   22.39420600
_cell_length_b   6.57620597
_cell_length_c   7.19657000
_cell_angle_alpha   70.48331285
_cell_angle_beta   90.00000000
_cell_angle_gamma   90.00000000
_symmetry_Int_Tables_number   1
_chemical_formula_structural   Hg3Pb2SeO8
_chemical_formula_sum   'Hg12 Pb8 Se4 O32'
_cell_volume   998.93762165
_cell_formula_units_Z   4
loop_
 _symmetry_equiv_pos_site_id
 _symmetry_equiv_pos_as_xyz
  1  'x, y, z'
loop_
 _atom_site_type_symbol
 _atom_site_label
 _atom_site_symmetry_multiplicity
 _atom_site_fract_x
 _atom_site_fract_y
 _atom_site_fract_z
 _atom_site_occupancy
  Hg  Hg0  1  0.056010  0.494261  0.826696  1
  Hg  Hg1  1  0.718145  0.640869  0.599995  1
  Hg  Hg2  1  0.943990  0.505739  0.173304  1
  Hg  Hg3  1  0.218145  0.359131  0.900005  1
  Hg  Hg4  1  0.861899  0.072905  0.130858  1
  Hg  Hg5  1  0.638101  0.072905  0.630858  1
  Hg  Hg6  1  0.281855  0.359131  0.400005  1
  Hg  Hg7  1  0.781855  0.640869  0.099995  1
  Hg  Hg8  1  0.138101  0.927095  0.869142  1
  Hg  Hg9  1  0.556010  0.505739  0.673304  1
  Hg  Hg10  1  0.361899  0.927095  0.369142  1
  Hg  Hg11  1  0.443990  0.494261  0.326696  1
  Pb  Pb12  1  0.521330  0.028120  0.241635  1
  Pb  Pb13  1  0.798059  0.164008  0.571786  1
  Pb  Pb14  1  0.978670  0.028120  0.741635  1
  Pb  Pb15  1  0.021330  0.971880  0.258365  1
  Pb  Pb16  1  0.298059  0.835992  0.928214  1
  Pb  Pb17  1  0.201941  0.835992  0.428214  1
  Pb  Pb18  1  0.478670  0.971880  0.758365  1
  Pb  Pb19  1  0.701941  0.164008  0.071786  1
  Se  Se20  1  0.388545  0.413558  0.864150  1
  Se  Se21  1  0.888545  0.586442  0.635850  1
  Se  Se22  1  0.111455  0.413558  0.364150  1
  Se  Se23  1  0.611455  0.586442  0.135850  1
  O  O24  1  0.457053  0.318052  0.939642  1
  O  O25  1  0.643149  0.734539  0.258296  1
  O  O26  1  0.042947  0.318052  0.439642  1
  O  O27  1  0.042231  0.171233  0.923976  1
  O  O28  1  0.957053  0.681948  0.560358  1
  O  O29  1  0.356851  0.265461  0.741704  1
  O  O30  1  0.457769  0.171233  0.423976  1
  O  O31  1  0.895014  0.326089  0.780136  1
  O  O32  1  0.856851  0.734539  0.758296  1
  O  O33  1  0.542947  0.681948  0.060358  1
  O  O34  1  0.845199  0.588057  0.443001  1
  O  O35  1  0.786956  0.970451  0.008325  1
  O  O36  1  0.104986  0.673911  0.219864  1
  O  O37  1  0.224496  0.684590  0.791090  1
  O  O38  1  0.143149  0.265461  0.241704  1
  O  O39  1  0.345199  0.411943  0.056999  1
  O  O40  1  0.154801  0.411943  0.556999  1
  O  O41  1  0.713044  0.970451  0.508325  1
  O  O42  1  0.775504  0.315410  0.208910  1
  O  O43  1  0.604986  0.326089  0.280136  1
  O  O44  1  0.067685  0.822233  0.731294  1
  O  O45  1  0.567685  0.177767  0.768706  1
  O  O46  1  0.432315  0.822233  0.231294  1
  O  O47  1  0.286956  0.029549  0.491675  1
  O  O48  1  0.932315  0.177767  0.268706  1
  O  O49  1  0.957769  0.828767  0.076024  1
  O  O50  1  0.654801  0.588057  0.943001  1
  O  O51  1  0.724496  0.315410  0.708910  1
  O  O52  1  0.213044  0.029549  0.991675  1
  O  O53  1  0.542231  0.828767  0.576024  1
  O  O54  1  0.395014  0.673911  0.719864  1
  O  O55  1  0.275504  0.684590  0.291090  1
