# generated using pymatgen
data_Er2GaSi4Rh3
_symmetry_space_group_name_H-M   'P 1'
_cell_length_a   8.33893749
_cell_length_b   8.33893744
_cell_length_c   8.16213383
_cell_angle_alpha   139.90191788
_cell_angle_beta   106.85382299
_cell_angle_gamma   88.13708531
_symmetry_Int_Tables_number   1
_chemical_formula_structural   Er2GaSi4Rh3
_chemical_formula_sum   'Er4 Ga2 Si8 Rh6'
_cell_volume   332.97256247
_cell_formula_units_Z   2
loop_
 _symmetry_equiv_pos_site_id
 _symmetry_equiv_pos_as_xyz
  1  'x, y, z'
loop_
 _atom_site_type_symbol
 _atom_site_label
 _atom_site_symmetry_multiplicity
 _atom_site_fract_x
 _atom_site_fract_y
 _atom_site_fract_z
 _atom_site_occupancy
  Er  Er0  1  0.632555  0.875846  0.776591  1
  Er  Er1  1  0.367445  0.124154  0.223409  1
  Er  Er2  1  0.099255  0.355965  0.723409  1
  Er  Er3  1  0.900745  0.644035  0.276591  1
  Ga  Ga4  1  0.275269  0.025269  0.750000  1
  Ga  Ga5  1  0.724731  0.974731  0.250000  1
  Si  Si6  1  0.712220  0.462220  0.750000  1
  Si  Si7  1  0.287780  0.537780  0.250000  1
  Si  Si8  1  0.438740  0.599515  0.834411  1
  Si  Si9  1  0.561260  0.400485  0.165589  1
  Si  Si10  1  0.765105  0.104329  0.665589  1
  Si  Si11  1  0.234895  0.895671  0.334411  1
  Si  Si12  1  0.015796  0.765796  0.750000  1
  Si  Si13  1  0.984204  0.234204  0.250000  1
  Rh  Rh14  1  0.237642  0.598870  0.564245  1
  Rh  Rh15  1  0.762358  0.401130  0.435755  1
  Rh  Rh16  1  0.034625  0.173397  0.935755  1
  Rh  Rh17  1  0.965375  0.826603  0.064245  1
  Rh  Rh18  1  0.492534  0.742534  0.250000  1
  Rh  Rh19  1  0.507466  0.257466  0.750000  1
