# generated using pymatgen
data_Cs6TbPrBr12
_symmetry_space_group_name_H-M   'P 1'
_cell_length_a   10.08151791
_cell_length_b   10.08005996
_cell_length_c   8.38534900
_cell_angle_alpha   90.00000000
_cell_angle_beta   90.00000000
_cell_angle_gamma   89.89876260
_symmetry_Int_Tables_number   1
_chemical_formula_structural   Cs6TbPrBr12
_chemical_formula_sum   'Cs6 Tb1 Pr1 Br12'
_cell_volume   852.13716343
_cell_formula_units_Z   1
loop_
 _symmetry_equiv_pos_site_id
 _symmetry_equiv_pos_as_xyz
  1  'x, y, z'
loop_
 _atom_site_type_symbol
 _atom_site_label
 _atom_site_symmetry_multiplicity
 _atom_site_fract_x
 _atom_site_fract_y
 _atom_site_fract_z
 _atom_site_occupancy
  Cs  Cs0  1  0.000000  0.000000  0.500000  1
  Cs  Cs1  1  0.000000  0.000000  0.000000  1
  Cs  Cs2  1  0.234145  0.583894  0.500000  1
  Cs  Cs3  1  0.765855  0.416106  0.500000  1
  Cs  Cs4  1  0.415597  0.236656  0.000000  1
  Cs  Cs5  1  0.584403  0.763344  0.000000  1
  Tb  Tb6  1  0.000000  0.500000  0.000000  1
  Pr  Pr7  1  0.500000  0.000000  0.500000  1
  Br  Br8  1  0.697796  0.059133  0.746727  1
  Br  Br9  1  0.302204  0.940867  0.746727  1
  Br  Br10  1  0.942844  0.691311  0.239361  1
  Br  Br11  1  0.057156  0.308689  0.239361  1
  Br  Br12  1  0.302204  0.940867  0.253273  1
  Br  Br13  1  0.697796  0.059133  0.253273  1
  Br  Br14  1  0.057156  0.308689  0.760639  1
  Br  Br15  1  0.942844  0.691311  0.760639  1
  Br  Br16  1  0.571763  0.720240  0.500000  1
  Br  Br17  1  0.428237  0.279760  0.500000  1
  Br  Br18  1  0.270893  0.569701  0.000000  1
  Br  Br19  1  0.729107  0.430299  0.000000  1
