# generated using pymatgen
data_Pr2ZnSiRu2C
_symmetry_space_group_name_H-M   'P 1'
_cell_length_a   6.03648510
_cell_length_b   6.03648471
_cell_length_c   7.27581900
_cell_angle_alpha   126.53501944
_cell_angle_beta   126.53502040
_cell_angle_gamma   40.43661980
_symmetry_Int_Tables_number   1
_chemical_formula_structural   Pr2ZnSiRu2C
_chemical_formula_sum   'Pr2 Zn1 Si1 Ru2 C1'
_cell_volume   132.92653724
_cell_formula_units_Z   1
loop_
 _symmetry_equiv_pos_site_id
 _symmetry_equiv_pos_as_xyz
  1  'x, y, z'
loop_
 _atom_site_type_symbol
 _atom_site_label
 _atom_site_symmetry_multiplicity
 _atom_site_fract_x
 _atom_site_fract_y
 _atom_site_fract_z
 _atom_site_occupancy
  Pr  Pr0  1  0.562990  0.562990  0.301579  1
  Pr  Pr1  1  0.439004  0.439004  0.707786  1
  Zn  Zn2  1  0.847780  0.847780  0.299252  1
  Si  Si3  1  0.165352  0.165352  0.720634  1
  Ru  Ru4  1  0.190291  0.190291  0.074967  1
  Ru  Ru5  1  0.796283  0.796283  0.894863  1
  C  C6  1  0.998300  0.998300  0.000917  1
