# generated using pymatgen
data_GaFe20ReB6W
_symmetry_space_group_name_H-M   'P 1'
_cell_length_a   7.49522416
_cell_length_b   7.49522475
_cell_length_c   7.49522300
_cell_angle_alpha   59.99999447
_cell_angle_beta   59.99999189
_cell_angle_gamma   59.99999463
_symmetry_Int_Tables_number   1
_chemical_formula_structural   GaFe20ReB6W
_chemical_formula_sum   'Ga1 Fe20 Re1 B6 W1'
_cell_volume   297.74109700
_cell_formula_units_Z   1
loop_
 _symmetry_equiv_pos_site_id
 _symmetry_equiv_pos_as_xyz
  1  'x, y, z'
loop_
 _atom_site_type_symbol
 _atom_site_label
 _atom_site_symmetry_multiplicity
 _atom_site_fract_x
 _atom_site_fract_y
 _atom_site_fract_z
 _atom_site_occupancy
  Ga  Ga0  1  0.000000  0.000000  0.000000  1
  Fe  Fe1  1  0.617657  0.617657  0.147031  1
  Fe  Fe2  1  0.617657  0.147031  0.617657  1
  Fe  Fe3  1  0.147031  0.617657  0.617657  1
  Fe  Fe4  1  0.617657  0.617657  0.617657  1
  Fe  Fe5  1  0.379717  0.379717  0.860847  1
  Fe  Fe6  1  0.379717  0.860847  0.379717  1
  Fe  Fe7  1  0.860847  0.379717  0.379717  1
  Fe  Fe8  1  0.379717  0.379717  0.379717  1
  Fe  Fe9  1  0.999859  0.999859  0.343192  1
  Fe  Fe10  1  0.657088  0.999859  0.343192  1
  Fe  Fe11  1  0.999859  0.657088  0.343192  1
  Fe  Fe12  1  0.657088  0.343192  0.999859  1
  Fe  Fe13  1  0.999859  0.343192  0.999859  1
  Fe  Fe14  1  0.999859  0.343192  0.657088  1
  Fe  Fe15  1  0.343192  0.657088  0.999859  1
  Fe  Fe16  1  0.343192  0.999859  0.657088  1
  Fe  Fe17  1  0.343192  0.999859  0.999859  1
  Fe  Fe18  1  0.999859  0.999859  0.657088  1
  Fe  Fe19  1  0.999859  0.657088  0.999859  1
  Fe  Fe20  1  0.657088  0.999859  0.999859  1
  Re  Re21  1  0.250000  0.250000  0.250000  1
  B  B22  1  0.720650  0.720650  0.279350  1
  B  B23  1  0.279350  0.720650  0.279350  1
  B  B24  1  0.720650  0.279350  0.279350  1
  B  B25  1  0.279350  0.279350  0.720650  1
  B  B26  1  0.720650  0.279350  0.720650  1
  B  B27  1  0.279350  0.720650  0.720650  1
  W  W28  1  0.750000  0.750000  0.750000  1
