# generated using pymatgen
data_Tm3AlSn2Pt3
_symmetry_space_group_name_H-M   'P 1'
_cell_length_a   7.50481928
_cell_length_b   7.40012951
_cell_length_c   3.87021400
_cell_angle_alpha   90.00000000
_cell_angle_beta   90.00000000
_cell_angle_gamma   119.53961210
_symmetry_Int_Tables_number   1
_chemical_formula_structural   Tm3AlSn2Pt3
_chemical_formula_sum   'Tm3 Al1 Sn2 Pt3'
_cell_volume   186.99986855
_cell_formula_units_Z   1
loop_
 _symmetry_equiv_pos_site_id
 _symmetry_equiv_pos_as_xyz
  1  'x, y, z'
loop_
 _atom_site_type_symbol
 _atom_site_label
 _atom_site_symmetry_multiplicity
 _atom_site_fract_x
 _atom_site_fract_y
 _atom_site_fract_z
 _atom_site_occupancy
  Tm  Tm0  1  0.000000  0.414515  0.000000  1
  Tm  Tm1  1  0.602547  0.594907  0.000000  1
  Tm  Tm2  1  0.397453  0.992360  0.000000  1
  Al  Al3  1  0.000000  0.742609  0.500000  1
  Sn  Sn4  1  0.261027  0.258210  0.500000  1
  Sn  Sn5  1  0.738973  0.997183  0.500000  1
  Pt  Pt6  1  0.319749  0.670502  0.500000  1
  Pt  Pt7  1  0.680251  0.350752  0.500000  1
  Pt  Pt8  1  0.000000  0.978963  0.000000  1
