# generated using pymatgen
data_TbDy(ReB2)3
_symmetry_space_group_name_H-M   'P 1'
_cell_length_a   6.22882637
_cell_length_b   6.22882798
_cell_length_c   7.51715602
_cell_angle_alpha   89.39801879
_cell_angle_beta   89.39801834
_cell_angle_gamma   113.75877444
_symmetry_Int_Tables_number   1
_chemical_formula_structural   TbDy(ReB2)3
_chemical_formula_sum   'Tb2 Dy2 Re6 B12'
_cell_volume   266.88579864
_cell_formula_units_Z   2
loop_
 _symmetry_equiv_pos_site_id
 _symmetry_equiv_pos_as_xyz
  1  'x, y, z'
loop_
 _atom_site_type_symbol
 _atom_site_label
 _atom_site_symmetry_multiplicity
 _atom_site_fract_x
 _atom_site_fract_y
 _atom_site_fract_z
 _atom_site_occupancy
  Tb  Tb0  1  0.899326  0.556815  0.322427  1
  Tb  Tb1  1  0.443185  0.100674  0.177573  1
  Dy  Dy2  1  0.100937  0.443265  0.677813  1
  Dy  Dy3  1  0.556735  0.899063  0.822187  1
  Re  Re4  1  0.411466  0.588534  0.250000  1
  Re  Re5  1  0.588585  0.411415  0.750000  1
  Re  Re6  1  0.009377  0.192858  0.088554  1
  Re  Re7  1  0.807142  0.990623  0.411446  1
  Re  Re8  1  0.990531  0.807077  0.911258  1
  Re  Re9  1  0.192923  0.009469  0.588742  1
  B  B10  1  0.750119  0.848802  0.129970  1
  B  B11  1  0.151198  0.249881  0.370030  1
  B  B12  1  0.249779  0.151241  0.869862  1
  B  B13  1  0.848759  0.750221  0.630138  1
  B  B14  1  0.413059  0.840387  0.479846  1
  B  B15  1  0.159613  0.586941  0.020154  1
  B  B16  1  0.586891  0.159509  0.520380  1
  B  B17  1  0.840491  0.413109  0.979620  1
  B  B18  1  0.557147  0.649763  0.535605  1
  B  B19  1  0.350237  0.442853  0.964395  1
  B  B20  1  0.442752  0.350252  0.464518  1
  B  B21  1  0.649748  0.557248  0.035482  1
