# generated using pymatgen
data_Eu3(Ge3Pd10)2
_symmetry_space_group_name_H-M   'P 1'
_cell_length_a   8.95924100
_cell_length_b   8.95924045
_cell_length_c   8.95924100
_cell_angle_alpha   119.99999832
_cell_angle_beta   90.00000000
_cell_angle_gamma   119.99999832
_symmetry_Int_Tables_number   1
_chemical_formula_structural   Eu3(Ge3Pd10)2
_chemical_formula_sum   'Eu3 Ge6 Pd20'
_cell_volume   508.50901306
_cell_formula_units_Z   1
loop_
 _symmetry_equiv_pos_site_id
 _symmetry_equiv_pos_as_xyz
  1  'x, y, z'
loop_
 _atom_site_type_symbol
 _atom_site_label
 _atom_site_symmetry_multiplicity
 _atom_site_fract_x
 _atom_site_fract_y
 _atom_site_fract_z
 _atom_site_occupancy
  Eu  Eu0  1  0.000000  0.000000  0.000000  1
  Eu  Eu1  1  0.750000  0.500000  0.250000  1
  Eu  Eu2  1  0.250000  0.500000  0.750000  1
  Ge  Ge3  1  0.732581  0.000000  0.267419  1
  Ge  Ge4  1  0.267419  0.000000  0.267419  1
  Ge  Ge5  1  0.267419  0.534840  0.267419  1
  Ge  Ge6  1  0.267419  0.000000  0.732581  1
  Ge  Ge7  1  0.732581  0.000000  0.732581  1
  Ge  Ge8  1  0.732581  0.465162  0.732581  1
  Pd  Pd9  1  0.348071  0.000000  0.000000  1
  Pd  Pd10  1  0.651928  0.000000  0.000000  1
  Pd  Pd11  1  0.000000  0.348071  0.000000  1
  Pd  Pd12  1  0.348071  0.348071  0.000000  1
  Pd  Pd13  1  0.000000  0.651928  0.000000  1
  Pd  Pd14  1  0.651928  0.651928  0.000000  1
  Pd  Pd15  1  0.384637  0.769276  0.153913  1
  Pd  Pd16  1  0.000000  0.000000  0.348071  1
  Pd  Pd17  1  0.000000  0.348071  0.348071  1
  Pd  Pd18  1  0.348071  0.348071  0.348071  1
  Pd  Pd19  1  0.615363  0.230724  0.384637  1
  Pd  Pd20  1  0.153913  0.769276  0.384637  1
  Pd  Pd21  1  0.615363  0.769276  0.384637  1
  Pd  Pd22  1  0.384637  0.230724  0.615363  1
  Pd  Pd23  1  0.846087  0.230724  0.615363  1
  Pd  Pd24  1  0.384637  0.769276  0.615363  1
  Pd  Pd25  1  0.000000  0.000000  0.651928  1
  Pd  Pd26  1  0.000000  0.651928  0.651928  1
  Pd  Pd27  1  0.651928  0.651928  0.651928  1
  Pd  Pd28  1  0.615363  0.230724  0.846087  1
