# generated using pymatgen
data_MnTc4Hg7O20
_symmetry_space_group_name_H-M   'P 1'
_cell_length_a   8.02431174
_cell_length_b   9.80937919
_cell_length_c   9.55615155
_cell_angle_alpha   120.33446416
_cell_angle_beta   100.97056589
_cell_angle_gamma   88.41720475
_symmetry_Int_Tables_number   1
_chemical_formula_structural   MnTc4Hg7O20
_chemical_formula_sum   'Mn1 Tc4 Hg7 O20'
_cell_volume   635.26625643
_cell_formula_units_Z   1
loop_
 _symmetry_equiv_pos_site_id
 _symmetry_equiv_pos_as_xyz
  1  'x, y, z'
loop_
 _atom_site_type_symbol
 _atom_site_label
 _atom_site_symmetry_multiplicity
 _atom_site_fract_x
 _atom_site_fract_y
 _atom_site_fract_z
 _atom_site_occupancy
  Mn  Mn0  1  0.500000  0.000000  0.500000  1
  Tc  Tc1  1  0.873496  0.754504  0.469531  1
  Tc  Tc2  1  0.711034  0.315460  0.962852  1
  Tc  Tc3  1  0.288966  0.684540  0.037148  1
  Tc  Tc4  1  0.126504  0.245496  0.530469  1
  Hg  Hg5  1  0.363337  0.624777  0.419435  1
  Hg  Hg6  1  0.707311  0.667774  0.815960  1
  Hg  Hg7  1  0.636663  0.375223  0.580565  1
  Hg  Hg8  1  0.340004  0.965663  0.803792  1
  Hg  Hg9  1  0.292689  0.332226  0.184040  1
  Hg  Hg10  1  0.659996  0.034337  0.196208  1
  Hg  Hg11  1  0.000000  0.000000  0.000000  1
  O  O12  1  0.263952  0.113660  0.558086  1
  O  O13  1  0.453308  0.862206  0.605583  1
  O  O14  1  0.078898  0.720249  0.986757  1
  O  O15  1  0.248666  0.075954  0.019732  1
  O  O16  1  0.016129  0.155725  0.324065  1
  O  O17  1  0.983871  0.844275  0.675935  1
  O  O18  1  0.366245  0.800974  0.253263  1
  O  O19  1  0.751334  0.924046  0.980268  1
  O  O20  1  0.921102  0.279751  0.013243  1
  O  O21  1  0.700612  0.513571  0.024740  1
  O  O22  1  0.021889  0.704781  0.345154  1
  O  O23  1  0.299388  0.486429  0.975260  1
  O  O24  1  0.736048  0.886340  0.441914  1
  O  O25  1  0.755864  0.584998  0.420579  1
  O  O26  1  0.244136  0.415002  0.579421  1
  O  O27  1  0.633755  0.199026  0.746737  1
  O  O28  1  0.546692  0.137794  0.394417  1
  O  O29  1  0.587179  0.262901  0.062840  1
  O  O30  1  0.978111  0.295219  0.654846  1
  O  O31  1  0.412821  0.737099  0.937160  1
