# generated using pymatgen
data_CaNd3Cu3Bi8
_symmetry_space_group_name_H-M   'P 1'
_cell_length_a   11.00137666
_cell_length_b   11.00137663
_cell_length_c   11.01052200
_cell_angle_alpha   145.72180337
_cell_angle_beta   145.72181242
_cell_angle_gamma   49.22479376
_symmetry_Int_Tables_number   1
_chemical_formula_structural   CaNd3Cu3Bi8
_chemical_formula_sum   'Ca1 Nd3 Cu3 Bi8'
_cell_volume   420.85563038
_cell_formula_units_Z   1
loop_
 _symmetry_equiv_pos_site_id
 _symmetry_equiv_pos_as_xyz
  1  'x, y, z'
loop_
 _atom_site_type_symbol
 _atom_site_label
 _atom_site_symmetry_multiplicity
 _atom_site_fract_x
 _atom_site_fract_y
 _atom_site_fract_z
 _atom_site_occupancy
  Ca  Ca0  1  0.131218  0.131218  0.489414  1
  Nd  Nd1  1  0.640337  0.640337  0.511148  1
  Nd  Nd2  1  0.361331  0.869233  0.000597  1
  Nd  Nd3  1  0.869233  0.361331  0.000597  1
  Cu  Cu4  1  0.004249  0.004249  0.011778  1
  Cu  Cu5  1  0.001443  0.494751  0.496783  1
  Cu  Cu6  1  0.494751  0.001443  0.496783  1
  Bi  Bi7  1  0.332383  0.332383  0.512343  1
  Bi  Bi8  1  0.818089  0.818089  0.492357  1
  Bi  Bi9  1  0.667644  0.182999  0.995649  1
  Bi  Bi10  1  0.182999  0.667644  0.995649  1
  Bi  Bi11  1  0.250980  0.250980  0.001169  1
  Bi  Bi12  1  0.747912  0.747912  0.996632  1
  Bi  Bi13  1  0.748281  0.249148  0.499550  1
  Bi  Bi14  1  0.249148  0.748281  0.499550  1
