# generated using pymatgen
data_DyHo7(HgRh)2
_symmetry_space_group_name_H-M   'P 1'
_cell_length_a   9.57107813
_cell_length_b   9.57111592
_cell_length_c   9.56957702
_cell_angle_alpha   60.00749392
_cell_angle_beta   60.00709867
_cell_angle_gamma   59.98864171
_symmetry_Int_Tables_number   1
_chemical_formula_structural   DyHo7(HgRh)2
_chemical_formula_sum   'Dy2 Ho14 Hg4 Rh4'
_cell_volume   619.88591271
_cell_formula_units_Z   2
loop_
 _symmetry_equiv_pos_site_id
 _symmetry_equiv_pos_as_xyz
  1  'x, y, z'
loop_
 _atom_site_type_symbol
 _atom_site_label
 _atom_site_symmetry_multiplicity
 _atom_site_fract_x
 _atom_site_fract_y
 _atom_site_fract_z
 _atom_site_occupancy
  Dy  Dy0  1  0.936386  0.936393  0.563611  1
  Dy  Dy1  1  0.563578  0.563606  0.936410  1
  Ho  Ho2  1  0.689166  0.689144  0.310851  1
  Ho  Ho3  1  0.148832  0.553506  0.148827  1
  Ho  Ho4  1  0.689042  0.310980  0.689018  1
  Ho  Ho5  1  0.148796  0.148838  0.148842  1
  Ho  Ho6  1  0.553476  0.148850  0.148838  1
  Ho  Ho7  1  0.689031  0.310982  0.310964  1
  Ho  Ho8  1  0.148807  0.148812  0.553535  1
  Ho  Ho9  1  0.311000  0.689017  0.310969  1
  Ho  Ho10  1  0.311005  0.689014  0.689012  1
  Ho  Ho11  1  0.936805  0.563186  0.563217  1
  Ho  Ho12  1  0.936787  0.563213  0.936792  1
  Ho  Ho13  1  0.563192  0.936804  0.563195  1
  Ho  Ho14  1  0.563188  0.936800  0.936787  1
  Ho  Ho15  1  0.310892  0.310865  0.689123  1
  Hg  Hg16  1  0.915586  0.915585  0.252889  1
  Hg  Hg17  1  0.252889  0.915945  0.915583  1
  Hg  Hg18  1  0.915593  0.915583  0.915931  1
  Hg  Hg19  1  0.915951  0.252897  0.915583  1
  Rh  Rh20  1  0.357126  0.357107  0.928283  1
  Rh  Rh21  1  0.357488  0.928286  0.357113  1
  Rh  Rh22  1  0.928288  0.357480  0.357128  1
  Rh  Rh23  1  0.357100  0.357101  0.357497  1
