# generated using pymatgen
data_Tm6Al24FeRu5Rh2
_symmetry_space_group_name_H-M   'P 1'
_cell_length_a   8.73272829
_cell_length_b   8.73272875
_cell_length_c   9.50301012
_cell_angle_alpha   89.98442565
_cell_angle_beta   90.01557620
_cell_angle_gamma   119.78654101
_symmetry_Int_Tables_number   1
_chemical_formula_structural   Tm6Al24FeRu5Rh2
_chemical_formula_sum   'Tm6 Al24 Fe1 Ru5 Rh2'
_cell_volume   628.95830310
_cell_formula_units_Z   1
loop_
 _symmetry_equiv_pos_site_id
 _symmetry_equiv_pos_as_xyz
  1  'x, y, z'
loop_
 _atom_site_type_symbol
 _atom_site_label
 _atom_site_symmetry_multiplicity
 _atom_site_fract_x
 _atom_site_fract_y
 _atom_site_fract_z
 _atom_site_occupancy
  Tm  Tm0  1  0.805343  0.194657  0.750022  1
  Tm  Tm1  1  0.194657  0.805343  0.249978  1
  Tm  Tm2  1  0.386772  0.189531  0.750043  1
  Tm  Tm3  1  0.613228  0.810469  0.249957  1
  Tm  Tm4  1  0.810469  0.613228  0.750043  1
  Tm  Tm5  1  0.189531  0.386772  0.249957  1
  Al  Al6  1  0.667254  0.332746  0.979075  1
  Al  Al7  1  0.332746  0.667254  0.020925  1
  Al  Al8  1  0.332890  0.667110  0.477756  1
  Al  Al9  1  0.667110  0.332890  0.522244  1
  Al  Al10  1  0.837033  0.162967  0.421857  1
  Al  Al11  1  0.162967  0.837033  0.578143  1
  Al  Al12  1  0.324508  0.161485  0.421185  1
  Al  Al13  1  0.160182  0.839818  0.923350  1
  Al  Al14  1  0.675492  0.838515  0.578815  1
  Al  Al15  1  0.839818  0.160182  0.076650  1
  Al  Al16  1  0.838515  0.675492  0.421185  1
  Al  Al17  1  0.681016  0.841391  0.922782  1
  Al  Al18  1  0.161485  0.324508  0.578815  1
  Al  Al19  1  0.318984  0.158609  0.077218  1
  Al  Al20  1  0.158609  0.318984  0.922782  1
  Al  Al21  1  0.841391  0.681016  0.077218  1
  Al  Al22  1  0.438972  0.561028  0.750418  1
  Al  Al23  1  0.561028  0.438972  0.249582  1
  Al  Al24  1  0.124326  0.561043  0.750506  1
  Al  Al25  1  0.875674  0.438957  0.249494  1
  Al  Al26  1  0.438957  0.875674  0.750506  1
  Al  Al27  1  0.561043  0.124326  0.249494  1
  Al  Al28  1  0.000465  0.999535  0.756041  1
  Al  Al29  1  0.999535  0.000465  0.243959  1
  Fe  Fe30  1  0.000000  0.000000  0.000000  1
  Ru  Ru31  1  0.000000  0.500000  0.000000  1
  Ru  Ru32  1  0.500000  0.000000  0.000000  1
  Ru  Ru33  1  0.000000  0.500000  0.500000  1
  Ru  Ru34  1  0.500000  0.000000  0.500000  1
  Ru  Ru35  1  0.000000  0.000000  0.500000  1
  Rh  Rh36  1  0.500000  0.500000  0.000000  1
  Rh  Rh37  1  0.500000  0.500000  0.500000  1
