# generated using pymatgen
data_Zr2V2Co10P7
_symmetry_space_group_name_H-M   'P 1'
_cell_length_a   8.94347101
_cell_length_b   8.95820243
_cell_length_c   3.59781000
_cell_angle_alpha   90.00000000
_cell_angle_beta   90.00000000
_cell_angle_gamma   120.07167899
_symmetry_Int_Tables_number   1
_chemical_formula_structural   Zr2V2Co10P7
_chemical_formula_sum   'Zr2 V2 Co10 P7'
_cell_volume   249.44895807
_cell_formula_units_Z   1
loop_
 _symmetry_equiv_pos_site_id
 _symmetry_equiv_pos_as_xyz
  1  'x, y, z'
loop_
 _atom_site_type_symbol
 _atom_site_label
 _atom_site_symmetry_multiplicity
 _atom_site_fract_x
 _atom_site_fract_y
 _atom_site_fract_z
 _atom_site_occupancy
  Zr  Zr0  1  0.997197  0.000699  0.000000  1
  Zr  Zr1  1  0.332638  0.665934  0.500000  1
  V  V2  1  0.885474  0.455626  0.500000  1
  V  V3  1  0.547580  0.431930  0.500000  1
  Co  Co4  1  0.294835  0.396420  0.000000  1
  Co  Co5  1  0.101833  0.704107  0.000000  1
  Co  Co6  1  0.384370  0.171061  0.000000  1
  Co  Co7  1  0.789275  0.618103  0.000000  1
  Co  Co8  1  0.826643  0.212612  0.000000  1
  Co  Co9  1  0.229255  0.944675  0.500000  1
  Co  Co10  1  0.053106  0.281736  0.500000  1
  Co  Co11  1  0.717920  0.773023  0.500000  1
  Co  Co12  1  0.572349  0.110765  0.500000  1
  Co  Co13  1  0.602923  0.898685  0.000000  1
  P  P14  1  0.664639  0.331037  0.000000  1
  P  P15  1  0.081114  0.449366  0.000000  1
  P  P16  1  0.256953  0.211941  0.500000  1
  P  P17  1  0.784015  0.045515  0.500000  1
  P  P18  1  0.956852  0.744139  0.500000  1
  P  P19  1  0.550278  0.631365  0.000000  1
  P  P20  1  0.370750  0.921260  0.000000  1
