# generated using pymatgen
data_Y5ZnSe4
_symmetry_space_group_name_H-M   'P 1'
_cell_length_a   7.12278517
_cell_length_b   7.12278653
_cell_length_c   7.12278639
_cell_angle_alpha   99.56661649
_cell_angle_beta   99.56662269
_cell_angle_gamma   131.88297856
_symmetry_Int_Tables_number   1
_chemical_formula_structural   Y5ZnSe4
_chemical_formula_sum   'Y5 Zn1 Se4'
_cell_volume   245.67027958
_cell_formula_units_Z   1
loop_
 _symmetry_equiv_pos_site_id
 _symmetry_equiv_pos_as_xyz
  1  'x, y, z'
loop_
 _atom_site_type_symbol
 _atom_site_label
 _atom_site_symmetry_multiplicity
 _atom_site_fract_x
 _atom_site_fract_y
 _atom_site_fract_z
 _atom_site_occupancy
  Y  Y0  1  0.402328  0.794543  0.196871  1
  Y  Y1  1  0.000000  0.000000  0.000000  1
  Y  Y2  1  0.597672  0.205457  0.803129  1
  Y  Y3  1  0.205457  0.402328  0.607785  1
  Y  Y4  1  0.794543  0.597672  0.392215  1
  Zn  Zn5  1  0.500000  0.500000  0.000000  1
  Se  Se6  1  0.096377  0.697205  0.793581  1
  Se  Se7  1  0.697205  0.903623  0.600828  1
  Se  Se8  1  0.302795  0.096377  0.399172  1
  Se  Se9  1  0.903623  0.302795  0.206419  1
