# generated using pymatgen
data_PrNdGdRuO7
_symmetry_space_group_name_H-M   'P 1'
_cell_length_a   6.59363253
_cell_length_b   6.58266066
_cell_length_c   7.61604900
_cell_angle_alpha   90.00000000
_cell_angle_beta   90.00000000
_cell_angle_gamma   111.03670575
_symmetry_Int_Tables_number   1
_chemical_formula_structural   PrNdGdRuO7
_chemical_formula_sum   'Pr2 Nd2 Gd2 Ru2 O14'
_cell_volume   308.53239592
_cell_formula_units_Z   2
loop_
 _symmetry_equiv_pos_site_id
 _symmetry_equiv_pos_as_xyz
  1  'x, y, z'
loop_
 _atom_site_type_symbol
 _atom_site_label
 _atom_site_symmetry_multiplicity
 _atom_site_fract_x
 _atom_site_fract_y
 _atom_site_fract_z
 _atom_site_occupancy
  Pr  Pr0  1  0.000000  0.000000  0.500000  1
  Pr  Pr1  1  0.000000  0.000000  0.000000  1
  Nd  Nd2  1  0.473141  0.915312  0.750000  1
  Nd  Nd3  1  0.526859  0.084688  0.250000  1
  Gd  Gd4  1  0.923719  0.477934  0.750000  1
  Gd  Gd5  1  0.076281  0.522066  0.250000  1
  Ru  Ru6  1  0.500000  0.500000  0.500000  1
  Ru  Ru7  1  0.500000  0.500000  0.000000  1
  O  O8  1  0.585853  0.578364  0.750000  1
  O  O9  1  0.414147  0.421636  0.250000  1
  O  O10  1  0.842249  0.117998  0.750000  1
  O  O11  1  0.157751  0.882002  0.250000  1
  O  O12  1  0.101217  0.835947  0.750000  1
  O  O13  1  0.898783  0.164053  0.250000  1
  O  O14  1  0.426154  0.183039  0.962930  1
  O  O15  1  0.573846  0.816961  0.462930  1
  O  O16  1  0.190223  0.454549  0.961743  1
  O  O17  1  0.809777  0.545451  0.461743  1
  O  O18  1  0.426154  0.183039  0.537070  1
  O  O19  1  0.573846  0.816961  0.037070  1
  O  O20  1  0.809777  0.545451  0.038257  1
  O  O21  1  0.190223  0.454549  0.538257  1
