# generated using pymatgen
data_Tb3Lu(ZnIr)4
_symmetry_space_group_name_H-M   'P 1'
_cell_length_a   4.04404000
_cell_length_b   7.00659180
_cell_length_c   8.09337951
_cell_angle_alpha   89.68089645
_cell_angle_beta   90.00000000
_cell_angle_gamma   90.00000000
_symmetry_Int_Tables_number   1
_chemical_formula_structural   Tb3Lu(ZnIr)4
_chemical_formula_sum   'Tb3 Lu1 Zn4 Ir4'
_cell_volume   229.32184600
_cell_formula_units_Z   1
loop_
 _symmetry_equiv_pos_site_id
 _symmetry_equiv_pos_as_xyz
  1  'x, y, z'
loop_
 _atom_site_type_symbol
 _atom_site_label
 _atom_site_symmetry_multiplicity
 _atom_site_fract_x
 _atom_site_fract_y
 _atom_site_fract_z
 _atom_site_occupancy
  Tb  Tb0  1  0.250000  0.533638  0.186183  1
  Tb  Tb1  1  0.750000  0.464768  0.815890  1
  Tb  Tb2  1  0.750000  0.966369  0.682114  1
  Lu  Lu3  1  0.250000  0.034908  0.316651  1
  Zn  Zn4  1  0.250000  0.642888  0.565996  1
  Zn  Zn5  1  0.750000  0.358515  0.432232  1
  Zn  Zn6  1  0.750000  0.860646  0.067213  1
  Zn  Zn7  1  0.250000  0.139589  0.934432  1
  Ir  Ir8  1  0.250000  0.758410  0.879403  1
  Ir  Ir9  1  0.750000  0.236023  0.124113  1
  Ir  Ir10  1  0.750000  0.745554  0.378256  1
  Ir  Ir11  1  0.250000  0.258695  0.617518  1
