# generated using pymatgen
data_CaYb2Dy3(Si3Ru)8
_symmetry_space_group_name_H-M   'P 1'
_cell_length_a   10.14392201
_cell_length_b   10.14392163
_cell_length_c   8.13684880
_cell_angle_alpha   89.92961581
_cell_angle_beta   90.07039067
_cell_angle_gamma   132.70573803
_symmetry_Int_Tables_number   1
_chemical_formula_structural   CaYb2Dy3(Si3Ru)8
_chemical_formula_sum   'Ca1 Yb2 Dy3 Si24 Ru8'
_cell_volume   615.26806790
_cell_formula_units_Z   1
loop_
 _symmetry_equiv_pos_site_id
 _symmetry_equiv_pos_as_xyz
  1  'x, y, z'
loop_
 _atom_site_type_symbol
 _atom_site_label
 _atom_site_symmetry_multiplicity
 _atom_site_fract_x
 _atom_site_fract_y
 _atom_site_fract_z
 _atom_site_occupancy
  Ca  Ca0  1  0.501450  0.001450  0.750000  1
  Yb  Yb1  1  0.500221  0.500165  0.500215  1
  Yb  Yb2  1  0.000165  0.000221  0.999785  1
  Dy  Dy3  1  0.999429  0.499429  0.250000  1
  Dy  Dy4  1  0.498900  0.998900  0.250000  1
  Dy  Dy5  1  0.001196  0.501196  0.750000  1
  Si  Si6  1  0.795491  0.203405  0.500505  1
  Si  Si7  1  0.296471  0.705149  0.998960  1
  Si  Si8  1  0.205149  0.796471  0.501040  1
  Si  Si9  1  0.703405  0.295491  0.999495  1
  Si  Si10  1  0.332983  0.334363  0.832728  1
  Si  Si11  1  0.665532  0.668848  0.167137  1
  Si  Si12  1  0.168848  0.165532  0.332863  1
  Si  Si13  1  0.834363  0.832983  0.667272  1
  Si  Si14  1  0.122080  0.889699  0.730470  1
  Si  Si15  1  0.108550  0.876584  0.270060  1
  Si  Si16  1  0.608352  0.376523  0.230001  1
  Si  Si17  1  0.624447  0.392012  0.769175  1
  Si  Si18  1  0.876523  0.108352  0.269999  1
  Si  Si19  1  0.892012  0.124447  0.730825  1
  Si  Si20  1  0.389699  0.622080  0.769530  1
  Si  Si21  1  0.376584  0.608550  0.229940  1
  Si  Si22  1  0.346579  0.113875  0.505052  1
  Si  Si23  1  0.886181  0.653952  0.493544  1
  Si  Si24  1  0.385421  0.152865  0.007727  1
  Si  Si25  1  0.845756  0.614062  0.992605  1
  Si  Si26  1  0.652865  0.885421  0.492273  1
  Si  Si27  1  0.114062  0.345756  0.507395  1
  Si  Si28  1  0.613875  0.846579  0.994948  1
  Si  Si29  1  0.153952  0.386181  0.006456  1
  Ru  Ru30  1  0.672308  0.329864  0.498567  1
  Ru  Ru31  1  0.168955  0.827497  0.001666  1
  Ru  Ru32  1  0.327497  0.668955  0.498334  1
  Ru  Ru33  1  0.829864  0.172308  0.001433  1
  Ru  Ru34  1  0.126388  0.126395  0.625863  1
  Ru  Ru35  1  0.873737  0.874317  0.374520  1
  Ru  Ru36  1  0.374317  0.373737  0.125480  1
  Ru  Ru37  1  0.626395  0.626388  0.874137  1
