# generated using pymatgen
data_Pr2(As2Pd7)3
_symmetry_space_group_name_H-M   'P 1'
_cell_length_a   8.88488055
_cell_length_b   8.88487969
_cell_length_c   8.88488000
_cell_angle_alpha   60.00000630
_cell_angle_beta   60.00000949
_cell_angle_gamma   59.99999884
_symmetry_Int_Tables_number   1
_chemical_formula_structural   Pr2(As2Pd7)3
_chemical_formula_sum   'Pr2 As6 Pd21'
_cell_volume   495.95213214
_cell_formula_units_Z   1
loop_
 _symmetry_equiv_pos_site_id
 _symmetry_equiv_pos_as_xyz
  1  'x, y, z'
loop_
 _atom_site_type_symbol
 _atom_site_label
 _atom_site_symmetry_multiplicity
 _atom_site_fract_x
 _atom_site_fract_y
 _atom_site_fract_z
 _atom_site_occupancy
  Pr  Pr0  1  0.750000  0.750000  0.750000  1
  Pr  Pr1  1  0.250000  0.250000  0.250000  1
  As  As2  1  0.739083  0.739083  0.260917  1
  As  As3  1  0.260917  0.739083  0.260917  1
  As  As4  1  0.739083  0.260917  0.260917  1
  As  As5  1  0.260917  0.260917  0.739083  1
  As  As6  1  0.739083  0.260917  0.739083  1
  As  As7  1  0.260917  0.739083  0.739083  1
  Pd  Pd8  1  0.000000  0.000000  0.000000  1
  Pd  Pd9  1  0.614989  0.614989  0.155035  1
  Pd  Pd10  1  0.614989  0.155035  0.614989  1
  Pd  Pd11  1  0.155035  0.614989  0.614989  1
  Pd  Pd12  1  0.614989  0.614989  0.614989  1
  Pd  Pd13  1  0.385011  0.385011  0.844965  1
  Pd  Pd14  1  0.385011  0.844965  0.385011  1
  Pd  Pd15  1  0.844965  0.385011  0.385011  1
  Pd  Pd16  1  0.385011  0.385011  0.385011  1
  Pd  Pd17  1  0.000000  0.000000  0.348492  1
  Pd  Pd18  1  0.651508  0.000000  0.348492  1
  Pd  Pd19  1  0.000000  0.651508  0.348492  1
  Pd  Pd20  1  0.651508  0.348492  0.000000  1
  Pd  Pd21  1  0.000000  0.348492  0.000000  1
  Pd  Pd22  1  0.000000  0.348492  0.651508  1
  Pd  Pd23  1  0.348492  0.651508  0.000000  1
  Pd  Pd24  1  0.348492  0.000000  0.651508  1
  Pd  Pd25  1  0.348492  0.000000  0.000000  1
  Pd  Pd26  1  0.000000  0.000000  0.651508  1
  Pd  Pd27  1  0.000000  0.651508  0.000000  1
  Pd  Pd28  1  0.651508  0.000000  0.000000  1
