# generated using pymatgen
data_Nd3Mg3Ag2Ir
_symmetry_space_group_name_H-M   'P 1'
_cell_length_a   7.89962800
_cell_length_b   7.89962754
_cell_length_c   4.05378000
_cell_angle_alpha   90.00000000
_cell_angle_beta   90.00000000
_cell_angle_gamma   120.00000192
_symmetry_Int_Tables_number   1
_chemical_formula_structural   Nd3Mg3Ag2Ir
_chemical_formula_sum   'Nd3 Mg3 Ag2 Ir1'
_cell_volume   219.08066716
_cell_formula_units_Z   1
loop_
 _symmetry_equiv_pos_site_id
 _symmetry_equiv_pos_as_xyz
  1  'x, y, z'
loop_
 _atom_site_type_symbol
 _atom_site_label
 _atom_site_symmetry_multiplicity
 _atom_site_fract_x
 _atom_site_fract_y
 _atom_site_fract_z
 _atom_site_occupancy
  Nd  Nd0  1  0.568751  0.973322  0.000000  1
  Nd  Nd1  1  0.026678  0.595428  0.000000  1
  Nd  Nd2  1  0.404572  0.431249  0.000000  1
  Mg  Mg3  1  0.247037  0.996105  0.500000  1
  Mg  Mg4  1  0.003895  0.250932  0.500000  1
  Mg  Mg5  1  0.749068  0.752963  0.500000  1
  Ag  Ag6  1  0.666667  0.333333  0.500000  1
  Ag  Ag7  1  0.000000  0.000000  0.000000  1
  Ir  Ir8  1  0.333333  0.666667  0.500000  1
