# generated using pymatgen
data_SmHo11(Si3Ir)4
_symmetry_space_group_name_H-M   'P 1'
_cell_length_a   4.24499100
_cell_length_b   10.62027144
_cell_length_c   12.29473400
_cell_angle_alpha   90.24669001
_cell_angle_beta   90.00000000
_cell_angle_gamma   90.00000000
_symmetry_Int_Tables_number   1
_chemical_formula_structural   SmHo11(Si3Ir)4
_chemical_formula_sum   'Sm1 Ho11 Si12 Ir4'
_cell_volume   554.27782263
_cell_formula_units_Z   1
loop_
 _symmetry_equiv_pos_site_id
 _symmetry_equiv_pos_as_xyz
  1  'x, y, z'
loop_
 _atom_site_type_symbol
 _atom_site_label
 _atom_site_symmetry_multiplicity
 _atom_site_fract_x
 _atom_site_fract_y
 _atom_site_fract_z
 _atom_site_occupancy
  Sm  Sm0  1  0.750000  0.155956  0.696725  1
  Ho  Ho1  1  0.250000  0.879375  0.022171  1
  Ho  Ho2  1  0.250000  0.620499  0.520799  1
  Ho  Ho3  1  0.750000  0.119623  0.980004  1
  Ho  Ho4  1  0.750000  0.381931  0.478087  1
  Ho  Ho5  1  0.250000  0.917465  0.603433  1
  Ho  Ho6  1  0.250000  0.581299  0.104263  1
  Ho  Ho7  1  0.750000  0.081838  0.395402  1
  Ho  Ho8  1  0.750000  0.419469  0.896596  1
  Ho  Ho9  1  0.250000  0.659672  0.800974  1
  Ho  Ho10  1  0.250000  0.840628  0.301080  1
  Ho  Ho11  1  0.750000  0.341108  0.198905  1
  Si  Si12  1  0.250000  0.006782  0.822977  1
  Si  Si13  1  0.250000  0.490348  0.320624  1
  Si  Si14  1  0.750000  0.989696  0.178606  1
  Si  Si15  1  0.750000  0.510496  0.679238  1
  Si  Si16  1  0.250000  0.247356  0.841822  1
  Si  Si17  1  0.250000  0.254619  0.339349  1
  Si  Si18  1  0.750000  0.753425  0.159822  1
  Si  Si19  1  0.750000  0.746673  0.659590  1
  Si  Si20  1  0.250000  0.203533  0.539490  1
  Si  Si21  1  0.250000  0.299652  0.044052  1
  Si  Si22  1  0.750000  0.799643  0.455932  1
  Si  Si23  1  0.750000  0.699653  0.957268  1
  Ir  Ir24  1  0.250000  0.391716  0.681550  1
  Ir  Ir25  1  0.250000  0.110924  0.180257  1
  Ir  Ir26  1  0.750000  0.610247  0.318711  1
  Ir  Ir27  1  0.750000  0.886373  0.822272  1
