# generated using pymatgen
data_Th3Zn3FePd2
_symmetry_space_group_name_H-M   'P 1'
_cell_length_a   7.48134300
_cell_length_b   7.48134317
_cell_length_c   3.79987300
_cell_angle_alpha   90.00000000
_cell_angle_beta   90.00000000
_cell_angle_gamma   119.99999601
_symmetry_Int_Tables_number   1
_chemical_formula_structural   Th3Zn3FePd2
_chemical_formula_sum   'Th3 Zn3 Fe1 Pd2'
_cell_volume   184.18695738
_cell_formula_units_Z   1
loop_
 _symmetry_equiv_pos_site_id
 _symmetry_equiv_pos_as_xyz
  1  'x, y, z'
loop_
 _atom_site_type_symbol
 _atom_site_label
 _atom_site_symmetry_multiplicity
 _atom_site_fract_x
 _atom_site_fract_y
 _atom_site_fract_z
 _atom_site_occupancy
  Th  Th0  1  0.426441  0.405045  0.500000  1
  Th  Th1  1  0.594955  0.021396  0.500000  1
  Th  Th2  1  0.978604  0.573559  0.500000  1
  Zn  Zn3  1  0.751774  0.751217  0.000000  1
  Zn  Zn4  1  0.248783  0.000558  0.000000  1
  Zn  Zn5  1  0.999442  0.248226  0.000000  1
  Fe  Fe6  1  0.666667  0.333333  0.000000  1
  Pd  Pd7  1  0.333333  0.666667  0.000000  1
  Pd  Pd8  1  0.000000  0.000000  0.500000  1
