# generated using pymatgen
data_La14Nd2Cd4Ir3Pt
_symmetry_space_group_name_H-M   'P 1'
_cell_length_a   10.13139387
_cell_length_b   10.13139414
_cell_length_c   10.12210851
_cell_angle_alpha   60.19398468
_cell_angle_beta   60.19398753
_cell_angle_gamma   60.15828491
_symmetry_Int_Tables_number   1
_chemical_formula_structural   La14Nd2Cd4Ir3Pt
_chemical_formula_sum   'La14 Nd2 Cd4 Ir3 Pt1'
_cell_volume   737.70283475
_cell_formula_units_Z   1
loop_
 _symmetry_equiv_pos_site_id
 _symmetry_equiv_pos_as_xyz
  1  'x, y, z'
loop_
 _atom_site_type_symbol
 _atom_site_label
 _atom_site_symmetry_multiplicity
 _atom_site_fract_x
 _atom_site_fract_y
 _atom_site_fract_z
 _atom_site_occupancy
  La  La0  1  0.346871  0.346871  0.346043  1
  La  La1  1  0.350107  0.350107  0.955575  1
  La  La2  1  0.349504  0.955576  0.350147  1
  La  La3  1  0.955576  0.349504  0.350147  1
  La  La4  1  0.804805  0.191149  0.191181  1
  La  La5  1  0.189943  0.809343  0.809309  1
  La  La6  1  0.191149  0.804805  0.191181  1
  La  La7  1  0.809343  0.189943  0.809309  1
  La  La8  1  0.190586  0.190586  0.805395  1
  La  La9  1  0.809985  0.809985  0.189266  1
  La  La10  1  0.938845  0.562225  0.562466  1
  La  La11  1  0.563375  0.937331  0.937571  1
  La  La12  1  0.562225  0.938845  0.562466  1
  La  La13  1  0.937331  0.563375  0.937571  1
  Nd  Nd14  1  0.561419  0.561419  0.939976  1
  Nd  Nd15  1  0.938506  0.938506  0.562144  1
  Cd  Cd16  1  0.579155  0.579155  0.580325  1
  Cd  Cd17  1  0.579351  0.579351  0.260873  1
  Cd  Cd18  1  0.580531  0.261004  0.579304  1
  Cd  Cd19  1  0.261004  0.580531  0.579304  1
  Ir  Ir20  1  0.141404  0.141404  0.575690  1
  Ir  Ir21  1  0.141544  0.575718  0.141296  1
  Ir  Ir22  1  0.575718  0.141544  0.141296  1
  Pt  Pt23  1  0.141725  0.141725  0.142162  1
