# generated using pymatgen
data_Th8Ti12Si15As
_symmetry_space_group_name_H-M   'P 1'
_cell_length_a   7.19978408
_cell_length_b   7.19213430
_cell_length_c   13.29223938
_cell_angle_alpha   90.00176249
_cell_angle_beta   89.77969494
_cell_angle_gamma   89.93116817
_symmetry_Int_Tables_number   1
_chemical_formula_structural   Th8Ti12Si15As
_chemical_formula_sum   'Th8 Ti12 Si15 As1'
_cell_volume   688.29068269
_cell_formula_units_Z   1
loop_
 _symmetry_equiv_pos_site_id
 _symmetry_equiv_pos_as_xyz
  1  'x, y, z'
loop_
 _atom_site_type_symbol
 _atom_site_label
 _atom_site_symmetry_multiplicity
 _atom_site_fract_x
 _atom_site_fract_y
 _atom_site_fract_z
 _atom_site_occupancy
  Th  Th0  1  0.337798  0.001029  0.467466  1
  Th  Th1  1  0.497645  0.839836  0.719103  1
  Th  Th2  1  0.502692  0.162273  0.218136  1
  Th  Th3  1  0.836708  0.496821  0.281016  1
  Th  Th4  1  0.163413  0.501136  0.781629  1
  Th  Th5  1  0.664911  0.995081  0.969545  1
  Th  Th6  1  0.998740  0.340898  0.529931  1
  Th  Th7  1  0.998015  0.662500  0.031752  1
  Ti  Ti8  1  0.327934  0.327029  0.000184  1
  Ti  Ti9  1  0.172039  0.827596  0.249680  1
  Ti  Ti10  1  0.824613  0.172526  0.750284  1
  Ti  Ti11  1  0.671406  0.671515  0.500424  1
  Ti  Ti12  1  0.162948  0.007675  0.875499  1
  Ti  Ti13  1  0.492692  0.660105  0.125358  1
  Ti  Ti14  1  0.507024  0.339742  0.626643  1
  Ti  Ti15  1  0.663187  0.496715  0.875513  1
  Ti  Ti16  1  0.338616  0.506674  0.374295  1
  Ti  Ti17  1  0.839173  0.992917  0.375467  1
  Ti  Ti18  1  0.007753  0.160085  0.124315  1
  Ti  Ti19  1  0.989554  0.836023  0.622763  1
  Si  Si20  1  0.376830  0.697280  0.936530  1
  Si  Si21  1  0.621450  0.304160  0.437051  1
  Si  Si22  1  0.697375  0.376695  0.063318  1
  Si  Si23  1  0.303258  0.622981  0.563572  1
  Si  Si24  1  0.803726  0.877019  0.187193  1
  Si  Si25  1  0.123265  0.196631  0.313148  1
  Si  Si26  1  0.877834  0.802912  0.812926  1
  Si  Si27  1  0.287380  0.958676  0.065064  1
  Si  Si28  1  0.540770  0.785825  0.314512  1
  Si  Si29  1  0.469435  0.217828  0.820160  1
  Si  Si30  1  0.786092  0.541258  0.685620  1
  Si  Si31  1  0.213134  0.458801  0.184956  1
  Si  Si32  1  0.712198  0.041686  0.564448  1
  Si  Si33  1  0.960107  0.286347  0.935412  1
  Si  Si34  1  0.040392  0.713622  0.433794  1
  As  As35  1  0.189889  0.120104  0.683293  1
