# generated using pymatgen
data_Ca3Yb3(PrSn2)4
_symmetry_space_group_name_H-M   'P 1'
_cell_length_a   7.99098500
_cell_length_b   8.53629903
_cell_length_c   16.14231806
_cell_angle_alpha   89.99039106
_cell_angle_beta   90.00000000
_cell_angle_gamma   90.00000000
_symmetry_Int_Tables_number   1
_chemical_formula_structural   Ca3Yb3(PrSn2)4
_chemical_formula_sum   'Ca6 Yb6 Pr8 Sn16'
_cell_volume   1101.12298845
_cell_formula_units_Z   2
loop_
 _symmetry_equiv_pos_site_id
 _symmetry_equiv_pos_as_xyz
  1  'x, y, z'
loop_
 _atom_site_type_symbol
 _atom_site_label
 _atom_site_symmetry_multiplicity
 _atom_site_fract_x
 _atom_site_fract_y
 _atom_site_fract_z
 _atom_site_occupancy
  Ca  Ca0  1  0.334102  0.826689  0.876638  1
  Ca  Ca1  1  0.834102  0.673311  0.623362  1
  Ca  Ca2  1  0.162330  0.503421  0.750013  1
  Ca  Ca3  1  0.662330  0.996579  0.749987  1
  Ca  Ca4  1  0.837800  0.496414  0.250008  1
  Ca  Ca5  1  0.337800  0.003586  0.249992  1
  Yb  Yb6  1  0.665843  0.173283  0.376489  1
  Yb  Yb7  1  0.165843  0.326717  0.123511  1
  Yb  Yb8  1  0.665876  0.173361  0.123505  1
  Yb  Yb9  1  0.165876  0.326639  0.376495  1
  Yb  Yb10  1  0.334131  0.826689  0.623527  1
  Yb  Yb11  1  0.834131  0.673311  0.876473  1
  Pr  Pr12  1  0.493913  0.315097  0.904120  1
  Pr  Pr13  1  0.993913  0.184903  0.595880  1
  Pr  Pr14  1  0.505979  0.684875  0.404070  1
  Pr  Pr15  1  0.005979  0.815125  0.095930  1
  Pr  Pr16  1  0.505965  0.684889  0.095958  1
  Pr  Pr17  1  0.005965  0.815111  0.404042  1
  Pr  Pr18  1  0.494025  0.315031  0.595902  1
  Pr  Pr19  1  0.994025  0.184969  0.904098  1
  Sn  Sn20  1  0.330471  0.035467  0.038760  1
  Sn  Sn21  1  0.830471  0.464533  0.461240  1
  Sn  Sn22  1  0.669330  0.965471  0.538348  1
  Sn  Sn23  1  0.169330  0.534529  0.961652  1
  Sn  Sn24  1  0.669916  0.965019  0.961625  1
  Sn  Sn25  1  0.169916  0.534981  0.538375  1
  Sn  Sn26  1  0.330459  0.035138  0.461486  1
  Sn  Sn27  1  0.830459  0.464862  0.038514  1
  Sn  Sn28  1  0.535385  0.601652  0.749861  1
  Sn  Sn29  1  0.035385  0.898348  0.750139  1
  Sn  Sn30  1  0.464512  0.397919  0.250015  1
  Sn  Sn31  1  0.964512  0.102081  0.249985  1
  Sn  Sn32  1  0.289811  0.141638  0.749810  1
  Sn  Sn33  1  0.789811  0.358362  0.750190  1
  Sn  Sn34  1  0.710151  0.858831  0.249997  1
  Sn  Sn35  1  0.210151  0.641169  0.250003  1
