# generated using pymatgen
data_Er8CdHgIrRu
_symmetry_space_group_name_H-M   'P 1'
_cell_length_a   9.53526491
_cell_length_b   9.53526519
_cell_length_c   9.58041900
_cell_angle_alpha   59.84323190
_cell_angle_beta   59.84323092
_cell_angle_gamma   59.74320848
_symmetry_Int_Tables_number   1
_chemical_formula_structural   Er8CdHgIrRu
_chemical_formula_sum   'Er16 Cd2 Hg2 Ir2 Ru2'
_cell_volume   613.27597900
_cell_formula_units_Z   2
loop_
 _symmetry_equiv_pos_site_id
 _symmetry_equiv_pos_as_xyz
  1  'x, y, z'
loop_
 _atom_site_type_symbol
 _atom_site_label
 _atom_site_symmetry_multiplicity
 _atom_site_fract_x
 _atom_site_fract_y
 _atom_site_fract_z
 _atom_site_occupancy
  Er  Er0  1  0.598959  0.598959  0.598326  1
  Er  Er1  1  0.598959  0.598959  0.203755  1
  Er  Er2  1  0.598184  0.206684  0.597566  1
  Er  Er3  1  0.206684  0.598184  0.597566  1
  Er  Er4  1  0.061125  0.437877  0.441411  1
  Er  Er5  1  0.437877  0.061125  0.059586  1
  Er  Er6  1  0.437877  0.061125  0.441411  1
  Er  Er7  1  0.061125  0.437877  0.059586  1
  Er  Er8  1  0.438115  0.438115  0.061885  1
  Er  Er9  1  0.057978  0.057978  0.442022  1
  Er  Er10  1  0.187244  0.809576  0.813455  1
  Er  Er11  1  0.809576  0.187244  0.189725  1
  Er  Er12  1  0.809576  0.187244  0.813455  1
  Er  Er13  1  0.187244  0.809576  0.189725  1
  Er  Er14  1  0.810940  0.810940  0.189060  1
  Er  Er15  1  0.188472  0.188472  0.811528  1
  Cd  Cd16  1  0.830499  0.507847  0.830827  1
  Cd  Cd17  1  0.507847  0.830499  0.830827  1
  Hg  Hg18  1  0.833426  0.833426  0.835310  1
  Hg  Hg19  1  0.833426  0.833426  0.497837  1
  Ir  Ir20  1  0.393850  0.826939  0.389606  1
  Ir  Ir21  1  0.826939  0.393850  0.389606  1
  Ru  Ru22  1  0.392038  0.392038  0.387679  1
  Ru  Ru23  1  0.392038  0.392038  0.828243  1
