# generated using pymatgen
data_TbHo2Fe8Co3B4
_symmetry_space_group_name_H-M   'P 1'
_cell_length_a   5.05508543
_cell_length_b   5.05557030
_cell_length_c   9.98509300
_cell_angle_alpha   90.00050629
_cell_angle_beta   89.99966262
_cell_angle_gamma   120.02610950
_symmetry_Int_Tables_number   1
_chemical_formula_structural   TbHo2Fe8Co3B4
_chemical_formula_sum   'Tb1 Ho2 Fe8 Co3 B4'
_cell_volume   220.93630042
_cell_formula_units_Z   1
loop_
 _symmetry_equiv_pos_site_id
 _symmetry_equiv_pos_as_xyz
  1  'x, y, z'
loop_
 _atom_site_type_symbol
 _atom_site_label
 _atom_site_symmetry_multiplicity
 _atom_site_fract_x
 _atom_site_fract_y
 _atom_site_fract_z
 _atom_site_occupancy
  Tb  Tb0  1  0.999986  0.999998  0.000003  1
  Ho  Ho1  1  0.999997  0.000001  0.348082  1
  Ho  Ho2  1  0.000000  0.999999  0.651939  1
  Fe  Fe3  1  0.333270  0.666677  0.000000  1
  Fe  Fe4  1  0.666712  0.333324  0.000001  1
  Fe  Fe5  1  0.500019  0.000063  0.203392  1
  Fe  Fe6  1  0.500018  0.499965  0.203364  1
  Fe  Fe7  1  0.999923  0.499967  0.203356  1
  Fe  Fe8  1  0.500034  0.000065  0.796632  1
  Fe  Fe9  1  0.500029  0.499970  0.796639  1
  Fe  Fe10  1  0.999928  0.499965  0.796661  1
  Co  Co11  1  0.500002  0.000005  0.499953  1
  Co  Co12  1  0.500001  0.499998  0.499981  1
  Co  Co13  1  0.999991  0.499997  0.499987  1
  B  B14  1  0.333297  0.666677  0.353030  1
  B  B15  1  0.666695  0.333326  0.353023  1
  B  B16  1  0.666639  0.333278  0.646983  1
  B  B17  1  0.333361  0.666724  0.646975  1
