# generated using pymatgen
data_RbEu(TaBr3)6
_symmetry_space_group_name_H-M   'P 1'
_cell_length_a   10.90516990
_cell_length_b   10.90517028
_cell_length_c   10.90517100
_cell_angle_alpha   55.37208115
_cell_angle_beta   55.37208615
_cell_angle_gamma   55.37209453
_symmetry_Int_Tables_number   1
_chemical_formula_structural   RbEu(TaBr3)6
_chemical_formula_sum   'Rb1 Eu1 Ta6 Br18'
_cell_volume   818.43732780
_cell_formula_units_Z   1
loop_
 _symmetry_equiv_pos_site_id
 _symmetry_equiv_pos_as_xyz
  1  'x, y, z'
loop_
 _atom_site_type_symbol
 _atom_site_label
 _atom_site_symmetry_multiplicity
 _atom_site_fract_x
 _atom_site_fract_y
 _atom_site_fract_z
 _atom_site_occupancy
  Rb  Rb0  1  0.221407  0.221427  0.221404  1
  Eu  Eu1  1  0.498142  0.498271  0.498181  1
  Ta  Ta2  1  0.811571  0.138605  0.920722  1
  Ta  Ta3  1  0.920676  0.811496  0.138663  1
  Ta  Ta4  1  0.138561  0.920731  0.811560  1
  Ta  Ta5  1  0.189347  0.861733  0.079103  1
  Ta  Ta6  1  0.079157  0.189442  0.861654  1
  Ta  Ta7  1  0.861770  0.079101  0.189370  1
  Br  Br8  1  0.863410  0.405820  0.731504  1
  Br  Br9  1  0.731502  0.863367  0.405821  1
  Br  Br10  1  0.405789  0.731549  0.863338  1
  Br  Br11  1  0.136074  0.594091  0.270693  1
  Br  Br12  1  0.270688  0.136098  0.594114  1
  Br  Br13  1  0.594156  0.270622  0.136143  1
  Br  Br14  1  0.540557  0.328897  0.819099  1
  Br  Br15  1  0.818790  0.540550  0.329040  1
  Br  Br16  1  0.328973  0.818698  0.540714  1
  Br  Br17  1  0.454234  0.673198  0.184239  1
  Br  Br18  1  0.184563  0.454200  0.673073  1
  Br  Br19  1  0.673135  0.184641  0.454079  1
  Br  Br20  1  0.669078  0.936050  0.072179  1
  Br  Br21  1  0.072120  0.669058  0.936098  1
  Br  Br22  1  0.936036  0.072166  0.669114  1
  Br  Br23  1  0.334165  0.062340  0.924815  1
  Br  Br24  1  0.924878  0.334180  0.062277  1
  Br  Br25  1  0.062357  0.924808  0.334141  1
