# generated using pymatgen
data_DyLu4(Cd2Pt)2
_symmetry_space_group_name_H-M   'P 1'
_cell_length_a   3.55491100
_cell_length_b   7.93014100
_cell_length_c   18.31536300
_cell_angle_alpha   90.00000000
_cell_angle_beta   90.00000000
_cell_angle_gamma   90.00000000
_symmetry_Int_Tables_number   1
_chemical_formula_structural   DyLu4(Cd2Pt)2
_chemical_formula_sum   'Dy2 Lu8 Cd8 Pt4'
_cell_volume   516.32739964
_cell_formula_units_Z   2
loop_
 _symmetry_equiv_pos_site_id
 _symmetry_equiv_pos_as_xyz
  1  'x, y, z'
loop_
 _atom_site_type_symbol
 _atom_site_label
 _atom_site_symmetry_multiplicity
 _atom_site_fract_x
 _atom_site_fract_y
 _atom_site_fract_z
 _atom_site_occupancy
  Dy  Dy0  1  0.000000  0.000000  0.000000  1
  Dy  Dy1  1  0.000000  0.500000  0.500000  1
  Lu  Lu2  1  0.000000  0.114649  0.414449  1
  Lu  Lu3  1  0.000000  0.885351  0.585551  1
  Lu  Lu4  1  0.000000  0.385351  0.914449  1
  Lu  Lu5  1  0.000000  0.614649  0.085551  1
  Lu  Lu6  1  0.000000  0.244562  0.219908  1
  Lu  Lu7  1  0.000000  0.755438  0.780092  1
  Lu  Lu8  1  0.000000  0.255438  0.719908  1
  Lu  Lu9  1  0.000000  0.744562  0.280092  1
  Cd  Cd10  1  0.500000  0.427378  0.352605  1
  Cd  Cd11  1  0.500000  0.572622  0.647395  1
  Cd  Cd12  1  0.500000  0.072622  0.852605  1
  Cd  Cd13  1  0.500000  0.927378  0.147395  1
  Cd  Cd14  1  0.500000  0.289201  0.066071  1
  Cd  Cd15  1  0.500000  0.710799  0.933929  1
  Cd  Cd16  1  0.500000  0.210799  0.566071  1
  Cd  Cd17  1  0.500000  0.789201  0.433929  1
  Pt  Pt18  1  0.500000  0.027933  0.303819  1
  Pt  Pt19  1  0.500000  0.972067  0.696181  1
  Pt  Pt20  1  0.500000  0.472067  0.803819  1
  Pt  Pt21  1  0.500000  0.527933  0.196181  1
