# generated using pymatgen
data_Dy15Er5Ir11Os
_symmetry_space_group_name_H-M   'P 1'
_cell_length_a   10.86383501
_cell_length_b   10.86448403
_cell_length_c   6.38932202
_cell_angle_alpha   90.00746426
_cell_angle_beta   89.99558412
_cell_angle_gamma   90.00264761
_symmetry_Int_Tables_number   1
_chemical_formula_structural   Dy15Er5Ir11Os
_chemical_formula_sum   'Dy15 Er5 Ir11 Os1'
_cell_volume   754.13142518
_cell_formula_units_Z   1
loop_
 _symmetry_equiv_pos_site_id
 _symmetry_equiv_pos_as_xyz
  1  'x, y, z'
loop_
 _atom_site_type_symbol
 _atom_site_label
 _atom_site_symmetry_multiplicity
 _atom_site_fract_x
 _atom_site_fract_y
 _atom_site_fract_z
 _atom_site_occupancy
  Dy  Dy0  1  0.292598  0.912950  0.880502  1
  Dy  Dy1  1  0.707384  0.087219  0.880397  1
  Dy  Dy2  1  0.707860  0.912766  0.376640  1
  Dy  Dy3  1  0.587188  0.792642  0.880427  1
  Dy  Dy4  1  0.586974  0.207813  0.376722  1
  Dy  Dy5  1  0.412648  0.792320  0.376702  1
  Dy  Dy6  1  0.412593  0.207260  0.880441  1
  Dy  Dy7  1  0.209397  0.411568  0.621382  1
  Dy  Dy8  1  0.209314  0.588083  0.121092  1
  Dy  Dy9  1  0.790695  0.411882  0.121097  1
  Dy  Dy10  1  0.790614  0.588346  0.621475  1
  Dy  Dy11  1  0.911910  0.709281  0.121098  1
  Dy  Dy12  1  0.911664  0.290596  0.621507  1
  Dy  Dy13  1  0.088375  0.709404  0.621393  1
  Dy  Dy14  1  0.088284  0.290560  0.121323  1
  Er  Er15  1  0.292616  0.087152  0.377076  1
  Er  Er16  1  0.000224  0.000150  0.499234  1
  Er  Er17  1  0.999992  0.000055  0.999322  1
  Er  Er18  1  0.500038  0.499991  0.999313  1
  Er  Er19  1  0.499985  0.499999  0.499270  1
  Ir  Ir20  1  0.848323  0.153139  0.250172  1
  Ir  Ir21  1  0.848261  0.847160  0.749805  1
  Ir  Ir22  1  0.152045  0.152683  0.748924  1
  Ir  Ir23  1  0.151878  0.847206  0.250409  1
  Ir  Ir24  1  0.652815  0.348244  0.749780  1
  Ir  Ir25  1  0.653193  0.651694  0.250180  1
  Ir  Ir26  1  0.346730  0.347785  0.250419  1
  Ir  Ir27  1  0.347170  0.651748  0.749804  1
  Ir  Ir28  1  0.499549  0.000165  0.623776  1
  Ir  Ir29  1  0.000030  0.500006  0.876796  1
  Ir  Ir30  1  0.000011  0.499968  0.377157  1
  Os  Os31  1  0.499643  0.000166  0.126357  1
