# generated using pymatgen
data_SrCa11(AsBr3)4
_symmetry_space_group_name_H-M   'P 1'
_cell_length_a   10.45237696
_cell_length_b   10.45237757
_cell_length_c   10.51437161
_cell_angle_alpha   109.45631604
_cell_angle_beta   109.45631409
_cell_angle_gamma   109.57978347
_symmetry_Int_Tables_number   1
_chemical_formula_structural   SrCa11(AsBr3)4
_chemical_formula_sum   'Sr1 Ca11 As4 Br12'
_cell_volume   883.42212208
_cell_formula_units_Z   1
loop_
 _symmetry_equiv_pos_site_id
 _symmetry_equiv_pos_as_xyz
  1  'x, y, z'
loop_
 _atom_site_type_symbol
 _atom_site_label
 _atom_site_symmetry_multiplicity
 _atom_site_fract_x
 _atom_site_fract_y
 _atom_site_fract_z
 _atom_site_occupancy
  Sr  Sr0  1  0.247281  0.252719  0.750000  1
  Ca  Ca1  1  0.482273  0.493410  0.243530  1
  Ca  Ca2  1  0.749309  0.241688  0.258312  1
  Ca  Ca3  1  0.748686  0.009095  0.490058  1
  Ca  Ca4  1  0.240642  0.482609  0.489964  1
  Ca  Ca5  1  0.258312  0.750691  0.241688  1
  Ca  Ca6  1  0.017391  0.259358  0.010036  1
  Ca  Ca7  1  0.006590  0.017727  0.256470  1
  Ca  Ca8  1  0.490905  0.751314  0.009942  1
  Ca  Ca9  1  0.492446  0.242061  0.480426  1
  Ca  Ca10  1  0.008829  0.491171  0.750000  1
  Ca  Ca11  1  0.257939  0.007554  0.019574  1
  As  As12  1  0.249952  0.250048  0.250000  1
  As  As13  1  0.499883  0.000117  0.250000  1
  As  As14  1  0.996753  0.250065  0.496261  1
  As  As15  1  0.249935  0.503247  0.003739  1
  Br  Br16  1  0.250459  0.748613  0.753463  1
  Br  Br17  1  0.503742  0.507900  0.745855  1
  Br  Br18  1  0.004188  0.752476  0.002534  1
  Br  Br19  1  0.751387  0.249541  0.746537  1
  Br  Br20  1  0.992100  0.996258  0.754145  1
  Br  Br21  1  0.248926  0.994410  0.488615  1
  Br  Br22  1  0.747524  0.495812  0.497466  1
  Br  Br23  1  0.505590  0.251074  0.011385  1
  Br  Br24  1  0.747283  0.752717  0.250000  1
  Br  Br25  1  0.751882  0.002332  0.004718  1
  Br  Br26  1  0.002126  0.497874  0.250000  1
  Br  Br27  1  0.497668  0.748118  0.495282  1
