# generated using pymatgen
data_Sr12Ga8IrPd7
_symmetry_space_group_name_H-M   'P 1'
_cell_length_a   6.15087768
_cell_length_b   8.38579354
_cell_length_c   14.25210796
_cell_angle_alpha   89.93078676
_cell_angle_beta   90.05207629
_cell_angle_gamma   89.99749003
_symmetry_Int_Tables_number   1
_chemical_formula_structural   Sr12Ga8IrPd7
_chemical_formula_sum   'Sr12 Ga8 Ir1 Pd7'
_cell_volume   735.12275012
_cell_formula_units_Z   1
loop_
 _symmetry_equiv_pos_site_id
 _symmetry_equiv_pos_as_xyz
  1  'x, y, z'
loop_
 _atom_site_type_symbol
 _atom_site_label
 _atom_site_symmetry_multiplicity
 _atom_site_fract_x
 _atom_site_fract_y
 _atom_site_fract_z
 _atom_site_occupancy
  Sr  Sr0  1  0.633539  0.241493  0.248236  1
  Sr  Sr1  1  0.362183  0.760053  0.750771  1
  Sr  Sr2  1  0.363260  0.735470  0.248975  1
  Sr  Sr3  1  0.637917  0.259672  0.749491  1
  Sr  Sr4  1  0.140890  0.396630  0.098298  1
  Sr  Sr5  1  0.859749  0.606673  0.902506  1
  Sr  Sr6  1  0.858698  0.607957  0.599134  1
  Sr  Sr7  1  0.859703  0.891218  0.399996  1
  Sr  Sr8  1  0.137487  0.393911  0.400675  1
  Sr  Sr9  1  0.138528  0.107352  0.598572  1
  Sr  Sr10  1  0.141947  0.107128  0.901756  1
  Sr  Sr11  1  0.860220  0.890444  0.098127  1
  Ga  Ga12  1  0.160404  0.086792  0.249746  1
  Ga  Ga13  1  0.838605  0.909301  0.751230  1
  Ga  Ga14  1  0.834376  0.587451  0.245365  1
  Ga  Ga15  1  0.158422  0.410021  0.749578  1
  Ga  Ga16  1  0.610553  0.259441  0.005039  1
  Ga  Ga17  1  0.404648  0.743742  0.004084  1
  Ga  Ga18  1  0.388706  0.750375  0.499367  1
  Ga  Ga19  1  0.611649  0.249170  0.499735  1
  Ir  Ir20  1  0.632545  0.528816  0.092423  1
  Pd  Pd21  1  0.368225  0.026881  0.092340  1
  Pd  Pd22  1  0.631416  0.980169  0.909590  1
  Pd  Pd23  1  0.630398  0.971380  0.591424  1
  Pd  Pd24  1  0.631617  0.527925  0.408443  1
  Pd  Pd25  1  0.369063  0.028572  0.407789  1
  Pd  Pd26  1  0.367453  0.471382  0.591611  1
  Pd  Pd27  1  0.367796  0.470582  0.905700  1
