# generated using pymatgen
data_BaHg2(SI)2
_symmetry_space_group_name_H-M   'P 1'
_cell_length_a   13.92380000
_cell_length_b   13.92380000
_cell_length_c   5.05122200
_cell_angle_alpha   90.00000000
_cell_angle_beta   90.00000000
_cell_angle_gamma   90.00000000
_symmetry_Int_Tables_number   1
_chemical_formula_structural   BaHg2(SI)2
_chemical_formula_sum   'Ba4 Hg8 S8 I8'
_cell_volume   979.29155436
_cell_formula_units_Z   4
loop_
 _symmetry_equiv_pos_site_id
 _symmetry_equiv_pos_as_xyz
  1  'x, y, z'
loop_
 _atom_site_type_symbol
 _atom_site_label
 _atom_site_symmetry_multiplicity
 _atom_site_fract_x
 _atom_site_fract_y
 _atom_site_fract_z
 _atom_site_occupancy
  Ba  Ba0  1  0.868702  0.368702  0.500000  1
  Ba  Ba1  1  0.368702  0.131298  0.500000  1
  Ba  Ba2  1  0.631298  0.868702  0.500000  1
  Ba  Ba3  1  0.131298  0.631298  0.500000  1
  Hg  Hg4  1  0.662306  0.584922  0.000000  1
  Hg  Hg5  1  0.337694  0.415078  0.000000  1
  Hg  Hg6  1  0.162306  0.915078  0.000000  1
  Hg  Hg7  1  0.915078  0.837694  0.000000  1
  Hg  Hg8  1  0.837694  0.084922  0.000000  1
  Hg  Hg9  1  0.084922  0.162306  0.000000  1
  Hg  Hg10  1  0.584922  0.337694  0.000000  1
  Hg  Hg11  1  0.415078  0.662306  0.000000  1
  S  S12  1  0.572933  0.733490  0.000000  1
  S  S13  1  0.733490  0.427067  0.000000  1
  S  S14  1  0.233490  0.072933  0.000000  1
  S  S15  1  0.266510  0.572933  0.000000  1
  S  S16  1  0.427067  0.266510  0.000000  1
  S  S17  1  0.927067  0.233490  0.000000  1
  S  S18  1  0.072933  0.766510  0.000000  1
  S  S19  1  0.766510  0.927067  0.000000  1
  I  I20  1  0.686960  0.186960  0.500000  1
  I  I21  1  0.500000  0.000000  0.000000  1
  I  I22  1  0.813040  0.686960  0.500000  1
  I  I23  1  0.313040  0.813040  0.500000  1
  I  I24  1  0.000000  0.000000  0.500000  1
  I  I25  1  0.186960  0.313040  0.500000  1
  I  I26  1  0.000000  0.500000  0.000000  1
  I  I27  1  0.500000  0.500000  0.500000  1
