# generated using pymatgen
data_Y3Ho5Tc2(B12Ru)2
_symmetry_space_group_name_H-M   'P 1'
_cell_length_a   3.66750900
_cell_length_b   9.14459358
_cell_length_c   11.53521801
_cell_angle_alpha   89.84894530
_cell_angle_beta   90.00000000
_cell_angle_gamma   90.00000000
_symmetry_Int_Tables_number   1
_chemical_formula_structural   Y3Ho5Tc2(B12Ru)2
_chemical_formula_sum   'Y3 Ho5 Tc2 B24 Ru2'
_cell_volume   386.86540447
_cell_formula_units_Z   1
loop_
 _symmetry_equiv_pos_site_id
 _symmetry_equiv_pos_as_xyz
  1  'x, y, z'
loop_
 _atom_site_type_symbol
 _atom_site_label
 _atom_site_symmetry_multiplicity
 _atom_site_fract_x
 _atom_site_fract_y
 _atom_site_fract_z
 _atom_site_occupancy
  Y  Y0  1  0.000000  0.324803  0.415537  1
  Y  Y1  1  0.000000  0.675187  0.584498  1
  Y  Y2  1  0.000000  0.821202  0.087304  1
  Ho  Ho3  1  0.000000  0.178721  0.912581  1
  Ho  Ho4  1  0.000000  0.942229  0.370475  1
  Ho  Ho5  1  0.000000  0.057852  0.629560  1
  Ho  Ho6  1  0.000000  0.442979  0.129966  1
  Ho  Ho7  1  0.000000  0.556812  0.869957  1
  Tc  Tc8  1  0.000000  0.638670  0.319955  1
  Tc  Tc9  1  0.000000  0.361132  0.680275  1
  B  B10  1  0.500000  0.553254  0.432754  1
  B  B11  1  0.500000  0.446668  0.567340  1
  B  B12  1  0.500000  0.054157  0.066898  1
  B  B13  1  0.500000  0.946471  0.932786  1
  B  B14  1  0.500000  0.748690  0.418678  1
  B  B15  1  0.500000  0.251330  0.581460  1
  B  B16  1  0.500000  0.248584  0.080966  1
  B  B17  1  0.500000  0.751448  0.918570  1
  B  B18  1  0.500000  0.791539  0.265362  1
  B  B19  1  0.500000  0.208322  0.734988  1
  B  B20  1  0.500000  0.290556  0.233932  1
  B  B21  1  0.500000  0.709473  0.765974  1
  B  B22  1  0.500000  0.631001  0.185207  1
  B  B23  1  0.500000  0.368609  0.815056  1
  B  B24  1  0.500000  0.130755  0.313896  1
  B  B25  1  0.500000  0.869400  0.686123  1
  B  B26  1  0.500000  0.983370  0.211933  1
  B  B27  1  0.500000  0.017124  0.788189  1
  B  B28  1  0.500000  0.482717  0.287436  1
  B  B29  1  0.500000  0.517105  0.712610  1
  B  B30  1  0.500000  0.603171  0.028361  1
  B  B31  1  0.500000  0.396295  0.971489  1
  B  B32  1  0.500000  0.103170  0.471273  1
  B  B33  1  0.500000  0.896891  0.528774  1
  Ru  Ru34  1  0.000000  0.137874  0.178389  1
  Ru  Ru35  1  0.000000  0.862440  0.821445  1
