# generated using pymatgen
data_TbY2MnVC6
_symmetry_space_group_name_H-M   'P 1'
_cell_length_a   8.17887001
_cell_length_b   8.17939569
_cell_length_c   4.97441800
_cell_angle_alpha   90.00000000
_cell_angle_beta   90.00000000
_cell_angle_gamma   120.00429357
_symmetry_Int_Tables_number   1
_chemical_formula_structural   TbY2MnVC6
_chemical_formula_sum   'Tb2 Y4 Mn2 V2 C12'
_cell_volume   288.18318770
_cell_formula_units_Z   2
loop_
 _symmetry_equiv_pos_site_id
 _symmetry_equiv_pos_as_xyz
  1  'x, y, z'
loop_
 _atom_site_type_symbol
 _atom_site_label
 _atom_site_symmetry_multiplicity
 _atom_site_fract_x
 _atom_site_fract_y
 _atom_site_fract_z
 _atom_site_occupancy
  Tb  Tb0  1  0.061093  0.379114  0.750000  1
  Tb  Tb1  1  0.379115  0.318019  0.250000  1
  Y  Y2  1  0.621187  0.682274  0.750000  1
  Y  Y3  1  0.938989  0.621132  0.250000  1
  Y  Y4  1  0.682162  0.061019  0.250000  1
  Y  Y5  1  0.317900  0.938968  0.750000  1
  Mn  Mn6  1  0.666618  0.333286  0.750000  1
  Mn  Mn7  1  0.333344  0.666688  0.250000  1
  V  V8  1  0.000004  0.999983  0.499997  1
  V  V9  1  0.000004  0.999983  0.000003  1
  C  C10  1  0.961666  0.766641  0.750000  1
  C  C11  1  0.194769  0.961485  0.250000  1
  C  C12  1  0.766616  0.804957  0.250000  1
  C  C13  1  0.233220  0.194733  0.750000  1
  C  C14  1  0.805069  0.038317  0.750000  1
  C  C15  1  0.038305  0.233246  0.250000  1
  C  C16  1  0.863723  0.573181  0.750000  1
  C  C17  1  0.290714  0.863945  0.250000  1
  C  C18  1  0.573161  0.709419  0.250000  1
  C  C19  1  0.426819  0.290617  0.750000  1
  C  C20  1  0.136273  0.426920  0.250000  1
  C  C21  1  0.709248  0.136072  0.750000  1
