# generated using pymatgen
data_Er12Tl2FeTc2
_symmetry_space_group_name_H-M   'P 1'
_cell_length_a   8.35784742
_cell_length_b   8.35784871
_cell_length_c   8.35784800
_cell_angle_alpha   108.75299415
_cell_angle_beta   108.75299714
_cell_angle_gamma   110.91741695
_symmetry_Int_Tables_number   1
_chemical_formula_structural   Er12Tl2FeTc2
_chemical_formula_sum   'Er12 Tl2 Fe1 Tc2'
_cell_volume   449.21410928
_cell_formula_units_Z   1
loop_
 _symmetry_equiv_pos_site_id
 _symmetry_equiv_pos_as_xyz
  1  'x, y, z'
loop_
 _atom_site_type_symbol
 _atom_site_label
 _atom_site_symmetry_multiplicity
 _atom_site_fract_x
 _atom_site_fract_y
 _atom_site_fract_z
 _atom_site_occupancy
  Er  Er0  1  0.304245  0.304245  0.611465  1
  Er  Er1  1  0.692778  0.692778  0.388535  1
  Er  Er2  1  0.692778  0.304245  0.000000  1
  Er  Er3  1  0.304245  0.692778  0.000000  1
  Er  Er4  1  0.189848  0.430010  0.240162  1
  Er  Er5  1  0.807098  0.569782  0.762684  1
  Er  Er6  1  0.189848  0.949685  0.759838  1
  Er  Er7  1  0.949685  0.189848  0.759838  1
  Er  Er8  1  0.807098  0.044415  0.237316  1
  Er  Er9  1  0.044415  0.807098  0.237316  1
  Er  Er10  1  0.430010  0.189848  0.240162  1
  Er  Er11  1  0.569782  0.807098  0.762684  1
  Tl  Tl12  1  0.998410  0.498410  0.500000  1
  Tl  Tl13  1  0.498410  0.998410  0.500000  1
  Fe  Fe14  1  0.632065  0.632065  0.000000  1
  Tc  Tc15  1  0.388878  0.388878  0.000000  1
  Tc  Tc16  1  0.000408  0.000408  0.000000  1
