# generated using pymatgen
data_Gd2Ni9Ge
_symmetry_space_group_name_H-M   'P 1'
_cell_length_a   3.98697000
_cell_length_b   4.99877500
_cell_length_c   8.43869000
_cell_angle_alpha   90.00000000
_cell_angle_beta   90.00000000
_cell_angle_gamma   90.00000000
_symmetry_Int_Tables_number   1
_chemical_formula_structural   Gd2Ni9Ge
_chemical_formula_sum   'Gd2 Ni9 Ge1'
_cell_volume   168.18280446
_cell_formula_units_Z   1
loop_
 _symmetry_equiv_pos_site_id
 _symmetry_equiv_pos_as_xyz
  1  'x, y, z'
loop_
 _atom_site_type_symbol
 _atom_site_label
 _atom_site_symmetry_multiplicity
 _atom_site_fract_x
 _atom_site_fract_y
 _atom_site_fract_z
 _atom_site_occupancy
  Gd  Gd0  1  0.000000  0.500000  0.000000  1
  Gd  Gd1  1  0.000000  0.000000  0.500000  1
  Ni  Ni2  1  0.000000  0.500000  0.333819  1
  Ni  Ni3  1  0.000000  0.000000  0.833904  1
  Ni  Ni4  1  0.000000  0.000000  0.166096  1
  Ni  Ni5  1  0.000000  0.500000  0.666181  1
  Ni  Ni6  1  0.500000  0.000000  0.000000  1
  Ni  Ni7  1  0.500000  0.755795  0.252324  1
  Ni  Ni8  1  0.500000  0.244205  0.747676  1
  Ni  Ni9  1  0.500000  0.244205  0.252324  1
  Ni  Ni10  1  0.500000  0.755795  0.747676  1
  Ge  Ge11  1  0.500000  0.500000  0.500000  1
