# generated using pymatgen
data_LaDy3Y4(CdNi)2
_symmetry_space_group_name_H-M   'P 1'
_cell_length_a   9.63315611
_cell_length_b   9.63315581
_cell_length_c   9.62967400
_cell_angle_alpha   60.01195563
_cell_angle_beta   60.01195664
_cell_angle_gamma   60.12150278
_symmetry_Int_Tables_number   1
_chemical_formula_structural   LaDy3Y4(CdNi)2
_chemical_formula_sum   'La2 Dy6 Y8 Cd4 Ni4'
_cell_volume   632.57144391
_cell_formula_units_Z   2
loop_
 _symmetry_equiv_pos_site_id
 _symmetry_equiv_pos_as_xyz
  1  'x, y, z'
loop_
 _atom_site_type_symbol
 _atom_site_label
 _atom_site_symmetry_multiplicity
 _atom_site_fract_x
 _atom_site_fract_y
 _atom_site_fract_z
 _atom_site_occupancy
  La  La0  1  0.596258  0.596258  0.600969  1
  La  La1  1  0.596258  0.596258  0.206515  1
  Dy  Dy2  1  0.600187  0.197430  0.601191  1
  Dy  Dy3  1  0.197430  0.600187  0.601191  1
  Dy  Dy4  1  0.064496  0.438536  0.435969  1
  Dy  Dy5  1  0.438536  0.064496  0.060998  1
  Dy  Dy6  1  0.438536  0.064496  0.435969  1
  Dy  Dy7  1  0.064496  0.438536  0.060998  1
  Y  Y8  1  0.437346  0.437346  0.062654  1
  Y  Y9  1  0.062336  0.062336  0.437664  1
  Y  Y10  1  0.186512  0.815056  0.814576  1
  Y  Y11  1  0.815056  0.186512  0.183856  1
  Y  Y12  1  0.815056  0.186512  0.814576  1
  Y  Y13  1  0.186512  0.815056  0.183856  1
  Y  Y14  1  0.814872  0.814872  0.185128  1
  Y  Y15  1  0.187702  0.187702  0.812298  1
  Cd  Cd16  1  0.833298  0.833298  0.827560  1
  Cd  Cd17  1  0.833298  0.833298  0.505843  1
  Cd  Cd18  1  0.834482  0.504534  0.830492  1
  Cd  Cd19  1  0.504534  0.834482  0.830492  1
  Ni  Ni20  1  0.388868  0.388868  0.399832  1
  Ni  Ni21  1  0.388868  0.388868  0.822434  1
  Ni  Ni22  1  0.389194  0.825868  0.392469  1
  Ni  Ni23  1  0.825868  0.389194  0.392469  1
