# generated using pymatgen
data_HoTmMn3Ni9P7
_symmetry_space_group_name_H-M   'P 1'
_cell_length_a   9.11528200
_cell_length_b   9.11528270
_cell_length_c   3.66004900
_cell_angle_alpha   90.00000000
_cell_angle_beta   90.00000000
_cell_angle_gamma   120.00000474
_symmetry_Int_Tables_number   1
_chemical_formula_structural   HoTmMn3Ni9P7
_chemical_formula_sum   'Ho1 Tm1 Mn3 Ni9 P7'
_cell_volume   263.36481992
_cell_formula_units_Z   1
loop_
 _symmetry_equiv_pos_site_id
 _symmetry_equiv_pos_as_xyz
  1  'x, y, z'
loop_
 _atom_site_type_symbol
 _atom_site_label
 _atom_site_symmetry_multiplicity
 _atom_site_fract_x
 _atom_site_fract_y
 _atom_site_fract_z
 _atom_site_occupancy
  Ho  Ho0  1  0.666667  0.333333  0.500000  1
  Tm  Tm1  1  0.000000  0.000000  0.000000  1
  Mn  Mn2  1  0.456415  0.568595  0.500000  1
  Mn  Mn3  1  0.431405  0.887821  0.500000  1
  Mn  Mn4  1  0.112179  0.543585  0.500000  1
  Ni  Ni5  1  0.706366  0.605516  0.000000  1
  Ni  Ni6  1  0.394484  0.100850  0.000000  1
  Ni  Ni7  1  0.899150  0.293634  0.000000  1
  Ni  Ni8  1  0.210354  0.388547  0.000000  1
  Ni  Ni9  1  0.611453  0.821807  0.000000  1
  Ni  Ni10  1  0.178193  0.789646  0.000000  1
  Ni  Ni11  1  0.280530  0.230065  0.500000  1
  Ni  Ni12  1  0.769935  0.050464  0.500000  1
  Ni  Ni13  1  0.949536  0.719470  0.500000  1
  P  P14  1  0.447698  0.372711  0.000000  1
  P  P15  1  0.627289  0.074988  0.000000  1
  P  P16  1  0.925012  0.552302  0.000000  1
  P  P17  1  0.041485  0.259834  0.500000  1
  P  P18  1  0.740166  0.781652  0.500000  1
  P  P19  1  0.218348  0.958515  0.500000  1
  P  P20  1  0.333333  0.666667  0.000000  1
