# generated using pymatgen
data_Pr3Y5(CdPt)2
_symmetry_space_group_name_H-M   'P 1'
_cell_length_a   9.85436934
_cell_length_b   9.85436949
_cell_length_c   9.85436900
_cell_angle_alpha   59.99999830
_cell_angle_beta   59.99999780
_cell_angle_gamma   60.00000098
_symmetry_Int_Tables_number   1
_chemical_formula_structural   Pr3Y5(CdPt)2
_chemical_formula_sum   'Pr6 Y10 Cd4 Pt4'
_cell_volume   676.66153732
_cell_formula_units_Z   2
loop_
 _symmetry_equiv_pos_site_id
 _symmetry_equiv_pos_as_xyz
  1  'x, y, z'
loop_
 _atom_site_type_symbol
 _atom_site_label
 _atom_site_symmetry_multiplicity
 _atom_site_fract_x
 _atom_site_fract_y
 _atom_site_fract_z
 _atom_site_occupancy
  Pr  Pr0  1  0.938029  0.561971  0.561971  1
  Pr  Pr1  1  0.561971  0.938029  0.938029  1
  Pr  Pr2  1  0.561971  0.938029  0.561971  1
  Pr  Pr3  1  0.938029  0.561971  0.938029  1
  Pr  Pr4  1  0.561971  0.561971  0.938029  1
  Pr  Pr5  1  0.938029  0.938029  0.561971  1
  Y  Y6  1  0.350164  0.350164  0.350164  1
  Y  Y7  1  0.350164  0.350164  0.949508  1
  Y  Y8  1  0.350164  0.949508  0.350164  1
  Y  Y9  1  0.949508  0.350164  0.350164  1
  Y  Y10  1  0.810960  0.189040  0.189040  1
  Y  Y11  1  0.189040  0.810960  0.810960  1
  Y  Y12  1  0.189040  0.810960  0.189040  1
  Y  Y13  1  0.810960  0.189040  0.810960  1
  Y  Y14  1  0.189040  0.189040  0.810960  1
  Y  Y15  1  0.810960  0.810960  0.189040  1
  Cd  Cd16  1  0.579497  0.579497  0.579497  1
  Cd  Cd17  1  0.579497  0.579497  0.261508  1
  Cd  Cd18  1  0.579497  0.261508  0.579497  1
  Cd  Cd19  1  0.261508  0.579497  0.579497  1
  Pt  Pt20  1  0.142540  0.142540  0.142540  1
  Pt  Pt21  1  0.142540  0.142540  0.572379  1
  Pt  Pt22  1  0.142540  0.572379  0.142540  1
  Pt  Pt23  1  0.572379  0.142540  0.142540  1
