# generated using pymatgen
data_Dy5Er11(In3Co)2
_symmetry_space_group_name_H-M   'P 1'
_cell_length_a   10.31678101
_cell_length_b   10.31678024
_cell_length_c   6.94639501
_cell_angle_alpha   90.00398056
_cell_angle_beta   89.99601843
_cell_angle_gamma   119.99715393
_symmetry_Int_Tables_number   1
_chemical_formula_structural   Dy5Er11(In3Co)2
_chemical_formula_sum   'Dy5 Er11 In6 Co2'
_cell_volume   640.31098416
_cell_formula_units_Z   1
loop_
 _symmetry_equiv_pos_site_id
 _symmetry_equiv_pos_as_xyz
  1  'x, y, z'
loop_
 _atom_site_type_symbol
 _atom_site_label
 _atom_site_symmetry_multiplicity
 _atom_site_fract_x
 _atom_site_fract_y
 _atom_site_fract_z
 _atom_site_occupancy
  Dy  Dy0  1  0.534178  0.068363  0.791309  1
  Dy  Dy1  1  0.931637  0.465822  0.791309  1
  Dy  Dy2  1  0.534107  0.465893  0.791386  1
  Dy  Dy3  1  0.465807  0.931533  0.291269  1
  Dy  Dy4  1  0.068467  0.534193  0.291269  1
  Er  Er5  1  0.465729  0.534271  0.291563  1
  Er  Er6  1  0.821627  0.643604  0.499944  1
  Er  Er7  1  0.356396  0.178373  0.499944  1
  Er  Er8  1  0.821842  0.178158  0.500091  1
  Er  Er9  1  0.178341  0.356442  0.000283  1
  Er  Er10  1  0.643558  0.821659  0.000283  1
  Er  Er11  1  0.178114  0.821886  0.000139  1
  Er  Er12  1  0.666576  0.333424  0.182511  1
  Er  Er13  1  0.333431  0.666569  0.682280  1
  Er  Er14  1  0.000026  0.999974  0.779287  1
  Er  Er15  1  0.999985  0.000015  0.279349  1
  In  In16  1  0.837058  0.674155  0.037750  1
  In  In17  1  0.325845  0.162942  0.037750  1
  In  In18  1  0.837069  0.162931  0.037659  1
  In  In19  1  0.163145  0.326012  0.537531  1
  In  In20  1  0.673988  0.836855  0.537531  1
  In  In21  1  0.162907  0.837093  0.537709  1
  Co  Co22  1  0.666670  0.333330  0.568804  1
  Co  Co23  1  0.333496  0.666504  0.068956  1
