# generated using pymatgen
data_Ta12MnAl5Ga3Ni3C4
_symmetry_space_group_name_H-M   'P 1'
_cell_length_a   8.23231627
_cell_length_b   8.23230888
_cell_length_c   8.22073200
_cell_angle_alpha   59.97839890
_cell_angle_beta   59.97901542
_cell_angle_gamma   60.03228849
_symmetry_Int_Tables_number   1
_chemical_formula_structural   Ta12MnAl5Ga3Ni3C4
_chemical_formula_sum   'Ta12 Mn1 Al5 Ga3 Ni3 C4'
_cell_volume   393.91738078
_cell_formula_units_Z   1
loop_
 _symmetry_equiv_pos_site_id
 _symmetry_equiv_pos_as_xyz
  1  'x, y, z'
loop_
 _atom_site_type_symbol
 _atom_site_label
 _atom_site_symmetry_multiplicity
 _atom_site_fract_x
 _atom_site_fract_y
 _atom_site_fract_z
 _atom_site_occupancy
  Ta  Ta0  1  0.551700  0.940654  0.567729  1
  Ta  Ta1  1  0.310133  0.697329  0.683111  1
  Ta  Ta2  1  0.684959  0.313411  0.315542  1
  Ta  Ta3  1  0.313385  0.684995  0.315540  1
  Ta  Ta4  1  0.686655  0.686701  0.314613  1
  Ta  Ta5  1  0.309391  0.309421  0.682325  1
  Ta  Ta6  1  0.564737  0.564759  0.934162  1
  Ta  Ta7  1  0.940608  0.551735  0.567739  1
  Ta  Ta8  1  0.563257  0.937580  0.935117  1
  Ta  Ta9  1  0.940301  0.940341  0.566776  1
  Ta  Ta10  1  0.697284  0.310175  0.683112  1
  Ta  Ta11  1  0.937532  0.563295  0.935112  1
  Mn  Mn12  1  0.125636  0.125751  0.625241  1
  Al  Al13  1  0.333560  0.333589  0.997511  1
  Al  Al14  1  0.916787  0.244921  0.921220  1
  Al  Al15  1  0.915285  0.915262  0.253128  1
  Al  Al16  1  0.244904  0.916783  0.921224  1
  Al  Al17  1  0.333071  0.333053  0.328376  1
  Ga  Ga18  1  0.916171  0.916124  0.919931  1
  Ga  Ga19  1  0.001212  0.334840  0.329833  1
  Ga  Ga20  1  0.334806  0.001268  0.329827  1
  Ni  Ni21  1  0.124009  0.123778  0.123687  1
  Ni  Ni22  1  0.624361  0.128423  0.124680  1
  Ni  Ni23  1  0.128585  0.623965  0.124836  1
  C  C24  1  0.625264  0.625309  0.624396  1
  C  C25  1  0.124842  0.625827  0.625089  1
  C  C26  1  0.625784  0.124885  0.625091  1
  C  C27  1  0.625780  0.625826  0.125053  1
