# generated using pymatgen
data_La5NdIn10
_symmetry_space_group_name_H-M   'P 1'
_cell_length_a   6.71127509
_cell_length_b   6.71127473
_cell_length_c   10.71677500
_cell_angle_alpha   90.00005122
_cell_angle_beta   90.00004269
_cell_angle_gamma   101.77068962
_symmetry_Int_Tables_number   1
_chemical_formula_structural   La5NdIn10
_chemical_formula_sum   'La5 Nd1 In10'
_cell_volume   472.54631947
_cell_formula_units_Z   1
loop_
 _symmetry_equiv_pos_site_id
 _symmetry_equiv_pos_as_xyz
  1  'x, y, z'
loop_
 _atom_site_type_symbol
 _atom_site_label
 _atom_site_symmetry_multiplicity
 _atom_site_fract_x
 _atom_site_fract_y
 _atom_site_fract_z
 _atom_site_occupancy
  La  La0  1  0.630917  0.630917  0.250000  1
  La  La1  1  0.202917  0.796097  0.500303  1
  La  La2  1  0.202917  0.796097  0.999697  1
  La  La3  1  0.796097  0.202917  0.500303  1
  La  La4  1  0.796097  0.202917  0.999697  1
  Nd  Nd5  1  0.367612  0.367612  0.750000  1
  In  In6  1  0.013949  0.013948  0.249999  1
  In  In7  1  0.987532  0.987531  0.750001  1
  In  In8  1  0.308546  0.308546  0.049599  1
  In  In9  1  0.691460  0.691460  0.947425  1
  In  In10  1  0.308546  0.308546  0.450401  1
  In  In11  1  0.691460  0.691460  0.552575  1
  In  In12  1  0.498522  0.076835  0.250000  1
  In  In13  1  0.926360  0.500236  0.750000  1
  In  In14  1  0.500236  0.926360  0.750000  1
  In  In15  1  0.076835  0.498522  0.250000  1
