# generated using pymatgen
data_TbLu9Si5Ge
_symmetry_space_group_name_H-M   'P 1'
_cell_length_a   8.27113200
_cell_length_b   8.28548061
_cell_length_c   6.19142500
_cell_angle_alpha   90.00000000
_cell_angle_beta   90.00000000
_cell_angle_gamma   119.94272977
_symmetry_Int_Tables_number   1
_chemical_formula_structural   TbLu9Si5Ge
_chemical_formula_sum   'Tb1 Lu9 Si5 Ge1'
_cell_volume   367.66665542
_cell_formula_units_Z   1
loop_
 _symmetry_equiv_pos_site_id
 _symmetry_equiv_pos_as_xyz
  1  'x, y, z'
loop_
 _atom_site_type_symbol
 _atom_site_label
 _atom_site_symmetry_multiplicity
 _atom_site_fract_x
 _atom_site_fract_y
 _atom_site_fract_z
 _atom_site_occupancy
  Tb  Tb0  1  0.759522  0.000000  0.750000  1
  Lu  Lu1  1  0.332636  0.664753  0.000941  1
  Lu  Lu2  1  0.667884  0.335247  0.499059  1
  Lu  Lu3  1  0.667884  0.335247  0.000941  1
  Lu  Lu4  1  0.332636  0.664753  0.499059  1
  Lu  Lu5  1  0.241013  0.000000  0.250000  1
  Lu  Lu6  1  0.242872  0.244224  0.750000  1
  Lu  Lu7  1  0.998648  0.755776  0.750000  1
  Lu  Lu8  1  0.000667  0.243308  0.250000  1
  Lu  Lu9  1  0.757359  0.756692  0.250000  1
  Si  Si10  1  0.606167  0.000000  0.250000  1
  Si  Si11  1  0.604616  0.602935  0.750000  1
  Si  Si12  1  0.001681  0.397065  0.750000  1
  Si  Si13  1  0.000505  0.606003  0.250000  1
  Si  Si14  1  0.394502  0.393997  0.250000  1
  Ge  Ge15  1  0.391405  0.000000  0.750000  1
