# generated using pymatgen
data_PmPt5
_symmetry_space_group_name_H-M   'P 1'
_cell_length_a   5.43179500
_cell_length_b   5.43179423
_cell_length_c   4.41249700
_cell_angle_alpha   90.00000000
_cell_angle_beta   90.00000000
_cell_angle_gamma   59.99671346
_symmetry_Int_Tables_number   1
_chemical_formula_structural   PmPt5
_chemical_formula_sum   'Pm1 Pt5'
_cell_volume   112.74241972
_cell_formula_units_Z   1
loop_
 _symmetry_equiv_pos_site_id
 _symmetry_equiv_pos_as_xyz
  1  'x, y, z'
loop_
 _atom_site_type_symbol
 _atom_site_label
 _atom_site_symmetry_multiplicity
 _atom_site_fract_x
 _atom_site_fract_y
 _atom_site_fract_z
 _atom_site_occupancy
  Pm  Pm0  1  0.000000  0.000000  0.000000  1
  Pt  Pt1  1  0.333330  0.333334  0.000000  1
  Pt  Pt2  1  0.666666  0.666670  0.000000  1
  Pt  Pt3  1  0.500536  0.000001  0.499999  1
  Pt  Pt4  1  0.999999  0.499463  0.499999  1
  Pt  Pt5  1  0.499463  0.500536  0.499999  1
