# generated using pymatgen
data_LaTm4Bi3O14
_symmetry_space_group_name_H-M   'P 1'
_cell_length_a   6.54078278
_cell_length_b   6.60912360
_cell_length_c   7.70227400
_cell_angle_alpha   106.76442468
_cell_angle_beta   89.62810994
_cell_angle_gamma   98.29542210
_symmetry_Int_Tables_number   1
_chemical_formula_structural   LaTm4Bi3O14
_chemical_formula_sum   'La1 Tm4 Bi3 O14'
_cell_volume   315.25671370
_cell_formula_units_Z   1
loop_
 _symmetry_equiv_pos_site_id
 _symmetry_equiv_pos_as_xyz
  1  'x, y, z'
loop_
 _atom_site_type_symbol
 _atom_site_label
 _atom_site_symmetry_multiplicity
 _atom_site_fract_x
 _atom_site_fract_y
 _atom_site_fract_z
 _atom_site_occupancy
  La  La0  1  0.752731  0.486081  0.621105  1
  Tm  Tm1  1  0.462308  0.007606  0.251906  1
  Tm  Tm2  1  0.533117  0.999099  0.752237  1
  Tm  Tm3  1  0.273301  0.534633  0.886804  1
  Tm  Tm4  1  0.734988  0.458481  0.110682  1
  Bi  Bi5  1  0.995562  0.998590  0.498932  1
  Bi  Bi6  1  0.999924  0.997960  0.998953  1
  Bi  Bi7  1  0.281143  0.533999  0.383649  1
  O  O8  1  0.453800  0.657687  0.163764  1
  O  O9  1  0.546001  0.347381  0.846103  1
  O  O10  1  0.303415  0.919111  0.951530  1
  O  O11  1  0.697050  0.076870  0.050773  1
  O  O12  1  0.301174  0.930912  0.515319  1
  O  O13  1  0.693652  0.074833  0.488571  1
  O  O14  1  0.545580  0.357029  0.330144  1
  O  O15  1  0.452023  0.645003  0.663264  1
  O  O16  1  0.928850  0.661061  0.954276  1
  O  O17  1  0.067005  0.329325  0.029979  1
  O  O18  1  0.082744  0.333285  0.634058  1
  O  O19  1  0.903857  0.664768  0.371256  1
  O  O20  1  0.866651  0.907318  0.727066  1
  O  O21  1  0.125121  0.078967  0.269631  1
