# generated using pymatgen
data_NaPr2Ho(Si5Pt3)2
_symmetry_space_group_name_H-M   'P 1'
_cell_length_a   8.23010948
_cell_length_b   8.27268505
_cell_length_c   8.27268477
_cell_angle_alpha   137.21703540
_cell_angle_beta   104.55016888
_cell_angle_gamma   90.92920915
_symmetry_Int_Tables_number   1
_chemical_formula_structural   NaPr2Ho(Si5Pt3)2
_chemical_formula_sum   'Na1 Pr2 Ho1 Si10 Pt6'
_cell_volume   352.64158636
_cell_formula_units_Z   1
loop_
 _symmetry_equiv_pos_site_id
 _symmetry_equiv_pos_as_xyz
  1  'x, y, z'
loop_
 _atom_site_type_symbol
 _atom_site_label
 _atom_site_symmetry_multiplicity
 _atom_site_fract_x
 _atom_site_fract_y
 _atom_site_fract_z
 _atom_site_occupancy
  Na  Na0  1  0.864057  0.628145  0.235912  1
  Pr  Pr1  1  0.395382  0.128934  0.266448  1
  Pr  Pr2  1  0.606830  0.874019  0.732810  1
  Ho  Ho3  1  0.139193  0.369025  0.770168  1
  Si  Si4  1  0.500559  0.747326  0.247976  1
  Si  Si5  1  0.500559  0.252582  0.753231  1
  Si  Si6  1  0.226297  0.980027  0.747087  1
  Si  Si7  1  0.772149  0.521847  0.751811  1
  Si  Si8  1  0.772149  0.020339  0.250303  1
  Si  Si9  1  0.226297  0.479210  0.246270  1
  Si  Si10  1  0.036465  0.884982  0.151484  1
  Si  Si11  1  0.963137  0.114887  0.848250  1
  Si  Si12  1  0.740786  0.391325  0.349461  1
  Si  Si13  1  0.257813  0.608318  0.649494  1
  Pt  Pt14  1  0.001580  0.752863  0.755683  1
  Pt  Pt15  1  0.001580  0.245897  0.248718  1
  Pt  Pt16  1  0.248163  0.862371  0.385791  1
  Pt  Pt17  1  0.749917  0.138130  0.611786  1
  Pt  Pt18  1  0.476179  0.364433  0.111745  1
  Pt  Pt19  1  0.520910  0.635340  0.885571  1
