# generated using pymatgen
data_Tb7Yb(Si3Ni)4
_symmetry_space_group_name_H-M   'P 1'
_cell_length_a   7.98306900
_cell_length_b   7.97270469
_cell_length_c   8.16152000
_cell_angle_alpha   90.00000000
_cell_angle_beta   90.00000000
_cell_angle_gamma   120.04301626
_symmetry_Int_Tables_number   1
_chemical_formula_structural   Tb7Yb(Si3Ni)4
_chemical_formula_sum   'Tb7 Yb1 Si12 Ni4'
_cell_volume   449.66473515
_cell_formula_units_Z   1
loop_
 _symmetry_equiv_pos_site_id
 _symmetry_equiv_pos_as_xyz
  1  'x, y, z'
loop_
 _atom_site_type_symbol
 _atom_site_label
 _atom_site_symmetry_multiplicity
 _atom_site_fract_x
 _atom_site_fract_y
 _atom_site_fract_z
 _atom_site_occupancy
  Tb  Tb0  1  0.499726  0.999454  0.750000  1
  Tb  Tb1  1  0.999858  0.499742  0.250000  1
  Tb  Tb2  1  0.000308  0.499651  0.750000  1
  Tb  Tb3  1  0.499885  0.499742  0.250000  1
  Tb  Tb4  1  0.499342  0.499651  0.750000  1
  Tb  Tb5  1  0.000176  0.000353  0.250000  1
  Tb  Tb6  1  0.000178  0.000357  0.750000  1
  Yb  Yb7  1  0.500610  0.001220  0.250000  1
  Si  Si8  1  0.170915  0.341830  0.000773  1
  Si  Si9  1  0.829041  0.658084  0.998584  1
  Si  Si10  1  0.658217  0.828891  0.999772  1
  Si  Si11  1  0.829041  0.658084  0.501416  1
  Si  Si12  1  0.341848  0.171007  0.997074  1
  Si  Si13  1  0.170915  0.341830  0.499227  1
  Si  Si14  1  0.170676  0.828891  0.999772  1
  Si  Si15  1  0.341848  0.171007  0.502926  1
  Si  Si16  1  0.829158  0.171007  0.997074  1
  Si  Si17  1  0.658217  0.828891  0.500228  1
  Si  Si18  1  0.829158  0.171007  0.502926  1
  Si  Si19  1  0.170676  0.828891  0.500228  1
  Ni  Ni20  1  0.333384  0.666769  0.999830  1
  Ni  Ni21  1  0.666718  0.333436  0.998149  1
  Ni  Ni22  1  0.666718  0.333436  0.501851  1
  Ni  Ni23  1  0.333384  0.666769  0.500170  1
