# generated using pymatgen
data_Lu5PuCdO12
_symmetry_space_group_name_H-M   'P 1'
_cell_length_a   6.47835468
_cell_length_b   6.47230804
_cell_length_c   6.42223800
_cell_angle_alpha   98.52708562
_cell_angle_beta   98.81010857
_cell_angle_gamma   99.30839763
_symmetry_Int_Tables_number   1
_chemical_formula_structural   Lu5PuCdO12
_chemical_formula_sum   'Lu5 Pu1 Cd1 O12'
_cell_volume   258.43487412
_cell_formula_units_Z   1
loop_
 _symmetry_equiv_pos_site_id
 _symmetry_equiv_pos_as_xyz
  1  'x, y, z'
loop_
 _atom_site_type_symbol
 _atom_site_label
 _atom_site_symmetry_multiplicity
 _atom_site_fract_x
 _atom_site_fract_y
 _atom_site_fract_z
 _atom_site_occupancy
  Lu  Lu0  1  0.857265  0.388256  0.668043  1
  Lu  Lu1  1  0.668516  0.852426  0.393598  1
  Lu  Lu2  1  0.610804  0.330877  0.147346  1
  Lu  Lu3  1  0.148526  0.610188  0.327623  1
  Lu  Lu4  1  0.332685  0.148452  0.612508  1
  Pu  Pu5  1  0.998433  0.003922  0.003369  1
  Cd  Cd6  1  0.399747  0.664502  0.849983  1
  O  O7  1  0.168999  0.407555  0.567951  1
  O  O8  1  0.592817  0.176670  0.422686  1
  O  O9  1  0.427634  0.589071  0.182523  1
  O  O10  1  0.822828  0.577879  0.409147  1
  O  O11  1  0.406338  0.825119  0.571187  1
  O  O12  1  0.586839  0.384143  0.821144  1
  O  O13  1  0.909036  0.042817  0.693302  1
  O  O14  1  0.961332  0.309885  0.087257  1
  O  O15  1  0.298046  0.102375  0.961718  1
  O  O16  1  0.090462  0.955638  0.308029  1
  O  O17  1  0.019207  0.698899  0.915749  1
  O  O18  1  0.700484  0.931329  0.056836  1
