# generated using pymatgen
data_La6TbPr3(Tl3Br)2
_symmetry_space_group_name_H-M   'P 1'
_cell_length_a   9.74587200
_cell_length_b   9.74587273
_cell_length_c   6.88986400
_cell_angle_alpha   90.00000000
_cell_angle_beta   90.00000000
_cell_angle_gamma   120.00000431
_symmetry_Int_Tables_number   1
_chemical_formula_structural   La6TbPr3(Tl3Br)2
_chemical_formula_sum   'La6 Tb1 Pr3 Tl6 Br2'
_cell_volume   566.73848005
_cell_formula_units_Z   1
loop_
 _symmetry_equiv_pos_site_id
 _symmetry_equiv_pos_as_xyz
  1  'x, y, z'
loop_
 _atom_site_type_symbol
 _atom_site_label
 _atom_site_symmetry_multiplicity
 _atom_site_fract_x
 _atom_site_fract_y
 _atom_site_fract_z
 _atom_site_occupancy
  La  La0  1  0.268663  0.268052  0.750869  1
  La  La1  1  0.999390  0.731337  0.750869  1
  La  La2  1  0.731948  0.000610  0.750869  1
  La  La3  1  0.999390  0.268052  0.249131  1
  La  La4  1  0.731948  0.731337  0.249131  1
  La  La5  1  0.268663  0.000610  0.249131  1
  Tb  Tb6  1  0.666667  0.333333  0.000000  1
  Pr  Pr7  1  0.333333  0.666667  0.500000  1
  Pr  Pr8  1  0.666667  0.333333  0.500000  1
  Pr  Pr9  1  0.333333  0.666667  0.000000  1
  Tl  Tl10  1  0.612782  0.003479  0.247396  1
  Tl  Tl11  1  0.996521  0.387218  0.752604  1
  Tl  Tl12  1  0.390697  0.003479  0.752604  1
  Tl  Tl13  1  0.612782  0.609303  0.752604  1
  Tl  Tl14  1  0.996521  0.609303  0.247396  1
  Tl  Tl15  1  0.390697  0.387218  0.247396  1
  Br  Br16  1  0.000000  0.000000  0.000000  1
  Br  Br17  1  0.000000  0.000000  0.500000  1
