# generated using pymatgen
data_La2B4IrOs2Rh
_symmetry_space_group_name_H-M   'P 1'
_cell_length_a   7.01387683
_cell_length_b   6.13345959
_cell_length_c   5.66209405
_cell_angle_alpha   72.84719466
_cell_angle_beta   56.67624958
_cell_angle_gamma   50.08276349
_symmetry_Int_Tables_number   1
_chemical_formula_structural   La2B4IrOs2Rh
_chemical_formula_sum   'La2 B4 Ir1 Os2 Rh1'
_cell_volume   155.47015620
_cell_formula_units_Z   1
loop_
 _symmetry_equiv_pos_site_id
 _symmetry_equiv_pos_as_xyz
  1  'x, y, z'
loop_
 _atom_site_type_symbol
 _atom_site_label
 _atom_site_symmetry_multiplicity
 _atom_site_fract_x
 _atom_site_fract_y
 _atom_site_fract_z
 _atom_site_occupancy
  La  La0  1  0.000868  0.000868  0.999132  1
  La  La1  1  0.248212  0.248212  0.251788  1
  B  B2  1  0.316966  0.679941  0.313202  1
  B  B3  1  0.679941  0.316966  0.689891  1
  B  B4  1  0.578170  0.923465  0.579349  1
  B  B5  1  0.923465  0.578170  0.919016  1
  Ir  Ir6  1  0.367470  0.367470  0.632530  1
  Os  Os7  1  0.615754  0.615754  0.884246  1
  Os  Os8  1  0.885593  0.885593  0.614407  1
  Rh  Rh9  1  0.633561  0.633561  0.366439  1
