# generated using pymatgen
data_PrTh3(TcB2)6
_symmetry_space_group_name_H-M   'P 1'
_cell_length_a   6.32802192
_cell_length_b   6.32883418
_cell_length_c   7.65628555
_cell_angle_alpha   89.37994318
_cell_angle_beta   89.02228262
_cell_angle_gamma   114.94862350
_symmetry_Int_Tables_number   1
_chemical_formula_structural   PrTh3(TcB2)6
_chemical_formula_sum   'Pr1 Th3 Tc6 B12'
_cell_volume   277.91875979
_cell_formula_units_Z   1
loop_
 _symmetry_equiv_pos_site_id
 _symmetry_equiv_pos_as_xyz
  1  'x, y, z'
loop_
 _atom_site_type_symbol
 _atom_site_label
 _atom_site_symmetry_multiplicity
 _atom_site_fract_x
 _atom_site_fract_y
 _atom_site_fract_z
 _atom_site_occupancy
  Pr  Pr0  1  0.563049  0.906019  0.824513  1
  Th  Th1  1  0.904619  0.560957  0.326327  1
  Th  Th2  1  0.437311  0.093249  0.172960  1
  Th  Th3  1  0.094973  0.438718  0.674933  1
  Tc  Tc4  1  0.411875  0.587330  0.250695  1
  Tc  Tc5  1  0.588426  0.413925  0.748944  1
  Tc  Tc6  1  0.010565  0.196963  0.087982  1
  Tc  Tc7  1  0.804103  0.990306  0.411097  1
  Tc  Tc8  1  0.990938  0.802838  0.913679  1
  Tc  Tc9  1  0.194351  0.009030  0.588087  1
  B  B10  1  0.756073  0.847374  0.131528  1
  B  B11  1  0.152842  0.245687  0.367886  1
  B  B12  1  0.243305  0.152639  0.866900  1
  B  B13  1  0.846067  0.753355  0.632843  1
  B  B14  1  0.418578  0.840731  0.482537  1
  B  B15  1  0.160173  0.583315  0.018515  1
  B  B16  1  0.581550  0.160665  0.517195  1
  B  B17  1  0.839583  0.417200  0.983089  1
  B  B18  1  0.556887  0.650560  0.533211  1
  B  B19  1  0.350514  0.443795  0.967276  1
  B  B20  1  0.443906  0.349499  0.466637  1
  B  B21  1  0.650312  0.555849  0.033166  1
