# generated using pymatgen
data_Th10In5BiSe2
_symmetry_space_group_name_H-M   'P 1'
_cell_length_a   9.44542400
_cell_length_b   9.48523172
_cell_length_c   6.99493200
_cell_angle_alpha   90.00000000
_cell_angle_beta   90.00000000
_cell_angle_gamma   120.13951544
_symmetry_Int_Tables_number   1
_chemical_formula_structural   Th10In5BiSe2
_chemical_formula_sum   'Th10 In5 Bi1 Se2'
_cell_volume   541.96502426
_cell_formula_units_Z   1
loop_
 _symmetry_equiv_pos_site_id
 _symmetry_equiv_pos_as_xyz
  1  'x, y, z'
loop_
 _atom_site_type_symbol
 _atom_site_label
 _atom_site_symmetry_multiplicity
 _atom_site_fract_x
 _atom_site_fract_y
 _atom_site_fract_z
 _atom_site_occupancy
  Th  Th0  1  0.662837  0.332250  0.502009  1
  Th  Th1  1  0.337163  0.669414  0.502009  1
  Th  Th2  1  0.337163  0.669414  0.997991  1
  Th  Th3  1  0.662837  0.332250  0.997991  1
  Th  Th4  1  0.739065  0.739645  0.250000  1
  Th  Th5  1  0.260935  0.000580  0.250000  1
  Th  Th6  1  0.000000  0.259167  0.250000  1
  Th  Th7  1  0.263616  0.260441  0.750000  1
  Th  Th8  1  0.736384  0.996825  0.750000  1
  Th  Th9  1  0.000000  0.740000  0.750000  1
  In  In10  1  0.389633  0.390841  0.250000  1
  In  In11  1  0.610367  0.001208  0.250000  1
  In  In12  1  0.000000  0.609084  0.250000  1
  In  In13  1  0.611389  0.609844  0.750000  1
  In  In14  1  0.388611  0.998454  0.750000  1
  Bi  Bi15  1  0.000000  0.389550  0.750000  1
  Se  Se16  1  0.000000  0.000516  0.500344  1
  Se  Se17  1  0.000000  0.000516  0.999656  1
