# generated using pymatgen
data_HoEr3Ga18Ir5Pt
_symmetry_space_group_name_H-M   'P 1'
_cell_length_a   7.58418301
_cell_length_b   7.58393065
_cell_length_c   9.45137779
_cell_angle_alpha   90.03860992
_cell_angle_beta   90.04081048
_cell_angle_gamma   119.89265874
_symmetry_Int_Tables_number   1
_chemical_formula_structural   HoEr3Ga18Ir5Pt
_chemical_formula_sum   'Ho1 Er3 Ga18 Ir5 Pt1'
_cell_volume   471.29977411
_cell_formula_units_Z   1
loop_
 _symmetry_equiv_pos_site_id
 _symmetry_equiv_pos_as_xyz
  1  'x, y, z'
loop_
 _atom_site_type_symbol
 _atom_site_label
 _atom_site_symmetry_multiplicity
 _atom_site_fract_x
 _atom_site_fract_y
 _atom_site_fract_z
 _atom_site_occupancy
  Ho  Ho0  1  0.996235  0.670358  0.751166  1
  Er  Er1  1  0.003787  0.329604  0.248636  1
  Er  Er2  1  0.670471  0.996316  0.751310  1
  Er  Er3  1  0.329625  0.003741  0.248662  1
  Ga  Ga4  1  0.131339  0.131387  0.751662  1
  Ga  Ga5  1  0.868821  0.868870  0.247816  1
  Ga  Ga6  1  0.998366  0.337552  0.582124  1
  Ga  Ga7  1  0.001595  0.661944  0.417468  1
  Ga  Ga8  1  0.001880  0.665488  0.080503  1
  Ga  Ga9  1  0.334717  0.998191  0.920042  1
  Ga  Ga10  1  0.997944  0.334333  0.920052  1
  Ga  Ga11  1  0.665523  0.001971  0.080347  1
  Ga  Ga12  1  0.661878  0.001584  0.417708  1
  Ga  Ga13  1  0.337997  0.998476  0.582143  1
  Ga  Ga14  1  0.331857  0.331827  0.066881  1
  Ga  Ga15  1  0.668164  0.668293  0.933890  1
  Ga  Ga16  1  0.664237  0.664576  0.569103  1
  Ga  Ga17  1  0.335156  0.335198  0.430540  1
  Ga  Ga18  1  0.338065  0.547677  0.750310  1
  Ga  Ga19  1  0.662032  0.452385  0.249385  1
  Ga  Ga20  1  0.547500  0.337894  0.750338  1
  Ga  Ga21  1  0.452422  0.662049  0.249399  1
  Ir  Ir22  1  0.671506  0.328603  0.499952  1
  Ir  Ir23  1  0.328594  0.671467  0.499944  1
  Ir  Ir24  1  0.328392  0.671592  0.000143  1
  Ir  Ir25  1  0.671590  0.328369  0.000159  1
  Ir  Ir26  1  0.000235  0.000243  0.000223  1
  Pt  Pt27  1  0.000073  0.000013  0.500094  1
