# generated using pymatgen
data_Y2Sc3Si7Pt8Rh
_symmetry_space_group_name_H-M   'P 1'
_cell_length_a   10.05098532
_cell_length_b   10.05648537
_cell_length_c   3.96479100
_cell_angle_alpha   90.00000000
_cell_angle_beta   90.00000000
_cell_angle_gamma   119.74010539
_symmetry_Int_Tables_number   1
_chemical_formula_structural   Y2Sc3Si7Pt8Rh
_chemical_formula_sum   'Y2 Sc3 Si7 Pt8 Rh1'
_cell_volume   347.96631955
_cell_formula_units_Z   1
loop_
 _symmetry_equiv_pos_site_id
 _symmetry_equiv_pos_as_xyz
  1  'x, y, z'
loop_
 _atom_site_type_symbol
 _atom_site_label
 _atom_site_symmetry_multiplicity
 _atom_site_fract_x
 _atom_site_fract_y
 _atom_site_fract_z
 _atom_site_occupancy
  Y  Y0  1  0.000937  0.997795  0.000000  1
  Y  Y1  1  0.332451  0.668554  0.500000  1
  Sc  Sc2  1  0.893505  0.455008  0.500000  1
  Sc  Sc3  1  0.559371  0.104042  0.500000  1
  Sc  Sc4  1  0.543501  0.439062  0.500000  1
  Si  Si5  1  0.246096  0.191321  0.500000  1
  Si  Si6  1  0.804914  0.050108  0.500000  1
  Si  Si7  1  0.955925  0.754776  0.500000  1
  Si  Si8  1  0.556957  0.648373  0.000000  1
  Si  Si9  1  0.349296  0.910397  0.000000  1
  Si  Si10  1  0.090289  0.444619  0.000000  1
  Si  Si11  1  0.665500  0.332236  0.000000  1
  Pt  Pt12  1  0.063889  0.282233  0.500000  1
  Pt  Pt13  1  0.719023  0.781224  0.500000  1
  Pt  Pt14  1  0.314882  0.414943  0.000000  1
  Pt  Pt15  1  0.586824  0.902296  0.000000  1
  Pt  Pt16  1  0.096852  0.687792  0.000000  1
  Pt  Pt17  1  0.383245  0.173008  0.000000  1
  Pt  Pt18  1  0.827761  0.211399  0.000000  1
  Pt  Pt19  1  0.786251  0.613699  0.000000  1
  Rh  Rh20  1  0.222528  0.937117  0.500000  1
