# generated using pymatgen
data_Tb3Gd6HoPb6
_symmetry_space_group_name_H-M   'P 1'
_cell_length_a   9.09100000
_cell_length_b   9.09100141
_cell_length_c   6.68209300
_cell_angle_alpha   90.00000000
_cell_angle_beta   90.00000000
_cell_angle_gamma   120.00000214
_symmetry_Int_Tables_number   1
_chemical_formula_structural   Tb3Gd6HoPb6
_chemical_formula_sum   'Tb3 Gd6 Ho1 Pb6'
_cell_volume   478.26271084
_cell_formula_units_Z   1
loop_
 _symmetry_equiv_pos_site_id
 _symmetry_equiv_pos_as_xyz
  1  'x, y, z'
loop_
 _atom_site_type_symbol
 _atom_site_label
 _atom_site_symmetry_multiplicity
 _atom_site_fract_x
 _atom_site_fract_y
 _atom_site_fract_z
 _atom_site_occupancy
  Tb  Tb0  1  0.333333  0.666667  0.000000  1
  Tb  Tb1  1  0.666667  0.333333  0.500000  1
  Tb  Tb2  1  0.666667  0.333333  0.000000  1
  Gd  Gd3  1  0.238363  0.000676  0.249229  1
  Gd  Gd4  1  0.238363  0.237687  0.750771  1
  Gd  Gd5  1  0.999324  0.761637  0.750771  1
  Gd  Gd6  1  0.999324  0.237687  0.249229  1
  Gd  Gd7  1  0.762313  0.761637  0.249229  1
  Gd  Gd8  1  0.762313  0.000676  0.750771  1
  Ho  Ho9  1  0.333333  0.666667  0.500000  1
  Pb  Pb10  1  0.603862  0.999136  0.250746  1
  Pb  Pb11  1  0.603862  0.604727  0.749254  1
  Pb  Pb12  1  0.000864  0.396138  0.749254  1
  Pb  Pb13  1  0.000864  0.604727  0.250746  1
  Pb  Pb14  1  0.395273  0.396138  0.250746  1
  Pb  Pb15  1  0.395273  0.999136  0.749254  1
