# generated using pymatgen
data_Mn8Re3Mo
_symmetry_space_group_name_H-M   'P 1'
_cell_length_a   4.66943700
_cell_length_b   4.66943670
_cell_length_c   7.69228300
_cell_angle_alpha   90.00000000
_cell_angle_beta   90.00000000
_cell_angle_gamma   119.99999508
_symmetry_Int_Tables_number   1
_chemical_formula_structural   Mn8Re3Mo
_chemical_formula_sum   'Mn8 Re3 Mo1'
_cell_volume   145.24959130
_cell_formula_units_Z   1
loop_
 _symmetry_equiv_pos_site_id
 _symmetry_equiv_pos_as_xyz
  1  'x, y, z'
loop_
 _atom_site_type_symbol
 _atom_site_label
 _atom_site_symmetry_multiplicity
 _atom_site_fract_x
 _atom_site_fract_y
 _atom_site_fract_z
 _atom_site_occupancy
  Mn  Mn0  1  0.000000  0.000000  0.000569  1
  Mn  Mn1  1  0.000000  0.000000  0.498815  1
  Mn  Mn2  1  0.826391  0.652781  0.248842  1
  Mn  Mn3  1  0.173178  0.826822  0.750808  1
  Mn  Mn4  1  0.653644  0.826822  0.750808  1
  Mn  Mn5  1  0.347219  0.173609  0.248842  1
  Mn  Mn6  1  0.826391  0.173609  0.248842  1
  Mn  Mn7  1  0.173178  0.346356  0.750808  1
  Re  Re8  1  0.333333  0.666667  0.066136  1
  Re  Re9  1  0.666667  0.333333  0.569254  1
  Re  Re10  1  0.666667  0.333333  0.932351  1
  Mo  Mo11  1  0.333333  0.666667  0.433926  1
