# generated using pymatgen
data_TbDy3(AuCl6)4
_symmetry_space_group_name_H-M   'P 1'
_cell_length_a   7.87111515
_cell_length_b   9.91875031
_cell_length_c   14.04697169
_cell_angle_alpha   103.07587201
_cell_angle_beta   97.25847563
_cell_angle_gamma   112.76601878
_symmetry_Int_Tables_number   1
_chemical_formula_structural   TbDy3(AuCl6)4
_chemical_formula_sum   'Tb1 Dy3 Au4 Cl24'
_cell_volume   956.67350488
_cell_formula_units_Z   1
loop_
 _symmetry_equiv_pos_site_id
 _symmetry_equiv_pos_as_xyz
  1  'x, y, z'
loop_
 _atom_site_type_symbol
 _atom_site_label
 _atom_site_symmetry_multiplicity
 _atom_site_fract_x
 _atom_site_fract_y
 _atom_site_fract_z
 _atom_site_occupancy
  Tb  Tb0  1  0.970223  0.314268  0.871737  1
  Dy  Dy1  1  0.578408  0.927259  0.622287  1
  Dy  Dy2  1  0.030045  0.685805  0.128391  1
  Dy  Dy3  1  0.421410  0.072582  0.377578  1
  Au  Au4  1  0.290976  0.634165  0.763680  1
  Au  Au5  1  0.499973  0.499959  0.499973  1
  Au  Au6  1  0.709137  0.365972  0.236252  1
  Au  Au7  1  0.000015  0.999894  0.000102  1
  Cl  Cl8  1  0.784731  0.103277  0.973942  1
  Cl  Cl9  1  0.718343  0.147769  0.265418  1
  Cl  Cl10  1  0.281700  0.852327  0.734591  1
  Cl  Cl11  1  0.774398  0.787710  0.028407  1
  Cl  Cl12  1  0.620812  0.193387  0.743545  1
  Cl  Cl13  1  0.298898  0.411932  0.787888  1
  Cl  Cl14  1  0.701890  0.588355  0.211978  1
  Cl  Cl15  1  0.307384  0.628232  0.498617  1
  Cl  Cl16  1  0.226081  0.212033  0.971823  1
  Cl  Cl17  1  0.755380  0.735347  0.528374  1
  Cl  Cl18  1  0.214716  0.896092  0.026369  1
  Cl  Cl19  1  0.718948  0.048545  0.483750  1
  Cl  Cl20  1  0.602835  0.733002  0.748473  1
  Cl  Cl21  1  0.939066  0.057956  0.731207  1
  Cl  Cl22  1  0.244537  0.264531  0.471560  1
  Cl  Cl23  1  0.378185  0.806317  0.256147  1
  Cl  Cl24  1  0.976946  0.537713  0.775362  1
  Cl  Cl25  1  0.769604  0.436432  0.978275  1
  Cl  Cl26  1  0.230822  0.564981  0.022644  1
  Cl  Cl27  1  0.023027  0.462882  0.224349  1
  Cl  Cl28  1  0.397264  0.267062  0.251543  1
  Cl  Cl29  1  0.280918  0.951379  0.516147  1
  Cl  Cl30  1  0.692580  0.371729  0.501359  1
  Cl  Cl31  1  0.060745  0.941104  0.268234  1
