# generated using pymatgen
data_Er2Tm2Si4RuRh3
_symmetry_space_group_name_H-M   'P 1'
_cell_length_a   4.25586700
_cell_length_b   6.86211620
_cell_length_c   7.26325912
_cell_angle_alpha   89.97575477
_cell_angle_beta   90.00000000
_cell_angle_gamma   90.00000000
_symmetry_Int_Tables_number   1
_chemical_formula_structural   Er2Tm2Si4RuRh3
_chemical_formula_sum   'Er2 Tm2 Si4 Ru1 Rh3'
_cell_volume   212.11804437
_cell_formula_units_Z   1
loop_
 _symmetry_equiv_pos_site_id
 _symmetry_equiv_pos_as_xyz
  1  'x, y, z'
loop_
 _atom_site_type_symbol
 _atom_site_label
 _atom_site_symmetry_multiplicity
 _atom_site_fract_x
 _atom_site_fract_y
 _atom_site_fract_z
 _atom_site_occupancy
  Er  Er0  1  0.250000  0.992901  0.811253  1
  Er  Er1  1  0.250000  0.497822  0.687176  1
  Tm  Tm2  1  0.750000  0.005034  0.190770  1
  Tm  Tm3  1  0.750000  0.503359  0.311475  1
  Si  Si4  1  0.250000  0.298910  0.105431  1
  Si  Si5  1  0.750000  0.702822  0.900167  1
  Si  Si6  1  0.250000  0.795930  0.386688  1
  Si  Si7  1  0.750000  0.203488  0.607715  1
  Ru  Ru8  1  0.250000  0.654131  0.066564  1
  Rh  Rh9  1  0.750000  0.844209  0.567821  1
  Rh  Rh10  1  0.250000  0.157311  0.431594  1
  Rh  Rh11  1  0.750000  0.344085  0.933344  1
