# generated using pymatgen
data_Y12CoTc2Ru
_symmetry_space_group_name_H-M   'P 1'
_cell_length_a   6.31161014
_cell_length_b   7.31899480
_cell_length_c   9.20422300
_cell_angle_alpha   90.00000000
_cell_angle_beta   90.00000000
_cell_angle_gamma   90.16446776
_symmetry_Int_Tables_number   1
_chemical_formula_structural   Y12CoTc2Ru
_chemical_formula_sum   'Y12 Co1 Tc2 Ru1'
_cell_volume   425.18403301
_cell_formula_units_Z   1
loop_
 _symmetry_equiv_pos_site_id
 _symmetry_equiv_pos_as_xyz
  1  'x, y, z'
loop_
 _atom_site_type_symbol
 _atom_site_label
 _atom_site_symmetry_multiplicity
 _atom_site_fract_x
 _atom_site_fract_y
 _atom_site_fract_z
 _atom_site_occupancy
  Y  Y0  1  0.330336  0.677339  0.065143  1
  Y  Y1  1  0.163256  0.176271  0.437702  1
  Y  Y2  1  0.666106  0.327126  0.565049  1
  Y  Y3  1  0.830564  0.821122  0.934708  1
  Y  Y4  1  0.666106  0.327126  0.934951  1
  Y  Y5  1  0.830564  0.821122  0.565292  1
  Y  Y6  1  0.330336  0.677339  0.434857  1
  Y  Y7  1  0.163256  0.176271  0.062298  1
  Y  Y8  1  0.871116  0.543201  0.250000  1
  Y  Y9  1  0.630377  0.041692  0.250000  1
  Y  Y10  1  0.141888  0.458271  0.750000  1
  Y  Y11  1  0.372996  0.951934  0.750000  1
  Co  Co12  1  0.539246  0.616179  0.750000  1
  Tc  Tc13  1  0.460736  0.388207  0.250000  1
  Tc  Tc14  1  0.964657  0.111396  0.750000  1
  Ru  Ru15  1  0.038458  0.885402  0.250000  1
