# generated using pymatgen
data_BaCl26
_symmetry_space_group_name_H-M   'P 1'
_cell_length_a   10.66640558
_cell_length_b   14.02211870
_cell_length_c   9.10158033
_cell_angle_alpha   87.38399804
_cell_angle_beta   57.02700527
_cell_angle_gamma   76.57114381
_symmetry_Int_Tables_number   1
_chemical_formula_structural   BaCl26
_chemical_formula_sum   'Ba1 Cl26'
_cell_volume   1105.34111535
_cell_formula_units_Z   1
loop_
 _symmetry_equiv_pos_site_id
 _symmetry_equiv_pos_as_xyz
  1  'x, y, z'
loop_
 _atom_site_type_symbol
 _atom_site_label
 _atom_site_symmetry_multiplicity
 _atom_site_fract_x
 _atom_site_fract_y
 _atom_site_fract_z
 _atom_site_occupancy
  Ba  Ba0  1  0.000000  0.000000  0.000000  1
  Cl  Cl1  1  0.857864  0.725909  0.518861  1
  Cl  Cl2  1  0.342275  0.676058  0.414716  1
  Cl  Cl3  1  0.657725  0.323942  0.585284  1
  Cl  Cl4  1  0.142136  0.274091  0.481139  1
  Cl  Cl5  1  0.951473  0.337416  0.103466  1
  Cl  Cl6  1  0.258045  0.489700  0.054058  1
  Cl  Cl7  1  0.741955  0.510300  0.945942  1
  Cl  Cl8  1  0.048527  0.662584  0.896534  1
  Cl  Cl9  1  0.500000  0.000000  0.500000  1
  Cl  Cl10  1  0.000000  0.000000  0.500000  1
  Cl  Cl11  1  0.872511  0.093358  0.382564  1
  Cl  Cl12  1  0.317247  0.178148  0.277666  1
  Cl  Cl13  1  0.682753  0.821852  0.722334  1
  Cl  Cl14  1  0.127489  0.906642  0.617436  1
  Cl  Cl15  1  0.059133  0.530348  0.291488  1
  Cl  Cl16  1  0.457923  0.537012  0.310029  1
  Cl  Cl17  1  0.542077  0.462988  0.689971  1
  Cl  Cl18  1  0.940867  0.469652  0.708512  1
  Cl  Cl19  1  0.664117  0.961316  0.201581  1
  Cl  Cl20  1  0.173748  0.871865  0.183252  1
  Cl  Cl21  1  0.826252  0.128135  0.816748  1
  Cl  Cl22  1  0.335883  0.038684  0.798419  1
  Cl  Cl23  1  0.274622  0.787369  0.953393  1
  Cl  Cl24  1  0.881130  0.786332  0.046908  1
  Cl  Cl25  1  0.118870  0.213668  0.953092  1
  Cl  Cl26  1  0.725378  0.212631  0.046607  1
