# generated using pymatgen
data_Rb(BiRh)2
_symmetry_space_group_name_H-M   'P 1'
_cell_length_a   8.24068662
_cell_length_b   8.24068679
_cell_length_c   8.24068675
_cell_angle_alpha   149.54997158
_cell_angle_beta   149.54997703
_cell_angle_gamma   43.60239730
_symmetry_Int_Tables_number   1
_chemical_formula_structural   Rb(BiRh)2
_chemical_formula_sum   'Rb1 Bi2 Rh2'
_cell_volume   143.33287640
_cell_formula_units_Z   1
loop_
 _symmetry_equiv_pos_site_id
 _symmetry_equiv_pos_as_xyz
  1  'x, y, z'
loop_
 _atom_site_type_symbol
 _atom_site_label
 _atom_site_symmetry_multiplicity
 _atom_site_fract_x
 _atom_site_fract_y
 _atom_site_fract_z
 _atom_site_occupancy
  Rb  Rb0  1  0.000000  0.000000  0.000000  1
  Bi  Bi1  1  0.354153  0.354153  0.000000  1
  Bi  Bi2  1  0.645847  0.645847  0.000000  1
  Rh  Rh3  1  0.750000  0.250000  0.500000  1
  Rh  Rh4  1  0.250000  0.750000  0.500000  1
