# generated using pymatgen
data_Ac2LuPa3N8
_symmetry_space_group_name_H-M   'P 1'
_cell_length_a   7.17356032
_cell_length_b   7.17345784
_cell_length_c   7.01698420
_cell_angle_alpha   120.73911963
_cell_angle_beta   90.00681216
_cell_angle_gamma   119.99634859
_symmetry_Int_Tables_number   1
_chemical_formula_structural   Ac2LuPa3N8
_chemical_formula_sum   'Ac2 Lu1 Pa3 N8'
_cell_volume   252.43701652
_cell_formula_units_Z   1
loop_
 _symmetry_equiv_pos_site_id
 _symmetry_equiv_pos_as_xyz
  1  'x, y, z'
loop_
 _atom_site_type_symbol
 _atom_site_label
 _atom_site_symmetry_multiplicity
 _atom_site_fract_x
 _atom_site_fract_y
 _atom_site_fract_z
 _atom_site_occupancy
  Ac  Ac0  1  0.995667  0.991347  0.987027  1
  Ac  Ac1  1  0.754334  0.508653  0.262973  1
  Lu  Lu2  1  0.375000  0.750000  0.125000  1
  Pa  Pa3  1  0.375000  0.750000  0.624999  1
  Pa  Pa4  1  0.375000  0.249999  0.624999  1
  Pa  Pa5  1  0.874999  0.249999  0.625000  1
  N  N6  1  0.610410  0.220854  0.407149  1
  N  N7  1  0.186329  0.796756  0.407139  1
  N  N8  1  0.610438  0.796757  0.407208  1
  N  N9  1  0.144711  0.289445  0.434154  1
  N  N10  1  0.605288  0.210556  0.815846  1
  N  N11  1  0.139562  0.703242  0.842790  1
  N  N12  1  0.139591  0.279147  0.842851  1
  N  N13  1  0.563671  0.703243  0.842861  1
