# generated using pymatgen
data_Pr10B2Cl15
_symmetry_space_group_name_H-M   'P 1'
_cell_length_a   9.12068277
_cell_length_b   9.99889907
_cell_length_c   10.76003988
_cell_angle_alpha   90.41036112
_cell_angle_beta   114.70887609
_cell_angle_gamma   111.32505243
_symmetry_Int_Tables_number   1
_chemical_formula_structural   Pr10B2Cl15
_chemical_formula_sum   'Pr10 B2 Cl15'
_cell_volume   815.58162416
_cell_formula_units_Z   1
loop_
 _symmetry_equiv_pos_site_id
 _symmetry_equiv_pos_as_xyz
  1  'x, y, z'
loop_
 _atom_site_type_symbol
 _atom_site_label
 _atom_site_symmetry_multiplicity
 _atom_site_fract_x
 _atom_site_fract_y
 _atom_site_fract_z
 _atom_site_occupancy
  Pr  Pr0  1  0.812072  0.419609  0.280132  1
  Pr  Pr1  1  0.187928  0.580391  0.719868  1
  Pr  Pr2  1  0.683524  0.743586  0.818388  1
  Pr  Pr3  1  0.316476  0.256414  0.181612  1
  Pr  Pr4  1  0.527045  0.699892  0.101842  1
  Pr  Pr5  1  0.472955  0.300108  0.898158  1
  Pr  Pr6  1  0.591498  0.037957  0.334928  1
  Pr  Pr7  1  0.408502  0.962043  0.665072  1
  Pr  Pr8  1  0.734951  0.078246  0.049919  1
  Pr  Pr9  1  0.265049  0.921754  0.950081  1
  B  B10  1  0.465719  0.815754  0.873226  1
  B  B11  1  0.534281  0.184246  0.126774  1
  Cl  Cl12  1  0.000000  0.000000  0.000000  1
  Cl  Cl13  1  0.635157  0.883386  0.587277  1
  Cl  Cl14  1  0.364843  0.116614  0.412723  1
  Cl  Cl15  1  0.880734  0.299146  0.522633  1
  Cl  Cl16  1  0.119266  0.700854  0.477367  1
  Cl  Cl17  1  0.296588  0.766089  0.180862  1
  Cl  Cl18  1  0.703412  0.233911  0.819138  1
  Cl  Cl19  1  0.054604  0.344238  0.227651  1
  Cl  Cl20  1  0.170163  0.058618  0.705977  1
  Cl  Cl21  1  0.829837  0.941382  0.294023  1
  Cl  Cl22  1  0.238160  0.411915  0.945949  1
  Cl  Cl23  1  0.761840  0.588085  0.054051  1
  Cl  Cl24  1  0.408469  0.469211  0.663009  1
  Cl  Cl25  1  0.591531  0.530789  0.336991  1
  Cl  Cl26  1  0.945396  0.655762  0.772349  1
