# generated using pymatgen
data_Dy5Ho3Ti11Si16Pt
_symmetry_space_group_name_H-M   'P 1'
_cell_length_a   7.05072703
_cell_length_b   7.05034564
_cell_length_c   12.87018811
_cell_angle_alpha   90.15218616
_cell_angle_beta   89.84458464
_cell_angle_gamma   89.73695191
_symmetry_Int_Tables_number   1
_chemical_formula_structural   Dy5Ho3Ti11Si16Pt
_chemical_formula_sum   'Dy5 Ho3 Ti11 Si16 Pt1'
_cell_volume   639.76648210
_cell_formula_units_Z   1
loop_
 _symmetry_equiv_pos_site_id
 _symmetry_equiv_pos_as_xyz
  1  'x, y, z'
loop_
 _atom_site_type_symbol
 _atom_site_label
 _atom_site_symmetry_multiplicity
 _atom_site_fract_x
 _atom_site_fract_y
 _atom_site_fract_z
 _atom_site_occupancy
  Dy  Dy0  1  0.340315  0.003830  0.467034  1
  Dy  Dy1  1  0.496973  0.841206  0.717921  1
  Dy  Dy2  1  0.501227  0.158333  0.214643  1
  Dy  Dy3  1  0.841267  0.496936  0.282121  1
  Dy  Dy4  1  0.158302  0.501208  0.785333  1
  Ho  Ho5  1  0.657043  0.998616  0.968334  1
  Ho  Ho6  1  0.003603  0.340574  0.533051  1
  Ho  Ho7  1  0.998570  0.657024  0.031544  1
  Ti  Ti8  1  0.175549  0.826853  0.248611  1
  Ti  Ti9  1  0.826890  0.175579  0.751371  1
  Ti  Ti10  1  0.673257  0.673102  0.500007  1
  Ti  Ti11  1  0.148876  0.004516  0.876710  1
  Ti  Ti12  1  0.494152  0.654286  0.124281  1
  Ti  Ti13  1  0.507389  0.350196  0.627102  1
  Ti  Ti14  1  0.654327  0.494149  0.875703  1
  Ti  Ti15  1  0.350159  0.507323  0.372921  1
  Ti  Ti16  1  0.849639  0.993430  0.374822  1
  Ti  Ti17  1  0.004474  0.148908  0.123300  1
  Ti  Ti18  1  0.993383  0.849653  0.625206  1
  Si  Si19  1  0.201882  0.132662  0.685249  1
  Si  Si20  1  0.372685  0.708997  0.932698  1
  Si  Si21  1  0.631357  0.295005  0.433717  1
  Si  Si22  1  0.709005  0.372677  0.067295  1
  Si  Si23  1  0.294793  0.630935  0.566344  1
  Si  Si24  1  0.797071  0.868346  0.183464  1
  Si  Si25  1  0.132482  0.202122  0.314699  1
  Si  Si26  1  0.868359  0.797058  0.816533  1
  Si  Si27  1  0.286075  0.945294  0.064472  1
  Si  Si28  1  0.547252  0.791620  0.315178  1
  Si  Si29  1  0.450684  0.209328  0.815171  1
  Si  Si30  1  0.791767  0.547095  0.684732  1
  Si  Si31  1  0.209306  0.450678  0.184835  1
  Si  Si32  1  0.708832  0.047983  0.565428  1
  Si  Si33  1  0.945280  0.286074  0.935528  1
  Si  Si34  1  0.047783  0.708420  0.434647  1
  Pt  Pt35  1  0.329993  0.329984  0.999994  1
