# generated using pymatgen
data_Sc11CoRu3
_symmetry_space_group_name_H-M   'P 1'
_cell_length_a   9.41603812
_cell_length_b   9.41550656
_cell_length_c   9.41531901
_cell_angle_alpha   59.99832027
_cell_angle_beta   59.99688779
_cell_angle_gamma   59.99780396
_symmetry_Int_Tables_number   1
_chemical_formula_structural   Sc11CoRu3
_chemical_formula_sum   'Sc22 Co2 Ru6'
_cell_volume   590.21331507
_cell_formula_units_Z   2
loop_
 _symmetry_equiv_pos_site_id
 _symmetry_equiv_pos_as_xyz
  1  'x, y, z'
loop_
 _atom_site_type_symbol
 _atom_site_label
 _atom_site_symmetry_multiplicity
 _atom_site_fract_x
 _atom_site_fract_y
 _atom_site_fract_z
 _atom_site_occupancy
  Sc  Sc0  1  0.805536  0.805516  0.194489  1
  Sc  Sc1  1  0.194462  0.805513  0.194488  1
  Sc  Sc2  1  0.805525  0.194469  0.194479  1
  Sc  Sc3  1  0.194464  0.194484  0.805511  1
  Sc  Sc4  1  0.805538  0.194487  0.805512  1
  Sc  Sc5  1  0.194475  0.805531  0.805521  1
  Sc  Sc6  1  0.615134  0.615116  0.154600  1
  Sc  Sc7  1  0.615151  0.154605  0.615097  1
  Sc  Sc8  1  0.154586  0.615130  0.615097  1
  Sc  Sc9  1  0.615185  0.615121  0.615111  1
  Sc  Sc10  1  0.384866  0.384884  0.845400  1
  Sc  Sc11  1  0.384849  0.845395  0.384903  1
  Sc  Sc12  1  0.845414  0.384870  0.384903  1
  Sc  Sc13  1  0.384815  0.384879  0.384889  1
  Sc  Sc14  1  0.842850  0.842766  0.471542  1
  Sc  Sc15  1  0.842815  0.471541  0.842796  1
  Sc  Sc16  1  0.471536  0.842787  0.842847  1
  Sc  Sc17  1  0.842820  0.842813  0.842831  1
  Sc  Sc18  1  0.157150  0.157234  0.528458  1
  Sc  Sc19  1  0.157185  0.528459  0.157204  1
  Sc  Sc20  1  0.528464  0.157213  0.157153  1
  Sc  Sc21  1  0.157180  0.157187  0.157169  1
  Co  Co22  1  0.000000  0.000000  0.000000  1
  Co  Co23  1  0.500000  0.500000  0.500000  1
  Ru  Ru24  1  0.000000  0.000000  0.500000  1
  Ru  Ru25  1  0.500000  0.000000  0.500000  1
  Ru  Ru26  1  0.000000  0.500000  0.500000  1
  Ru  Ru27  1  0.500000  0.500000  0.000000  1
  Ru  Ru28  1  0.000000  0.500000  0.000000  1
  Ru  Ru29  1  0.500000  0.000000  0.000000  1
