# generated using pymatgen
data_La20Si15As
_symmetry_space_group_name_H-M   'P 1'
_cell_length_a   8.03405242
_cell_length_b   8.02196091
_cell_length_c   15.64020974
_cell_angle_alpha   90.05751909
_cell_angle_beta   89.76820941
_cell_angle_gamma   90.05394290
_symmetry_Int_Tables_number   1
_chemical_formula_structural   La20Si15As
_chemical_formula_sum   'La20 Si15 As1'
_cell_volume   1007.98440207
_cell_formula_units_Z   1
loop_
 _symmetry_equiv_pos_site_id
 _symmetry_equiv_pos_as_xyz
  1  'x, y, z'
loop_
 _atom_site_type_symbol
 _atom_site_label
 _atom_site_symmetry_multiplicity
 _atom_site_fract_x
 _atom_site_fract_y
 _atom_site_fract_z
 _atom_site_occupancy
  La  La0  1  0.373598  0.479871  0.374810  1
  La  La1  1  0.873068  0.020522  0.376003  1
  La  La2  1  0.979398  0.126614  0.123857  1
  La  La3  1  0.023076  0.872733  0.623359  1
  La  La4  1  0.626408  0.520100  0.873615  1
  La  La5  1  0.478759  0.372188  0.626093  1
  La  La6  1  0.520232  0.626513  0.126353  1
  La  La7  1  0.126045  0.979337  0.876379  1
  La  La8  1  0.989127  0.618593  0.053560  1
  La  La9  1  0.011545  0.380643  0.554074  1
  La  La10  1  0.618763  0.988920  0.946299  1
  La  La11  1  0.118269  0.511259  0.803321  1
  La  La12  1  0.878366  0.488324  0.302246  1
  La  La13  1  0.511064  0.118803  0.196241  1
  La  La14  1  0.489688  0.881789  0.696719  1
  La  La15  1  0.381594  0.011017  0.446146  1
  La  La16  1  0.687752  0.693189  0.500311  1
  La  La17  1  0.808710  0.191897  0.750268  1
  La  La18  1  0.193003  0.809529  0.248232  1
  La  La19  1  0.308303  0.308546  0.000392  1
  Si  Si20  1  0.919754  0.288877  0.940752  1
  Si  Si21  1  0.714200  0.080883  0.559005  1
  Si  Si22  1  0.211181  0.421030  0.191399  1
  Si  Si23  1  0.790853  0.579292  0.690386  1
  Si  Si24  1  0.418743  0.211760  0.809644  1
  Si  Si25  1  0.579301  0.788273  0.309603  1
  Si  Si26  1  0.288210  0.920177  0.059208  1
  Si  Si27  1  0.830399  0.805123  0.794473  1
  Si  Si28  1  0.169378  0.195366  0.295620  1
  Si  Si29  1  0.805153  0.830038  0.204651  1
  Si  Si30  1  0.314898  0.670613  0.549736  1
  Si  Si31  1  0.694819  0.330302  0.045268  1
  Si  Si32  1  0.670793  0.305232  0.454535  1
  Si  Si33  1  0.330067  0.694509  0.955100  1
  Si  Si34  1  0.193094  0.169482  0.705052  1
  As  As35  1  0.072393  0.708656  0.437290  1
