# generated using pymatgen
data_BaZr(PO3)6
_symmetry_space_group_name_H-M   'P 1'
_cell_length_a   7.14287400
_cell_length_b   7.14287371
_cell_length_c   11.08675100
_cell_angle_alpha   90.00000000
_cell_angle_beta   90.00000000
_cell_angle_gamma   120.00000136
_symmetry_Int_Tables_number   1
_chemical_formula_structural   BaZr(PO3)6
_chemical_formula_sum   'Ba1 Zr1 P6 O18'
_cell_volume   489.87004094
_cell_formula_units_Z   1
loop_
 _symmetry_equiv_pos_site_id
 _symmetry_equiv_pos_as_xyz
  1  'x, y, z'
loop_
 _atom_site_type_symbol
 _atom_site_label
 _atom_site_symmetry_multiplicity
 _atom_site_fract_x
 _atom_site_fract_y
 _atom_site_fract_z
 _atom_site_occupancy
  Ba  Ba0  1  0.000000  0.000000  0.500000  1
  Zr  Zr1  1  0.000000  0.000000  0.000000  1
  P  P2  1  0.735393  0.137253  0.783212  1
  P  P3  1  0.862747  0.264607  0.216788  1
  P  P4  1  0.735393  0.598140  0.216788  1
  P  P5  1  0.862747  0.598140  0.783212  1
  P  P6  1  0.401860  0.264607  0.783212  1
  P  P7  1  0.401860  0.137253  0.216788  1
  O  O8  1  0.893320  0.500476  0.191484  1
  O  O9  1  0.893320  0.392844  0.808516  1
  O  O10  1  0.499524  0.106680  0.808516  1
  O  O11  1  0.607156  0.106680  0.191484  1
  O  O12  1  0.757939  0.073884  0.659451  1
  O  O13  1  0.775588  0.023926  0.888113  1
  O  O14  1  0.499524  0.392844  0.191484  1
  O  O15  1  0.757939  0.684055  0.340549  1
  O  O16  1  0.775588  0.751663  0.111887  1
  O  O17  1  0.607156  0.500476  0.808516  1
  O  O18  1  0.926116  0.242061  0.340549  1
  O  O19  1  0.976074  0.224412  0.111887  1
  O  O20  1  0.248337  0.224412  0.888113  1
  O  O21  1  0.315945  0.242061  0.659451  1
  O  O22  1  0.976074  0.751663  0.888113  1
  O  O23  1  0.926116  0.684055  0.659451  1
  O  O24  1  0.248337  0.023926  0.111887  1
  O  O25  1  0.315945  0.073884  0.340549  1
