# generated using pymatgen
data_Pr16Dy4Si15Br
_symmetry_space_group_name_H-M   'P 1'
_cell_length_a   7.91394323
_cell_length_b   7.84219022
_cell_length_c   15.26814011
_cell_angle_alpha   89.63921675
_cell_angle_beta   89.13749654
_cell_angle_gamma   90.34674868
_symmetry_Int_Tables_number   1
_chemical_formula_structural   Pr16Dy4Si15Br
_chemical_formula_sum   'Pr16 Dy4 Si15 Br1'
_cell_volume   947.43715888
_cell_formula_units_Z   1
loop_
 _symmetry_equiv_pos_site_id
 _symmetry_equiv_pos_as_xyz
  1  'x, y, z'
loop_
 _atom_site_type_symbol
 _atom_site_label
 _atom_site_symmetry_multiplicity
 _atom_site_fract_x
 _atom_site_fract_y
 _atom_site_fract_z
 _atom_site_occupancy
  Pr  Pr0  1  0.379699  0.006369  0.442893  1
  Pr  Pr1  1  0.495767  0.865941  0.699645  1
  Pr  Pr2  1  0.510659  0.122227  0.196865  1
  Pr  Pr3  1  0.873432  0.484554  0.299965  1
  Pr  Pr4  1  0.123950  0.519849  0.804218  1
  Pr  Pr5  1  0.634946  0.984658  0.952799  1
  Pr  Pr6  1  0.998006  0.381847  0.543953  1
  Pr  Pr7  1  0.992372  0.623870  0.052995  1
  Pr  Pr8  1  0.140854  0.987274  0.875050  1
  Pr  Pr9  1  0.520762  0.629338  0.126634  1
  Pr  Pr10  1  0.478200  0.369204  0.631402  1
  Pr  Pr11  1  0.635844  0.524087  0.876325  1
  Pr  Pr12  1  0.367735  0.475471  0.374237  1
  Pr  Pr13  1  0.870941  0.021474  0.377167  1
  Pr  Pr14  1  0.981994  0.126752  0.123309  1
  Pr  Pr15  1  0.015072  0.864293  0.619640  1
  Dy  Dy16  1  0.313814  0.310832  0.999374  1
  Dy  Dy17  1  0.186140  0.809029  0.249429  1
  Dy  Dy18  1  0.794181  0.189868  0.753398  1
  Dy  Dy19  1  0.684039  0.687425  0.498256  1
  Si  Si20  1  0.331778  0.694341  0.952893  1
  Si  Si21  1  0.662333  0.308670  0.455708  1
  Si  Si22  1  0.698425  0.333495  0.048748  1
  Si  Si23  1  0.308626  0.668846  0.546917  1
  Si  Si24  1  0.808294  0.830412  0.204943  1
  Si  Si25  1  0.168765  0.189698  0.294250  1
  Si  Si26  1  0.841250  0.810692  0.795043  1
  Si  Si27  1  0.287974  0.924208  0.061253  1
  Si  Si28  1  0.575524  0.783992  0.311647  1
  Si  Si29  1  0.456104  0.209472  0.826669  1
  Si  Si30  1  0.789949  0.574524  0.686521  1
  Si  Si31  1  0.211778  0.425353  0.187908  1
  Si  Si32  1  0.705544  0.074052  0.562900  1
  Si  Si33  1  0.930708  0.290468  0.938094  1
  Si  Si34  1  0.074350  0.711330  0.436681  1
  Br  Br35  1  0.150190  0.186083  0.692270  1
