# generated using pymatgen
data_Ca2In3Ni2Sn
_symmetry_space_group_name_H-M   'P 1'
_cell_length_a   5.82470618
_cell_length_b   5.82470610
_cell_length_c   7.42494308
_cell_angle_alpha   89.58696547
_cell_angle_beta   90.41303700
_cell_angle_gamma   136.07466064
_symmetry_Int_Tables_number   1
_chemical_formula_structural   Ca2In3Ni2Sn
_chemical_formula_sum   'Ca2 In3 Ni2 Sn1'
_cell_volume   174.74812800
_cell_formula_units_Z   1
loop_
 _symmetry_equiv_pos_site_id
 _symmetry_equiv_pos_as_xyz
  1  'x, y, z'
loop_
 _atom_site_type_symbol
 _atom_site_label
 _atom_site_symmetry_multiplicity
 _atom_site_fract_x
 _atom_site_fract_y
 _atom_site_fract_z
 _atom_site_occupancy
  Ca  Ca0  1  0.561917  0.438083  0.248642  1
  Ca  Ca1  1  0.437490  0.562510  0.747636  1
  In  In2  1  0.145942  0.854058  0.553314  1
  In  In3  1  0.851247  0.148753  0.049641  1
  In  In4  1  0.149190  0.850810  0.950114  1
  Ni  Ni5  1  0.284835  0.715165  0.258043  1
  Ni  Ni6  1  0.717193  0.282807  0.745095  1
  Sn  Sn7  1  0.852184  0.147816  0.447514  1
