# generated using pymatgen
data_Ca5LaPb18
_symmetry_space_group_name_H-M   'P 1'
_cell_length_a   7.01870600
_cell_length_b   7.01870540
_cell_length_c   17.37326500
_cell_angle_alpha   90.00000000
_cell_angle_beta   90.00000000
_cell_angle_gamma   120.00000285
_symmetry_Int_Tables_number   1
_chemical_formula_structural   Ca5LaPb18
_chemical_formula_sum   'Ca5 La1 Pb18'
_cell_volume   741.18415780
_cell_formula_units_Z   1
loop_
 _symmetry_equiv_pos_site_id
 _symmetry_equiv_pos_as_xyz
  1  'x, y, z'
loop_
 _atom_site_type_symbol
 _atom_site_label
 _atom_site_symmetry_multiplicity
 _atom_site_fract_x
 _atom_site_fract_y
 _atom_site_fract_z
 _atom_site_occupancy
  Ca  Ca0  1  0.666667  0.333333  0.580987  1
  Ca  Ca1  1  0.666667  0.333333  0.918761  1
  Ca  Ca2  1  0.000000  0.000000  0.080201  1
  Ca  Ca3  1  0.333333  0.666667  0.250555  1
  Ca  Ca4  1  0.333333  0.666667  0.752358  1
  La  La5  1  0.000000  0.000000  0.418402  1
  Pb  Pb6  1  0.001208  0.500603  0.417744  1
  Pb  Pb7  1  0.499397  0.500603  0.417744  1
  Pb  Pb8  1  0.499397  0.998792  0.417744  1
  Pb  Pb9  1  0.658983  0.829491  0.585019  1
  Pb  Pb10  1  0.170509  0.829491  0.585019  1
  Pb  Pb11  1  0.170509  0.341017  0.585019  1
  Pb  Pb12  1  0.668822  0.834411  0.917726  1
  Pb  Pb13  1  0.165589  0.834411  0.917726  1
  Pb  Pb14  1  0.165589  0.331178  0.917726  1
  Pb  Pb15  1  0.003061  0.501532  0.081640  1
  Pb  Pb16  1  0.498468  0.501532  0.081640  1
  Pb  Pb17  1  0.498468  0.996939  0.081640  1
  Pb  Pb18  1  0.341789  0.170896  0.247128  1
  Pb  Pb19  1  0.829104  0.170896  0.247128  1
  Pb  Pb20  1  0.829104  0.658211  0.247128  1
  Pb  Pb21  1  0.328149  0.164074  0.750141  1
  Pb  Pb22  1  0.835926  0.164074  0.750141  1
  Pb  Pb23  1  0.835926  0.671851  0.750141  1
