# generated using pymatgen
data_Ta3Ga2CoB
_symmetry_space_group_name_H-M   'P 1'
_cell_length_a   8.25611717
_cell_length_b   8.25641436
_cell_length_c   8.25695200
_cell_angle_alpha   59.99937300
_cell_angle_beta   59.99806804
_cell_angle_gamma   59.99593777
_symmetry_Int_Tables_number   1
_chemical_formula_structural   Ta3Ga2CoB
_chemical_formula_sum   'Ta12 Ga8 Co4 B4'
_cell_volume   397.97001969
_cell_formula_units_Z   4
loop_
 _symmetry_equiv_pos_site_id
 _symmetry_equiv_pos_as_xyz
  1  'x, y, z'
loop_
 _atom_site_type_symbol
 _atom_site_label
 _atom_site_symmetry_multiplicity
 _atom_site_fract_x
 _atom_site_fract_y
 _atom_site_fract_z
 _atom_site_occupancy
  Ta  Ta0  1  0.554412  0.945587  0.554410  1
  Ta  Ta1  1  0.304415  0.695588  0.695585  1
  Ta  Ta2  1  0.695586  0.304409  0.304413  1
  Ta  Ta3  1  0.304412  0.695586  0.304416  1
  Ta  Ta4  1  0.695588  0.695595  0.304412  1
  Ta  Ta5  1  0.304416  0.304416  0.695583  1
  Ta  Ta6  1  0.554412  0.554405  0.945588  1
  Ta  Ta7  1  0.945585  0.554412  0.554415  1
  Ta  Ta8  1  0.554414  0.945591  0.945587  1
  Ta  Ta9  1  0.945584  0.945584  0.554417  1
  Ta  Ta10  1  0.695588  0.304413  0.695590  1
  Ta  Ta11  1  0.945588  0.554414  0.945584  1
  Ga  Ga12  1  0.916028  0.916022  0.916071  1
  Ga  Ga13  1  0.998113  0.334000  0.333945  1
  Ga  Ga14  1  0.333991  0.998107  0.333953  1
  Ga  Ga15  1  0.333965  0.333980  0.998133  1
  Ga  Ga16  1  0.916009  0.251893  0.916047  1
  Ga  Ga17  1  0.916035  0.916020  0.251867  1
  Ga  Ga18  1  0.251887  0.916000  0.916055  1
  Ga  Ga19  1  0.333972  0.333978  0.333929  1
  Co  Co20  1  0.125000  0.125000  0.125000  1
  Co  Co21  1  0.625000  0.125000  0.125000  1
  Co  Co22  1  0.125000  0.625000  0.125000  1
  Co  Co23  1  0.125000  0.125000  0.625000  1
  B  B24  1  0.625000  0.625000  0.625000  1
  B  B25  1  0.125000  0.625000  0.625000  1
  B  B26  1  0.625000  0.125000  0.625000  1
  B  B27  1  0.625000  0.625000  0.125000  1
