# generated using pymatgen
data_Rb2Zr(BrO3)6
_symmetry_space_group_name_H-M   'P 1'
_cell_length_a   7.90075191
_cell_length_b   7.90075196
_cell_length_c   7.90075082
_cell_angle_alpha   96.35781706
_cell_angle_beta   96.35781869
_cell_angle_gamma   96.35780326
_symmetry_Int_Tables_number   1
_chemical_formula_structural   Rb2Zr(BrO3)6
_chemical_formula_sum   'Rb2 Zr1 Br6 O18'
_cell_volume   483.34027539
_cell_formula_units_Z   1
loop_
 _symmetry_equiv_pos_site_id
 _symmetry_equiv_pos_as_xyz
  1  'x, y, z'
loop_
 _atom_site_type_symbol
 _atom_site_label
 _atom_site_symmetry_multiplicity
 _atom_site_fract_x
 _atom_site_fract_y
 _atom_site_fract_z
 _atom_site_occupancy
  Rb  Rb0  1  0.170684  0.170684  0.170684  1
  Rb  Rb1  1  0.829316  0.829316  0.829316  1
  Zr  Zr2  1  0.500000  0.500000  0.500000  1
  Br  Br3  1  0.708229  0.317905  0.147147  1
  Br  Br4  1  0.682095  0.852853  0.291771  1
  Br  Br5  1  0.147147  0.708229  0.317905  1
  Br  Br6  1  0.852853  0.291771  0.682095  1
  Br  Br7  1  0.291771  0.682095  0.852853  1
  Br  Br8  1  0.317905  0.147147  0.708229  1
  O  O9  1  0.888317  0.360982  0.282790  1
  O  O10  1  0.639018  0.717210  0.111683  1
  O  O11  1  0.717210  0.111683  0.639018  1
  O  O12  1  0.665440  0.711091  0.449672  1
  O  O13  1  0.676943  0.108704  0.082698  1
  O  O14  1  0.449672  0.665440  0.711091  1
  O  O15  1  0.288909  0.550328  0.334560  1
  O  O16  1  0.334560  0.288909  0.550328  1
  O  O17  1  0.108704  0.082698  0.676943  1
  O  O18  1  0.917302  0.323057  0.891296  1
  O  O19  1  0.711091  0.449672  0.665440  1
  O  O20  1  0.111683  0.639018  0.717210  1
  O  O21  1  0.550328  0.334560  0.288909  1
  O  O22  1  0.323057  0.891296  0.917302  1
  O  O23  1  0.891296  0.917302  0.323057  1
  O  O24  1  0.360982  0.282790  0.888317  1
  O  O25  1  0.282790  0.888317  0.360982  1
  O  O26  1  0.082698  0.676943  0.108704  1
