# generated using pymatgen
data_La6Ti2BiSb9
_symmetry_space_group_name_H-M   'P 1'
_cell_length_a   9.57135400
_cell_length_b   9.57135388
_cell_length_c   6.39902000
_cell_angle_alpha   90.00000000
_cell_angle_beta   90.00000000
_cell_angle_gamma   120.00000732
_symmetry_Int_Tables_number   1
_chemical_formula_structural   La6Ti2BiSb9
_chemical_formula_sum   'La6 Ti2 Bi1 Sb9'
_cell_volume   507.68089460
_cell_formula_units_Z   1
loop_
 _symmetry_equiv_pos_site_id
 _symmetry_equiv_pos_as_xyz
  1  'x, y, z'
loop_
 _atom_site_type_symbol
 _atom_site_label
 _atom_site_symmetry_multiplicity
 _atom_site_fract_x
 _atom_site_fract_y
 _atom_site_fract_z
 _atom_site_occupancy
  La  La0  1  0.380310  0.997311  0.752057  1
  La  La1  1  0.380310  0.382998  0.247943  1
  La  La2  1  0.002689  0.619690  0.247943  1
  La  La3  1  0.002689  0.382998  0.752057  1
  La  La4  1  0.617002  0.619690  0.752057  1
  La  La5  1  0.617002  0.997311  0.247943  1
  Ti  Ti6  1  0.000000  0.000000  0.000000  1
  Ti  Ti7  1  0.000000  0.000000  0.500000  1
  Bi  Bi8  1  0.666667  0.333333  0.500000  1
  Sb  Sb9  1  0.333333  0.666667  0.000000  1
  Sb  Sb10  1  0.751595  0.000753  0.749754  1
  Sb  Sb11  1  0.751595  0.750842  0.250246  1
  Sb  Sb12  1  0.333333  0.666667  0.500000  1
  Sb  Sb13  1  0.666667  0.333333  0.000000  1
  Sb  Sb14  1  0.249158  0.000753  0.250246  1
  Sb  Sb15  1  0.249158  0.248405  0.749754  1
  Sb  Sb16  1  0.999247  0.750842  0.749754  1
  Sb  Sb17  1  0.999247  0.248405  0.250246  1
