# generated using pymatgen
data_Er12CdFe4Sn
_symmetry_space_group_name_H-M   'P 1'
_cell_length_a   8.31842543
_cell_length_b   8.31842598
_cell_length_c   8.31842564
_cell_angle_alpha   111.26394512
_cell_angle_beta   110.45242798
_cell_angle_gamma   106.73260998
_symmetry_Int_Tables_number   1
_chemical_formula_structural   Er12CdFe4Sn
_chemical_formula_sum   'Er12 Cd1 Fe4 Sn1'
_cell_volume   442.32175040
_cell_formula_units_Z   1
loop_
 _symmetry_equiv_pos_site_id
 _symmetry_equiv_pos_as_xyz
  1  'x, y, z'
loop_
 _atom_site_type_symbol
 _atom_site_label
 _atom_site_symmetry_multiplicity
 _atom_site_fract_x
 _atom_site_fract_y
 _atom_site_fract_z
 _atom_site_occupancy
  Er  Er0  1  0.310941  0.609764  0.298822  1
  Er  Er1  1  0.689059  0.390237  0.701178  1
  Er  Er2  1  0.310941  0.012117  0.701178  1
  Er  Er3  1  0.689059  0.987883  0.298822  1
  Er  Er4  1  0.440019  0.226121  0.213898  1
  Er  Er5  1  0.559981  0.773879  0.786102  1
  Er  Er6  1  0.012223  0.226121  0.786102  1
  Er  Er7  1  0.987777  0.773879  0.213898  1
  Er  Er8  1  0.189103  0.290766  0.479868  1
  Er  Er9  1  0.810897  0.709234  0.520132  1
  Er  Er10  1  0.189103  0.709234  0.898337  1
  Er  Er11  1  0.810897  0.290766  0.101663  1
  Cd  Cd12  1  0.000000  0.000000  0.000000  1
  Fe  Fe13  1  0.108611  0.608611  0.500000  1
  Fe  Fe14  1  0.891390  0.391390  0.500000  1
  Fe  Fe15  1  0.386080  0.000000  0.386080  1
  Fe  Fe16  1  0.613920  0.000000  0.613920  1
  Sn  Sn17  1  0.500000  0.500000  0.000000  1
