# generated using pymatgen
data_CaFe2(P6Rh)2
_symmetry_space_group_name_H-M   'P 1'
_cell_length_a   6.85246764
_cell_length_b   6.85228708
_cell_length_c   6.89587600
_cell_angle_alpha   109.48398602
_cell_angle_beta   109.39380011
_cell_angle_gamma   109.27168553
_symmetry_Int_Tables_number   1
_chemical_formula_structural   CaFe2(P6Rh)2
_chemical_formula_sum   'Ca1 Fe2 P12 Rh2'
_cell_volume   250.06731515
_cell_formula_units_Z   1
loop_
 _symmetry_equiv_pos_site_id
 _symmetry_equiv_pos_as_xyz
  1  'x, y, z'
loop_
 _atom_site_type_symbol
 _atom_site_label
 _atom_site_symmetry_multiplicity
 _atom_site_fract_x
 _atom_site_fract_y
 _atom_site_fract_z
 _atom_site_occupancy
  Ca  Ca0  1  0.000000  0.000000  0.000000  1
  Fe  Fe1  1  0.000000  0.000000  0.500000  1
  Fe  Fe2  1  0.500000  0.500000  0.500000  1
  P  P3  1  0.500445  0.844615  0.635366  1
  P  P4  1  0.209219  0.865031  0.364625  1
  P  P5  1  0.790781  0.134969  0.635375  1
  P  P6  1  0.149387  0.347906  0.497269  1
  P  P7  1  0.364410  0.499156  0.155360  1
  P  P8  1  0.499555  0.155385  0.364634  1
  P  P9  1  0.140260  0.639190  0.779393  1
  P  P10  1  0.343766  0.209043  0.844612  1
  P  P11  1  0.850613  0.652094  0.502731  1
  P  P12  1  0.656234  0.790957  0.155388  1
  P  P13  1  0.859740  0.360810  0.220607  1
  P  P14  1  0.635590  0.500844  0.844640  1
  Rh  Rh15  1  0.500000  0.000000  0.000000  1
  Rh  Rh16  1  0.000000  0.500000  0.000000  1
