# generated using pymatgen
data_TbSc(Zn4Rh)2
_symmetry_space_group_name_H-M   'P 1'
_cell_length_a   5.07166300
_cell_length_b   5.07166275
_cell_length_c   8.36380800
_cell_angle_alpha   90.00000000
_cell_angle_beta   90.00000000
_cell_angle_gamma   119.99999509
_symmetry_Int_Tables_number   1
_chemical_formula_structural   TbSc(Zn4Rh)2
_chemical_formula_sum   'Tb1 Sc1 Zn8 Rh2'
_cell_volume   186.30969828
_cell_formula_units_Z   1
loop_
 _symmetry_equiv_pos_site_id
 _symmetry_equiv_pos_as_xyz
  1  'x, y, z'
loop_
 _atom_site_type_symbol
 _atom_site_label
 _atom_site_symmetry_multiplicity
 _atom_site_fract_x
 _atom_site_fract_y
 _atom_site_fract_z
 _atom_site_occupancy
  Tb  Tb0  1  0.666667  0.333333  0.437210  1
  Sc  Sc1  1  0.333333  0.666667  0.932317  1
  Zn  Zn2  1  0.000000  0.000000  0.998619  1
  Zn  Zn3  1  0.000000  0.000000  0.502547  1
  Zn  Zn4  1  0.170213  0.340425  0.241041  1
  Zn  Zn5  1  0.829933  0.170067  0.752819  1
  Zn  Zn6  1  0.340132  0.170067  0.752819  1
  Zn  Zn7  1  0.659575  0.829787  0.241041  1
  Zn  Zn8  1  0.170213  0.829787  0.241041  1
  Zn  Zn9  1  0.829933  0.659868  0.752819  1
  Rh  Rh10  1  0.333333  0.666667  0.580338  1
  Rh  Rh11  1  0.666667  0.333333  0.067390  1
