# generated using pymatgen
data_Hg3Pt4PbO14
_symmetry_space_group_name_H-M   'P 1'
_cell_length_a   7.36946774
_cell_length_b   7.27111720
_cell_length_c   7.27111700
_cell_angle_alpha   59.99999638
_cell_angle_beta   60.44049458
_cell_angle_gamma   60.44049046
_symmetry_Int_Tables_number   1
_chemical_formula_structural   Hg3Pt4PbO14
_chemical_formula_sum   'Hg3 Pt4 Pb1 O14'
_cell_volume   277.32120565
_cell_formula_units_Z   1
loop_
 _symmetry_equiv_pos_site_id
 _symmetry_equiv_pos_as_xyz
  1  'x, y, z'
loop_
 _atom_site_type_symbol
 _atom_site_label
 _atom_site_symmetry_multiplicity
 _atom_site_fract_x
 _atom_site_fract_y
 _atom_site_fract_z
 _atom_site_occupancy
  Hg  Hg0  1  0.125000  0.125000  0.125000  1
  Hg  Hg1  1  0.125000  0.625000  0.125000  1
  Hg  Hg2  1  0.125000  0.125000  0.625000  1
  Pt  Pt3  1  0.625000  0.625000  0.125000  1
  Pt  Pt4  1  0.625000  0.625000  0.625000  1
  Pt  Pt5  1  0.625000  0.125000  0.625000  1
  Pt  Pt6  1  0.125000  0.625000  0.625000  1
  Pb  Pb7  1  0.625000  0.125000  0.125000  1
  O  O8  1  0.700993  0.292570  0.292570  1
  O  O9  1  0.700993  0.292570  0.713867  1
  O  O10  1  0.999992  0.000003  0.000003  1
  O  O11  1  0.297964  0.703416  0.295204  1
  O  O12  1  0.700993  0.713867  0.292570  1
  O  O13  1  0.952036  0.546584  0.546584  1
  O  O14  1  0.297964  0.703416  0.703416  1
  O  O15  1  0.250008  0.249997  0.249997  1
  O  O16  1  0.952036  0.546584  0.954796  1
  O  O17  1  0.549007  0.957430  0.536133  1
  O  O18  1  0.549007  0.536133  0.957430  1
  O  O19  1  0.952036  0.954796  0.546584  1
  O  O20  1  0.549007  0.957430  0.957430  1
  O  O21  1  0.297964  0.295204  0.703416  1
