# generated using pymatgen
data_KV2I3O13
_symmetry_space_group_name_H-M   'P 1'
_cell_length_a   8.12556592
_cell_length_b   9.65513348
_cell_length_c   9.65513208
_cell_angle_alpha   65.95464753
_cell_angle_beta   65.11553583
_cell_angle_gamma   65.11553007
_symmetry_Int_Tables_number   1
_chemical_formula_structural   KV2I3O13
_chemical_formula_sum   'K2 V4 I6 O26'
_cell_volume   598.42757488
_cell_formula_units_Z   2
loop_
 _symmetry_equiv_pos_site_id
 _symmetry_equiv_pos_as_xyz
  1  'x, y, z'
loop_
 _atom_site_type_symbol
 _atom_site_label
 _atom_site_symmetry_multiplicity
 _atom_site_fract_x
 _atom_site_fract_y
 _atom_site_fract_z
 _atom_site_occupancy
  K  K0  1  0.597481  0.858326  0.641674  1
  K  K1  1  0.097481  0.141674  0.358326  1
  V  V2  1  0.754377  0.111919  0.145686  1
  V  V3  1  0.254377  0.645686  0.611919  1
  V  V4  1  0.011981  0.888082  0.854314  1
  V  V5  1  0.511981  0.354314  0.388081  1
  I  I6  1  0.122221  0.235913  0.744550  1
  I  I7  1  0.602683  0.755450  0.264087  1
  I  I8  1  0.622221  0.244550  0.735913  1
  I  I9  1  0.885011  0.526965  0.973035  1
  I  I10  1  0.385011  0.473035  0.026965  1
  I  I11  1  0.102683  0.764087  0.255450  1
  O  O12  1  0.456586  0.133411  0.805386  1
  O  O13  1  0.215131  0.734109  0.765891  1
  O  O14  1  0.895383  0.694614  0.366589  1
  O  O15  1  0.480881  0.719465  0.486563  1
  O  O16  1  0.680118  0.594938  0.905062  1
  O  O17  1  0.339360  0.500000  0.500000  1
  O  O18  1  0.603918  0.016126  0.288133  1
  O  O19  1  0.366756  0.474614  0.227934  1
  O  O20  1  0.980881  0.986562  0.219466  1
  O  O21  1  0.908178  0.983874  0.711866  1
  O  O22  1  0.956586  0.305386  0.633411  1
  O  O23  1  0.656041  0.553786  0.249951  1
  O  O24  1  0.959779  0.250050  0.946213  1
  O  O25  1  0.395383  0.866588  0.194614  1
  O  O26  1  0.180118  0.405062  0.094938  1
  O  O27  1  0.069305  0.525386  0.772066  1
  O  O28  1  0.156041  0.749950  0.053787  1
  O  O29  1  0.715131  0.265891  0.234109  1
  O  O30  1  0.186909  0.013437  0.780534  1
  O  O31  1  0.569305  0.272066  0.025386  1
  O  O32  1  0.103918  0.788133  0.516126  1
  O  O33  1  0.408178  0.211866  0.483874  1
  O  O34  1  0.686909  0.280534  0.513437  1
  O  O35  1  0.459779  0.446214  0.750049  1
  O  O36  1  0.866756  0.727934  0.974614  1
  O  O37  1  0.839360  0.000000  0.000000  1
