# generated using pymatgen
data_Pr8Dy12Si15As
_symmetry_space_group_name_H-M   'P 1'
_cell_length_a   7.55317615
_cell_length_b   7.83685713
_cell_length_c   14.86863500
_cell_angle_alpha   90.00000000
_cell_angle_beta   90.00000000
_cell_angle_gamma   90.38338857
_symmetry_Int_Tables_number   1
_chemical_formula_structural   Pr8Dy12Si15As
_chemical_formula_sum   'Pr8 Dy12 Si15 As1'
_cell_volume   880.10182230
_cell_formula_units_Z   1
loop_
 _symmetry_equiv_pos_site_id
 _symmetry_equiv_pos_as_xyz
  1  'x, y, z'
loop_
 _atom_site_type_symbol
 _atom_site_label
 _atom_site_symmetry_multiplicity
 _atom_site_fract_x
 _atom_site_fract_y
 _atom_site_fract_z
 _atom_site_occupancy
  Pr  Pr0  1  0.021664  0.180022  0.402410  1
  Pr  Pr1  1  0.520894  0.320661  0.402094  1
  Pr  Pr2  1  0.483210  0.674540  0.904166  1
  Pr  Pr3  1  0.483210  0.674540  0.595834  1
  Pr  Pr4  1  0.979684  0.821759  0.600472  1
  Pr  Pr5  1  0.979684  0.821759  0.899528  1
  Pr  Pr6  1  0.520894  0.320661  0.097906  1
  Pr  Pr7  1  0.021664  0.180022  0.097590  1
  Dy  Dy8  1  0.319576  0.175969  0.624292  1
  Dy  Dy9  1  0.677865  0.822133  0.376775  1
  Dy  Dy10  1  0.657639  0.990723  0.750000  1
  Dy  Dy11  1  0.176750  0.679845  0.377003  1
  Dy  Dy12  1  0.818380  0.323867  0.877938  1
  Dy  Dy13  1  0.818380  0.323867  0.622062  1
  Dy  Dy14  1  0.844808  0.488474  0.250000  1
  Dy  Dy15  1  0.346439  0.012290  0.250000  1
  Dy  Dy16  1  0.319576  0.175969  0.875708  1
  Dy  Dy17  1  0.176750  0.679845  0.122997  1
  Dy  Dy18  1  0.677865  0.822133  0.123225  1
  Dy  Dy19  1  0.152444  0.504226  0.750000  1
  Si  Si20  1  0.469568  0.611762  0.250000  1
  Si  Si21  1  0.017455  0.129317  0.750000  1
  Si  Si22  1  0.526456  0.385212  0.750000  1
  Si  Si23  1  0.146165  0.469375  0.540082  1
  Si  Si24  1  0.970910  0.889574  0.250000  1
  Si  Si25  1  0.728763  0.120277  0.250000  1
  Si  Si26  1  0.854440  0.533384  0.039756  1
  Si  Si27  1  0.354738  0.968518  0.038889  1
  Si  Si28  1  0.146165  0.469375  0.959918  1
  Si  Si29  1  0.644318  0.030002  0.540093  1
  Si  Si30  1  0.354738  0.968518  0.461111  1
  Si  Si31  1  0.854440  0.533384  0.460244  1
  Si  Si32  1  0.774126  0.623860  0.750000  1
  Si  Si33  1  0.228231  0.380860  0.250000  1
  Si  Si34  1  0.644318  0.030002  0.959907  1
  As  As35  1  0.287791  0.863278  0.750000  1
