# generated using pymatgen
data_TbTmCo6(P3Rh2)2
_symmetry_space_group_name_H-M   'P 1'
_cell_length_a   3.72835800
_cell_length_b   10.46081300
_cell_length_c   12.08114900
_cell_angle_alpha   90.00000000
_cell_angle_beta   90.00000000
_cell_angle_gamma   90.00000000
_symmetry_Int_Tables_number   1
_chemical_formula_structural   TbTmCo6(P3Rh2)2
_chemical_formula_sum   'Tb2 Tm2 Co12 P12 Rh8'
_cell_volume   471.18481539
_cell_formula_units_Z   2
loop_
 _symmetry_equiv_pos_site_id
 _symmetry_equiv_pos_as_xyz
  1  'x, y, z'
loop_
 _atom_site_type_symbol
 _atom_site_label
 _atom_site_symmetry_multiplicity
 _atom_site_fract_x
 _atom_site_fract_y
 _atom_site_fract_z
 _atom_site_occupancy
  Tb  Tb0  1  0.750000  0.416075  0.289034  1
  Tb  Tb1  1  0.750000  0.083925  0.789034  1
  Tm  Tm2  1  0.250000  0.584276  0.710598  1
  Tm  Tm3  1  0.250000  0.915724  0.210598  1
  Co  Co4  1  0.250000  0.220464  0.178590  1
  Co  Co5  1  0.250000  0.279536  0.678590  1
  Co  Co6  1  0.750000  0.778765  0.821677  1
  Co  Co7  1  0.750000  0.721235  0.321677  1
  Co  Co8  1  0.250000  0.881421  0.696944  1
  Co  Co9  1  0.250000  0.618579  0.196944  1
  Co  Co10  1  0.750000  0.116429  0.302587  1
  Co  Co11  1  0.750000  0.383571  0.802587  1
  Co  Co12  1  0.250000  0.464242  0.930068  1
  Co  Co13  1  0.250000  0.035758  0.430068  1
  Co  Co14  1  0.750000  0.538230  0.067721  1
  Co  Co15  1  0.750000  0.961770  0.567721  1
  P  P16  1  0.250000  0.422454  0.109593  1
  P  P17  1  0.250000  0.077546  0.609593  1
  P  P18  1  0.750000  0.578735  0.888093  1
  P  P19  1  0.750000  0.921265  0.388093  1
  P  P20  1  0.250000  0.274851  0.862530  1
  P  P21  1  0.250000  0.225149  0.362530  1
  P  P22  1  0.750000  0.726409  0.138655  1
  P  P23  1  0.750000  0.773591  0.638655  1
  P  P24  1  0.250000  0.604600  0.379504  1
  P  P25  1  0.250000  0.895400  0.879504  1
  P  P26  1  0.750000  0.396174  0.621103  1
  P  P27  1  0.750000  0.103826  0.121103  1
  Rh  Rh28  1  0.250000  0.712372  0.987148  1
  Rh  Rh29  1  0.250000  0.787628  0.487148  1
  Rh  Rh30  1  0.750000  0.288285  0.013384  1
  Rh  Rh31  1  0.750000  0.211715  0.513384  1
  Rh  Rh32  1  0.250000  0.406969  0.480444  1
  Rh  Rh33  1  0.250000  0.093031  0.980444  1
  Rh  Rh34  1  0.750000  0.593559  0.522327  1
  Rh  Rh35  1  0.750000  0.906441  0.022327  1
