# generated using pymatgen
data_CaZn9Cu2
_symmetry_space_group_name_H-M   'P 1'
_cell_length_a   8.23003759
_cell_length_b   8.23003756
_cell_length_c   8.23003772
_cell_angle_alpha   99.52868587
_cell_angle_beta   99.52868357
_cell_angle_gamma   131.98355625
_symmetry_Int_Tables_number   1
_chemical_formula_structural   CaZn9Cu2
_chemical_formula_sum   'Ca2 Zn18 Cu4'
_cell_volume   378.52408598
_cell_formula_units_Z   2
loop_
 _symmetry_equiv_pos_site_id
 _symmetry_equiv_pos_as_xyz
  1  'x, y, z'
loop_
 _atom_site_type_symbol
 _atom_site_label
 _atom_site_symmetry_multiplicity
 _atom_site_fract_x
 _atom_site_fract_y
 _atom_site_fract_z
 _atom_site_occupancy
  Ca  Ca0  1  0.500000  0.500000  0.000000  1
  Ca  Ca1  1  0.750000  0.250000  0.500000  1
  Zn  Zn2  1  0.930295  0.604639  0.917646  1
  Zn  Zn3  1  0.854639  0.436993  0.174344  1
  Zn  Zn4  1  0.262650  0.680295  0.825656  1
  Zn  Zn5  1  0.686993  0.012649  0.082354  1
  Zn  Zn6  1  0.395361  0.069705  0.082354  1
  Zn  Zn7  1  0.987351  0.313007  0.917646  1
  Zn  Zn8  1  0.563007  0.145361  0.825656  1
  Zn  Zn9  1  0.319705  0.737351  0.174344  1
  Zn  Zn10  1  0.319705  0.145361  0.582354  1
  Zn  Zn11  1  0.395361  0.313007  0.325656  1
  Zn  Zn12  1  0.987351  0.069705  0.674344  1
  Zn  Zn13  1  0.563007  0.737350  0.417646  1
  Zn  Zn14  1  0.854639  0.680295  0.417646  1
  Zn  Zn15  1  0.262650  0.436993  0.582354  1
  Zn  Zn16  1  0.686993  0.604639  0.674344  1
  Zn  Zn17  1  0.930295  0.012649  0.325656  1
  Zn  Zn18  1  0.250000  0.750000  0.500000  1
  Zn  Zn19  1  0.000000  0.000000  0.000000  1
  Cu  Cu20  1  0.125000  0.875000  0.250000  1
  Cu  Cu21  1  0.125000  0.375000  0.250000  1
  Cu  Cu22  1  0.125000  0.875000  0.750000  1
  Cu  Cu23  1  0.625000  0.875000  0.750000  1
