# generated using pymatgen
data_Ho7Lu4In9Co4
_symmetry_space_group_name_H-M   'P 1'
_cell_length_a   12.90495185
_cell_length_b   12.90495318
_cell_length_c   3.62446100
_cell_angle_alpha   90.00000000
_cell_angle_beta   90.00000000
_cell_angle_gamma   112.46598454
_symmetry_Int_Tables_number   1
_chemical_formula_structural   Ho7Lu4In9Co4
_chemical_formula_sum   'Ho7 Lu4 In9 Co4'
_cell_volume   557.79973908
_cell_formula_units_Z   1
loop_
 _symmetry_equiv_pos_site_id
 _symmetry_equiv_pos_as_xyz
  1  'x, y, z'
loop_
 _atom_site_type_symbol
 _atom_site_label
 _atom_site_symmetry_multiplicity
 _atom_site_fract_x
 _atom_site_fract_y
 _atom_site_fract_z
 _atom_site_occupancy
  Ho  Ho0  1  0.625510  0.374490  0.000000  1
  Ho  Ho1  1  0.374490  0.625510  0.000000  1
  Ho  Ho2  1  0.838658  0.161342  0.000000  1
  Ho  Ho3  1  0.161342  0.838658  0.000000  1
  Ho  Ho4  1  0.000000  0.000000  0.000000  1
  Ho  Ho5  1  0.313887  0.313887  0.000000  1
  Ho  Ho6  1  0.686113  0.686113  0.000000  1
  Lu  Lu7  1  0.083992  0.418187  0.000000  1
  Lu  Lu8  1  0.916008  0.581813  0.000000  1
  Lu  Lu9  1  0.418187  0.083992  0.000000  1
  Lu  Lu10  1  0.581813  0.916008  0.000000  1
  In  In11  1  0.844563  0.370617  0.500000  1
  In  In12  1  0.155437  0.629383  0.500000  1
  In  In13  1  0.370617  0.844563  0.500000  1
  In  In14  1  0.629383  0.155437  0.500000  1
  In  In15  1  0.077401  0.221786  0.500000  1
  In  In16  1  0.922599  0.778214  0.500000  1
  In  In17  1  0.221786  0.077401  0.500000  1
  In  In18  1  0.778214  0.922599  0.500000  1
  In  In19  1  0.500000  0.500000  0.500000  1
  Co  Co20  1  0.245914  0.449711  0.500000  1
  Co  Co21  1  0.754086  0.550289  0.500000  1
  Co  Co22  1  0.449711  0.245914  0.500000  1
  Co  Co23  1  0.550289  0.754086  0.500000  1
