# generated using pymatgen
data_Ho3Co4P6Ir2Rh3
_symmetry_space_group_name_H-M   'P 1'
_cell_length_a   3.79691800
_cell_length_b   10.94309800
_cell_length_c   12.55190900
_cell_angle_alpha   90.00000000
_cell_angle_beta   90.00000000
_cell_angle_gamma   90.00000000
_symmetry_Int_Tables_number   1
_chemical_formula_structural   Ho3Co4P6Ir2Rh3
_chemical_formula_sum   'Ho6 Co8 P12 Ir4 Rh6'
_cell_volume   521.53239348
_cell_formula_units_Z   2
loop_
 _symmetry_equiv_pos_site_id
 _symmetry_equiv_pos_as_xyz
  1  'x, y, z'
loop_
 _atom_site_type_symbol
 _atom_site_label
 _atom_site_symmetry_multiplicity
 _atom_site_fract_x
 _atom_site_fract_y
 _atom_site_fract_z
 _atom_site_occupancy
  Ho  Ho0  1  0.000000  0.500000  0.518559  1
  Ho  Ho1  1  0.500000  0.000000  0.476516  1
  Ho  Ho2  1  0.500000  0.816065  0.197158  1
  Ho  Ho3  1  0.500000  0.183935  0.197158  1
  Ho  Ho4  1  0.000000  0.680497  0.804744  1
  Ho  Ho5  1  0.000000  0.319503  0.804744  1
  Co  Co6  1  0.000000  0.500000  0.993718  1
  Co  Co7  1  0.500000  0.000000  0.011369  1
  Co  Co8  1  0.000000  0.620469  0.282494  1
  Co  Co9  1  0.000000  0.379531  0.282494  1
  Co  Co10  1  0.500000  0.335172  0.998194  1
  Co  Co11  1  0.500000  0.664828  0.998194  1
  Co  Co12  1  0.000000  0.168655  0.006821  1
  Co  Co13  1  0.000000  0.831345  0.006821  1
  P  P14  1  0.500000  0.316704  0.619127  1
  P  P15  1  0.500000  0.683296  0.619127  1
  P  P16  1  0.000000  0.192079  0.372096  1
  P  P17  1  0.000000  0.807921  0.372096  1
  P  P18  1  0.500000  0.500000  0.894706  1
  P  P19  1  0.000000  0.000000  0.106742  1
  P  P20  1  0.500000  0.840079  0.905329  1
  P  P21  1  0.500000  0.159921  0.905329  1
  P  P22  1  0.000000  0.657174  0.103930  1
  P  P23  1  0.000000  0.342826  0.103930  1
  P  P24  1  0.500000  0.500000  0.342641  1
  P  P25  1  0.000000  0.000000  0.652475  1
  Ir  Ir26  1  0.500000  0.301049  0.424668  1
  Ir  Ir27  1  0.500000  0.698951  0.424668  1
  Ir  Ir28  1  0.500000  0.500000  0.158800  1
  Ir  Ir29  1  0.500000  0.500000  0.708718  1
  Rh  Rh30  1  0.000000  0.205922  0.568849  1
  Rh  Rh31  1  0.000000  0.794078  0.568849  1
  Rh  Rh32  1  0.500000  0.872050  0.716481  1
  Rh  Rh33  1  0.500000  0.127950  0.716481  1
  Rh  Rh34  1  0.000000  0.000000  0.842917  1
  Rh  Rh35  1  0.000000  0.000000  0.293055  1
