# generated using pymatgen
data_Sm(Al3Ni)3
_symmetry_space_group_name_H-M   'P 1'
_cell_length_a   10.12804072
_cell_length_b   10.12804071
_cell_length_c   10.12804020
_cell_angle_alpha   42.34285968
_cell_angle_beta   42.34286004
_cell_angle_gamma   42.34285903
_symmetry_Int_Tables_number   1
_chemical_formula_structural   Sm(Al3Ni)3
_chemical_formula_sum   'Sm2 Al18 Ni6'
_cell_volume   426.65581356
_cell_formula_units_Z   2
loop_
 _symmetry_equiv_pos_site_id
 _symmetry_equiv_pos_as_xyz
  1  'x, y, z'
loop_
 _atom_site_type_symbol
 _atom_site_label
 _atom_site_symmetry_multiplicity
 _atom_site_fract_x
 _atom_site_fract_y
 _atom_site_fract_z
 _atom_site_occupancy
  Sm  Sm0  1  0.166887  0.166887  0.166887  1
  Sm  Sm1  1  0.833113  0.833113  0.833113  1
  Al  Al2  1  0.334463  0.665537  0.000000  1
  Al  Al3  1  0.051664  0.051664  0.051664  1
  Al  Al4  1  0.759861  0.431083  0.102731  1
  Al  Al5  1  0.897270  0.568917  0.240139  1
  Al  Al6  1  0.282040  0.282040  0.282040  1
  Al  Al7  1  0.500000  0.706475  0.293524  1
  Al  Al8  1  0.665537  0.000000  0.334463  1
  Al  Al9  1  0.386658  0.386658  0.386658  1
  Al  Al10  1  0.102730  0.759862  0.431082  1
  Al  Al11  1  0.706476  0.293524  0.500000  1
  Al  Al12  1  0.240138  0.897270  0.568918  1
  Al  Al13  1  0.613342  0.613342  0.613342  1
  Al  Al14  1  0.000000  0.334463  0.665537  1
  Al  Al15  1  0.293525  0.500000  0.706476  1
  Al  Al16  1  0.717960  0.717960  0.717960  1
  Al  Al17  1  0.431083  0.102730  0.759861  1
  Al  Al18  1  0.568917  0.240139  0.897269  1
  Al  Al19  1  0.948336  0.948336  0.948336  1
  Ni  Ni20  1  0.417864  0.756990  0.078425  1
  Ni  Ni21  1  0.582135  0.921576  0.243010  1
  Ni  Ni22  1  0.756990  0.078424  0.417865  1
  Ni  Ni23  1  0.921576  0.243010  0.582135  1
  Ni  Ni24  1  0.078424  0.417865  0.756990  1
  Ni  Ni25  1  0.243010  0.582136  0.921575  1
