# generated using pymatgen
data_Tm2Co9TcP6
_symmetry_space_group_name_H-M   'P 1'
_cell_length_a   3.67083900
_cell_length_b   10.29354800
_cell_length_c   11.74385800
_cell_angle_alpha   90.00000000
_cell_angle_beta   90.00000000
_cell_angle_gamma   90.00000000
_symmetry_Int_Tables_number   1
_chemical_formula_structural   Tm2Co9TcP6
_chemical_formula_sum   'Tm4 Co18 Tc2 P12'
_cell_volume   443.75291865
_cell_formula_units_Z   2
loop_
 _symmetry_equiv_pos_site_id
 _symmetry_equiv_pos_as_xyz
  1  'x, y, z'
loop_
 _atom_site_type_symbol
 _atom_site_label
 _atom_site_symmetry_multiplicity
 _atom_site_fract_x
 _atom_site_fract_y
 _atom_site_fract_z
 _atom_site_occupancy
  Tm  Tm0  1  0.250000  0.582261  0.703086  1
  Tm  Tm1  1  0.250000  0.917739  0.203086  1
  Tm  Tm2  1  0.750000  0.415442  0.295470  1
  Tm  Tm3  1  0.750000  0.084558  0.795470  1
  Co  Co4  1  0.750000  0.283820  0.009330  1
  Co  Co5  1  0.750000  0.216180  0.509330  1
  Co  Co6  1  0.250000  0.406471  0.487500  1
  Co  Co7  1  0.250000  0.093529  0.987500  1
  Co  Co8  1  0.750000  0.591572  0.511771  1
  Co  Co9  1  0.750000  0.908428  0.011771  1
  Co  Co10  1  0.250000  0.220914  0.177152  1
  Co  Co11  1  0.250000  0.279086  0.677152  1
  Co  Co12  1  0.750000  0.778757  0.822465  1
  Co  Co13  1  0.750000  0.721243  0.322465  1
  Co  Co14  1  0.250000  0.885894  0.701590  1
  Co  Co15  1  0.250000  0.614106  0.201590  1
  Co  Co16  1  0.750000  0.116312  0.300659  1
  Co  Co17  1  0.750000  0.383688  0.800659  1
  Co  Co18  1  0.250000  0.464423  0.932308  1
  Co  Co19  1  0.250000  0.035577  0.432308  1
  Co  Co20  1  0.750000  0.533087  0.068784  1
  Co  Co21  1  0.750000  0.966913  0.568784  1
  Tc  Tc22  1  0.250000  0.711170  0.989331  1
  Tc  Tc23  1  0.250000  0.788830  0.489331  1
  P  P24  1  0.250000  0.417494  0.113061  1
  P  P25  1  0.250000  0.082506  0.613061  1
  P  P26  1  0.750000  0.578711  0.886137  1
  P  P27  1  0.750000  0.921289  0.386137  1
  P  P28  1  0.250000  0.268390  0.868609  1
  P  P29  1  0.250000  0.231610  0.368609  1
  P  P30  1  0.750000  0.730681  0.133244  1
  P  P31  1  0.750000  0.769319  0.633244  1
  P  P32  1  0.250000  0.594785  0.390401  1
  P  P33  1  0.250000  0.905215  0.890401  1
  P  P34  1  0.750000  0.398307  0.609104  1
  P  P35  1  0.750000  0.101693  0.109104  1
