# generated using pymatgen
data_AsSe27
_symmetry_space_group_name_H-M   'P 1'
_cell_length_a   16.70644170
_cell_length_b   16.70644207
_cell_length_c   16.70644095
_cell_angle_alpha   118.83672685
_cell_angle_beta   118.83673426
_cell_angle_gamma   118.83673146
_symmetry_Int_Tables_number   1
_chemical_formula_structural   AsSe27
_chemical_formula_sum   'As1 Se27'
_cell_volume   1299.88721745
_cell_formula_units_Z   1
loop_
 _symmetry_equiv_pos_site_id
 _symmetry_equiv_pos_as_xyz
  1  'x, y, z'
loop_
 _atom_site_type_symbol
 _atom_site_label
 _atom_site_symmetry_multiplicity
 _atom_site_fract_x
 _atom_site_fract_y
 _atom_site_fract_z
 _atom_site_occupancy
  As  As0  1  0.929964  0.929964  0.929964  1
  Se  Se1  1  0.812343  0.534534  0.534534  1
  Se  Se2  1  0.534534  0.534534  0.812343  1
  Se  Se3  1  0.534534  0.812343  0.534534  1
  Se  Se4  1  0.235727  0.368413  0.623474  1
  Se  Se5  1  0.362780  0.966452  0.362780  1
  Se  Se6  1  0.362780  0.362780  0.966452  1
  Se  Se7  1  0.966452  0.362780  0.362780  1
  Se  Se8  1  0.114833  0.731615  0.247041  1
  Se  Se9  1  0.247041  0.114833  0.731615  1
  Se  Se10  1  0.731615  0.247041  0.114833  1
  Se  Se11  1  0.731615  0.114833  0.247041  1
  Se  Se12  1  0.247041  0.731615  0.114833  1
  Se  Se13  1  0.114833  0.247041  0.731615  1
  Se  Se14  1  0.356230  0.890666  0.543611  1
  Se  Se15  1  0.543611  0.356230  0.890666  1
  Se  Se16  1  0.890666  0.543611  0.356230  1
  Se  Se17  1  0.890666  0.356230  0.543611  1
  Se  Se18  1  0.543611  0.890666  0.356230  1
  Se  Se19  1  0.356230  0.543611  0.890666  1
  Se  Se20  1  0.235727  0.623474  0.368413  1
  Se  Se21  1  0.368413  0.235727  0.623474  1
  Se  Se22  1  0.623474  0.368413  0.235727  1
  Se  Se23  1  0.623474  0.235727  0.368413  1
  Se  Se24  1  0.368413  0.623474  0.235727  1
  Se  Se25  1  0.843387  0.977650  0.977650  1
  Se  Se26  1  0.977650  0.977650  0.843387  1
  Se  Se27  1  0.977650  0.843387  0.977650  1
