# generated using pymatgen
data_Dy2Ho6Cd2IrRu
_symmetry_space_group_name_H-M   'P 1'
_cell_length_a   9.59935804
_cell_length_b   9.59845472
_cell_length_c   9.63221404
_cell_angle_alpha   59.88980398
_cell_angle_beta   59.88051016
_cell_angle_gamma   59.76687899
_symmetry_Int_Tables_number   1
_chemical_formula_structural   Dy2Ho6Cd2IrRu
_chemical_formula_sum   'Dy4 Ho12 Cd4 Ir2 Ru2'
_cell_volume   625.36020626
_cell_formula_units_Z   2
loop_
 _symmetry_equiv_pos_site_id
 _symmetry_equiv_pos_as_xyz
  1  'x, y, z'
loop_
 _atom_site_type_symbol
 _atom_site_label
 _atom_site_symmetry_multiplicity
 _atom_site_fract_x
 _atom_site_fract_y
 _atom_site_fract_z
 _atom_site_occupancy
  Dy  Dy0  1  0.810349  0.188183  0.812853  1
  Dy  Dy1  1  0.188183  0.810349  0.188615  1
  Dy  Dy2  1  0.811883  0.811883  0.188117  1
  Dy  Dy3  1  0.188888  0.188888  0.811112  1
  Ho  Ho4  1  0.597860  0.597958  0.597896  1
  Ho  Ho5  1  0.597958  0.597860  0.206287  1
  Ho  Ho6  1  0.597100  0.208544  0.597134  1
  Ho  Ho7  1  0.208544  0.597100  0.597224  1
  Ho  Ho8  1  0.062067  0.438168  0.439482  1
  Ho  Ho9  1  0.438168  0.062067  0.060283  1
  Ho  Ho10  1  0.438220  0.062037  0.439527  1
  Ho  Ho11  1  0.062037  0.438220  0.060216  1
  Ho  Ho12  1  0.438113  0.438113  0.061887  1
  Ho  Ho13  1  0.059998  0.059998  0.440002  1
  Ho  Ho14  1  0.188292  0.810233  0.812698  1
  Ho  Ho15  1  0.810233  0.188292  0.188777  1
  Cd  Cd16  1  0.830436  0.830295  0.830625  1
  Cd  Cd17  1  0.830295  0.830436  0.508644  1
  Cd  Cd18  1  0.830362  0.507788  0.830994  1
  Cd  Cd19  1  0.507788  0.830362  0.830858  1
  Ir  Ir20  1  0.393214  0.827074  0.389934  1
  Ir  Ir21  1  0.827074  0.393214  0.389778  1
  Ru  Ru22  1  0.391543  0.391398  0.388122  1
  Ru  Ru23  1  0.391398  0.391543  0.828938  1
