# generated using pymatgen
data_Er6Tm10Cd4Ni3Os
_symmetry_space_group_name_H-M   'P 1'
_cell_length_a   9.48300274
_cell_length_b   9.48300314
_cell_length_c   9.48300321
_cell_angle_alpha   59.41501484
_cell_angle_beta   59.41501713
_cell_angle_gamma   59.41501889
_symmetry_Int_Tables_number   1
_chemical_formula_structural   Er6Tm10Cd4Ni3Os
_chemical_formula_sum   'Er6 Tm10 Cd4 Ni3 Os1'
_cell_volume   594.98085383
_cell_formula_units_Z   1
loop_
 _symmetry_equiv_pos_site_id
 _symmetry_equiv_pos_as_xyz
  1  'x, y, z'
loop_
 _atom_site_type_symbol
 _atom_site_label
 _atom_site_symmetry_multiplicity
 _atom_site_fract_x
 _atom_site_fract_y
 _atom_site_fract_z
 _atom_site_occupancy
  Er  Er0  1  0.935133  0.566344  0.566344  1
  Er  Er1  1  0.557118  0.939796  0.939796  1
  Er  Er2  1  0.566344  0.935133  0.566344  1
  Er  Er3  1  0.939796  0.557118  0.939796  1
  Er  Er4  1  0.566344  0.566344  0.935133  1
  Er  Er5  1  0.939796  0.939796  0.557118  1
  Tm  Tm6  1  0.347093  0.347093  0.347093  1
  Tm  Tm7  1  0.351958  0.351958  0.953800  1
  Tm  Tm8  1  0.351958  0.953800  0.351958  1
  Tm  Tm9  1  0.953800  0.351958  0.351958  1
  Tm  Tm10  1  0.810345  0.187582  0.187582  1
  Tm  Tm11  1  0.185660  0.811611  0.811611  1
  Tm  Tm12  1  0.187582  0.810345  0.187582  1
  Tm  Tm13  1  0.811611  0.185660  0.811611  1
  Tm  Tm14  1  0.187582  0.187582  0.810345  1
  Tm  Tm15  1  0.811611  0.811611  0.185660  1
  Cd  Cd16  1  0.580108  0.580108  0.580108  1
  Cd  Cd17  1  0.579497  0.579497  0.255828  1
  Cd  Cd18  1  0.579497  0.255828  0.579497  1
  Cd  Cd19  1  0.255828  0.579497  0.579497  1
  Ni  Ni20  1  0.141277  0.141277  0.575080  1
  Ni  Ni21  1  0.141277  0.575080  0.141277  1
  Ni  Ni22  1  0.575080  0.141277  0.141277  1
  Os  Os23  1  0.143706  0.143706  0.143706  1
