# generated using pymatgen
data_Na20HfZr(SiAs6)2
_symmetry_space_group_name_H-M   'P 1'
_cell_length_a   7.57592132
_cell_length_b   8.41199255
_cell_length_c   15.93301466
_cell_angle_alpha   58.91187720
_cell_angle_beta   89.96696606
_cell_angle_gamma   89.98158230
_symmetry_Int_Tables_number   1
_chemical_formula_structural   Na20HfZr(SiAs6)2
_chemical_formula_sum   'Na20 Hf1 Zr1 Si2 As12'
_cell_volume   869.55241053
_cell_formula_units_Z   1
loop_
 _symmetry_equiv_pos_site_id
 _symmetry_equiv_pos_as_xyz
  1  'x, y, z'
loop_
 _atom_site_type_symbol
 _atom_site_label
 _atom_site_symmetry_multiplicity
 _atom_site_fract_x
 _atom_site_fract_y
 _atom_site_fract_z
 _atom_site_occupancy
  Na  Na0  1  0.511078  0.560450  0.754309  1
  Na  Na1  1  0.011163  0.439607  0.745635  1
  Na  Na2  1  0.490015  0.438533  0.240017  1
  Na  Na3  1  0.989802  0.561433  0.260206  1
  Na  Na4  1  0.974567  0.254471  0.582846  1
  Na  Na5  1  0.474677  0.745678  0.917033  1
  Na  Na6  1  0.033753  0.756972  0.416294  1
  Na  Na7  1  0.533577  0.242723  0.083661  1
  Na  Na8  1  0.478574  0.078536  0.589569  1
  Na  Na9  1  0.978568  0.921670  0.910350  1
  Na  Na10  1  0.514340  0.919380  0.411329  1
  Na  Na11  1  0.014442  0.080438  0.088683  1
  Na  Na12  1  0.340470  0.159779  0.916339  1
  Na  Na13  1  0.840377  0.840280  0.583577  1
  Na  Na14  1  0.661296  0.849873  0.079972  1
  Na  Na15  1  0.161203  0.150240  0.420136  1
  Na  Na16  1  0.151655  0.835308  0.739363  1
  Na  Na17  1  0.651656  0.164853  0.760530  1
  Na  Na18  1  0.849374  0.163590  0.258609  1
  Na  Na19  1  0.349682  0.836107  0.241610  1
  Hf  Hf20  1  0.635721  0.511276  0.420457  1
  Zr  Zr21  1  0.135972  0.488808  0.079571  1
  Si  Si22  1  0.863769  0.513516  0.917492  1
  Si  Si23  1  0.363927  0.486541  0.582392  1
  As  As24  1  0.242673  0.755800  0.579999  1
  As  As25  1  0.742665  0.244154  0.920003  1
  As  As26  1  0.762242  0.222019  0.422204  1
  As  As27  1  0.263141  0.780134  0.077946  1
  As  As28  1  0.269836  0.194176  0.720688  1
  As  As29  1  0.769805  0.805845  0.779277  1
  As  As30  1  0.737674  0.820935  0.268771  1
  As  As31  1  0.238290  0.176790  0.232468  1
  As  As32  1  0.191388  0.478195  0.920188  1
  As  As33  1  0.691435  0.521821  0.578695  1
  As  As34  1  0.789432  0.523163  0.066036  1
  As  As35  1  0.291761  0.476906  0.433746  1
