# generated using pymatgen
data_CaP2PbO8
_symmetry_space_group_name_H-M   'P 1'
_cell_length_a   4.93477249
_cell_length_b   4.93477305
_cell_length_c   7.41245990
_cell_angle_alpha   90.83458707
_cell_angle_beta   90.83458877
_cell_angle_gamma   66.78272248
_symmetry_Int_Tables_number   1
_chemical_formula_structural   CaP2PbO8
_chemical_formula_sum   'Ca1 P2 Pb1 O8'
_cell_volume   165.86466989
_cell_formula_units_Z   1
loop_
 _symmetry_equiv_pos_site_id
 _symmetry_equiv_pos_as_xyz
  1  'x, y, z'
loop_
 _atom_site_type_symbol
 _atom_site_label
 _atom_site_symmetry_multiplicity
 _atom_site_fract_x
 _atom_site_fract_y
 _atom_site_fract_z
 _atom_site_occupancy
  Ca  Ca0  1  0.000000  0.000000  0.000000  1
  P  P1  1  0.641816  0.641816  0.267455  1
  P  P2  1  0.358183  0.358183  0.732546  1
  Pb  Pb3  1  0.000000  0.000000  0.500000  1
  O  O4  1  0.733364  0.733364  0.093285  1
  O  O5  1  0.766853  0.293017  0.271093  1
  O  O6  1  0.293017  0.766853  0.271093  1
  O  O7  1  0.741531  0.741531  0.447597  1
  O  O8  1  0.258470  0.258470  0.552403  1
  O  O9  1  0.706983  0.233146  0.728907  1
  O  O10  1  0.233146  0.706983  0.728907  1
  O  O11  1  0.266636  0.266636  0.906715  1
