# generated using pymatgen
data_Zr3Np2InF22
_symmetry_space_group_name_H-M   'P 1'
_cell_length_a   8.44122858
_cell_length_b   8.44122914
_cell_length_c   8.47837300
_cell_angle_alpha   124.61412525
_cell_angle_beta   106.34952455
_cell_angle_gamma   98.43681794
_symmetry_Int_Tables_number   1
_chemical_formula_structural   Zr3Np2InF22
_chemical_formula_sum   'Zr3 Np2 In1 F22'
_cell_volume   439.65518314
_cell_formula_units_Z   1
loop_
 _symmetry_equiv_pos_site_id
 _symmetry_equiv_pos_as_xyz
  1  'x, y, z'
loop_
 _atom_site_type_symbol
 _atom_site_label
 _atom_site_symmetry_multiplicity
 _atom_site_fract_x
 _atom_site_fract_y
 _atom_site_fract_z
 _atom_site_occupancy
  Zr  Zr0  1  0.322095  0.367122  0.689217  1
  Zr  Zr1  1  0.178950  0.866546  0.045496  1
  Zr  Zr2  1  0.814808  0.135857  0.950665  1
  Np  Np3  1  0.748731  0.246891  0.493543  1
  Np  Np4  1  0.246652  0.744813  0.493543  1
  In  In5  1  0.681731  0.638493  0.320223  1
  F  F6  1  0.706673  0.910151  0.346673  1
  F  F7  1  0.293217  0.097536  0.653380  1
  F  F8  1  0.555843  0.360164  0.653380  1
  F  F9  1  0.944914  0.600597  0.809088  1
  F  F10  1  0.436522  0.639998  0.346673  1
  F  F11  1  0.058460  0.395242  0.188672  1
  F  F12  1  0.793429  0.130211  0.188672  1
  F  F13  1  0.208491  0.864174  0.809088  1
  F  F14  1  0.496486  0.497013  0.993500  1
  F  F15  1  0.001395  0.002164  0.003559  1
  F  F16  1  0.782841  0.878056  0.660896  1
  F  F17  1  0.220761  0.129703  0.350464  1
  F  F18  1  0.279937  0.631139  0.911076  1
  F  F19  1  0.718793  0.366560  0.085352  1
  F  F20  1  0.965681  0.737951  0.421889  1
  F  F21  1  0.046694  0.262751  0.583654  1
  F  F22  1  0.320904  0.536960  0.583654  1
  F  F23  1  0.174710  0.758715  0.212719  1
  F  F24  1  0.683939  0.456208  0.421889  1
  F  F25  1  0.823832  0.245650  0.785156  1
  F  F26  1  0.539507  0.961324  0.785156  1
  F  F27  1  0.454004  0.038008  0.212719  1
