# generated using pymatgen
data_Y12FeCoI17
_symmetry_space_group_name_H-M   'P 1'
_cell_length_a   9.75641596
_cell_length_b   11.69726457
_cell_length_c   11.71963228
_cell_angle_alpha   93.33774949
_cell_angle_beta   104.84821016
_cell_angle_gamma   114.26458289
_symmetry_Int_Tables_number   1
_chemical_formula_structural   Y12FeCoI17
_chemical_formula_sum   'Y12 Fe1 Co1 I17'
_cell_volume   1158.13927309
_cell_formula_units_Z   1
loop_
 _symmetry_equiv_pos_site_id
 _symmetry_equiv_pos_as_xyz
  1  'x, y, z'
loop_
 _atom_site_type_symbol
 _atom_site_label
 _atom_site_symmetry_multiplicity
 _atom_site_fract_x
 _atom_site_fract_y
 _atom_site_fract_z
 _atom_site_occupancy
  Y  Y0  1  0.050810  0.500923  0.319415  1
  Y  Y1  1  0.993456  0.809436  0.587548  1
  Y  Y2  1  0.654190  0.241964  0.281907  1
  Y  Y3  1  0.006375  0.191245  0.410401  1
  Y  Y4  1  0.218818  0.670440  0.982732  1
  Y  Y5  1  0.254422  0.977279  0.888983  1
  Y  Y6  1  0.347406  0.758039  0.717643  1
  Y  Y7  1  0.947492  0.496780  0.679234  1
  Y  Y8  1  0.747446  0.024716  0.112861  1
  Y  Y9  1  0.143127  0.286756  0.154687  1
  Y  Y10  1  0.781884  0.328566  0.018960  1
  Y  Y11  1  0.855819  0.712901  0.846292  1
  Fe  Fe12  1  0.895860  0.262314  0.214916  1
  Co  Co13  1  0.104137  0.737649  0.784995  1
  I  I14  1  0.784335  0.530510  0.419146  1
  I  I15  1  0.644665  0.420004  0.761377  1
  I  I16  1  0.844617  0.894462  0.329072  1
  I  I17  1  0.329161  0.213391  0.369088  1
  I  I18  1  0.155778  0.103293  0.673703  1
  I  I19  1  0.584115  0.052648  0.841962  1
  I  I20  1  0.758817  0.189322  0.541083  1
  I  I21  1  0.551325  0.709329  0.953314  1
  I  I22  1  0.355993  0.582396  0.236369  1
  I  I23  1  0.216399  0.471497  0.583865  1
  I  I24  1  0.056944  0.368625  0.895802  1
  I  I25  1  0.445884  0.287567  0.043955  1
  I  I26  1  0.999324  0.998699  0.998582  1
  I  I27  1  0.243244  0.813340  0.461622  1
  I  I28  1  0.411519  0.944562  0.155510  1
  I  I29  1  0.671383  0.786993  0.632169  1
  I  I30  1  0.945254  0.634356  0.102807  1
