# generated using pymatgen
data_AcNd(Si2Ir3)2
_symmetry_space_group_name_H-M   'P 1'
_cell_length_a   6.77035265
_cell_length_b   6.77034204
_cell_length_c   6.77035244
_cell_angle_alpha   130.31425092
_cell_angle_beta   114.97134392
_cell_angle_gamma   86.03521274
_symmetry_Int_Tables_number   1
_chemical_formula_structural   AcNd(Si2Ir3)2
_chemical_formula_sum   'Ac1 Nd1 Si4 Ir6'
_cell_volume   204.95951856
_cell_formula_units_Z   1
loop_
 _symmetry_equiv_pos_site_id
 _symmetry_equiv_pos_as_xyz
  1  'x, y, z'
loop_
 _atom_site_type_symbol
 _atom_site_label
 _atom_site_symmetry_multiplicity
 _atom_site_fract_x
 _atom_site_fract_y
 _atom_site_fract_z
 _atom_site_occupancy
  Ac  Ac0  1  0.250000  0.975909  0.725909  1
  Nd  Nd1  1  0.749999  0.030581  0.280582  1
  Si  Si2  1  0.077265  0.282080  0.204815  1
  Si  Si3  1  0.919402  0.716931  0.797529  1
  Si  Si4  1  0.422736  0.627550  0.204815  1
  Si  Si5  1  0.580598  0.378127  0.797528  1
  Ir  Ir6  1  0.502789  0.500295  0.503084  1
  Ir  Ir7  1  0.997211  0.500295  0.997506  1
  Ir  Ir8  1  0.281792  0.999680  0.276228  1
  Ir  Ir9  1  0.723452  0.999680  0.717889  1
  Ir  Ir10  1  0.218210  0.494436  0.717890  1
  Ir  Ir11  1  0.776547  0.494436  0.276227  1
