# generated using pymatgen
data_Tm3Cr(Co4P3)2
_symmetry_space_group_name_H-M   'P 1'
_cell_length_a   3.66929800
_cell_length_b   10.46876900
_cell_length_c   12.11114800
_cell_angle_alpha   90.00000000
_cell_angle_beta   90.00000000
_cell_angle_gamma   90.00000000
_symmetry_Int_Tables_number   1
_chemical_formula_structural   Tm3Cr(Co4P3)2
_chemical_formula_sum   'Tm6 Cr2 Co16 P12'
_cell_volume   465.22592966
_cell_formula_units_Z   2
loop_
 _symmetry_equiv_pos_site_id
 _symmetry_equiv_pos_as_xyz
  1  'x, y, z'
loop_
 _atom_site_type_symbol
 _atom_site_label
 _atom_site_symmetry_multiplicity
 _atom_site_fract_x
 _atom_site_fract_y
 _atom_site_fract_z
 _atom_site_occupancy
  Tm  Tm0  1  0.000000  0.500000  0.523011  1
  Tm  Tm1  1  0.500000  0.000000  0.476989  1
  Tm  Tm2  1  0.500000  0.818254  0.204499  1
  Tm  Tm3  1  0.500000  0.181746  0.204499  1
  Tm  Tm4  1  0.000000  0.681746  0.795501  1
  Tm  Tm5  1  0.000000  0.318254  0.795501  1
  Cr  Cr6  1  0.500000  0.500000  0.156037  1
  Cr  Cr7  1  0.000000  0.000000  0.843963  1
  Co  Co8  1  0.500000  0.500000  0.701622  1
  Co  Co9  1  0.000000  0.000000  0.298378  1
  Co  Co10  1  0.000000  0.500000  0.987011  1
  Co  Co11  1  0.500000  0.000000  0.012989  1
  Co  Co12  1  0.500000  0.332540  0.991851  1
  Co  Co13  1  0.500000  0.667460  0.991851  1
  Co  Co14  1  0.000000  0.167460  0.008149  1
  Co  Co15  1  0.000000  0.832540  0.008149  1
  Co  Co16  1  0.500000  0.296512  0.430947  1
  Co  Co17  1  0.500000  0.703488  0.430947  1
  Co  Co18  1  0.000000  0.203488  0.569053  1
  Co  Co19  1  0.000000  0.796512  0.569053  1
  Co  Co20  1  0.500000  0.878664  0.708193  1
  Co  Co21  1  0.500000  0.121336  0.708193  1
  Co  Co22  1  0.000000  0.621336  0.291807  1
  Co  Co23  1  0.000000  0.378664  0.291807  1
  P  P24  1  0.500000  0.500000  0.880669  1
  P  P25  1  0.000000  0.000000  0.119331  1
  P  P26  1  0.500000  0.500000  0.344554  1
  P  P27  1  0.000000  0.000000  0.655446  1
  P  P28  1  0.500000  0.312543  0.616560  1
  P  P29  1  0.500000  0.687457  0.616560  1
  P  P30  1  0.000000  0.187457  0.383440  1
  P  P31  1  0.000000  0.812543  0.383440  1
  P  P32  1  0.500000  0.847697  0.891080  1
  P  P33  1  0.500000  0.152303  0.891080  1
  P  P34  1  0.000000  0.652303  0.108920  1
  P  P35  1  0.000000  0.347697  0.108920  1
