# generated using pymatgen
data_Cs4Na2DyInP4
_symmetry_space_group_name_H-M   'P 1'
_cell_length_a   9.70048199
_cell_length_b   9.70048195
_cell_length_c   9.70048224
_cell_angle_alpha   137.75117366
_cell_angle_beta   60.31066232
_cell_angle_gamma   139.03105913
_symmetry_Int_Tables_number   1
_chemical_formula_structural   Cs4Na2DyInP4
_chemical_formula_sum   'Cs4 Na2 Dy1 In1 P4'
_cell_volume   398.17768586
_cell_formula_units_Z   1
loop_
 _symmetry_equiv_pos_site_id
 _symmetry_equiv_pos_as_xyz
  1  'x, y, z'
loop_
 _atom_site_type_symbol
 _atom_site_label
 _atom_site_symmetry_multiplicity
 _atom_site_fract_x
 _atom_site_fract_y
 _atom_site_fract_z
 _atom_site_occupancy
  Cs  Cs0  1  0.315337  0.719626  0.049630  1
  Cs  Cs1  1  0.184663  0.234293  0.404288  1
  Cs  Cs2  1  0.830004  0.780374  0.595711  1
  Cs  Cs3  1  0.669996  0.265707  0.950370  1
  Na  Na4  1  0.249999  0.249999  0.000000  1
  Na  Na5  1  0.750000  0.750000  0.000000  1
  Dy  Dy6  1  0.749999  0.249999  0.500000  1
  In  In7  1  0.249999  0.749999  0.500000  1
  P  P8  1  0.917803  0.289253  0.194523  1
  P  P9  1  0.582198  0.776722  0.371450  1
  P  P10  1  0.405270  0.210747  0.628550  1
  P  P11  1  0.094729  0.723278  0.805476  1
