# generated using pymatgen
data_Er7Tm2Lu11Sn16
_symmetry_space_group_name_H-M   'P 1'
_cell_length_a   7.94278691
_cell_length_b   8.06769539
_cell_length_c   15.24674900
_cell_angle_alpha   90.03261892
_cell_angle_beta   90.03976837
_cell_angle_gamma   90.04115404
_symmetry_Int_Tables_number   1
_chemical_formula_structural   Er7Tm2Lu11Sn16
_chemical_formula_sum   'Er7 Tm2 Lu11 Sn16'
_cell_volume   977.01080689
_cell_formula_units_Z   1
loop_
 _symmetry_equiv_pos_site_id
 _symmetry_equiv_pos_as_xyz
  1  'x, y, z'
loop_
 _atom_site_type_symbol
 _atom_site_label
 _atom_site_symmetry_multiplicity
 _atom_site_fract_x
 _atom_site_fract_y
 _atom_site_fract_z
 _atom_site_occupancy
  Er  Er0  1  0.020595  0.178788  0.595626  1
  Er  Er1  1  0.479136  0.678405  0.403893  1
  Er  Er2  1  0.978610  0.822365  0.097157  1
  Er  Er3  1  0.480293  0.677869  0.096185  1
  Er  Er4  1  0.979384  0.821679  0.403525  1
  Er  Er5  1  0.519885  0.321246  0.595341  1
  Er  Er6  1  0.020452  0.178520  0.903819  1
  Tm  Tm7  1  0.866167  0.663070  0.877400  1
  Tm  Tm8  1  0.520860  0.321199  0.904069  1
  Lu  Lu9  1  0.364909  0.837707  0.876149  1
  Lu  Lu10  1  0.865152  0.661838  0.623123  1
  Lu  Lu11  1  0.634810  0.161586  0.376437  1
  Lu  Lu12  1  0.134887  0.337951  0.123653  1
  Lu  Lu13  1  0.633716  0.162029  0.124426  1
  Lu  Lu14  1  0.134598  0.337654  0.376450  1
  Lu  Lu15  1  0.365932  0.838113  0.623016  1
  Lu  Lu16  1  0.196648  0.504666  0.749918  1
  Lu  Lu17  1  0.696201  0.995666  0.749608  1
  Lu  Lu18  1  0.803823  0.495100  0.250271  1
  Lu  Lu19  1  0.303428  0.004496  0.249931  1
  Sn  Sn20  1  0.295952  0.039178  0.041497  1
  Sn  Sn21  1  0.796095  0.460667  0.458364  1
  Sn  Sn22  1  0.704479  0.960591  0.541161  1
  Sn  Sn23  1  0.206785  0.538143  0.958933  1
  Sn  Sn24  1  0.702169  0.963223  0.958689  1
  Sn  Sn25  1  0.203419  0.539472  0.541296  1
  Sn  Sn26  1  0.295965  0.039129  0.458366  1
  Sn  Sn27  1  0.795801  0.459484  0.042323  1
  Sn  Sn28  1  0.562169  0.619474  0.749437  1
  Sn  Sn29  1  0.062382  0.881013  0.749308  1
  Sn  Sn30  1  0.437837  0.380184  0.250609  1
  Sn  Sn31  1  0.937951  0.119880  0.250057  1
  Sn  Sn32  1  0.331307  0.150386  0.749914  1
  Sn  Sn33  1  0.830620  0.349948  0.749749  1
  Sn  Sn34  1  0.668706  0.849234  0.250183  1
  Sn  Sn35  1  0.168878  0.650051  0.250119  1
