# generated using pymatgen
data_Ca12Ge3As5Rh8
_symmetry_space_group_name_H-M   'P 1'
_cell_length_a   5.67503400
_cell_length_b   7.84008522
_cell_length_c   13.56540279
_cell_angle_alpha   90.08599476
_cell_angle_beta   90.00000000
_cell_angle_gamma   90.00000000
_symmetry_Int_Tables_number   1
_chemical_formula_structural   Ca12Ge3As5Rh8
_chemical_formula_sum   'Ca12 Ge3 As5 Rh8'
_cell_volume   603.56139808
_cell_formula_units_Z   1
loop_
 _symmetry_equiv_pos_site_id
 _symmetry_equiv_pos_as_xyz
  1  'x, y, z'
loop_
 _atom_site_type_symbol
 _atom_site_label
 _atom_site_symmetry_multiplicity
 _atom_site_fract_x
 _atom_site_fract_y
 _atom_site_fract_z
 _atom_site_occupancy
  Ca  Ca0  1  0.633443  0.250005  0.251828  1
  Ca  Ca1  1  0.365131  0.749735  0.748746  1
  Ca  Ca2  1  0.365131  0.750265  0.251254  1
  Ca  Ca3  1  0.633443  0.249995  0.748172  1
  Ca  Ca4  1  0.134741  0.389063  0.103198  1
  Ca  Ca5  1  0.864030  0.610072  0.896501  1
  Ca  Ca6  1  0.863956  0.609725  0.602491  1
  Ca  Ca7  1  0.863956  0.890275  0.397509  1
  Ca  Ca8  1  0.135988  0.390466  0.397476  1
  Ca  Ca9  1  0.135988  0.109534  0.602524  1
  Ca  Ca10  1  0.134741  0.110937  0.896802  1
  Ca  Ca11  1  0.864030  0.889928  0.103499  1
  Ge  Ge12  1  0.384185  0.750000  0.000000  1
  Ge  Ge13  1  0.380436  0.750000  0.500000  1
  Ge  Ge14  1  0.618718  0.250000  0.500000  1
  As  As15  1  0.145547  0.099689  0.249092  1
  As  As16  1  0.853509  0.899601  0.750385  1
  As  As17  1  0.853509  0.600399  0.249615  1
  As  As18  1  0.145547  0.400311  0.750908  1
  As  As19  1  0.622572  0.250000  0.000000  1
  Rh  Rh20  1  0.372961  0.030115  0.086994  1
  Rh  Rh21  1  0.627399  0.970803  0.910791  1
  Rh  Rh22  1  0.627995  0.971748  0.588814  1
  Rh  Rh23  1  0.627995  0.528252  0.411186  1
  Rh  Rh24  1  0.372344  0.028460  0.410916  1
  Rh  Rh25  1  0.372344  0.471540  0.589084  1
  Rh  Rh26  1  0.372961  0.469885  0.913006  1
  Rh  Rh27  1  0.627399  0.529197  0.089209  1
