# generated using pymatgen
data_MgSi4NiRh5
_symmetry_space_group_name_H-M   'P 1'
_cell_length_a   7.13633100
_cell_length_b   6.99470330
_cell_length_c   3.61317700
_cell_angle_alpha   90.00000000
_cell_angle_beta   90.00000000
_cell_angle_gamma   120.67207988
_symmetry_Int_Tables_number   1
_chemical_formula_structural   MgSi4NiRh5
_chemical_formula_sum   'Mg1 Si4 Ni1 Rh5'
_cell_volume   155.12541294
_cell_formula_units_Z   1
loop_
 _symmetry_equiv_pos_site_id
 _symmetry_equiv_pos_as_xyz
  1  'x, y, z'
loop_
 _atom_site_type_symbol
 _atom_site_label
 _atom_site_symmetry_multiplicity
 _atom_site_fract_x
 _atom_site_fract_y
 _atom_site_fract_z
 _atom_site_occupancy
  Mg  Mg0  1  0.000012  0.000025  0.000000  1
  Si  Si1  1  0.798854  0.198254  0.500000  1
  Si  Si2  1  0.399400  0.198254  0.500000  1
  Si  Si3  1  0.332453  0.664906  0.000000  1
  Si  Si4  1  0.805646  0.611293  0.500000  1
  Ni  Ni5  1  0.533925  0.067851  0.000000  1
  Rh  Rh6  1  0.201249  0.812278  0.500000  1
  Rh  Rh7  1  0.189515  0.379030  0.500000  1
  Rh  Rh8  1  0.927538  0.461250  0.000000  1
  Rh  Rh9  1  0.533712  0.461250  0.000000  1
  Rh  Rh10  1  0.611029  0.812278  0.500000  1
