# generated using pymatgen
data_Pr2AsP(RhO)2
_symmetry_space_group_name_H-M   'P 1'
_cell_length_a   4.10198200
_cell_length_b   4.10198200
_cell_length_c   8.44631500
_cell_angle_alpha   90.00000000
_cell_angle_beta   90.00000000
_cell_angle_gamma   90.00000000
_symmetry_Int_Tables_number   1
_chemical_formula_structural   Pr2AsP(RhO)2
_chemical_formula_sum   'Pr2 As1 P1 Rh2 O2'
_cell_volume   142.11986122
_cell_formula_units_Z   1
loop_
 _symmetry_equiv_pos_site_id
 _symmetry_equiv_pos_as_xyz
  1  'x, y, z'
loop_
 _atom_site_type_symbol
 _atom_site_label
 _atom_site_symmetry_multiplicity
 _atom_site_fract_x
 _atom_site_fract_y
 _atom_site_fract_z
 _atom_site_occupancy
  Pr  Pr0  1  0.250002  0.250002  0.136233  1
  Pr  Pr1  1  0.750000  0.750000  0.855132  1
  As  As2  1  0.750000  0.750000  0.345401  1
  P  P3  1  0.250002  0.250002  0.646463  1
  Rh  Rh4  1  0.750000  0.250003  0.511433  1
  Rh  Rh5  1  0.250003  0.750000  0.511433  1
  O  O6  1  0.750000  0.250003  0.996951  1
  O  O7  1  0.250003  0.750000  0.996951  1
