# generated using pymatgen
data_Yb2Al4Au3
_symmetry_space_group_name_H-M   'P 1'
_cell_length_a   14.03401700
_cell_length_b   14.03401791
_cell_length_c   4.19885000
_cell_angle_alpha   90.00000000
_cell_angle_beta   90.00000000
_cell_angle_gamma   120.00000021
_symmetry_Int_Tables_number   1
_chemical_formula_structural   Yb2Al4Au3
_chemical_formula_sum   'Yb8 Al16 Au12'
_cell_volume   716.18466162
_cell_formula_units_Z   4
loop_
 _symmetry_equiv_pos_site_id
 _symmetry_equiv_pos_as_xyz
  1  'x, y, z'
loop_
 _atom_site_type_symbol
 _atom_site_label
 _atom_site_symmetry_multiplicity
 _atom_site_fract_x
 _atom_site_fract_y
 _atom_site_fract_z
 _atom_site_occupancy
  Yb  Yb0  1  0.450842  0.000000  0.000000  1
  Yb  Yb1  1  0.000000  0.450842  0.000000  1
  Yb  Yb2  1  0.549158  0.549158  0.000000  1
  Yb  Yb3  1  0.333333  0.666667  0.000000  1
  Yb  Yb4  1  0.666667  0.333333  0.000000  1
  Yb  Yb5  1  0.820863  0.000000  0.500000  1
  Yb  Yb6  1  0.000000  0.820863  0.500000  1
  Yb  Yb7  1  0.179137  0.179137  0.500000  1
  Al  Al8  1  0.184866  0.382659  0.000000  1
  Al  Al9  1  0.617341  0.802209  0.000000  1
  Al  Al10  1  0.382659  0.184866  0.000000  1
  Al  Al11  1  0.197791  0.815134  0.000000  1
  Al  Al12  1  0.802209  0.617341  0.000000  1
  Al  Al13  1  0.815134  0.197791  0.000000  1
  Al  Al14  1  0.281988  0.000000  0.500000  1
  Al  Al15  1  0.000000  0.281988  0.500000  1
  Al  Al16  1  0.718012  0.718012  0.500000  1
  Al  Al17  1  0.347983  0.468069  0.500000  1
  Al  Al18  1  0.531931  0.879915  0.500000  1
  Al  Al19  1  0.468069  0.347983  0.500000  1
  Al  Al20  1  0.120085  0.652017  0.500000  1
  Al  Al21  1  0.879915  0.531931  0.500000  1
  Al  Al22  1  0.652017  0.120085  0.500000  1
  Al  Al23  1  0.000000  0.000000  0.000000  1
  Au  Au24  1  0.173527  0.492328  0.500000  1
  Au  Au25  1  0.507672  0.681199  0.500000  1
  Au  Au26  1  0.492328  0.173527  0.500000  1
  Au  Au27  1  0.318801  0.826473  0.500000  1
  Au  Au28  1  0.681199  0.507672  0.500000  1
  Au  Au29  1  0.826473  0.318801  0.500000  1
  Au  Au30  1  0.180160  0.000000  0.000000  1
  Au  Au31  1  0.000000  0.180160  0.000000  1
  Au  Au32  1  0.819840  0.819840  0.000000  1
  Au  Au33  1  0.654603  0.000000  0.000000  1
  Au  Au34  1  0.000000  0.654603  0.000000  1
  Au  Au35  1  0.345397  0.345397  0.000000  1
