# generated using pymatgen
data_Ta12Ga8Co3TcC4
_symmetry_space_group_name_H-M   'P 1'
_cell_length_a   8.22643741
_cell_length_b   8.21804759
_cell_length_c   8.21804700
_cell_angle_alpha   59.99999833
_cell_angle_beta   60.03372936
_cell_angle_gamma   60.03373301
_symmetry_Int_Tables_number   1
_chemical_formula_structural   Ta12Ga8Co3TcC4
_chemical_formula_sum   'Ta12 Ga8 Co3 Tc1 C4'
_cell_volume   393.05678958
_cell_formula_units_Z   1
loop_
 _symmetry_equiv_pos_site_id
 _symmetry_equiv_pos_as_xyz
  1  'x, y, z'
loop_
 _atom_site_type_symbol
 _atom_site_label
 _atom_site_symmetry_multiplicity
 _atom_site_fract_x
 _atom_site_fract_y
 _atom_site_fract_z
 _atom_site_occupancy
  Ta  Ta0  1  0.563266  0.942965  0.550805  1
  Ta  Ta1  1  0.310448  0.690113  0.690113  1
  Ta  Ta2  1  0.686734  0.307035  0.307035  1
  Ta  Ta3  1  0.310448  0.690113  0.309326  1
  Ta  Ta4  1  0.686734  0.699195  0.307035  1
  Ta  Ta5  1  0.310448  0.309326  0.690113  1
  Ta  Ta6  1  0.563266  0.550805  0.942965  1
  Ta  Ta7  1  0.939552  0.559887  0.559887  1
  Ta  Ta8  1  0.563266  0.942965  0.942965  1
  Ta  Ta9  1  0.939552  0.940674  0.559887  1
  Ta  Ta10  1  0.686734  0.307035  0.699195  1
  Ta  Ta11  1  0.939552  0.559887  0.940674  1
  Ga  Ga12  1  0.926558  0.911144  0.911144  1
  Ga  Ga13  1  0.994620  0.335126  0.335126  1
  Ga  Ga14  1  0.323442  0.998845  0.338856  1
  Ga  Ga15  1  0.323442  0.338856  0.998845  1
  Ga  Ga16  1  0.926558  0.251155  0.911144  1
  Ga  Ga17  1  0.926558  0.911144  0.251155  1
  Ga  Ga18  1  0.255380  0.914874  0.914874  1
  Ga  Ga19  1  0.323442  0.338856  0.338856  1
  Co  Co20  1  0.125000  0.125000  0.125000  1
  Co  Co21  1  0.125000  0.625000  0.125000  1
  Co  Co22  1  0.125000  0.125000  0.625000  1
  Tc  Tc23  1  0.625000  0.125000  0.125000  1
  C  C24  1  0.625000  0.625000  0.625000  1
  C  C25  1  0.125000  0.625000  0.625000  1
  C  C26  1  0.625000  0.125000  0.625000  1
  C  C27  1  0.625000  0.625000  0.125000  1
