# generated using pymatgen
data_Sc4Ni3OsRu4
_symmetry_space_group_name_H-M   'P 1'
_cell_length_a   5.06996408
_cell_length_b   4.98585568
_cell_length_c   8.49163000
_cell_angle_alpha   90.00000000
_cell_angle_beta   90.00000000
_cell_angle_gamma   119.21720996
_symmetry_Int_Tables_number   1
_chemical_formula_structural   Sc4Ni3OsRu4
_chemical_formula_sum   'Sc4 Ni3 Os1 Ru4'
_cell_volume   187.34331264
_cell_formula_units_Z   1
loop_
 _symmetry_equiv_pos_site_id
 _symmetry_equiv_pos_as_xyz
  1  'x, y, z'
loop_
 _atom_site_type_symbol
 _atom_site_label
 _atom_site_symmetry_multiplicity
 _atom_site_fract_x
 _atom_site_fract_y
 _atom_site_fract_z
 _atom_site_occupancy
  Sc  Sc0  1  0.327052  0.665057  0.435802  1
  Sc  Sc1  1  0.661900  0.332218  0.566879  1
  Sc  Sc2  1  0.661900  0.332218  0.933121  1
  Sc  Sc3  1  0.327052  0.665057  0.064198  1
  Ni  Ni4  1  0.179550  0.345241  0.750000  1
  Ni  Ni5  1  0.179521  0.834813  0.750000  1
  Ni  Ni6  1  0.339426  0.162944  0.250000  1
  Os  Os7  1  0.833052  0.167712  0.250000  1
  Ru  Ru8  1  0.830491  0.653816  0.250000  1
  Ru  Ru9  1  0.668233  0.835190  0.750000  1
  Ru  Ru10  1  0.995910  0.002868  0.995887  1
  Ru  Ru11  1  0.995910  0.002868  0.504113  1
