# generated using pymatgen
data_NdSm(Si2Rh3)2
_symmetry_space_group_name_H-M   'P 1'
_cell_length_a   6.68297000
_cell_length_b   6.68297105
_cell_length_c   6.68297029
_cell_angle_alpha   130.34460253
_cell_angle_beta   114.75786469
_cell_angle_gamma   86.20609494
_symmetry_Int_Tables_number   1
_chemical_formula_structural   NdSm(Si2Rh3)2
_chemical_formula_sum   'Nd1 Sm1 Si4 Rh6'
_cell_volume   197.31335045
_cell_formula_units_Z   1
loop_
 _symmetry_equiv_pos_site_id
 _symmetry_equiv_pos_as_xyz
  1  'x, y, z'
loop_
 _atom_site_type_symbol
 _atom_site_label
 _atom_site_symmetry_multiplicity
 _atom_site_fract_x
 _atom_site_fract_y
 _atom_site_fract_z
 _atom_site_occupancy
  Nd  Nd0  1  0.250000  0.963782  0.713782  1
  Sm  Sm1  1  0.750000  0.037930  0.287930  1
  Si  Si2  1  0.578932  0.382487  0.803555  1
  Si  Si3  1  0.421796  0.618812  0.197016  1
  Si  Si4  1  0.078204  0.275220  0.197016  1
  Si  Si5  1  0.921068  0.724623  0.803555  1
  Rh  Rh6  1  0.214849  0.498897  0.714763  1
  Rh  Rh7  1  0.715866  0.999913  0.714763  1
  Rh  Rh8  1  0.784134  0.498897  0.284047  1
  Rh  Rh9  1  0.285151  0.999913  0.284047  1
  Rh  Rh10  1  0.500634  0.499763  0.500397  1
  Rh  Rh11  1  0.999366  0.499763  0.999128  1
