# generated using pymatgen
data_Y2Nb3Co9As4P3
_symmetry_space_group_name_H-M   'P 1'
_cell_length_a   3.78338500
_cell_length_b   9.44939601
_cell_length_c   9.46571905
_cell_angle_alpha   120.17602216
_cell_angle_beta   90.00000000
_cell_angle_gamma   90.00000000
_symmetry_Int_Tables_number   1
_chemical_formula_structural   Y2Nb3Co9As4P3
_chemical_formula_sum   'Y2 Nb3 Co9 As4 P3'
_cell_volume   292.54708734
_cell_formula_units_Z   1
loop_
 _symmetry_equiv_pos_site_id
 _symmetry_equiv_pos_as_xyz
  1  'x, y, z'
loop_
 _atom_site_type_symbol
 _atom_site_label
 _atom_site_symmetry_multiplicity
 _atom_site_fract_x
 _atom_site_fract_y
 _atom_site_fract_z
 _atom_site_occupancy
  Y  Y0  1  0.000000  0.667319  0.334033  1
  Y  Y1  1  0.500000  0.333576  0.660412  1
  Nb  Nb2  1  0.500000  0.778019  0.896531  1
  Nb  Nb3  1  0.500000  0.118187  0.223208  1
  Nb  Nb4  1  0.500000  0.100084  0.882512  1
  Co  Co5  1  0.000000  0.573265  0.928624  1
  Co  Co6  1  0.000000  0.365057  0.436735  1
  Co  Co7  1  0.000000  0.059544  0.623303  1
  Co  Co8  1  0.000000  0.886284  0.161510  1
  Co  Co9  1  0.000000  0.275209  0.121040  1
  Co  Co10  1  0.000000  0.836971  0.723879  1
  Co  Co11  1  0.500000  0.958112  0.387627  1
  Co  Co12  1  0.500000  0.436179  0.052376  1
  Co  Co13  1  0.500000  0.611687  0.571149  1
  As  As14  1  0.500000  0.710372  0.124233  1
  As  As15  1  0.500000  0.415641  0.292927  1
  As  As16  1  0.500000  0.875972  0.585455  1
  As  As17  1  0.000000  0.307402  0.885621  1
  P  P18  1  0.000000  0.000035  0.000710  1
  P  P19  1  0.000000  0.582184  0.690977  1
  P  P20  1  0.000000  0.108901  0.417137  1
