# generated using pymatgen
data_DyY3Al4Pt3Rh
_symmetry_space_group_name_H-M   'P 1'
_cell_length_a   4.42910100
_cell_length_b   6.85918138
_cell_length_c   7.79174642
_cell_angle_alpha   90.03783411
_cell_angle_beta   90.00000000
_cell_angle_gamma   90.00000000
_symmetry_Int_Tables_number   1
_chemical_formula_structural   DyY3Al4Pt3Rh
_chemical_formula_sum   'Dy1 Y3 Al4 Pt3 Rh1'
_cell_volume   236.71325996
_cell_formula_units_Z   1
loop_
 _symmetry_equiv_pos_site_id
 _symmetry_equiv_pos_as_xyz
  1  'x, y, z'
loop_
 _atom_site_type_symbol
 _atom_site_label
 _atom_site_symmetry_multiplicity
 _atom_site_fract_x
 _atom_site_fract_y
 _atom_site_fract_z
 _atom_site_occupancy
  Dy  Dy0  1  0.250000  0.966643  0.322087  1
  Y  Y1  1  0.250000  0.469355  0.180737  1
  Y  Y2  1  0.750000  0.530539  0.817298  1
  Y  Y3  1  0.750000  0.027584  0.680939  1
  Al  Al4  1  0.250000  0.853982  0.936731  1
  Al  Al5  1  0.750000  0.145280  0.062715  1
  Al  Al6  1  0.750000  0.644270  0.438203  1
  Al  Al7  1  0.250000  0.360211  0.563509  1
  Pt  Pt8  1  0.750000  0.271628  0.381529  1
  Pt  Pt9  1  0.750000  0.773144  0.119001  1
  Pt  Pt10  1  0.250000  0.225456  0.881842  1
  Rh  Rh11  1  0.250000  0.731907  0.615408  1
