# generated using pymatgen
data_Ca3TbSn5SbRh7
_symmetry_space_group_name_H-M   'P 1'
_cell_length_a   7.63870357
_cell_length_b   7.63870414
_cell_length_c   7.63751701
_cell_angle_alpha   109.35424944
_cell_angle_beta   109.35425152
_cell_angle_gamma   109.56135824
_symmetry_Int_Tables_number   1
_chemical_formula_structural   Ca3TbSn5SbRh7
_chemical_formula_sum   'Ca3 Tb1 Sn5 Sb1 Rh7'
_cell_volume   343.66601714
_cell_formula_units_Z   1
loop_
 _symmetry_equiv_pos_site_id
 _symmetry_equiv_pos_as_xyz
  1  'x, y, z'
loop_
 _atom_site_type_symbol
 _atom_site_label
 _atom_site_symmetry_multiplicity
 _atom_site_fract_x
 _atom_site_fract_y
 _atom_site_fract_z
 _atom_site_occupancy
  Ca  Ca0  1  0.495598  0.999936  0.999882  1
  Ca  Ca1  1  0.999936  0.495598  0.999882  1
  Ca  Ca2  1  0.000108  0.000108  0.504233  1
  Tb  Tb3  1  0.495088  0.495088  0.496172  1
  Sn  Sn4  1  0.992876  0.313179  0.316294  1
  Sn  Sn5  1  0.680200  0.999702  0.683029  1
  Sn  Sn6  1  0.691260  0.691260  0.004086  1
  Sn  Sn7  1  0.999702  0.680200  0.683029  1
  Sn  Sn8  1  0.313179  0.992876  0.316294  1
  Sb  Sb9  1  0.322895  0.322895  0.997293  1
  Rh  Rh10  1  0.007501  0.007501  0.000403  1
  Rh  Rh11  1  0.501584  0.748145  0.252029  1
  Rh  Rh12  1  0.748145  0.501584  0.252029  1
  Rh  Rh13  1  0.250350  0.743912  0.500010  1
  Rh  Rh14  1  0.255823  0.501846  0.747665  1
  Rh  Rh15  1  0.501846  0.255823  0.747665  1
  Rh  Rh16  1  0.743912  0.250350  0.500010  1
