# generated using pymatgen
data_Sc12GaNi4Pb
_symmetry_space_group_name_H-M   'P 1'
_cell_length_a   7.82159744
_cell_length_b   7.81293968
_cell_length_c   7.82159747
_cell_angle_alpha   111.18323464
_cell_angle_beta   110.57502244
_cell_angle_gamma   106.73426049
_symmetry_Int_Tables_number   1
_chemical_formula_structural   Sc12GaNi4Pb
_chemical_formula_sum   'Sc12 Ga1 Ni4 Pb1'
_cell_volume   367.10362399
_cell_formula_units_Z   1
loop_
 _symmetry_equiv_pos_site_id
 _symmetry_equiv_pos_as_xyz
  1  'x, y, z'
loop_
 _atom_site_type_symbol
 _atom_site_label
 _atom_site_symmetry_multiplicity
 _atom_site_fract_x
 _atom_site_fract_y
 _atom_site_fract_z
 _atom_site_occupancy
  Sc  Sc0  1  0.435249  0.229643  0.205619  1
  Sc  Sc1  1  0.564751  0.770357  0.794381  1
  Sc  Sc2  1  0.024024  0.229643  0.794393  1
  Sc  Sc3  1  0.975976  0.770357  0.205607  1
  Sc  Sc4  1  0.181846  0.283390  0.465214  1
  Sc  Sc5  1  0.818154  0.716610  0.534786  1
  Sc  Sc6  1  0.181826  0.716610  0.898456  1
  Sc  Sc7  1  0.818174  0.283390  0.101544  1
  Sc  Sc8  1  0.322084  0.624507  0.302424  1
  Sc  Sc9  1  0.677916  0.375493  0.697576  1
  Sc  Sc10  1  0.322118  0.019780  0.697662  1
  Sc  Sc11  1  0.677882  0.980220  0.302338  1
  Ga  Ga12  1  0.000000  0.000000  0.000000  1
  Ni  Ni13  1  0.351074  0.000000  0.351074  1
  Ni  Ni14  1  0.648926  0.000000  0.648926  1
  Ni  Ni15  1  0.127400  0.628055  0.500655  1
  Ni  Ni16  1  0.872600  0.371945  0.499345  1
  Pb  Pb17  1  0.500000  0.500000  0.000000  1
