# generated using pymatgen
data_CeSm3(Si4Mo3)2
_symmetry_space_group_name_H-M   'P 1'
_cell_length_a   6.98917383
_cell_length_b   6.86633937
_cell_length_c   6.94918866
_cell_angle_alpha   70.72340581
_cell_angle_beta   89.88817640
_cell_angle_gamma   89.92159721
_symmetry_Int_Tables_number   1
_chemical_formula_structural   CeSm3(Si4Mo3)2
_chemical_formula_sum   'Ce1 Sm3 Si8 Mo6'
_cell_volume   314.79422290
_cell_formula_units_Z   1
loop_
 _symmetry_equiv_pos_site_id
 _symmetry_equiv_pos_as_xyz
  1  'x, y, z'
loop_
 _atom_site_type_symbol
 _atom_site_label
 _atom_site_symmetry_multiplicity
 _atom_site_fract_x
 _atom_site_fract_y
 _atom_site_fract_z
 _atom_site_occupancy
  Ce  Ce0  1  0.832913  0.939446  0.189292  1
  Sm  Sm1  1  0.667245  0.438953  0.189644  1
  Sm  Sm2  1  0.167010  0.060749  0.811186  1
  Sm  Sm3  1  0.332625  0.561613  0.810118  1
  Si  Si4  1  0.867017  0.129332  0.506237  1
  Si  Si5  1  0.366606  0.371095  0.493458  1
  Si  Si6  1  0.132082  0.870273  0.494064  1
  Si  Si7  1  0.633603  0.629003  0.505857  1
  Si  Si8  1  0.547142  0.872288  0.907385  1
  Si  Si9  1  0.046934  0.626956  0.093970  1
  Si  Si10  1  0.952950  0.373969  0.906137  1
  Si  Si11  1  0.452584  0.127101  0.093470  1
  Mo  Mo12  1  0.664213  0.249159  0.748733  1
  Mo  Mo13  1  0.161019  0.246664  0.253139  1
  Mo  Mo14  1  0.502408  0.000032  0.497882  1
  Mo  Mo15  1  0.997608  0.503792  0.496668  1
  Mo  Mo16  1  0.338536  0.748878  0.253778  1
  Mo  Mo17  1  0.837507  0.750699  0.748980  1
