# generated using pymatgen
data_Tm2Tc5(PRh)7
_symmetry_space_group_name_H-M   'P 1'
_cell_length_a   3.92918400
_cell_length_b   9.44394680
_cell_length_c   9.46473875
_cell_angle_alpha   119.62423304
_cell_angle_beta   89.99899828
_cell_angle_gamma   90.00333864
_symmetry_Int_Tables_number   1
_chemical_formula_structural   Tm2Tc5(PRh)7
_chemical_formula_sum   'Tm2 Tc5 P7 Rh7'
_cell_volume   305.30026745
_cell_formula_units_Z   1
loop_
 _symmetry_equiv_pos_site_id
 _symmetry_equiv_pos_as_xyz
  1  'x, y, z'
loop_
 _atom_site_type_symbol
 _atom_site_label
 _atom_site_symmetry_multiplicity
 _atom_site_fract_x
 _atom_site_fract_y
 _atom_site_fract_z
 _atom_site_occupancy
  Tm  Tm0  1  0.261990  0.669244  0.333508  1
  Tm  Tm1  1  0.762104  0.333284  0.666534  1
  Tc  Tc2  1  0.761876  0.093402  0.870127  1
  Tc  Tc3  1  0.761842  0.128388  0.220050  1
  Tc  Tc4  1  0.761814  0.780149  0.907082  1
  Tc  Tc5  1  0.261837  0.885499  0.160731  1
  Tc  Tc6  1  0.261900  0.840046  0.725284  1
  P  P7  1  0.261529  0.996385  0.997551  1
  P  P8  1  0.761957  0.880071  0.598235  1
  P  P9  1  0.761879  0.403520  0.286277  1
  P  P10  1  0.761804  0.718700  0.122204  1
  P  P11  1  0.262149  0.116493  0.411033  1
  P  P12  1  0.262047  0.587089  0.704202  1
  P  P13  1  0.261923  0.294418  0.880696  1
  Rh  Rh14  1  0.261842  0.273266  0.112568  1
  Rh  Rh15  1  0.761962  0.608093  0.555170  1
  Rh  Rh16  1  0.761818  0.444900  0.056866  1
  Rh  Rh17  1  0.761941  0.945673  0.392356  1
  Rh  Rh18  1  0.261972  0.369048  0.436990  1
  Rh  Rh19  1  0.261849  0.561160  0.931035  1
  Rh  Rh20  1  0.261966  0.071170  0.631504  1
