# generated using pymatgen
data_CaMnAl2(PO5)2
_symmetry_space_group_name_H-M   'P 1'
_cell_length_a   5.50296605
_cell_length_b   7.34098854
_cell_length_c   10.93155702
_cell_angle_alpha   90.00244810
_cell_angle_beta   89.99324055
_cell_angle_gamma   93.77405308
_symmetry_Int_Tables_number   1
_chemical_formula_structural   CaMnAl2(PO5)2
_chemical_formula_sum   'Ca2 Mn2 Al4 P4 O20'
_cell_volume   440.64673638
_cell_formula_units_Z   2
loop_
 _symmetry_equiv_pos_site_id
 _symmetry_equiv_pos_as_xyz
  1  'x, y, z'
loop_
 _atom_site_type_symbol
 _atom_site_label
 _atom_site_symmetry_multiplicity
 _atom_site_fract_x
 _atom_site_fract_y
 _atom_site_fract_z
 _atom_site_occupancy
  Ca  Ca0  1  0.604208  0.033151  0.354315  1
  Ca  Ca1  1  0.895755  0.966919  0.854285  1
  Mn  Mn2  1  0.394145  0.966249  0.650999  1
  Mn  Mn3  1  0.106418  0.033738  0.150730  1
  Al  Al4  1  0.606208  0.356635  0.165954  1
  Al  Al5  1  0.893727  0.643333  0.665958  1
  Al  Al6  1  0.394089  0.642016  0.825793  1
  Al  Al7  1  0.105733  0.357993  0.325756  1
  P  P8  1  0.086952  0.768951  0.409797  1
  P  P9  1  0.413005  0.231087  0.909809  1
  P  P10  1  0.918703  0.228584  0.592398  1
  P  P11  1  0.581409  0.771396  0.092390  1
  O  O12  1  0.855349  0.265055  0.239546  1
  O  O13  1  0.644482  0.734956  0.739534  1
  O  O14  1  0.146016  0.737142  0.752358  1
  O  O15  1  0.353803  0.262818  0.252267  1
  O  O16  1  0.140289  0.596322  0.336049  1
  O  O17  1  0.359517  0.403706  0.836126  1
  O  O18  1  0.876352  0.404438  0.664928  1
  O  O19  1  0.623613  0.595511  0.164854  1
  O  O20  1  0.602100  0.281944  0.011971  1
  O  O21  1  0.897851  0.718025  0.511991  1
  O  O22  1  0.424130  0.724402  0.977391  1
  O  O23  1  0.075866  0.275678  0.477361  1
  O  O24  1  0.975354  0.907371  0.323358  1
  O  O25  1  0.524653  0.092685  0.823359  1
  O  O26  1  0.056767  0.098992  0.673909  1
  O  O27  1  0.443420  0.900988  0.173967  1
  O  O28  1  0.670449  0.135685  0.552560  1
  O  O29  1  0.829693  0.864242  0.052505  1
  O  O30  1  0.323878  0.853289  0.468899  1
  O  O31  1  0.176067  0.146700  0.968883  1
