# generated using pymatgen
data_La6PrTh(ZnRh)8
_symmetry_space_group_name_H-M   'P 1'
_cell_length_a   4.04062500
_cell_length_b   7.46616860
_cell_length_c   16.69015928
_cell_angle_alpha   89.54611648
_cell_angle_beta   90.00000000
_cell_angle_gamma   90.00000000
_symmetry_Int_Tables_number   1
_chemical_formula_structural   La6PrTh(ZnRh)8
_chemical_formula_sum   'La6 Pr1 Th1 Zn8 Rh8'
_cell_volume   503.49271791
_cell_formula_units_Z   1
loop_
 _symmetry_equiv_pos_site_id
 _symmetry_equiv_pos_as_xyz
  1  'x, y, z'
loop_
 _atom_site_type_symbol
 _atom_site_label
 _atom_site_symmetry_multiplicity
 _atom_site_fract_x
 _atom_site_fract_y
 _atom_site_fract_z
 _atom_site_occupancy
  La  La0  1  0.750000  0.948993  0.283288  1
  La  La1  1  0.750000  0.825869  0.059330  1
  La  La2  1  0.250000  0.048980  0.715998  1
  La  La3  1  0.250000  0.171731  0.939717  1
  La  La4  1  0.250000  0.548573  0.783719  1
  La  La5  1  0.250000  0.673537  0.560034  1
  Pr  Pr6  1  0.750000  0.332457  0.440643  1
  Th  Th7  1  0.750000  0.448006  0.217152  1
  Zn  Zn8  1  0.250000  0.004113  0.440526  1
  Zn  Zn9  1  0.750000  0.501690  0.940778  1
  Zn  Zn10  1  0.750000  0.005306  0.558967  1
  Zn  Zn11  1  0.250000  0.624342  0.351810  1
  Zn  Zn12  1  0.750000  0.375364  0.650090  1
  Zn  Zn13  1  0.750000  0.875921  0.849918  1
  Zn  Zn14  1  0.250000  0.496262  0.058309  1
  Zn  Zn15  1  0.250000  0.122659  0.150598  1
  Rh  Rh16  1  0.250000  0.245204  0.566441  1
  Rh  Rh17  1  0.750000  0.259284  0.068660  1
  Rh  Rh18  1  0.250000  0.252777  0.306155  1
  Rh  Rh19  1  0.750000  0.255297  0.814822  1
  Rh  Rh20  1  0.250000  0.745223  0.934369  1
  Rh  Rh21  1  0.750000  0.756419  0.686477  1
  Rh  Rh22  1  0.750000  0.761737  0.434364  1
  Rh  Rh23  1  0.250000  0.720258  0.187836  1
