# generated using pymatgen
data_NdLu3(WN3)4
_symmetry_space_group_name_H-M   'P 1'
_cell_length_a   7.27537025
_cell_length_b   7.27537137
_cell_length_c   6.21202716
_cell_angle_alpha   74.30434641
_cell_angle_beta   74.30435401
_cell_angle_gamma   81.87032905
_symmetry_Int_Tables_number   1
_chemical_formula_structural   NdLu3(WN3)4
_chemical_formula_sum   'Nd1 Lu3 W4 N12'
_cell_volume   303.91815103
_cell_formula_units_Z   1
loop_
 _symmetry_equiv_pos_site_id
 _symmetry_equiv_pos_as_xyz
  1  'x, y, z'
loop_
 _atom_site_type_symbol
 _atom_site_label
 _atom_site_symmetry_multiplicity
 _atom_site_fract_x
 _atom_site_fract_y
 _atom_site_fract_z
 _atom_site_occupancy
  Nd  Nd0  1  0.704418  0.295582  0.750000  1
  Lu  Lu1  1  0.090432  0.909568  0.750000  1
  Lu  Lu2  1  0.288384  0.711616  0.250000  1
  Lu  Lu3  1  0.916458  0.083542  0.250000  1
  W  W4  1  0.380012  0.198345  0.242581  1
  W  W5  1  0.617075  0.801710  0.762892  1
  W  W6  1  0.801655  0.619988  0.257419  1
  W  W7  1  0.198290  0.382925  0.737108  1
  N  N8  1  0.626401  0.107721  0.173680  1
  N  N9  1  0.354459  0.367863  0.443469  1
  N  N10  1  0.007697  0.209616  0.853606  1
  N  N11  1  0.371902  0.897060  0.838677  1
  N  N12  1  0.790384  0.992303  0.646394  1
  N  N13  1  0.102940  0.628098  0.661323  1
  N  N14  1  0.892279  0.373599  0.326320  1
  N  N15  1  0.645712  0.643871  0.548027  1
  N  N16  1  0.632137  0.645541  0.056531  1
  N  N17  1  0.356129  0.354288  0.951973  1
  N  N18  1  0.004705  0.781472  0.147923  1
  N  N19  1  0.218528  0.995295  0.352077  1
