# generated using pymatgen
data_Lu6Co16TcP12W
_symmetry_space_group_name_H-M   'P 1'
_cell_length_a   3.68935900
_cell_length_b   10.47354300
_cell_length_c   12.13819200
_cell_angle_alpha   90.00000000
_cell_angle_beta   90.00000000
_cell_angle_gamma   90.00000000
_symmetry_Int_Tables_number   1
_chemical_formula_structural   Lu6Co16TcP12W
_chemical_formula_sum   'Lu6 Co16 Tc1 P12 W1'
_cell_volume   469.02775165
_cell_formula_units_Z   1
loop_
 _symmetry_equiv_pos_site_id
 _symmetry_equiv_pos_as_xyz
  1  'x, y, z'
loop_
 _atom_site_type_symbol
 _atom_site_label
 _atom_site_symmetry_multiplicity
 _atom_site_fract_x
 _atom_site_fract_y
 _atom_site_fract_z
 _atom_site_occupancy
  Lu  Lu0  1  0.000000  0.500000  0.525913  1
  Lu  Lu1  1  0.500000  0.000000  0.473732  1
  Lu  Lu2  1  0.500000  0.819247  0.204923  1
  Lu  Lu3  1  0.500000  0.180753  0.204923  1
  Lu  Lu4  1  0.000000  0.679682  0.794040  1
  Lu  Lu5  1  0.000000  0.320318  0.794040  1
  Co  Co6  1  0.500000  0.500000  0.701706  1
  Co  Co7  1  0.000000  0.000000  0.299266  1
  Co  Co8  1  0.000000  0.500000  0.987353  1
  Co  Co9  1  0.500000  0.000000  0.013103  1
  Co  Co10  1  0.500000  0.333183  0.989575  1
  Co  Co11  1  0.500000  0.666817  0.989575  1
  Co  Co12  1  0.000000  0.168141  0.011273  1
  Co  Co13  1  0.000000  0.831859  0.011273  1
  Co  Co14  1  0.500000  0.297583  0.431405  1
  Co  Co15  1  0.500000  0.702417  0.431405  1
  Co  Co16  1  0.000000  0.203809  0.567577  1
  Co  Co17  1  0.000000  0.796191  0.567577  1
  Co  Co18  1  0.500000  0.876600  0.706684  1
  Co  Co19  1  0.500000  0.123400  0.706684  1
  Co  Co20  1  0.000000  0.622101  0.293740  1
  Co  Co21  1  0.000000  0.377899  0.293740  1
  Tc  Tc22  1  0.500000  0.500000  0.157914  1
  P  P23  1  0.500000  0.500000  0.879357  1
  P  P24  1  0.000000  0.000000  0.121604  1
  P  P25  1  0.500000  0.500000  0.351021  1
  P  P26  1  0.000000  0.000000  0.646539  1
  P  P27  1  0.500000  0.313527  0.616338  1
  P  P28  1  0.500000  0.686473  0.616338  1
  P  P29  1  0.000000  0.186843  0.382885  1
  P  P30  1  0.000000  0.813157  0.382885  1
  P  P31  1  0.500000  0.842797  0.892083  1
  P  P32  1  0.500000  0.157203  0.892083  1
  P  P33  1  0.000000  0.654438  0.109494  1
  P  P34  1  0.000000  0.345562  0.109494  1
  W  W35  1  0.000000  0.000000  0.842461  1
