# generated using pymatgen
data_Y3Sc2AlSi2Ir
_symmetry_space_group_name_H-M   'P 1'
_cell_length_a   7.26132482
_cell_length_b   7.25023105
_cell_length_c   4.24311600
_cell_angle_alpha   90.00000000
_cell_angle_beta   90.00000000
_cell_angle_gamma   119.94947330
_symmetry_Int_Tables_number   1
_chemical_formula_structural   Y3Sc2AlSi2Ir
_chemical_formula_sum   'Y3 Sc2 Al1 Si2 Ir1'
_cell_volume   193.55488650
_cell_formula_units_Z   1
loop_
 _symmetry_equiv_pos_site_id
 _symmetry_equiv_pos_as_xyz
  1  'x, y, z'
loop_
 _atom_site_type_symbol
 _atom_site_label
 _atom_site_symmetry_multiplicity
 _atom_site_fract_x
 _atom_site_fract_y
 _atom_site_fract_z
 _atom_site_occupancy
  Y  Y0  1  0.407838  0.992153  0.000000  1
  Y  Y1  1  0.000000  0.425899  0.000000  1
  Y  Y2  1  0.592162  0.584314  0.000000  1
  Sc  Sc3  1  0.765160  0.999745  0.500001  1
  Sc  Sc4  1  0.234841  0.234586  0.500001  1
  Al  Al5  1  0.000000  0.757806  0.500001  1
  Si  Si6  1  0.673319  0.341867  0.500001  1
  Si  Si7  1  0.326680  0.668547  0.500001  1
  Ir  Ir8  1  0.000000  0.995083  0.000000  1
