# generated using pymatgen
data_Y3Hf5Ir4
_symmetry_space_group_name_H-M   'P 1'
_cell_length_a   4.56302800
_cell_length_b   6.94360435
_cell_length_c   8.23534137
_cell_angle_alpha   89.42575341
_cell_angle_beta   90.00000000
_cell_angle_gamma   90.00000000
_symmetry_Int_Tables_number   1
_chemical_formula_structural   Y3Hf5Ir4
_chemical_formula_sum   'Y3 Hf5 Ir4'
_cell_volume   260.91430687
_cell_formula_units_Z   1
loop_
 _symmetry_equiv_pos_site_id
 _symmetry_equiv_pos_as_xyz
  1  'x, y, z'
loop_
 _atom_site_type_symbol
 _atom_site_label
 _atom_site_symmetry_multiplicity
 _atom_site_fract_x
 _atom_site_fract_y
 _atom_site_fract_z
 _atom_site_occupancy
  Y  Y0  1  0.250000  0.486241  0.179974  1
  Y  Y1  1  0.750000  0.011524  0.676860  1
  Y  Y2  1  0.750000  0.514075  0.822299  1
  Hf  Hf3  1  0.250000  0.986627  0.328329  1
  Hf  Hf4  1  0.250000  0.353874  0.571308  1
  Hf  Hf5  1  0.250000  0.860413  0.931693  1
  Hf  Hf6  1  0.750000  0.645743  0.422452  1
  Hf  Hf7  1  0.750000  0.141304  0.080678  1
  Ir  Ir8  1  0.250000  0.235448  0.907073  1
  Ir  Ir9  1  0.250000  0.740331  0.579979  1
  Ir  Ir10  1  0.750000  0.769225  0.095820  1
  Ir  Ir11  1  0.750000  0.255193  0.403533  1
