# generated using pymatgen
data_Lu6ReBiTe
_symmetry_space_group_name_H-M   'P 1'
_cell_length_a   8.09165200
_cell_length_b   8.09165147
_cell_length_c   4.22809800
_cell_angle_alpha   90.00000000
_cell_angle_beta   90.00000000
_cell_angle_gamma   120.00001035
_symmetry_Int_Tables_number   1
_chemical_formula_structural   Lu6ReBiTe
_chemical_formula_sum   'Lu6 Re1 Bi1 Te1'
_cell_volume   239.74524162
_cell_formula_units_Z   1
loop_
 _symmetry_equiv_pos_site_id
 _symmetry_equiv_pos_as_xyz
  1  'x, y, z'
loop_
 _atom_site_type_symbol
 _atom_site_label
 _atom_site_symmetry_multiplicity
 _atom_site_fract_x
 _atom_site_fract_y
 _atom_site_fract_z
 _atom_site_occupancy
  Lu  Lu0  1  0.233395  0.999265  0.500000  1
  Lu  Lu1  1  0.000735  0.234130  0.500000  1
  Lu  Lu2  1  0.765870  0.766605  0.500000  1
  Lu  Lu3  1  0.619272  0.999333  0.000000  1
  Lu  Lu4  1  0.000667  0.619940  0.000000  1
  Lu  Lu5  1  0.380060  0.380728  0.000000  1
  Re  Re6  1  0.000000  0.000000  0.000000  1
  Bi  Bi7  1  0.666667  0.333333  0.500000  1
  Te  Te8  1  0.333333  0.666667  0.500000  1
