# generated using pymatgen
data_Sr3TiGeS7
_symmetry_space_group_name_H-M   'P 1'
_cell_length_a   10.68539800
_cell_length_b   10.68538196
_cell_length_c   6.16553600
_cell_angle_alpha   90.00000000
_cell_angle_beta   90.00000000
_cell_angle_gamma   119.99930536
_symmetry_Int_Tables_number   1
_chemical_formula_structural   Sr3TiGeS7
_chemical_formula_sum   'Sr6 Ti2 Ge2 S14'
_cell_volume   609.65657731
_cell_formula_units_Z   2
loop_
 _symmetry_equiv_pos_site_id
 _symmetry_equiv_pos_as_xyz
  1  'x, y, z'
loop_
 _atom_site_type_symbol
 _atom_site_label
 _atom_site_symmetry_multiplicity
 _atom_site_fract_x
 _atom_site_fract_y
 _atom_site_fract_z
 _atom_site_occupancy
  Sr  Sr0  1  0.132141  0.386664  0.238523  1
  Sr  Sr1  1  0.254516  0.867860  0.238520  1
  Sr  Sr2  1  0.613351  0.745495  0.238509  1
  Sr  Sr3  1  0.867860  0.613336  0.738522  1
  Sr  Sr4  1  0.745484  0.132140  0.738519  1
  Sr  Sr5  1  0.386648  0.254504  0.738510  1
  Ti  Ti6  1  0.000006  0.999994  0.991071  1
  Ti  Ti7  1  0.999994  0.000006  0.491072  1
  Ge  Ge8  1  0.666666  0.333332  0.163101  1
  Ge  Ge9  1  0.333334  0.666668  0.663100  1
  S  S10  1  0.333336  0.666666  0.020985  1
  S  S11  1  0.516210  0.115145  0.024568  1
  S  S12  1  0.598933  0.483788  0.024556  1
  S  S13  1  0.884853  0.401055  0.024563  1
  S  S14  1  0.207542  0.136612  0.289207  1
  S  S15  1  0.863388  0.070940  0.289201  1
  S  S16  1  0.929068  0.792461  0.289199  1
  S  S17  1  0.666665  0.333333  0.520984  1
  S  S18  1  0.483790  0.884854  0.524567  1
  S  S19  1  0.401067  0.516213  0.524555  1
  S  S20  1  0.115146  0.598944  0.524564  1
  S  S21  1  0.792458  0.863389  0.789208  1
  S  S22  1  0.070932  0.207540  0.789198  1
  S  S23  1  0.136612  0.929061  0.789200  1
