# generated using pymatgen
data_Y5RhSeO12
_symmetry_space_group_name_H-M   'P 1'
_cell_length_a   6.87630944
_cell_length_b   6.87630890
_cell_length_c   7.23032405
_cell_angle_alpha   74.46952546
_cell_angle_beta   74.46952680
_cell_angle_gamma   50.67339479
_symmetry_Int_Tables_number   1
_chemical_formula_structural   Y5RhSeO12
_chemical_formula_sum   'Y5 Rh1 Se1 O12'
_cell_volume   252.58565161
_cell_formula_units_Z   1
loop_
 _symmetry_equiv_pos_site_id
 _symmetry_equiv_pos_as_xyz
  1  'x, y, z'
loop_
 _atom_site_type_symbol
 _atom_site_label
 _atom_site_symmetry_multiplicity
 _atom_site_fract_x
 _atom_site_fract_y
 _atom_site_fract_z
 _atom_site_occupancy
  Y  Y0  1  0.484946  0.515054  0.500000  1
  Y  Y1  1  0.192293  0.195617  0.166306  1
  Y  Y2  1  0.804383  0.807707  0.833694  1
  Y  Y3  1  0.787985  0.812726  0.359048  1
  Y  Y4  1  0.187274  0.212015  0.640952  1
  Rh  Rh5  1  0.757148  0.242852  0.000000  1
  Se  Se6  1  0.265205  0.734795  0.000000  1
  O  O7  1  0.028223  0.972076  0.178099  1
  O  O8  1  0.027924  0.971777  0.821901  1
  O  O9  1  0.485727  0.512621  0.824905  1
  O  O10  1  0.487379  0.514273  0.175095  1
  O  O11  1  0.587934  0.105893  0.577412  1
  O  O12  1  0.894107  0.412066  0.422588  1
  O  O13  1  0.391900  0.907339  0.432056  1
  O  O14  1  0.398589  0.908208  0.919477  1
  O  O15  1  0.091792  0.601411  0.080523  1
  O  O16  1  0.594190  0.059660  0.082967  1
  O  O17  1  0.940340  0.405810  0.917033  1
  O  O18  1  0.092661  0.608100  0.567944  1
