# generated using pymatgen
data_Dy8Sc12Sn7Sb9
_symmetry_space_group_name_H-M   'P 1'
_cell_length_a   7.82075640
_cell_length_b   7.84211287
_cell_length_c   14.69759600
_cell_angle_alpha   90.00000000
_cell_angle_beta   90.00000000
_cell_angle_gamma   90.21383360
_symmetry_Int_Tables_number   1
_chemical_formula_structural   Dy8Sc12Sn7Sb9
_chemical_formula_sum   'Dy8 Sc12 Sn7 Sb9'
_cell_volume   901.41572213
_cell_formula_units_Z   1
loop_
 _symmetry_equiv_pos_site_id
 _symmetry_equiv_pos_as_xyz
  1  'x, y, z'
loop_
 _atom_site_type_symbol
 _atom_site_label
 _atom_site_symmetry_multiplicity
 _atom_site_fract_x
 _atom_site_fract_y
 _atom_site_fract_z
 _atom_site_occupancy
  Dy  Dy0  1  0.979994  0.182605  0.095074  1
  Dy  Dy1  1  0.020584  0.816834  0.903751  1
  Dy  Dy2  1  0.519574  0.682093  0.906520  1
  Dy  Dy3  1  0.020584  0.816834  0.596249  1
  Dy  Dy4  1  0.480430  0.318113  0.094671  1
  Dy  Dy5  1  0.979994  0.182605  0.404926  1
  Dy  Dy6  1  0.480430  0.318113  0.405329  1
  Dy  Dy7  1  0.519574  0.682093  0.593480  1
  Sc  Sc8  1  0.179048  0.497235  0.750000  1
  Sc  Sc9  1  0.820321  0.503643  0.250000  1
  Sc  Sc10  1  0.320063  0.997043  0.250000  1
  Sc  Sc11  1  0.680532  0.002921  0.750000  1
  Sc  Sc12  1  0.354555  0.153312  0.626894  1
  Sc  Sc13  1  0.644617  0.845345  0.373058  1
  Sc  Sc14  1  0.145578  0.655007  0.373523  1
  Sc  Sc15  1  0.644617  0.845345  0.126942  1
  Sc  Sc16  1  0.852685  0.347377  0.625669  1
  Sc  Sc17  1  0.354555  0.153312  0.873106  1
  Sc  Sc18  1  0.852685  0.347377  0.874331  1
  Sc  Sc19  1  0.145578  0.655007  0.126477  1
  Sn  Sn20  1  0.955029  0.875572  0.250000  1
  Sn  Sn21  1  0.454916  0.624075  0.250000  1
  Sn  Sn22  1  0.544098  0.376183  0.750000  1
  Sn  Sn23  1  0.328590  0.843493  0.750000  1
  Sn  Sn24  1  0.676916  0.152757  0.250000  1
  Sn  Sn25  1  0.177508  0.348071  0.250000  1
  Sn  Sn26  1  0.820672  0.651311  0.750000  1
  Sb  Sb27  1  0.044426  0.127332  0.750000  1
  Sb  Sb28  1  0.202727  0.452824  0.544292  1
  Sb  Sb29  1  0.797559  0.546886  0.455873  1
  Sb  Sb30  1  0.296066  0.954446  0.456713  1
  Sb  Sb31  1  0.797559  0.546886  0.044127  1
  Sb  Sb32  1  0.704571  0.045337  0.544304  1
  Sb  Sb33  1  0.202727  0.452824  0.955708  1
  Sb  Sb34  1  0.704571  0.045337  0.955696  1
  Sb  Sb35  1  0.296066  0.954446  0.043287  1
