# generated using pymatgen
data_Tb3TmTcPt3F28
_symmetry_space_group_name_H-M   'P 1'
_cell_length_a   5.56201973
_cell_length_b   8.90754016
_cell_length_c   12.00887743
_cell_angle_alpha   62.42334385
_cell_angle_beta   90.09112162
_cell_angle_gamma   90.03109164
_symmetry_Int_Tables_number   1
_chemical_formula_structural   Tb3TmTcPt3F28
_chemical_formula_sum   'Tb3 Tm1 Tc1 Pt3 F28'
_cell_volume   527.37328249
_cell_formula_units_Z   1
loop_
 _symmetry_equiv_pos_site_id
 _symmetry_equiv_pos_as_xyz
  1  'x, y, z'
loop_
 _atom_site_type_symbol
 _atom_site_label
 _atom_site_symmetry_multiplicity
 _atom_site_fract_x
 _atom_site_fract_y
 _atom_site_fract_z
 _atom_site_occupancy
  Tb  Tb0  1  0.739671  0.186362  0.735752  1
  Tb  Tb1  1  0.760520  0.182937  0.236607  1
  Tb  Tb2  1  0.239628  0.813156  0.763823  1
  Tm  Tm3  1  0.260151  0.812829  0.265333  1
  Tc  Tc4  1  0.758034  0.726525  0.045114  1
  Pt  Pt5  1  0.241859  0.271452  0.958238  1
  Pt  Pt6  1  0.258795  0.274478  0.456356  1
  Pt  Pt7  1  0.741132  0.727156  0.541467  1
  F  F8  1  0.937393  0.704315  0.413844  1
  F  F9  1  0.063860  0.296908  0.584228  1
  F  F10  1  0.437353  0.295427  0.085616  1
  F  F11  1  0.553517  0.708495  0.919169  1
  F  F12  1  0.475139  0.731152  0.141594  1
  F  F13  1  0.533533  0.272753  0.865764  1
  F  F14  1  0.966908  0.273922  0.363901  1
  F  F15  1  0.033098  0.725978  0.634194  1
  F  F16  1  0.961288  0.747045  0.172555  1
  F  F17  1  0.052375  0.254890  0.825701  1
  F  F18  1  0.449123  0.257336  0.324404  1
  F  F19  1  0.552236  0.743566  0.674230  1
  F  F20  1  0.771032  0.478731  0.141785  1
  F  F21  1  0.229005  0.519622  0.858691  1
  F  F22  1  0.270010  0.523773  0.357746  1
  F  F23  1  0.728518  0.479096  0.640885  1
  F  F24  1  0.942566  0.279028  0.043564  1
  F  F25  1  0.050427  0.720532  0.954716  1
  F  F26  1  0.440717  0.720695  0.455191  1
  F  F27  1  0.558128  0.281580  0.541867  1
  F  F28  1  0.743402  0.975585  0.448956  1
  F  F29  1  0.258065  0.026100  0.549366  1
  F  F30  1  0.243086  0.022584  0.052733  1
  F  F31  1  0.758671  0.973365  0.947492  1
  F  F32  1  0.578605  0.966667  0.233370  1
  F  F33  1  0.412749  0.031394  0.767399  1
  F  F34  1  0.086288  0.024845  0.268076  1
  F  F35  1  0.913120  0.969727  0.730271  1
