# generated using pymatgen
data_ErTm5Co16(P6Ru)2
_symmetry_space_group_name_H-M   'P 1'
_cell_length_a   3.68359700
_cell_length_b   10.48418500
_cell_length_c   12.18344000
_cell_angle_alpha   90.00000000
_cell_angle_beta   90.00000000
_cell_angle_gamma   90.00000000
_symmetry_Int_Tables_number   1
_chemical_formula_structural   ErTm5Co16(P6Ru)2
_chemical_formula_sum   'Er1 Tm5 Co16 P12 Ru2'
_cell_volume   470.51851232
_cell_formula_units_Z   1
loop_
 _symmetry_equiv_pos_site_id
 _symmetry_equiv_pos_as_xyz
  1  'x, y, z'
loop_
 _atom_site_type_symbol
 _atom_site_label
 _atom_site_symmetry_multiplicity
 _atom_site_fract_x
 _atom_site_fract_y
 _atom_site_fract_z
 _atom_site_occupancy
  Er  Er0  1  0.000000  0.500000  0.525490  1
  Tm  Tm1  1  0.500000  0.000000  0.474600  1
  Tm  Tm2  1  0.500000  0.817773  0.207119  1
  Tm  Tm3  1  0.500000  0.182227  0.207119  1
  Tm  Tm4  1  0.000000  0.682430  0.793011  1
  Tm  Tm5  1  0.000000  0.317570  0.793011  1
  Co  Co6  1  0.500000  0.500000  0.703999  1
  Co  Co7  1  0.000000  0.000000  0.296288  1
  Co  Co8  1  0.000000  0.500000  0.986340  1
  Co  Co9  1  0.500000  0.000000  0.013692  1
  Co  Co10  1  0.500000  0.332289  0.990202  1
  Co  Co11  1  0.500000  0.667711  0.990202  1
  Co  Co12  1  0.000000  0.167584  0.009756  1
  Co  Co13  1  0.000000  0.832416  0.009756  1
  Co  Co14  1  0.500000  0.297056  0.431356  1
  Co  Co15  1  0.500000  0.702944  0.431356  1
  Co  Co16  1  0.000000  0.202349  0.568567  1
  Co  Co17  1  0.000000  0.797651  0.568567  1
  Co  Co18  1  0.500000  0.878423  0.707228  1
  Co  Co19  1  0.500000  0.121577  0.707228  1
  Co  Co20  1  0.000000  0.621745  0.292675  1
  Co  Co21  1  0.000000  0.378255  0.292675  1
  P  P22  1  0.500000  0.500000  0.881234  1
  P  P23  1  0.000000  0.000000  0.118869  1
  P  P24  1  0.500000  0.500000  0.351554  1
  P  P25  1  0.000000  0.000000  0.648100  1
  P  P26  1  0.500000  0.312178  0.616790  1
  P  P27  1  0.500000  0.687822  0.616790  1
  P  P28  1  0.000000  0.187393  0.383358  1
  P  P29  1  0.000000  0.812607  0.383358  1
  P  P30  1  0.500000  0.846043  0.892356  1
  P  P31  1  0.500000  0.153957  0.892356  1
  P  P32  1  0.000000  0.654108  0.107585  1
  P  P33  1  0.000000  0.345892  0.107585  1
  Ru  Ru34  1  0.500000  0.500000  0.159885  1
  Ru  Ru35  1  0.000000  0.000000  0.839944  1
