# generated using pymatgen
data_Dy6TiAl23Os8
_symmetry_space_group_name_H-M   'P 1'
_cell_length_a   8.85263300
_cell_length_b   8.85263356
_cell_length_c   9.56514600
_cell_angle_alpha   90.00000000
_cell_angle_beta   90.00000000
_cell_angle_gamma   119.99999418
_symmetry_Int_Tables_number   1
_chemical_formula_structural   Dy6TiAl23Os8
_chemical_formula_sum   'Dy6 Ti1 Al23 Os8'
_cell_volume   649.18310427
_cell_formula_units_Z   1
loop_
 _symmetry_equiv_pos_site_id
 _symmetry_equiv_pos_as_xyz
  1  'x, y, z'
loop_
 _atom_site_type_symbol
 _atom_site_label
 _atom_site_symmetry_multiplicity
 _atom_site_fract_x
 _atom_site_fract_y
 _atom_site_fract_z
 _atom_site_occupancy
  Dy  Dy0  1  0.193901  0.387802  0.249575  1
  Dy  Dy1  1  0.806872  0.613744  0.748282  1
  Dy  Dy2  1  0.612198  0.806099  0.249575  1
  Dy  Dy3  1  0.386256  0.193128  0.748282  1
  Dy  Dy4  1  0.193901  0.806099  0.249575  1
  Dy  Dy5  1  0.806872  0.193128  0.748282  1
  Ti  Ti6  1  0.333333  0.666667  0.992356  1
  Al  Al7  1  0.666667  0.333333  0.981069  1
  Al  Al8  1  0.666667  0.333333  0.516476  1
  Al  Al9  1  0.333333  0.666667  0.482273  1
  Al  Al10  1  0.162434  0.324869  0.575191  1
  Al  Al11  1  0.837373  0.674744  0.424394  1
  Al  Al12  1  0.675131  0.837566  0.575191  1
  Al  Al13  1  0.836812  0.673622  0.076870  1
  Al  Al14  1  0.325256  0.162627  0.424394  1
  Al  Al15  1  0.159662  0.319325  0.925786  1
  Al  Al16  1  0.162434  0.837566  0.575191  1
  Al  Al17  1  0.326378  0.163188  0.076870  1
  Al  Al18  1  0.837373  0.162627  0.424394  1
  Al  Al19  1  0.680675  0.840338  0.925786  1
  Al  Al20  1  0.836812  0.163188  0.076870  1
  Al  Al21  1  0.159662  0.840338  0.925786  1
  Al  Al22  1  0.561535  0.123071  0.253249  1
  Al  Al23  1  0.441048  0.882096  0.750197  1
  Al  Al24  1  0.876929  0.438465  0.253249  1
  Al  Al25  1  0.117904  0.558952  0.750197  1
  Al  Al26  1  0.561535  0.438465  0.253249  1
  Al  Al27  1  0.441048  0.558952  0.750197  1
  Al  Al28  1  0.000000  0.000000  0.250238  1
  Al  Al29  1  0.000000  0.000000  0.749659  1
  Os  Os30  1  0.499198  0.998397  0.002784  1
  Os  Os31  1  0.001603  0.500802  0.002784  1
  Os  Os32  1  0.499644  0.999288  0.502860  1
  Os  Os33  1  0.499198  0.500802  0.002784  1
  Os  Os34  1  0.000712  0.500356  0.502860  1
  Os  Os35  1  0.499644  0.500356  0.502860  1
  Os  Os36  1  0.000000  0.000000  0.000370  1
  Os  Os37  1  0.000000  0.000000  0.499993  1
