# generated using pymatgen
data_LuSi3PRh6
_symmetry_space_group_name_H-M   'P 1'
_cell_length_a   7.05982651
_cell_length_b   7.05982627
_cell_length_c   3.71674200
_cell_angle_alpha   90.00000000
_cell_angle_beta   90.00000000
_cell_angle_gamma   120.52998483
_symmetry_Int_Tables_number   1
_chemical_formula_structural   LuSi3PRh6
_chemical_formula_sum   'Lu1 Si3 P1 Rh6'
_cell_volume   159.56472490
_cell_formula_units_Z   1
loop_
 _symmetry_equiv_pos_site_id
 _symmetry_equiv_pos_as_xyz
  1  'x, y, z'
loop_
 _atom_site_type_symbol
 _atom_site_label
 _atom_site_symmetry_multiplicity
 _atom_site_fract_x
 _atom_site_fract_y
 _atom_site_fract_z
 _atom_site_occupancy
  Lu  Lu0  1  0.332845  0.667155  0.000000  1
  Si  Si1  1  0.666646  0.333354  0.000000  1
  Si  Si2  1  0.726041  0.864352  0.500000  1
  Si  Si3  1  0.135648  0.273959  0.500000  1
  P  P4  1  0.141107  0.858893  0.500000  1
  Rh  Rh5  1  0.264434  0.132053  0.000000  1
  Rh  Rh6  1  0.867947  0.735566  0.000000  1
  Rh  Rh7  1  0.866965  0.133035  0.000000  1
  Rh  Rh8  1  0.941182  0.472532  0.500000  1
  Rh  Rh9  1  0.527468  0.058818  0.500000  1
  Rh  Rh10  1  0.529717  0.470283  0.500000  1
