# generated using pymatgen
data_HoTm11Os3Rh
_symmetry_space_group_name_H-M   'P 1'
_cell_length_a   7.30621960
_cell_length_b   8.93962800
_cell_length_c   6.27177302
_cell_angle_alpha   90.00000000
_cell_angle_beta   89.91646513
_cell_angle_gamma   90.00000000
_symmetry_Int_Tables_number   1
_chemical_formula_structural   HoTm11Os3Rh
_chemical_formula_sum   'Ho1 Tm11 Os3 Rh1'
_cell_volume   409.63969991
_cell_formula_units_Z   1
loop_
 _symmetry_equiv_pos_site_id
 _symmetry_equiv_pos_as_xyz
  1  'x, y, z'
loop_
 _atom_site_type_symbol
 _atom_site_label
 _atom_site_symmetry_multiplicity
 _atom_site_fract_x
 _atom_site_fract_y
 _atom_site_fract_z
 _atom_site_occupancy
  Ho  Ho0  1  0.038784  0.250000  0.628180  1
  Tm  Tm1  1  0.961495  0.750000  0.372715  1
  Tm  Tm2  1  0.462384  0.750000  0.129675  1
  Tm  Tm3  1  0.539243  0.250000  0.870110  1
  Tm  Tm4  1  0.172859  0.060140  0.165497  1
  Tm  Tm5  1  0.824168  0.936957  0.830844  1
  Tm  Tm6  1  0.323387  0.933557  0.672266  1
  Tm  Tm7  1  0.824168  0.563043  0.830844  1
  Tm  Tm8  1  0.678281  0.061231  0.331324  1
  Tm  Tm9  1  0.172859  0.439860  0.165497  1
  Tm  Tm10  1  0.678281  0.438769  0.331324  1
  Tm  Tm11  1  0.323387  0.566443  0.672266  1
  Os  Os12  1  0.615733  0.750000  0.537663  1
  Os  Os13  1  0.116804  0.750000  0.963955  1
  Os  Os14  1  0.882720  0.250000  0.039229  1
  Rh  Rh15  1  0.385446  0.250000  0.458611  1
