# generated using pymatgen
data_ErMo(SeO3)4
_symmetry_space_group_name_H-M   'P 1'
_cell_length_a   8.60290500
_cell_length_b   8.81242348
_cell_length_c   8.46892300
_cell_angle_alpha   91.02911923
_cell_angle_beta   90.00000000
_cell_angle_gamma   90.00000000
_symmetry_Int_Tables_number   1
_chemical_formula_structural   ErMo(SeO3)4
_chemical_formula_sum   'Er2 Mo2 Se8 O24'
_cell_volume   641.94616864
_cell_formula_units_Z   2
loop_
 _symmetry_equiv_pos_site_id
 _symmetry_equiv_pos_as_xyz
  1  'x, y, z'
loop_
 _atom_site_type_symbol
 _atom_site_label
 _atom_site_symmetry_multiplicity
 _atom_site_fract_x
 _atom_site_fract_y
 _atom_site_fract_z
 _atom_site_occupancy
  Er  Er0  1  0.000000  0.500000  0.000000  1
  Er  Er1  1  0.500000  0.500000  0.500000  1
  Mo  Mo2  1  0.000000  0.000000  0.500000  1
  Mo  Mo3  1  0.500000  0.000000  0.000000  1
  Se  Se4  1  0.335018  0.691311  0.171448  1
  Se  Se5  1  0.835018  0.308689  0.328552  1
  Se  Se6  1  0.693551  0.839971  0.690652  1
  Se  Se7  1  0.193551  0.160029  0.809348  1
  Se  Se8  1  0.664982  0.308689  0.828552  1
  Se  Se9  1  0.164982  0.691311  0.671448  1
  Se  Se10  1  0.306449  0.160029  0.309348  1
  Se  Se11  1  0.806449  0.839971  0.190652  1
  O  O12  1  0.242641  0.569180  0.048069  1
  O  O13  1  0.742641  0.430820  0.451931  1
  O  O14  1  0.770482  0.962911  0.549330  1
  O  O15  1  0.270482  0.037089  0.950670  1
  O  O16  1  0.550374  0.965489  0.768979  1
  O  O17  1  0.473576  0.583721  0.254493  1
  O  O18  1  0.973576  0.416279  0.245507  1
  O  O19  1  0.050374  0.034511  0.731021  1
  O  O20  1  0.954434  0.213401  0.476415  1
  O  O21  1  0.579328  0.731030  0.574921  1
  O  O22  1  0.454434  0.786599  0.023585  1
  O  O23  1  0.079328  0.268970  0.925079  1
  O  O24  1  0.757359  0.430820  0.951931  1
  O  O25  1  0.257359  0.569180  0.548069  1
  O  O26  1  0.229518  0.037089  0.450670  1
  O  O27  1  0.729518  0.962911  0.049330  1
  O  O28  1  0.449626  0.034511  0.231021  1
  O  O29  1  0.526424  0.416279  0.745507  1
  O  O30  1  0.026424  0.583721  0.754493  1
  O  O31  1  0.949626  0.965489  0.268979  1
  O  O32  1  0.045566  0.786599  0.523585  1
  O  O33  1  0.420672  0.268970  0.425079  1
  O  O34  1  0.545566  0.213401  0.976415  1
  O  O35  1  0.920672  0.731030  0.074921  1
