# generated using pymatgen
data_Cs(OsO4)2
_symmetry_space_group_name_H-M   'P 1'
_cell_length_a   8.37436001
_cell_length_b   8.37702120
_cell_length_c   9.01003776
_cell_angle_alpha   101.38264036
_cell_angle_beta   103.12747947
_cell_angle_gamma   122.92565662
_symmetry_Int_Tables_number   1
_chemical_formula_structural   Cs(OsO4)2
_chemical_formula_sum   'Cs2 Os4 O16'
_cell_volume   475.22993552
_cell_formula_units_Z   2
loop_
 _symmetry_equiv_pos_site_id
 _symmetry_equiv_pos_as_xyz
  1  'x, y, z'
loop_
 _atom_site_type_symbol
 _atom_site_label
 _atom_site_symmetry_multiplicity
 _atom_site_fract_x
 _atom_site_fract_y
 _atom_site_fract_z
 _atom_site_occupancy
  Cs  Cs0  1  0.867325  0.617334  0.749872  1
  Cs  Cs1  1  0.132675  0.382666  0.250128  1
  Os  Os2  1  0.183209  0.302407  0.722142  1
  Os  Os3  1  0.580344  0.960954  0.777870  1
  Os  Os4  1  0.816791  0.697593  0.277858  1
  Os  Os5  1  0.419656  0.039046  0.222130  1
  O  O6  1  0.382834  0.391230  0.652406  1
  O  O7  1  0.738972  0.230224  0.847501  1
  O  O8  1  0.617166  0.608770  0.347594  1
  O  O9  1  0.261028  0.769776  0.152499  1
  O  O10  1  0.012093  0.339937  0.615916  1
  O  O11  1  0.723756  0.895852  0.884178  1
  O  O12  1  0.987907  0.660063  0.384084  1
  O  O13  1  0.276244  0.104148  0.115822  1
  O  O14  1  0.279626  0.441639  0.933001  1
  O  O15  1  0.508775  0.846822  0.567006  1
  O  O16  1  0.720374  0.558361  0.066999  1
  O  O17  1  0.491225  0.153178  0.432994  1
  O  O18  1  0.056600  0.042094  0.687838  1
  O  O19  1  0.354321  0.868628  0.812202  1
  O  O20  1  0.943400  0.957906  0.312162  1
  O  O21  1  0.645679  0.131372  0.187798  1
