# generated using pymatgen
data_Li4Ac3TbSi8
_symmetry_space_group_name_H-M   'P 1'
_cell_length_a   3.95528200
_cell_length_b   7.89275992
_cell_length_c   10.89490464
_cell_angle_alpha   90.16707188
_cell_angle_beta   90.00000000
_cell_angle_gamma   90.00000000
_symmetry_Int_Tables_number   1
_chemical_formula_structural   Li4Ac3TbSi8
_chemical_formula_sum   'Li4 Ac3 Tb1 Si8'
_cell_volume   340.11668116
_cell_formula_units_Z   1
loop_
 _symmetry_equiv_pos_site_id
 _symmetry_equiv_pos_as_xyz
  1  'x, y, z'
loop_
 _atom_site_type_symbol
 _atom_site_label
 _atom_site_symmetry_multiplicity
 _atom_site_fract_x
 _atom_site_fract_y
 _atom_site_fract_z
 _atom_site_occupancy
  Li  Li0  1  0.250000  0.993590  0.389467  1
  Li  Li1  1  0.250000  0.501315  0.113162  1
  Li  Li2  1  0.750000  0.000573  0.606318  1
  Li  Li3  1  0.750000  0.503396  0.888624  1
  Ac  Ac4  1  0.250000  0.144268  0.868368  1
  Ac  Ac5  1  0.250000  0.637365  0.631478  1
  Ac  Ac6  1  0.750000  0.862777  0.134973  1
  Tb  Tb7  1  0.750000  0.366026  0.367209  1
  Si  Si8  1  0.250000  0.220922  0.564312  1
  Si  Si9  1  0.250000  0.718547  0.924121  1
  Si  Si10  1  0.750000  0.767144  0.423431  1
  Si  Si11  1  0.750000  0.290071  0.085784  1
  Si  Si12  1  0.250000  0.655695  0.322834  1
  Si  Si13  1  0.250000  0.179071  0.188052  1
  Si  Si14  1  0.750000  0.327550  0.668080  1
  Si  Si15  1  0.750000  0.831689  0.823788  1
