# generated using pymatgen
data_Ba2YAg5Se6
_symmetry_space_group_name_H-M   'P 1'
_cell_length_a   4.38858900
_cell_length_b   7.60335637
_cell_length_c   11.68090262
_cell_angle_alpha   94.32939389
_cell_angle_beta   90.00000000
_cell_angle_gamma   106.77389379
_symmetry_Int_Tables_number   1
_chemical_formula_structural   Ba2YAg5Se6
_chemical_formula_sum   'Ba2 Y1 Ag5 Se6'
_cell_volume   372.02244268
_cell_formula_units_Z   1
loop_
 _symmetry_equiv_pos_site_id
 _symmetry_equiv_pos_as_xyz
  1  'x, y, z'
loop_
 _atom_site_type_symbol
 _atom_site_label
 _atom_site_symmetry_multiplicity
 _atom_site_fract_x
 _atom_site_fract_y
 _atom_site_fract_z
 _atom_site_occupancy
  Ba  Ba0  1  0.254048  0.508096  0.704615  1
  Ba  Ba1  1  0.745952  0.491904  0.295385  1
  Y  Y2  1  0.500000  0.000000  0.500000  1
  Ag  Ag3  1  0.019373  0.038746  0.253338  1
  Ag  Ag4  1  0.980627  0.961254  0.746662  1
  Ag  Ag5  1  0.356539  0.713079  0.037106  1
  Ag  Ag6  1  0.643461  0.286921  0.962894  1
  Ag  Ag7  1  0.000000  0.000000  0.000000  1
  Se  Se8  1  0.126873  0.253746  0.453678  1
  Se  Se9  1  0.873127  0.746254  0.546322  1
  Se  Se10  1  0.159824  0.319648  0.100815  1
  Se  Se11  1  0.840176  0.680352  0.899185  1
  Se  Se12  1  0.412836  0.825672  0.264690  1
  Se  Se13  1  0.587164  0.174328  0.735310  1
