# generated using pymatgen
data_LiNdLu2(Co4P3)2
_symmetry_space_group_name_H-M   'P 1'
_cell_length_a   3.71051400
_cell_length_b   10.57136500
_cell_length_c   12.18025700
_cell_angle_alpha   90.00000000
_cell_angle_beta   90.00000000
_cell_angle_gamma   90.00000000
_symmetry_Int_Tables_number   1
_chemical_formula_structural   LiNdLu2(Co4P3)2
_chemical_formula_sum   'Li2 Nd2 Lu4 Co16 P12'
_cell_volume   477.77299046
_cell_formula_units_Z   2
loop_
 _symmetry_equiv_pos_site_id
 _symmetry_equiv_pos_as_xyz
  1  'x, y, z'
loop_
 _atom_site_type_symbol
 _atom_site_label
 _atom_site_symmetry_multiplicity
 _atom_site_fract_x
 _atom_site_fract_y
 _atom_site_fract_z
 _atom_site_occupancy
  Li  Li0  1  0.500000  0.500000  0.151992  1
  Li  Li1  1  0.000000  0.000000  0.848008  1
  Nd  Nd2  1  0.000000  0.500000  0.523725  1
  Nd  Nd3  1  0.500000  0.000000  0.476275  1
  Lu  Lu4  1  0.500000  0.819202  0.204525  1
  Lu  Lu5  1  0.500000  0.180798  0.204525  1
  Lu  Lu6  1  0.000000  0.680798  0.795475  1
  Lu  Lu7  1  0.000000  0.319202  0.795475  1
  Co  Co8  1  0.500000  0.500000  0.708080  1
  Co  Co9  1  0.000000  0.000000  0.291920  1
  Co  Co10  1  0.000000  0.500000  0.986150  1
  Co  Co11  1  0.500000  0.000000  0.013850  1
  Co  Co12  1  0.500000  0.332805  0.996529  1
  Co  Co13  1  0.500000  0.667195  0.996529  1
  Co  Co14  1  0.000000  0.167195  0.003471  1
  Co  Co15  1  0.000000  0.832805  0.003471  1
  Co  Co16  1  0.500000  0.295905  0.429033  1
  Co  Co17  1  0.500000  0.704095  0.429033  1
  Co  Co18  1  0.000000  0.204095  0.570967  1
  Co  Co19  1  0.000000  0.795905  0.570967  1
  Co  Co20  1  0.500000  0.878062  0.710734  1
  Co  Co21  1  0.500000  0.121938  0.710734  1
  Co  Co22  1  0.000000  0.621938  0.289266  1
  Co  Co23  1  0.000000  0.378062  0.289266  1
  P  P24  1  0.500000  0.500000  0.884672  1
  P  P25  1  0.000000  0.000000  0.115328  1
  P  P26  1  0.500000  0.500000  0.342433  1
  P  P27  1  0.000000  0.000000  0.657567  1
  P  P28  1  0.500000  0.307371  0.619178  1
  P  P29  1  0.500000  0.692629  0.619178  1
  P  P30  1  0.000000  0.192629  0.380822  1
  P  P31  1  0.000000  0.807371  0.380822  1
  P  P32  1  0.500000  0.842158  0.894020  1
  P  P33  1  0.500000  0.157842  0.894020  1
  P  P34  1  0.000000  0.657842  0.105980  1
  P  P35  1  0.000000  0.342158  0.105980  1
