# generated using pymatgen
data_Tb3YCo8(SiNi)12
_symmetry_space_group_name_H-M   'P 1'
_cell_length_a   3.73295400
_cell_length_b   6.74391871
_cell_length_c   18.56739104
_cell_angle_alpha   89.97023522
_cell_angle_beta   90.00000000
_cell_angle_gamma   90.00000000
_symmetry_Int_Tables_number   1
_chemical_formula_structural   Tb3YCo8(SiNi)12
_chemical_formula_sum   'Tb3 Y1 Co8 Si12 Ni12'
_cell_volume   467.42914731
_cell_formula_units_Z   1
loop_
 _symmetry_equiv_pos_site_id
 _symmetry_equiv_pos_as_xyz
  1  'x, y, z'
loop_
 _atom_site_type_symbol
 _atom_site_label
 _atom_site_symmetry_multiplicity
 _atom_site_fract_x
 _atom_site_fract_y
 _atom_site_fract_z
 _atom_site_occupancy
  Tb  Tb0  1  0.250000  0.622510  0.642308  1
  Tb  Tb1  1  0.750000  0.376938  0.358295  1
  Tb  Tb2  1  0.750000  0.125647  0.857850  1
  Y  Y3  1  0.250000  0.878808  0.143473  1
  Co  Co4  1  0.750000  0.384107  0.989385  1
  Co  Co5  1  0.750000  0.114605  0.489061  1
  Co  Co6  1  0.750000  0.641290  0.885168  1
  Co  Co7  1  0.750000  0.862792  0.383527  1
  Co  Co8  1  0.750000  0.936243  0.705595  1
  Co  Co9  1  0.750000  0.562571  0.206244  1
  Co  Co10  1  0.750000  0.635393  0.504454  1
  Co  Co11  1  0.750000  0.182095  0.201000  1
  Si  Si12  1  0.250000  0.839753  0.923858  1
  Si  Si13  1  0.750000  0.152882  0.074987  1
  Si  Si14  1  0.750000  0.351881  0.572133  1
  Si  Si15  1  0.250000  0.659791  0.425329  1
  Si  Si16  1  0.750000  0.627686  0.762526  1
  Si  Si17  1  0.250000  0.373771  0.236162  1
  Si  Si18  1  0.250000  0.417622  0.918089  1
  Si  Si19  1  0.750000  0.583024  0.086092  1
  Si  Si20  1  0.750000  0.911089  0.584555  1
  Si  Si21  1  0.250000  0.081964  0.417290  1
  Si  Si22  1  0.250000  0.122290  0.736055  1
  Si  Si23  1  0.750000  0.874078  0.261292  1
  Ni  Ni24  1  0.250000  0.126976  0.993924  1
  Ni  Ni25  1  0.250000  0.623035  0.015156  1
  Ni  Ni26  1  0.250000  0.356138  0.113588  1
  Ni  Ni27  1  0.250000  0.143212  0.612891  1
  Ni  Ni28  1  0.250000  0.065683  0.294566  1
  Ni  Ni29  1  0.250000  0.432721  0.794990  1
  Ni  Ni30  1  0.250000  0.370063  0.493028  1
  Ni  Ni31  1  0.250000  0.816321  0.798277  1
  Ni  Ni32  1  0.750000  0.318228  0.700421  1
  Ni  Ni33  1  0.250000  0.682050  0.298587  1
  Ni  Ni34  1  0.250000  0.880216  0.514485  1
  Ni  Ni35  1  0.750000  0.866529  0.005359  1
