# generated using pymatgen
data_Lu3U2O10
_symmetry_space_group_name_H-M   'P 1'
_cell_length_a   6.35943315
_cell_length_b   6.35937800
_cell_length_c   8.24248341
_cell_angle_alpha   51.47927967
_cell_angle_beta   51.47980603
_cell_angle_gamma   48.98576402
_symmetry_Int_Tables_number   1
_chemical_formula_structural   Lu3U2O10
_chemical_formula_sum   'Lu3 U2 O10'
_cell_volume   183.39174538
_cell_formula_units_Z   1
loop_
 _symmetry_equiv_pos_site_id
 _symmetry_equiv_pos_as_xyz
  1  'x, y, z'
loop_
 _atom_site_type_symbol
 _atom_site_label
 _atom_site_symmetry_multiplicity
 _atom_site_fract_x
 _atom_site_fract_y
 _atom_site_fract_z
 _atom_site_occupancy
  Lu  Lu0  1  0.103054  0.103059  0.595809  1
  Lu  Lu1  1  0.499999  0.499935  0.000036  1
  Lu  Lu2  1  0.896957  0.896929  0.404181  1
  U  U3  1  0.301467  0.301493  0.794743  1
  U  U4  1  0.698525  0.698490  0.205257  1
  O  O5  1  0.551850  0.043536  0.293501  1
  O  O6  1  0.956455  0.448151  0.706501  1
  O  O7  1  0.043545  0.551856  0.293501  1
  O  O8  1  0.352808  0.852104  0.106175  1
  O  O9  1  0.448144  0.956494  0.706492  1
  O  O10  1  0.740159  0.259857  0.499988  1
  O  O11  1  0.852105  0.352788  0.106171  1
  O  O12  1  0.147897  0.647223  0.893830  1
  O  O13  1  0.259848  0.740165  0.499992  1
  O  O14  1  0.647186  0.147921  0.893822  1
