# generated using pymatgen
data_ErTm5Co14(P3Ir)4
_symmetry_space_group_name_H-M   'P 1'
_cell_length_a   3.71138900
_cell_length_b   10.63858400
_cell_length_c   12.35038100
_cell_angle_alpha   90.00000000
_cell_angle_beta   90.00000000
_cell_angle_gamma   90.00000000
_symmetry_Int_Tables_number   1
_chemical_formula_structural   ErTm5Co14(P3Ir)4
_chemical_formula_sum   'Er1 Tm5 Co14 P12 Ir4'
_cell_volume   487.64150024
_cell_formula_units_Z   1
loop_
 _symmetry_equiv_pos_site_id
 _symmetry_equiv_pos_as_xyz
  1  'x, y, z'
loop_
 _atom_site_type_symbol
 _atom_site_label
 _atom_site_symmetry_multiplicity
 _atom_site_fract_x
 _atom_site_fract_y
 _atom_site_fract_z
 _atom_site_occupancy
  Er  Er0  1  0.000000  0.500000  0.520338  1
  Tm  Tm1  1  0.500000  0.000000  0.479642  1
  Tm  Tm2  1  0.500000  0.813576  0.206153  1
  Tm  Tm3  1  0.500000  0.186424  0.206153  1
  Tm  Tm4  1  0.000000  0.686436  0.793941  1
  Tm  Tm5  1  0.000000  0.313564  0.793941  1
  Co  Co6  1  0.000000  0.500000  0.989046  1
  Co  Co7  1  0.500000  0.000000  0.011090  1
  Co  Co8  1  0.500000  0.332165  0.993442  1
  Co  Co9  1  0.500000  0.667835  0.993442  1
  Co  Co10  1  0.000000  0.167808  0.006626  1
  Co  Co11  1  0.000000  0.832192  0.006626  1
  Co  Co12  1  0.500000  0.299621  0.429392  1
  Co  Co13  1  0.500000  0.700379  0.429392  1
  Co  Co14  1  0.000000  0.200047  0.570533  1
  Co  Co15  1  0.000000  0.799953  0.570533  1
  Co  Co16  1  0.500000  0.880007  0.710253  1
  Co  Co17  1  0.500000  0.119993  0.710253  1
  Co  Co18  1  0.000000  0.620105  0.289520  1
  Co  Co19  1  0.000000  0.379895  0.289520  1
  P  P20  1  0.500000  0.500000  0.889607  1
  P  P21  1  0.000000  0.000000  0.110644  1
  P  P22  1  0.500000  0.500000  0.351897  1
  P  P23  1  0.000000  0.000000  0.647630  1
  P  P24  1  0.500000  0.303155  0.613707  1
  P  P25  1  0.500000  0.696845  0.613707  1
  P  P26  1  0.000000  0.196700  0.386364  1
  P  P27  1  0.000000  0.803300  0.386364  1
  P  P28  1  0.500000  0.844077  0.893596  1
  P  P29  1  0.500000  0.155923  0.893596  1
  P  P30  1  0.000000  0.655990  0.106367  1
  P  P31  1  0.000000  0.344010  0.106367  1
  Ir  Ir32  1  0.500000  0.500000  0.161538  1
  Ir  Ir33  1  0.000000  0.000000  0.838282  1
  Ir  Ir34  1  0.500000  0.500000  0.703752  1
  Ir  Ir35  1  0.000000  0.000000  0.296741  1
