# generated using pymatgen
data_La2Ga2(GePt)3
_symmetry_space_group_name_H-M   'P 1'
_cell_length_a   8.64075842
_cell_length_b   8.64075939
_cell_length_c   8.64075900
_cell_angle_alpha   137.87224751
_cell_angle_beta   105.16347315
_cell_angle_gamma   89.81522457
_symmetry_Int_Tables_number   1
_chemical_formula_structural   La2Ga2(GePt)3
_chemical_formula_sum   'La4 Ga4 Ge6 Pt6'
_cell_volume   399.14134540
_cell_formula_units_Z   2
loop_
 _symmetry_equiv_pos_site_id
 _symmetry_equiv_pos_as_xyz
  1  'x, y, z'
loop_
 _atom_site_type_symbol
 _atom_site_label
 _atom_site_symmetry_multiplicity
 _atom_site_fract_x
 _atom_site_fract_y
 _atom_site_fract_z
 _atom_site_occupancy
  La  La0  1  0.635283  0.369690  0.265592  1
  La  La1  1  0.364717  0.630310  0.734408  1
  La  La2  1  0.104097  0.869690  0.234408  1
  La  La3  1  0.895903  0.130310  0.765592  1
  Ga  Ga4  1  0.268704  0.518704  0.250000  1
  Ga  Ga5  1  0.731296  0.481296  0.750000  1
  Ga  Ga6  1  0.731296  0.981296  0.250000  1
  Ga  Ga7  1  0.268704  0.018704  0.750000  1
  Ge  Ge8  1  0.458054  0.108402  0.349651  1
  Ge  Ge9  1  0.541946  0.891598  0.650349  1
  Ge  Ge10  1  0.758751  0.608402  0.150349  1
  Ge  Ge11  1  0.241249  0.391598  0.849651  1
  Ge  Ge12  1  0.000000  0.250000  0.250000  1
  Ge  Ge13  1  0.000000  0.750000  0.750000  1
  Pt  Pt14  1  0.248518  0.134157  0.114358  1
  Pt  Pt15  1  0.751482  0.865843  0.885642  1
  Pt  Pt16  1  0.019799  0.634157  0.385642  1
  Pt  Pt17  1  0.980201  0.365843  0.614358  1
  Pt  Pt18  1  0.500000  0.250000  0.750000  1
  Pt  Pt19  1  0.500000  0.750000  0.250000  1
