# generated using pymatgen
data_Tb5Y3Hf12Si15Ge
_symmetry_space_group_name_H-M   'P 1'
_cell_length_a   7.29624954
_cell_length_b   7.30185344
_cell_length_c   13.41739012
_cell_angle_alpha   89.93460450
_cell_angle_beta   89.98156730
_cell_angle_gamma   89.94061758
_symmetry_Int_Tables_number   1
_chemical_formula_structural   Tb5Y3Hf12Si15Ge
_chemical_formula_sum   'Tb5 Y3 Hf12 Si15 Ge1'
_cell_volume   714.82593256
_cell_formula_units_Z   1
loop_
 _symmetry_equiv_pos_site_id
 _symmetry_equiv_pos_as_xyz
  1  'x, y, z'
loop_
 _atom_site_type_symbol
 _atom_site_label
 _atom_site_symmetry_multiplicity
 _atom_site_fract_x
 _atom_site_fract_y
 _atom_site_fract_z
 _atom_site_occupancy
  Tb  Tb0  1  0.504473  0.843414  0.034441  1
  Tb  Tb1  1  0.844191  0.504012  0.964963  1
  Tb  Tb2  1  0.496582  0.155383  0.535701  1
  Tb  Tb3  1  0.343804  0.996058  0.784835  1
  Tb  Tb4  1  0.656887  0.002821  0.284560  1
  Y  Y5  1  0.995047  0.344246  0.214686  1
  Y  Y6  1  0.003888  0.655893  0.715268  1
  Y  Y7  1  0.154517  0.497944  0.466180  1
  Hf  Hf8  1  0.174397  0.174751  0.999759  1
  Hf  Hf9  1  0.825514  0.825660  0.500171  1
  Hf  Hf10  1  0.325512  0.677121  0.249458  1
  Hf  Hf11  1  0.674713  0.325484  0.749972  1
  Hf  Hf12  1  0.148170  0.994037  0.374180  1
  Hf  Hf13  1  0.850846  0.004269  0.874312  1
  Hf  Hf14  1  0.504198  0.649426  0.624396  1
  Hf  Hf15  1  0.350485  0.495715  0.875750  1
  Hf  Hf16  1  0.495475  0.350497  0.123305  1
  Hf  Hf17  1  0.651753  0.506398  0.376606  1
  Hf  Hf18  1  0.995755  0.149222  0.625863  1
  Hf  Hf19  1  0.003769  0.850232  0.125418  1
  Si  Si20  1  0.637034  0.705147  0.816900  1
  Si  Si21  1  0.204688  0.863181  0.567116  1
  Si  Si22  1  0.136963  0.795051  0.932774  1
  Si  Si23  1  0.795065  0.137055  0.066918  1
  Si  Si24  1  0.863012  0.204629  0.432982  1
  Si  Si25  1  0.295011  0.363056  0.682983  1
  Si  Si26  1  0.704495  0.636549  0.182896  1
  Si  Si27  1  0.294871  0.045857  0.183621  1
  Si  Si28  1  0.705106  0.950893  0.685601  1
  Si  Si29  1  0.451176  0.795124  0.435398  1
  Si  Si30  1  0.204889  0.548561  0.064603  1
  Si  Si31  1  0.548814  0.204906  0.935164  1
  Si  Si32  1  0.794933  0.451313  0.564785  1
  Si  Si33  1  0.048738  0.295160  0.814388  1
  Si  Si34  1  0.951615  0.704416  0.314335  1
  Ge  Ge35  1  0.363615  0.296521  0.319710  1
