# generated using pymatgen
data_Zr7Fe4Co4Si14Mo
_symmetry_space_group_name_H-M   'P 1'
_cell_length_a   9.46147582
_cell_length_b   9.46747544
_cell_length_c   9.45511404
_cell_angle_alpha   94.19769902
_cell_angle_beta   94.16387998
_cell_angle_gamma   148.68651885
_symmetry_Int_Tables_number   1
_chemical_formula_structural   Zr7Fe4Co4Si14Mo
_chemical_formula_sum   'Zr7 Fe4 Co4 Si14 Mo1'
_cell_volume   423.81357916
_cell_formula_units_Z   1
loop_
 _symmetry_equiv_pos_site_id
 _symmetry_equiv_pos_as_xyz
  1  'x, y, z'
loop_
 _atom_site_type_symbol
 _atom_site_label
 _atom_site_symmetry_multiplicity
 _atom_site_fract_x
 _atom_site_fract_y
 _atom_site_fract_z
 _atom_site_occupancy
  Zr  Zr0  1  0.863112  0.863112  0.726224  1
  Zr  Zr1  1  0.861467  0.138530  0.999664  1
  Zr  Zr2  1  0.138196  0.861134  0.999664  1
  Zr  Zr3  1  0.502020  0.305846  0.803421  1
  Zr  Zr4  1  0.504832  0.698248  0.199225  1
  Zr  Zr5  1  0.694394  0.500977  0.199225  1
  Zr  Zr6  1  0.301400  0.497574  0.803421  1
  Fe  Fe7  1  0.400273  0.900273  0.800547  1
  Fe  Fe8  1  0.101123  0.601123  0.202247  1
  Fe  Fe9  1  0.099589  0.898281  0.497894  1
  Fe  Fe10  1  0.398304  0.599612  0.497894  1
  Co  Co11  1  0.600722  0.392880  0.498286  1
  Co  Co12  1  0.897564  0.105406  0.498286  1
  Co  Co13  1  0.896034  0.396034  0.792069  1
  Co  Co14  1  0.605069  0.105069  0.210139  1
  Si  Si15  1  0.487334  0.078567  0.592545  1
  Si  Si16  1  0.487273  0.896395  0.408323  1
  Si  Si17  1  0.921049  0.511928  0.408323  1
  Si  Si18  1  0.105211  0.513978  0.592545  1
  Si  Si19  1  0.757485  0.757276  0.006609  1
  Si  Si20  1  0.249124  0.249333  0.006609  1
  Si  Si21  1  0.284077  0.284077  0.568154  1
  Si  Si22  1  0.711821  0.711821  0.423642  1
  Si  Si23  1  0.711337  0.290813  0.001178  1
  Si  Si24  1  0.289841  0.710365  0.001178  1
  Si  Si25  1  0.007679  0.304094  0.301946  1
  Si  Si26  1  0.004604  0.700438  0.694959  1
  Si  Si27  1  0.690354  0.994521  0.694959  1
  Si  Si28  1  0.294267  0.997852  0.301946  1
  Mo  Mo29  1  0.134443  0.134443  0.268886  1
