# generated using pymatgen
data_Li4Ca2YbSmSi8
_symmetry_space_group_name_H-M   'P 1'
_cell_length_a   3.81020000
_cell_length_b   7.87203468
_cell_length_c   10.55318836
_cell_angle_alpha   89.77464420
_cell_angle_beta   90.00000000
_cell_angle_gamma   90.00000000
_symmetry_Int_Tables_number   1
_chemical_formula_structural   Li4Ca2YbSmSi8
_chemical_formula_sum   'Li4 Ca2 Yb1 Sm1 Si8'
_cell_volume   316.53016333
_cell_formula_units_Z   1
loop_
 _symmetry_equiv_pos_site_id
 _symmetry_equiv_pos_as_xyz
  1  'x, y, z'
loop_
 _atom_site_type_symbol
 _atom_site_label
 _atom_site_symmetry_multiplicity
 _atom_site_fract_x
 _atom_site_fract_y
 _atom_site_fract_z
 _atom_site_occupancy
  Li  Li0  1  0.250000  0.997927  0.388204  1
  Li  Li1  1  0.750000  0.000487  0.610484  1
  Li  Li2  1  0.250000  0.497519  0.110545  1
  Li  Li3  1  0.750000  0.506356  0.888683  1
  Ca  Ca4  1  0.250000  0.635906  0.636608  1
  Ca  Ca5  1  0.750000  0.364943  0.364536  1
  Yb  Yb6  1  0.750000  0.866101  0.134616  1
  Sm  Sm7  1  0.250000  0.129714  0.866076  1
  Si  Si8  1  0.750000  0.267972  0.064786  1
  Si  Si9  1  0.250000  0.737431  0.934167  1
  Si  Si10  1  0.750000  0.767900  0.431275  1
  Si  Si11  1  0.250000  0.228076  0.571176  1
  Si  Si12  1  0.750000  0.838772  0.824621  1
  Si  Si13  1  0.250000  0.162040  0.171582  1
  Si  Si14  1  0.750000  0.332174  0.679123  1
  Si  Si15  1  0.250000  0.666682  0.323519  1
