# generated using pymatgen
data_Ho4AlRe3B16
_symmetry_space_group_name_H-M   'P 1'
_cell_length_a   3.59633600
_cell_length_b   5.96539361
_cell_length_c   11.51975506
_cell_angle_alpha   89.89271901
_cell_angle_beta   90.00000000
_cell_angle_gamma   90.00000000
_symmetry_Int_Tables_number   1
_chemical_formula_structural   Ho4AlRe3B16
_chemical_formula_sum   'Ho4 Al1 Re3 B16'
_cell_volume   247.13932069
_cell_formula_units_Z   1
loop_
 _symmetry_equiv_pos_site_id
 _symmetry_equiv_pos_as_xyz
  1  'x, y, z'
loop_
 _atom_site_type_symbol
 _atom_site_label
 _atom_site_symmetry_multiplicity
 _atom_site_fract_x
 _atom_site_fract_y
 _atom_site_fract_z
 _atom_site_occupancy
  Ho  Ho0  1  0.500000  0.373871  0.146796  1
  Ho  Ho1  1  0.500000  0.625595  0.851137  1
  Ho  Ho2  1  0.500000  0.128407  0.653455  1
  Ho  Ho3  1  0.500000  0.873434  0.349112  1
  Al  Al4  1  0.500000  0.863997  0.088438  1
  Re  Re5  1  0.500000  0.363931  0.413927  1
  Re  Re6  1  0.500000  0.634524  0.585471  1
  Re  Re7  1  0.500000  0.127681  0.914473  1
  B  B8  1  0.000000  0.117761  0.046256  1
  B  B9  1  0.000000  0.886868  0.951035  1
  B  B10  1  0.000000  0.386642  0.547222  1
  B  B11  1  0.000000  0.614863  0.452088  1
  B  B12  1  0.000000  0.135798  0.468315  1
  B  B13  1  0.000000  0.864711  0.531465  1
  B  B14  1  0.000000  0.365136  0.968593  1
  B  B15  1  0.000000  0.635207  0.031860  1
  B  B16  1  0.000000  0.025312  0.192953  1
  B  B17  1  0.000000  0.976355  0.807766  1
  B  B18  1  0.000000  0.475973  0.692509  1
  B  B19  1  0.000000  0.525216  0.306632  1
  B  B20  1  0.000000  0.213521  0.313550  1
  B  B21  1  0.000000  0.785631  0.686006  1
  B  B22  1  0.000000  0.287260  0.815268  1
  B  B23  1  0.000000  0.712304  0.185672  1
