# generated using pymatgen
data_HoEr5Ir2
_symmetry_space_group_name_H-M   'P 1'
_cell_length_a   6.37536500
_cell_length_b   7.21050700
_cell_length_c   9.09288900
_cell_angle_alpha   90.00000000
_cell_angle_beta   90.00000000
_cell_angle_gamma   90.00000000
_symmetry_Int_Tables_number   1
_chemical_formula_structural   HoEr5Ir2
_chemical_formula_sum   'Ho2 Er10 Ir4'
_cell_volume   417.99659711
_cell_formula_units_Z   2
loop_
 _symmetry_equiv_pos_site_id
 _symmetry_equiv_pos_as_xyz
  1  'x, y, z'
loop_
 _atom_site_type_symbol
 _atom_site_label
 _atom_site_symmetry_multiplicity
 _atom_site_fract_x
 _atom_site_fract_y
 _atom_site_fract_z
 _atom_site_occupancy
  Ho  Ho0  1  0.871524  0.534067  0.250000  1
  Ho  Ho1  1  0.628476  0.034067  0.250000  1
  Er  Er2  1  0.327917  0.677171  0.061666  1
  Er  Er3  1  0.172083  0.177171  0.438334  1
  Er  Er4  1  0.672497  0.322655  0.562295  1
  Er  Er5  1  0.827503  0.822655  0.937705  1
  Er  Er6  1  0.672497  0.322655  0.937705  1
  Er  Er7  1  0.827503  0.822655  0.562295  1
  Er  Er8  1  0.327917  0.677171  0.438334  1
  Er  Er9  1  0.172083  0.177171  0.061666  1
  Er  Er10  1  0.128132  0.466100  0.750000  1
  Er  Er11  1  0.371868  0.966100  0.750000  1
  Ir  Ir12  1  0.044221  0.883870  0.250000  1
  Ir  Ir13  1  0.455779  0.383870  0.250000  1
  Ir  Ir14  1  0.957767  0.116310  0.750000  1
  Ir  Ir15  1  0.542233  0.616310  0.750000  1
