# generated using pymatgen
data_Tm6NbCo17As12
_symmetry_space_group_name_H-M   'P 1'
_cell_length_a   3.79062700
_cell_length_b   10.93803800
_cell_length_c   12.67885000
_cell_angle_alpha   90.00000000
_cell_angle_beta   90.00000000
_cell_angle_gamma   90.00000000
_symmetry_Int_Tables_number   1
_chemical_formula_structural   Tm6NbCo17As12
_chemical_formula_sum   'Tm6 Nb1 Co17 As12'
_cell_volume   525.69075979
_cell_formula_units_Z   1
loop_
 _symmetry_equiv_pos_site_id
 _symmetry_equiv_pos_as_xyz
  1  'x, y, z'
loop_
 _atom_site_type_symbol
 _atom_site_label
 _atom_site_symmetry_multiplicity
 _atom_site_fract_x
 _atom_site_fract_y
 _atom_site_fract_z
 _atom_site_occupancy
  Tm  Tm0  1  0.000000  0.500000  0.529613  1
  Tm  Tm1  1  0.500000  0.000000  0.475300  1
  Tm  Tm2  1  0.500000  0.820600  0.208257  1
  Tm  Tm3  1  0.500000  0.179400  0.208257  1
  Tm  Tm4  1  0.000000  0.681412  0.796595  1
  Tm  Tm5  1  0.000000  0.318588  0.796595  1
  Nb  Nb6  1  0.500000  0.500000  0.153466  1
  Co  Co7  1  0.000000  0.000000  0.840262  1
  Co  Co8  1  0.500000  0.500000  0.700876  1
  Co  Co9  1  0.000000  0.000000  0.298345  1
  Co  Co10  1  0.000000  0.500000  0.986681  1
  Co  Co11  1  0.500000  0.000000  0.014628  1
  Co  Co12  1  0.500000  0.330053  0.991022  1
  Co  Co13  1  0.500000  0.669947  0.991022  1
  Co  Co14  1  0.000000  0.163245  0.002310  1
  Co  Co15  1  0.000000  0.836755  0.002310  1
  Co  Co16  1  0.500000  0.296508  0.432720  1
  Co  Co17  1  0.500000  0.703492  0.432720  1
  Co  Co18  1  0.000000  0.201481  0.569314  1
  Co  Co19  1  0.000000  0.798519  0.569314  1
  Co  Co20  1  0.500000  0.879301  0.705158  1
  Co  Co21  1  0.500000  0.120699  0.705158  1
  Co  Co22  1  0.000000  0.622563  0.294069  1
  Co  Co23  1  0.000000  0.377437  0.294069  1
  As  As24  1  0.500000  0.500000  0.879192  1
  As  As25  1  0.000000  0.000000  0.120042  1
  As  As26  1  0.500000  0.500000  0.358490  1
  As  As27  1  0.000000  0.000000  0.651387  1
  As  As28  1  0.500000  0.312888  0.617904  1
  As  As29  1  0.500000  0.687112  0.617904  1
  As  As30  1  0.000000  0.185758  0.384813  1
  As  As31  1  0.000000  0.814242  0.384813  1
  As  As32  1  0.500000  0.849767  0.886849  1
  As  As33  1  0.500000  0.150233  0.886849  1
  As  As34  1  0.000000  0.663274  0.106848  1
  As  As35  1  0.000000  0.336726  0.106848  1
