# generated using pymatgen
data_DyHo4W2C7
_symmetry_space_group_name_H-M   'P 1'
_cell_length_a   8.40704524
_cell_length_b   8.41038491
_cell_length_c   3.41080300
_cell_angle_alpha   90.00000000
_cell_angle_beta   90.00000000
_cell_angle_gamma   122.63689347
_symmetry_Int_Tables_number   1
_chemical_formula_structural   DyHo4W2C7
_chemical_formula_sum   'Dy1 Ho4 W2 C7'
_cell_volume   203.08707955
_cell_formula_units_Z   1
loop_
 _symmetry_equiv_pos_site_id
 _symmetry_equiv_pos_as_xyz
  1  'x, y, z'
loop_
 _atom_site_type_symbol
 _atom_site_label
 _atom_site_symmetry_multiplicity
 _atom_site_fract_x
 _atom_site_fract_y
 _atom_site_fract_z
 _atom_site_occupancy
  Dy  Dy0  1  0.330849  0.073662  0.500000  1
  Ho  Ho1  1  0.500265  0.500152  0.000000  1
  Ho  Ho2  1  0.074302  0.332321  0.500000  1
  Ho  Ho3  1  0.925682  0.667743  0.500000  1
  Ho  Ho4  1  0.668067  0.925507  0.500000  1
  W  W5  1  0.713040  0.287078  0.000000  1
  W  W6  1  0.287356  0.712691  0.000000  1
  C  C7  1  0.625059  0.375488  0.500000  1
  C  C8  1  0.375421  0.624619  0.500000  1
  C  C9  1  0.999780  0.000323  0.000000  1
  C  C10  1  0.167084  0.168644  0.000000  1
  C  C11  1  0.832178  0.831942  0.000000  1
  C  C12  1  0.000120  0.500034  0.000000  1
  C  C13  1  0.500796  0.999796  0.000000  1
