# generated using pymatgen
data_Er3Ta(Ni4P3)2
_symmetry_space_group_name_H-M   'P 1'
_cell_length_a   3.74943400
_cell_length_b   10.67732400
_cell_length_c   12.34204900
_cell_angle_alpha   90.00000000
_cell_angle_beta   90.00000000
_cell_angle_gamma   90.00000000
_symmetry_Int_Tables_number   1
_chemical_formula_structural   Er3Ta(Ni4P3)2
_chemical_formula_sum   'Er6 Ta2 Ni16 P12'
_cell_volume   494.10062248
_cell_formula_units_Z   2
loop_
 _symmetry_equiv_pos_site_id
 _symmetry_equiv_pos_as_xyz
  1  'x, y, z'
loop_
 _atom_site_type_symbol
 _atom_site_label
 _atom_site_symmetry_multiplicity
 _atom_site_fract_x
 _atom_site_fract_y
 _atom_site_fract_z
 _atom_site_occupancy
  Er  Er0  1  0.000000  0.500000  0.525582  1
  Er  Er1  1  0.500000  0.000000  0.474418  1
  Er  Er2  1  0.500000  0.819910  0.207546  1
  Er  Er3  1  0.500000  0.180090  0.207546  1
  Er  Er4  1  0.000000  0.680090  0.792454  1
  Er  Er5  1  0.000000  0.319910  0.792454  1
  Ta  Ta6  1  0.500000  0.500000  0.153491  1
  Ta  Ta7  1  0.000000  0.000000  0.846509  1
  Ni  Ni8  1  0.500000  0.500000  0.699545  1
  Ni  Ni9  1  0.000000  0.000000  0.300455  1
  Ni  Ni10  1  0.000000  0.500000  0.983435  1
  Ni  Ni11  1  0.500000  0.000000  0.016565  1
  Ni  Ni12  1  0.500000  0.334557  0.986423  1
  Ni  Ni13  1  0.500000  0.665443  0.986423  1
  Ni  Ni14  1  0.000000  0.165443  0.013577  1
  Ni  Ni15  1  0.000000  0.834557  0.013577  1
  Ni  Ni16  1  0.500000  0.301502  0.428552  1
  Ni  Ni17  1  0.500000  0.698498  0.428552  1
  Ni  Ni18  1  0.000000  0.198498  0.571448  1
  Ni  Ni19  1  0.000000  0.801502  0.571448  1
  Ni  Ni20  1  0.500000  0.878054  0.708640  1
  Ni  Ni21  1  0.500000  0.121946  0.708640  1
  Ni  Ni22  1  0.000000  0.621946  0.291360  1
  Ni  Ni23  1  0.000000  0.378054  0.291360  1
  P  P24  1  0.500000  0.500000  0.876546  1
  P  P25  1  0.000000  0.000000  0.123454  1
  P  P26  1  0.500000  0.500000  0.353901  1
  P  P27  1  0.000000  0.000000  0.646099  1
  P  P28  1  0.500000  0.314582  0.614042  1
  P  P29  1  0.500000  0.685418  0.614042  1
  P  P30  1  0.000000  0.185418  0.385958  1
  P  P31  1  0.000000  0.814582  0.385958  1
  P  P32  1  0.500000  0.841534  0.892756  1
  P  P33  1  0.500000  0.158466  0.892756  1
  P  P34  1  0.000000  0.658466  0.107244  1
  P  P35  1  0.000000  0.341534  0.107244  1
