# generated using pymatgen
data_RbCo(PO3)4
_symmetry_space_group_name_H-M   'P 1'
_cell_length_a   10.53658234
_cell_length_b   10.53658350
_cell_length_c   5.11951572
_cell_angle_alpha   80.96748941
_cell_angle_beta   80.96749297
_cell_angle_gamma   72.89693670
_symmetry_Int_Tables_number   1
_chemical_formula_structural   RbCo(PO3)4
_chemical_formula_sum   'Rb2 Co2 P8 O24'
_cell_volume   532.78488580
_cell_formula_units_Z   2
loop_
 _symmetry_equiv_pos_site_id
 _symmetry_equiv_pos_as_xyz
  1  'x, y, z'
loop_
 _atom_site_type_symbol
 _atom_site_label
 _atom_site_symmetry_multiplicity
 _atom_site_fract_x
 _atom_site_fract_y
 _atom_site_fract_z
 _atom_site_occupancy
  Rb  Rb0  1  0.399134  0.399134  0.762887  1
  Rb  Rb1  1  0.600866  0.600866  0.237113  1
  Co  Co2  1  0.000000  0.500000  0.000000  1
  Co  Co3  1  0.500000  0.000000  0.000000  1
  P  P4  1  0.072810  0.314365  0.527650  1
  P  P5  1  0.314365  0.072810  0.527650  1
  P  P6  1  0.927190  0.685635  0.472350  1
  P  P7  1  0.685635  0.927190  0.472350  1
  P  P8  1  0.808403  0.349344  0.838926  1
  P  P9  1  0.349344  0.808403  0.838926  1
  P  P10  1  0.191597  0.650656  0.161074  1
  P  P11  1  0.650656  0.191597  0.161074  1
  O  O12  1  0.902474  0.652350  0.770240  1
  O  O13  1  0.652350  0.902474  0.770240  1
  O  O14  1  0.097526  0.347650  0.229760  1
  O  O15  1  0.347650  0.097526  0.229760  1
  O  O16  1  0.861877  0.413980  0.028362  1
  O  O17  1  0.413980  0.861877  0.028362  1
  O  O18  1  0.138123  0.586020  0.971638  1
  O  O19  1  0.586020  0.138123  0.971638  1
  O  O20  1  0.097487  0.409748  0.694834  1
  O  O21  1  0.409748  0.097487  0.694834  1
  O  O22  1  0.902513  0.590252  0.305166  1
  O  O23  1  0.590252  0.902513  0.305166  1
  O  O24  1  0.929731  0.289061  0.613848  1
  O  O25  1  0.289061  0.929731  0.613848  1
  O  O26  1  0.070269  0.710939  0.386152  1
  O  O27  1  0.710939  0.070269  0.386152  1
  O  O28  1  0.686400  0.427982  0.717543  1
  O  O29  1  0.427982  0.686400  0.717543  1
  O  O30  1  0.313600  0.572018  0.282457  1
  O  O31  1  0.572018  0.313600  0.282457  1
  O  O32  1  0.791317  0.208683  0.000000  1
  O  O33  1  0.208683  0.791317  0.000000  1
  O  O34  1  0.166498  0.166498  0.602547  1
  O  O35  1  0.833502  0.833502  0.397453  1
