# generated using pymatgen
data_LaEr2BiO7
_symmetry_space_group_name_H-M   'P 1'
_cell_length_a   6.61237587
_cell_length_b   6.61237614
_cell_length_c   7.77921500
_cell_angle_alpha   90.00000000
_cell_angle_beta   90.00000000
_cell_angle_gamma   109.02775051
_symmetry_Int_Tables_number   1
_chemical_formula_structural   LaEr2BiO7
_chemical_formula_sum   'La2 Er4 Bi2 O14'
_cell_volume   321.54994371
_cell_formula_units_Z   2
loop_
 _symmetry_equiv_pos_site_id
 _symmetry_equiv_pos_as_xyz
  1  'x, y, z'
loop_
 _atom_site_type_symbol
 _atom_site_label
 _atom_site_symmetry_multiplicity
 _atom_site_fract_x
 _atom_site_fract_y
 _atom_site_fract_z
 _atom_site_occupancy
  La  La0  1  0.500000  0.500000  0.500000  1
  La  La1  1  0.500000  0.500000  0.000000  1
  Er  Er2  1  0.530821  0.003188  0.750000  1
  Er  Er3  1  0.003188  0.530821  0.250000  1
  Er  Er4  1  0.469179  0.996812  0.250000  1
  Er  Er5  1  0.996812  0.469179  0.750000  1
  Bi  Bi6  1  0.000000  0.000000  0.500000  1
  Bi  Bi7  1  0.000000  0.000000  0.000000  1
  O  O8  1  0.664818  0.926537  0.469688  1
  O  O9  1  0.926537  0.664818  0.530312  1
  O  O10  1  0.664818  0.926537  0.030312  1
  O  O11  1  0.926537  0.664818  0.969688  1
  O  O12  1  0.335182  0.073463  0.530312  1
  O  O13  1  0.073463  0.335182  0.469688  1
  O  O14  1  0.335182  0.073463  0.969688  1
  O  O15  1  0.073463  0.335182  0.030312  1
  O  O16  1  0.915334  0.084666  0.750000  1
  O  O17  1  0.084666  0.915334  0.250000  1
  O  O18  1  0.360276  0.639724  0.750000  1
  O  O19  1  0.639724  0.360276  0.250000  1
  O  O20  1  0.644992  0.355008  0.750000  1
  O  O21  1  0.355008  0.644992  0.250000  1
