# generated using pymatgen
data_Tb2DyBi(Rh2O7)2
_symmetry_space_group_name_H-M   'P 1'
_cell_length_a   7.27865838
_cell_length_b   7.27865969
_cell_length_c   7.28292290
_cell_angle_alpha   59.74996335
_cell_angle_beta   59.74996462
_cell_angle_gamma   59.75895537
_symmetry_Int_Tables_number   1
_chemical_formula_structural   Tb2DyBi(Rh2O7)2
_chemical_formula_sum   'Tb2 Dy1 Bi1 Rh4 O14'
_cell_volume   271.30035936
_cell_formula_units_Z   1
loop_
 _symmetry_equiv_pos_site_id
 _symmetry_equiv_pos_as_xyz
  1  'x, y, z'
loop_
 _atom_site_type_symbol
 _atom_site_label
 _atom_site_symmetry_multiplicity
 _atom_site_fract_x
 _atom_site_fract_y
 _atom_site_fract_z
 _atom_site_occupancy
  Tb  Tb0  1  0.125000  0.625000  0.125000  1
  Tb  Tb1  1  0.625000  0.125000  0.125000  1
  Dy  Dy2  1  0.125000  0.125000  0.625000  1
  Bi  Bi3  1  0.125000  0.125000  0.125000  1
  Rh  Rh4  1  0.625000  0.625000  0.625000  1
  Rh  Rh5  1  0.625000  0.625000  0.125000  1
  Rh  Rh6  1  0.125000  0.625000  0.625000  1
  Rh  Rh7  1  0.625000  0.125000  0.625000  1
  O  O8  1  0.251390  0.251390  0.253323  1
  O  O9  1  0.289605  0.707647  0.289533  1
  O  O10  1  0.960374  0.960374  0.543078  1
  O  O11  1  0.537646  0.961737  0.539186  1
  O  O12  1  0.711629  0.711629  0.288215  1
  O  O13  1  0.961737  0.537646  0.539186  1
  O  O14  1  0.712354  0.288263  0.710814  1
  O  O15  1  0.289626  0.289626  0.706922  1
  O  O16  1  0.707647  0.289605  0.289533  1
  O  O17  1  0.288263  0.712354  0.710814  1
  O  O18  1  0.960395  0.542353  0.960467  1
  O  O19  1  0.538371  0.538371  0.961785  1
  O  O20  1  0.998610  0.998610  0.996677  1
  O  O21  1  0.542353  0.960395  0.960467  1
