# generated using pymatgen
data_La2Pr8GaSi5
_symmetry_space_group_name_H-M   'P 1'
_cell_length_a   7.89852657
_cell_length_b   7.89508352
_cell_length_c   14.25597318
_cell_angle_alpha   90.00804110
_cell_angle_beta   90.01589097
_cell_angle_gamma   90.04084104
_symmetry_Int_Tables_number   1
_chemical_formula_structural   La2Pr8GaSi5
_chemical_formula_sum   'La4 Pr16 Ga2 Si10'
_cell_volume   888.99547545
_cell_formula_units_Z   2
loop_
 _symmetry_equiv_pos_site_id
 _symmetry_equiv_pos_as_xyz
  1  'x, y, z'
loop_
 _atom_site_type_symbol
 _atom_site_label
 _atom_site_symmetry_multiplicity
 _atom_site_fract_x
 _atom_site_fract_y
 _atom_site_fract_z
 _atom_site_occupancy
  La  La0  1  0.815774  0.828587  0.602721  1
  La  La1  1  0.998885  0.501199  0.726081  1
  La  La2  1  0.999712  0.500107  0.227098  1
  La  La3  1  0.500190  0.999647  0.271723  1
  Pr  Pr4  1  0.185657  0.830297  0.108476  1
  Pr  Pr5  1  0.171890  0.814178  0.395332  1
  Pr  Pr6  1  0.829072  0.186164  0.395163  1
  Pr  Pr7  1  0.684844  0.671176  0.395976  1
  Pr  Pr8  1  0.669205  0.315687  0.604189  1
  Pr  Pr9  1  0.330087  0.683773  0.604359  1
  Pr  Pr10  1  0.669386  0.685877  0.108456  1
  Pr  Pr11  1  0.685328  0.330963  0.892309  1
  Pr  Pr12  1  0.831222  0.814871  0.892466  1
  Pr  Pr13  1  0.314725  0.328429  0.395460  1
  Pr  Pr14  1  0.184903  0.170502  0.604834  1
  Pr  Pr15  1  0.814546  0.169685  0.108478  1
  Pr  Pr16  1  0.314636  0.668911  0.892324  1
  Pr  Pr17  1  0.330659  0.314341  0.108472  1
  Pr  Pr18  1  0.168828  0.185677  0.892579  1
  Pr  Pr19  1  0.500277  0.999643  0.770868  1
  Ga  Ga20  1  0.500209  0.000153  0.998253  1
  Ga  Ga21  1  0.000039  0.499976  0.000206  1
  Si  Si22  1  0.612936  0.387238  0.252900  1
  Si  Si23  1  0.114255  0.887119  0.748474  1
  Si  Si24  1  0.386448  0.385595  0.748504  1
  Si  Si25  1  0.387257  0.612859  0.252770  1
  Si  Si26  1  0.887396  0.887152  0.252954  1
  Si  Si27  1  0.612243  0.612820  0.748516  1
  Si  Si28  1  0.001264  0.499124  0.500219  1
  Si  Si29  1  0.886670  0.113877  0.748494  1
  Si  Si30  1  0.498509  0.001406  0.498635  1
  Si  Si31  1  0.112948  0.112968  0.252711  1
