# generated using pymatgen
data_Tb7Th(Ga3Pt)4
_symmetry_space_group_name_H-M   'P 1'
_cell_length_a   8.87774600
_cell_length_b   8.90684776
_cell_length_c   7.08094900
_cell_angle_alpha   90.00000000
_cell_angle_beta   90.00000000
_cell_angle_gamma   120.10423245
_symmetry_Int_Tables_number   1
_chemical_formula_structural   Tb7Th(Ga3Pt)4
_chemical_formula_sum   'Tb7 Th1 Ga12 Pt4'
_cell_volume   484.38617301
_cell_formula_units_Z   1
loop_
 _symmetry_equiv_pos_site_id
 _symmetry_equiv_pos_as_xyz
  1  'x, y, z'
loop_
 _atom_site_type_symbol
 _atom_site_label
 _atom_site_symmetry_multiplicity
 _atom_site_fract_x
 _atom_site_fract_y
 _atom_site_fract_z
 _atom_site_occupancy
  Tb  Tb0  1  0.000431  0.000164  0.250000  1
  Tb  Tb1  1  0.000883  0.000500  0.750000  1
  Tb  Tb2  1  0.519909  0.040063  0.250000  1
  Tb  Tb3  1  0.519875  0.479938  0.250000  1
  Tb  Tb4  1  0.959100  0.479579  0.250000  1
  Tb  Tb5  1  0.481561  0.962469  0.750000  1
  Tb  Tb6  1  0.481594  0.519012  0.750000  1
  Th  Th7  1  0.043370  0.521661  0.750000  1
  Ga  Ga8  1  0.167071  0.331027  0.046751  1
  Ga  Ga9  1  0.167156  0.836015  0.453269  1
  Ga  Ga10  1  0.665781  0.832912  0.454171  1
  Ga  Ga11  1  0.665781  0.832912  0.045829  1
  Ga  Ga12  1  0.167156  0.836015  0.046731  1
  Ga  Ga13  1  0.831787  0.668772  0.956786  1
  Ga  Ga14  1  0.831711  0.163044  0.956816  1
  Ga  Ga15  1  0.333435  0.166696  0.953858  1
  Ga  Ga16  1  0.167071  0.331027  0.453249  1
  Ga  Ga17  1  0.333435  0.166696  0.546142  1
  Ga  Ga18  1  0.831787  0.668772  0.543214  1
  Ga  Ga19  1  0.831711  0.163044  0.543184  1
  Pt  Pt20  1  0.332176  0.666012  0.031685  1
  Pt  Pt21  1  0.332176  0.666012  0.468315  1
  Pt  Pt22  1  0.667522  0.333830  0.970362  1
  Pt  Pt23  1  0.667522  0.333830  0.529638  1
