# generated using pymatgen
data_La3CoCu7Ni5B2
_symmetry_space_group_name_H-M   'P 1'
_cell_length_a   5.16412465
_cell_length_b   5.17194753
_cell_length_c   11.02995743
_cell_angle_alpha   90.00290393
_cell_angle_beta   89.99498571
_cell_angle_gamma   120.51303891
_symmetry_Int_Tables_number   1
_chemical_formula_structural   La3CoCu7Ni5B2
_chemical_formula_sum   'La3 Co1 Cu7 Ni5 B2'
_cell_volume   253.79719493
_cell_formula_units_Z   1
loop_
 _symmetry_equiv_pos_site_id
 _symmetry_equiv_pos_as_xyz
  1  'x, y, z'
loop_
 _atom_site_type_symbol
 _atom_site_label
 _atom_site_symmetry_multiplicity
 _atom_site_fract_x
 _atom_site_fract_y
 _atom_site_fract_z
 _atom_site_occupancy
  La  La0  1  0.000115  0.999998  0.001958  1
  La  La1  1  0.000088  0.000003  0.312837  1
  La  La2  1  0.999746  0.000003  0.684661  1
  Co  Co3  1  0.500188  0.500009  0.125419  1
  Cu  Cu4  1  0.499984  0.999981  0.499855  1
  Cu  Cu5  1  0.499904  0.500033  0.499795  1
  Cu  Cu6  1  0.999888  0.499986  0.499882  1
  Cu  Cu7  1  0.334506  0.665526  0.313745  1
  Cu  Cu8  1  0.665661  0.334494  0.313728  1
  Cu  Cu9  1  0.666734  0.333075  0.686026  1
  Cu  Cu10  1  0.332783  0.666940  0.686022  1
  Ni  Ni11  1  0.500289  0.000059  0.128277  1
  Ni  Ni12  1  0.000104  0.499947  0.128236  1
  Ni  Ni13  1  0.499967  0.999968  0.872610  1
  Ni  Ni14  1  0.499879  0.500009  0.871895  1
  Ni  Ni15  1  0.999901  0.499950  0.872658  1
  B  B16  1  0.335614  0.664576  0.001195  1
  B  B17  1  0.664552  0.335442  0.001198  1
