# generated using pymatgen
data_K3Al3P4
_symmetry_space_group_name_H-M   'P 1'
_cell_length_a   6.45623500
_cell_length_b   14.86996500
_cell_length_c   10.36388700
_cell_angle_alpha   90.00000000
_cell_angle_beta   90.00000000
_cell_angle_gamma   90.00000000
_symmetry_Int_Tables_number   1
_chemical_formula_structural   K3Al3P4
_chemical_formula_sum   'K12 Al12 P16'
_cell_volume   994.97448817
_cell_formula_units_Z   4
loop_
 _symmetry_equiv_pos_site_id
 _symmetry_equiv_pos_as_xyz
  1  'x, y, z'
loop_
 _atom_site_type_symbol
 _atom_site_label
 _atom_site_symmetry_multiplicity
 _atom_site_fract_x
 _atom_site_fract_y
 _atom_site_fract_z
 _atom_site_occupancy
  K  K0  1  0.750000  0.500001  0.080294  1
  K  K1  1  0.062336  0.090916  0.120482  1
  K  K2  1  0.437663  0.909084  0.120482  1
  K  K3  1  0.062336  0.409084  0.379518  1
  K  K4  1  0.437663  0.590916  0.379518  1
  K  K5  1  0.750000  0.000000  0.419706  1
  K  K6  1  0.250000  0.000000  0.580294  1
  K  K7  1  0.562336  0.409084  0.620482  1
  K  K8  1  0.937663  0.590916  0.620482  1
  K  K9  1  0.562336  0.090916  0.879519  1
  K  K10  1  0.937663  0.909084  0.879519  1
  K  K11  1  0.250000  0.500001  0.919706  1
  Al  Al12  1  0.402801  0.284224  0.113091  1
  Al  Al13  1  0.097199  0.715776  0.113091  1
  Al  Al14  1  0.803812  0.250000  0.249999  1
  Al  Al15  1  0.696189  0.750000  0.249999  1
  Al  Al16  1  0.402801  0.215776  0.386909  1
  Al  Al17  1  0.097199  0.784225  0.386909  1
  Al  Al18  1  0.902799  0.215776  0.613092  1
  Al  Al19  1  0.597201  0.784225  0.613092  1
  Al  Al20  1  0.303811  0.250000  0.750000  1
  Al  Al21  1  0.196188  0.750000  0.750000  1
  Al  Al22  1  0.902799  0.284224  0.886908  1
  Al  Al23  1  0.597201  0.715776  0.886908  1
  P  P24  1  0.039354  0.317765  0.095233  1
  P  P25  1  0.460644  0.682235  0.095233  1
  P  P26  1  0.539900  0.140292  0.193174  1
  P  P27  1  0.960100  0.859708  0.193174  1
  P  P28  1  0.539900  0.359708  0.306825  1
  P  P29  1  0.960100  0.640292  0.306825  1
  P  P30  1  0.039354  0.182235  0.404768  1
  P  P31  1  0.460644  0.817765  0.404768  1
  P  P32  1  0.539356  0.182235  0.595232  1
  P  P33  1  0.960644  0.817765  0.595232  1
  P  P34  1  0.039899  0.359708  0.693174  1
  P  P35  1  0.460101  0.640292  0.693174  1
  P  P36  1  0.039899  0.140292  0.806825  1
  P  P37  1  0.460101  0.859708  0.806825  1
  P  P38  1  0.539356  0.317765  0.904768  1
  P  P39  1  0.960644  0.682235  0.904768  1
