# generated using pymatgen
data_Tb2Tm3VMoO12
_symmetry_space_group_name_H-M   'P 1'
_cell_length_a   6.78235832
_cell_length_b   6.77225786
_cell_length_c   7.28206963
_cell_angle_alpha   74.23778048
_cell_angle_beta   74.19448311
_cell_angle_gamma   51.69273743
_symmetry_Int_Tables_number   1
_chemical_formula_structural   Tb2Tm3VMoO12
_chemical_formula_sum   'Tb2 Tm3 V1 Mo1 O12'
_cell_volume   250.18962885
_cell_formula_units_Z   1
loop_
 _symmetry_equiv_pos_site_id
 _symmetry_equiv_pos_as_xyz
  1  'x, y, z'
loop_
 _atom_site_type_symbol
 _atom_site_label
 _atom_site_symmetry_multiplicity
 _atom_site_fract_x
 _atom_site_fract_y
 _atom_site_fract_z
 _atom_site_occupancy
  Tb  Tb0  1  0.693621  0.688466  0.174167  1
  Tb  Tb1  1  0.000037  0.000705  0.500841  1
  Tm  Tm2  1  0.310578  0.297030  0.363343  1
  Tm  Tm3  1  0.703271  0.690990  0.639437  1
  Tm  Tm4  1  0.311176  0.309113  0.824277  1
  V  V5  1  0.747266  0.251692  0.998465  1
  Mo  Mo6  1  0.235753  0.763791  0.999332  1
  O  O7  1  0.899414  0.423100  0.914485  1
  O  O8  1  0.429202  0.900230  0.913924  1
  O  O9  1  0.107985  0.562256  0.081134  1
  O  O10  1  0.571493  0.105066  0.081632  1
  O  O11  1  0.099968  0.590609  0.576814  1
  O  O12  1  0.593005  0.095466  0.576893  1
  O  O13  1  0.909334  0.405668  0.427816  1
  O  O14  1  0.408341  0.902993  0.428573  1
  O  O15  1  0.990186  0.003885  0.816187  1
  O  O16  1  0.992798  0.007304  0.184822  1
  O  O17  1  0.498674  0.500942  0.806789  1
  O  O18  1  0.497898  0.500695  0.191069  1
