# generated using pymatgen
data_Dy2Si5IrRh2
_symmetry_space_group_name_H-M   'P 1'
_cell_length_a   8.17265977
_cell_length_b   8.14927286
_cell_length_c   8.14927248
_cell_angle_alpha   138.39003199
_cell_angle_beta   104.81974725
_cell_angle_gamma   89.76029836
_symmetry_Int_Tables_number   1
_chemical_formula_structural   Dy2Si5IrRh2
_chemical_formula_sum   'Dy4 Si10 Ir2 Rh4'
_cell_volume   333.30894279
_cell_formula_units_Z   2
loop_
 _symmetry_equiv_pos_site_id
 _symmetry_equiv_pos_as_xyz
  1  'x, y, z'
loop_
 _atom_site_type_symbol
 _atom_site_label
 _atom_site_symmetry_multiplicity
 _atom_site_fract_x
 _atom_site_fract_y
 _atom_site_fract_z
 _atom_site_occupancy
  Dy  Dy0  1  0.638615  0.868848  0.769767  1
  Dy  Dy1  1  0.361385  0.131152  0.230233  1
  Dy  Dy2  1  0.097399  0.367820  0.729581  1
  Dy  Dy3  1  0.902601  0.632179  0.270419  1
  Si  Si4  1  0.275905  0.028396  0.750746  1
  Si  Si5  1  0.724095  0.971604  0.249254  1
  Si  Si6  1  0.724095  0.474841  0.752492  1
  Si  Si7  1  0.275905  0.525159  0.247508  1
  Si  Si8  1  0.450271  0.605652  0.844619  1
  Si  Si9  1  0.549729  0.394348  0.155381  1
  Si  Si10  1  0.762617  0.106348  0.656270  1
  Si  Si11  1  0.237383  0.893652  0.343730  1
  Si  Si12  1  0.000000  0.749380  0.749380  1
  Si  Si13  1  0.000000  0.250620  0.250620  1
  Ir  Ir14  1  0.252270  0.640064  0.612206  1
  Ir  Ir15  1  0.747730  0.359936  0.387794  1
  Rh  Rh16  1  0.027677  0.139286  0.888391  1
  Rh  Rh17  1  0.972323  0.860714  0.111609  1
  Rh  Rh18  1  0.500000  0.749972  0.249972  1
  Rh  Rh19  1  0.500000  0.250028  0.750028  1
