# generated using pymatgen
data_Ca5Pr9(Dy3Sn8)2
_symmetry_space_group_name_H-M   'P 1'
_cell_length_a   8.04600668
_cell_length_b   8.44564595
_cell_length_c   15.92453263
_cell_angle_alpha   90.04900383
_cell_angle_beta   89.70277665
_cell_angle_gamma   90.01758835
_symmetry_Int_Tables_number   1
_chemical_formula_structural   Ca5Pr9(Dy3Sn8)2
_chemical_formula_sum   'Ca5 Pr9 Dy6 Sn16'
_cell_volume   1082.11628539
_cell_formula_units_Z   1
loop_
 _symmetry_equiv_pos_site_id
 _symmetry_equiv_pos_as_xyz
  1  'x, y, z'
loop_
 _atom_site_type_symbol
 _atom_site_label
 _atom_site_symmetry_multiplicity
 _atom_site_fract_x
 _atom_site_fract_y
 _atom_site_fract_z
 _atom_site_occupancy
  Ca  Ca0  1  0.333954  0.830756  0.877205  1
  Ca  Ca1  1  0.170524  0.499550  0.749253  1
  Ca  Ca2  1  0.669646  0.003035  0.749321  1
  Ca  Ca3  1  0.828701  0.502586  0.251659  1
  Ca  Ca4  1  0.328462  0.996006  0.251172  1
  Pr  Pr5  1  0.837453  0.674525  0.876440  1
  Pr  Pr6  1  0.494976  0.318346  0.904269  1
  Pr  Pr7  1  0.998482  0.181750  0.593646  1
  Pr  Pr8  1  0.504123  0.680129  0.404007  1
  Pr  Pr9  1  0.005244  0.818926  0.097852  1
  Pr  Pr10  1  0.503809  0.678473  0.097374  1
  Pr  Pr11  1  0.003311  0.820377  0.403471  1
  Pr  Pr12  1  0.496215  0.318188  0.593591  1
  Pr  Pr13  1  0.995826  0.182035  0.903280  1
  Dy  Dy14  1  0.840491  0.671500  0.621926  1
  Dy  Dy15  1  0.659749  0.170427  0.375707  1
  Dy  Dy16  1  0.163112  0.327516  0.126593  1
  Dy  Dy17  1  0.662194  0.170702  0.127075  1
  Dy  Dy18  1  0.159946  0.328822  0.375814  1
  Dy  Dy19  1  0.342704  0.828684  0.622325  1
  Sn  Sn20  1  0.327862  0.040291  0.041386  1
  Sn  Sn21  1  0.821954  0.458693  0.463007  1
  Sn  Sn22  1  0.679848  0.960362  0.536162  1
  Sn  Sn23  1  0.175291  0.533119  0.964638  1
  Sn  Sn24  1  0.674145  0.965713  0.965788  1
  Sn  Sn25  1  0.178765  0.541227  0.535697  1
  Sn  Sn26  1  0.320905  0.040600  0.463068  1
  Sn  Sn27  1  0.825889  0.456702  0.040475  1
  Sn  Sn28  1  0.538050  0.611145  0.745459  1
  Sn  Sn29  1  0.039260  0.889008  0.744742  1
  Sn  Sn30  1  0.461639  0.382575  0.250774  1
  Sn  Sn31  1  0.961626  0.116763  0.251171  1
  Sn  Sn32  1  0.297500  0.139083  0.747410  1
  Sn  Sn33  1  0.796831  0.364067  0.747444  1
  Sn  Sn34  1  0.700932  0.864426  0.250202  1
  Sn  Sn35  1  0.200577  0.633894  0.250598  1
