# generated using pymatgen
data_Tb9Y(SiBi2)2
_symmetry_space_group_name_H-M   'P 1'
_cell_length_a   12.14920700
_cell_length_b   9.20594700
_cell_length_c   8.10787100
_cell_angle_alpha   90.00000000
_cell_angle_beta   90.00000000
_cell_angle_gamma   90.00000000
_symmetry_Int_Tables_number   1
_chemical_formula_structural   Tb9Y(SiBi2)2
_chemical_formula_sum   'Tb18 Y2 Si4 Bi8'
_cell_volume   906.82447309
_cell_formula_units_Z   2
loop_
 _symmetry_equiv_pos_site_id
 _symmetry_equiv_pos_as_xyz
  1  'x, y, z'
loop_
 _atom_site_type_symbol
 _atom_site_label
 _atom_site_symmetry_multiplicity
 _atom_site_fract_x
 _atom_site_fract_y
 _atom_site_fract_z
 _atom_site_occupancy
  Tb  Tb0  1  0.063530  0.551770  0.820122  1
  Tb  Tb1  1  0.563530  0.948230  0.679878  1
  Tb  Tb2  1  0.936527  0.051631  0.180146  1
  Tb  Tb3  1  0.436527  0.448369  0.319854  1
  Tb  Tb4  1  0.936527  0.448369  0.180146  1
  Tb  Tb5  1  0.436527  0.051631  0.319854  1
  Tb  Tb6  1  0.063530  0.948230  0.820122  1
  Tb  Tb7  1  0.563530  0.551770  0.679878  1
  Tb  Tb8  1  0.999005  0.250000  0.539930  1
  Tb  Tb9  1  0.499005  0.250000  0.960070  1
  Tb  Tb10  1  0.211418  0.750000  0.164214  1
  Tb  Tb11  1  0.711418  0.750000  0.335786  1
  Tb  Tb12  1  0.788519  0.250000  0.835529  1
  Tb  Tb13  1  0.288519  0.250000  0.664471  1
  Tb  Tb14  1  0.295414  0.750000  0.635208  1
  Tb  Tb15  1  0.795414  0.750000  0.864792  1
  Tb  Tb16  1  0.704633  0.250000  0.364944  1
  Tb  Tb17  1  0.204633  0.250000  0.135056  1
  Y  Y18  1  0.000773  0.750000  0.459613  1
  Y  Y19  1  0.500773  0.750000  0.040387  1
  Si  Si20  1  0.480207  0.750000  0.413892  1
  Si  Si21  1  0.980207  0.750000  0.086108  1
  Si  Si22  1  0.519893  0.250000  0.585353  1
  Si  Si23  1  0.019893  0.250000  0.914647  1
  Bi  Bi24  1  0.326140  0.511134  0.931633  1
  Bi  Bi25  1  0.826140  0.988866  0.568367  1
  Bi  Bi26  1  0.673872  0.010395  0.068554  1
  Bi  Bi27  1  0.173872  0.489605  0.431446  1
  Bi  Bi28  1  0.673872  0.489605  0.068554  1
  Bi  Bi29  1  0.173872  0.010395  0.431446  1
  Bi  Bi30  1  0.326140  0.988866  0.931633  1
  Bi  Bi31  1  0.826140  0.511134  0.568367  1
