# generated using pymatgen
data_In(S8F)3
_symmetry_space_group_name_H-M   'P 1'
_cell_length_a   14.90569840
_cell_length_b   14.90569966
_cell_length_c   14.90569695
_cell_angle_alpha   118.64683354
_cell_angle_beta   118.64683152
_cell_angle_gamma   118.64683326
_symmetry_Int_Tables_number   1
_chemical_formula_structural   In(S8F)3
_chemical_formula_sum   'In1 S24 F3'
_cell_volume   994.24949347
_cell_formula_units_Z   1
loop_
 _symmetry_equiv_pos_site_id
 _symmetry_equiv_pos_as_xyz
  1  'x, y, z'
loop_
 _atom_site_type_symbol
 _atom_site_label
 _atom_site_symmetry_multiplicity
 _atom_site_fract_x
 _atom_site_fract_y
 _atom_site_fract_z
 _atom_site_occupancy
  In  In0  1  0.927996  0.927996  0.927996  1
  S  S1  1  0.802219  0.523645  0.523645  1
  S  S2  1  0.523645  0.523645  0.802219  1
  S  S3  1  0.523645  0.802219  0.523645  1
  S  S4  1  0.248914  0.379780  0.636199  1
  S  S5  1  0.346236  0.947219  0.346236  1
  S  S6  1  0.346236  0.346236  0.947219  1
  S  S7  1  0.947219  0.346236  0.346236  1
  S  S8  1  0.125552  0.738732  0.256195  1
  S  S9  1  0.256195  0.125552  0.738732  1
  S  S10  1  0.738732  0.256195  0.125552  1
  S  S11  1  0.738732  0.125552  0.256195  1
  S  S12  1  0.256195  0.738732  0.125552  1
  S  S13  1  0.125552  0.256195  0.738732  1
  S  S14  1  0.346730  0.878582  0.530908  1
  S  S15  1  0.530908  0.346730  0.878582  1
  S  S16  1  0.878582  0.530908  0.346730  1
  S  S17  1  0.878582  0.346730  0.530908  1
  S  S18  1  0.530908  0.878582  0.346730  1
  S  S19  1  0.346730  0.530908  0.878582  1
  S  S20  1  0.248914  0.636199  0.379780  1
  S  S21  1  0.379780  0.248914  0.636199  1
  S  S22  1  0.636199  0.379780  0.248914  1
  S  S23  1  0.636199  0.248914  0.379780  1
  S  S24  1  0.379780  0.636199  0.248914  1
  F  F25  1  0.853749  0.985582  0.985582  1
  F  F26  1  0.985582  0.985582  0.853749  1
  F  F27  1  0.985582  0.853749  0.985582  1
