# generated using pymatgen
data_Tb4Ga2B4(RuRh)5
_symmetry_space_group_name_H-M   'P 1'
_cell_length_a   9.62639203
_cell_length_b   9.61748403
_cell_length_c   3.11623700
_cell_angle_alpha   90.00000000
_cell_angle_beta   90.00000000
_cell_angle_gamma   90.00916428
_symmetry_Int_Tables_number   1
_chemical_formula_structural   Tb4Ga2B4(RuRh)5
_chemical_formula_sum   'Tb4 Ga2 B4 Ru5 Rh5'
_cell_volume   288.50642696
_cell_formula_units_Z   1
loop_
 _symmetry_equiv_pos_site_id
 _symmetry_equiv_pos_as_xyz
  1  'x, y, z'
loop_
 _atom_site_type_symbol
 _atom_site_label
 _atom_site_symmetry_multiplicity
 _atom_site_fract_x
 _atom_site_fract_y
 _atom_site_fract_z
 _atom_site_occupancy
  Tb  Tb0  1  0.826725  0.321656  0.000000  1
  Tb  Tb1  1  0.322241  0.173966  0.000000  1
  Tb  Tb2  1  0.675333  0.827497  0.000000  1
  Tb  Tb3  1  0.176119  0.676343  0.000000  1
  Ga  Ga4  1  0.000661  0.002672  0.000000  1
  Ga  Ga5  1  0.499636  0.499598  0.000000  1
  B  B6  1  0.625797  0.116518  0.000000  1
  B  B7  1  0.117805  0.374742  0.000000  1
  B  B8  1  0.880514  0.620950  0.000000  1
  B  B9  1  0.374117  0.882958  0.000000  1
  Ru  Ru10  1  0.070567  0.219395  0.500000  1
  Ru  Ru11  1  0.217464  0.929290  0.500000  1
  Ru  Ru12  1  0.782324  0.069280  0.500000  1
  Ru  Ru13  1  0.499118  0.000448  0.500000  1
  Ru  Ru14  1  0.999727  0.501685  0.500000  1
  Rh  Rh15  1  0.929929  0.782191  0.500000  1
  Rh  Rh16  1  0.431445  0.717131  0.500000  1
  Rh  Rh17  1  0.569606  0.282011  0.500000  1
  Rh  Rh18  1  0.718375  0.569943  0.500000  1
  Rh  Rh19  1  0.282497  0.431724  0.500000  1
