# generated using pymatgen
data_Pr8Lu10ScSi16Mo
_symmetry_space_group_name_H-M   'P 1'
_cell_length_a   7.33617400
_cell_length_b   7.71810328
_cell_length_c   14.63207300
_cell_angle_alpha   90.00000000
_cell_angle_beta   90.00000000
_cell_angle_gamma   90.09350717
_symmetry_Int_Tables_number   1
_chemical_formula_structural   Pr8Lu10ScSi16Mo
_chemical_formula_sum   'Pr8 Lu10 Sc1 Si16 Mo1'
_cell_volume   828.48660276
_cell_formula_units_Z   1
loop_
 _symmetry_equiv_pos_site_id
 _symmetry_equiv_pos_as_xyz
  1  'x, y, z'
loop_
 _atom_site_type_symbol
 _atom_site_label
 _atom_site_symmetry_multiplicity
 _atom_site_fract_x
 _atom_site_fract_y
 _atom_site_fract_z
 _atom_site_occupancy
  Pr  Pr0  1  0.015241  0.176808  0.403564  1
  Pr  Pr1  1  0.516408  0.323857  0.404696  1
  Pr  Pr2  1  0.488107  0.683327  0.897143  1
  Pr  Pr3  1  0.488107  0.683327  0.602857  1
  Pr  Pr4  1  0.980885  0.826270  0.602683  1
  Pr  Pr5  1  0.980885  0.826270  0.897317  1
  Pr  Pr6  1  0.516408  0.323857  0.095304  1
  Pr  Pr7  1  0.015241  0.176808  0.096436  1
  Lu  Lu8  1  0.327124  0.170119  0.627899  1
  Lu  Lu9  1  0.675615  0.824062  0.377879  1
  Lu  Lu10  1  0.175854  0.677372  0.377553  1
  Lu  Lu11  1  0.824317  0.317896  0.871927  1
  Lu  Lu12  1  0.824317  0.317896  0.628073  1
  Lu  Lu13  1  0.843112  0.492665  0.250000  1
  Lu  Lu14  1  0.342086  0.006818  0.250000  1
  Lu  Lu15  1  0.327124  0.170119  0.872101  1
  Lu  Lu16  1  0.175854  0.677372  0.122447  1
  Lu  Lu17  1  0.675615  0.824062  0.122121  1
  Sc  Sc18  1  0.157675  0.506911  0.750000  1
  Si  Si19  1  0.291331  0.878241  0.750000  1
  Si  Si20  1  0.471354  0.616910  0.250000  1
  Si  Si21  1  0.019229  0.105082  0.750000  1
  Si  Si22  1  0.526603  0.378907  0.750000  1
  Si  Si23  1  0.150323  0.466747  0.541732  1
  Si  Si24  1  0.969114  0.878985  0.250000  1
  Si  Si25  1  0.717377  0.121488  0.250000  1
  Si  Si26  1  0.852075  0.534140  0.035542  1
  Si  Si27  1  0.350994  0.967147  0.037373  1
  Si  Si28  1  0.150323  0.466747  0.958268  1
  Si  Si29  1  0.650108  0.031786  0.547273  1
  Si  Si30  1  0.350994  0.967147  0.462627  1
  Si  Si31  1  0.852075  0.534140  0.464458  1
  Si  Si32  1  0.783028  0.625283  0.750000  1
  Si  Si33  1  0.220158  0.378916  0.250000  1
  Si  Si34  1  0.650108  0.031786  0.952727  1
  Mo  Mo35  1  0.644828  0.010737  0.750000  1
