# generated using pymatgen
data_PrPa(AsS)2
_symmetry_space_group_name_H-M   'P 1'
_cell_length_a   3.90023000
_cell_length_b   3.90023000
_cell_length_c   8.33437000
_cell_angle_alpha   90.00000000
_cell_angle_beta   90.00000000
_cell_angle_gamma   90.00000000
_symmetry_Int_Tables_number   1
_chemical_formula_structural   PrPa(AsS)2
_chemical_formula_sum   'Pr1 Pa1 As2 S2'
_cell_volume   126.78072000
_cell_formula_units_Z   1
loop_
 _symmetry_equiv_pos_site_id
 _symmetry_equiv_pos_as_xyz
  1  'x, y, z'
loop_
 _atom_site_type_symbol
 _atom_site_label
 _atom_site_symmetry_multiplicity
 _atom_site_fract_x
 _atom_site_fract_y
 _atom_site_fract_z
 _atom_site_occupancy
  Pr  Pr0  1  0.000000  0.500000  0.717388  1
  Pa  Pa1  1  0.500000  0.000000  0.284907  1
  As  As2  1  0.000000  0.000000  0.010344  1
  As  As3  1  0.500000  0.500000  0.010344  1
  S  S4  1  0.000000  0.500000  0.357050  1
  S  S5  1  0.500000  0.000000  0.619968  1
