# generated using pymatgen
data_Y8Ho2Os3Ru
_symmetry_space_group_name_H-M   'P 1'
_cell_length_a   6.38370712
_cell_length_b   7.35846991
_cell_length_c   8.48426855
_cell_angle_alpha   96.82126311
_cell_angle_beta   112.16340860
_cell_angle_gamma   89.89980106
_symmetry_Int_Tables_number   1
_chemical_formula_structural   Y8Ho2Os3Ru
_chemical_formula_sum   'Y8 Ho2 Os3 Ru1'
_cell_volume   366.08044630
_cell_formula_units_Z   1
loop_
 _symmetry_equiv_pos_site_id
 _symmetry_equiv_pos_as_xyz
  1  'x, y, z'
loop_
 _atom_site_type_symbol
 _atom_site_label
 _atom_site_symmetry_multiplicity
 _atom_site_fract_x
 _atom_site_fract_y
 _atom_site_fract_z
 _atom_site_occupancy
  Y  Y0  1  0.977589  0.915760  0.182995  1
  Y  Y1  1  0.793092  0.583847  0.815950  1
  Y  Y2  1  0.021456  0.083697  0.814626  1
  Y  Y3  1  0.206551  0.415201  0.183506  1
  Y  Y4  1  0.638598  0.816494  0.435088  1
  Y  Y5  1  0.204669  0.683343  0.565211  1
  Y  Y6  1  0.360263  0.184291  0.566086  1
  Y  Y7  1  0.796807  0.317538  0.435358  1
  Ho  Ho8  1  0.422743  0.748960  0.999304  1
  Ho  Ho9  1  0.577822  0.251170  0.000255  1
  Os  Os10  1  0.819758  0.576708  0.218043  1
  Os  Os11  1  0.601480  0.924621  0.782013  1
  Os  Os12  1  0.180727  0.423296  0.782867  1
  Ru  Ru13  1  0.398444  0.075074  0.218699  1
