# generated using pymatgen
data_Rb8Sc(WBr8)3
_symmetry_space_group_name_H-M   'P 1'
_cell_length_a   13.26601651
_cell_length_b   13.26601576
_cell_length_c   13.26601594
_cell_angle_alpha   131.92676988
_cell_angle_beta   131.92676746
_cell_angle_gamma   70.34471090
_symmetry_Int_Tables_number   1
_chemical_formula_structural   Rb8Sc(WBr8)3
_chemical_formula_sum   'Rb8 Sc1 W3 Br24'
_cell_volume   1266.48668959
_cell_formula_units_Z   1
loop_
 _symmetry_equiv_pos_site_id
 _symmetry_equiv_pos_as_xyz
  1  'x, y, z'
loop_
 _atom_site_type_symbol
 _atom_site_label
 _atom_site_symmetry_multiplicity
 _atom_site_fract_x
 _atom_site_fract_y
 _atom_site_fract_z
 _atom_site_occupancy
  Rb  Rb0  1  0.118188  0.641026  0.999171  1
  Rb  Rb1  1  0.358974  0.881812  0.000829  1
  Rb  Rb2  1  0.641855  0.641026  0.522837  1
  Rb  Rb3  1  0.358974  0.358145  0.477163  1
  Rb  Rb4  1  0.880983  0.358145  0.999171  1
  Rb  Rb5  1  0.880983  0.881812  0.522837  1
  Rb  Rb6  1  0.118188  0.119017  0.477163  1
  Rb  Rb7  1  0.641855  0.119017  0.000829  1
  Sc  Sc8  1  0.000000  0.000000  0.000000  1
  W  W9  1  0.750000  0.250000  0.500000  1
  W  W10  1  0.500000  0.500000  0.000000  1
  W  W11  1  0.250000  0.750000  0.500000  1
  Br  Br12  1  0.246096  0.999783  0.246313  1
  Br  Br13  1  0.000217  0.753904  0.753687  1
  Br  Br14  1  0.251870  0.986838  0.734968  1
  Br  Br15  1  0.748607  0.483602  0.734995  1
  Br  Br16  1  0.483098  0.748130  0.734968  1
  Br  Br17  1  0.123312  0.123312  0.000000  1
  Br  Br18  1  0.499675  0.734404  0.234729  1
  Br  Br19  1  0.867453  0.367453  0.500000  1
  Br  Br20  1  0.000217  0.246531  0.246313  1
  Br  Br21  1  0.382824  0.382824  0.000000  1
  Br  Br22  1  0.617176  0.617176  0.000000  1
  Br  Br23  1  0.499675  0.264946  0.765271  1
  Br  Br24  1  0.265596  0.500325  0.765271  1
  Br  Br25  1  0.516398  0.251393  0.265005  1
  Br  Br26  1  0.367170  0.867170  0.500000  1
  Br  Br27  1  0.632547  0.132547  0.500000  1
  Br  Br28  1  0.251870  0.516902  0.265032  1
  Br  Br29  1  0.132830  0.632830  0.500000  1
  Br  Br30  1  0.013162  0.748130  0.265032  1
  Br  Br31  1  0.986388  0.251393  0.734995  1
  Br  Br32  1  0.753469  0.999783  0.753687  1
  Br  Br33  1  0.735054  0.500325  0.234729  1
  Br  Br34  1  0.748607  0.013612  0.265005  1
  Br  Br35  1  0.876688  0.876688  0.000000  1
