# generated using pymatgen
data_Sr7Ca7(La3Sn8)2
_symmetry_space_group_name_H-M   'P 1'
_cell_length_a   8.27118329
_cell_length_b   8.75790016
_cell_length_c   16.54801500
_cell_angle_alpha   90.00376175
_cell_angle_beta   89.98487109
_cell_angle_gamma   89.98969051
_symmetry_Int_Tables_number   1
_chemical_formula_structural   Sr7Ca7(La3Sn8)2
_chemical_formula_sum   'Sr7 Ca7 La6 Sn16'
_cell_volume   1198.70831419
_cell_formula_units_Z   1
loop_
 _symmetry_equiv_pos_site_id
 _symmetry_equiv_pos_as_xyz
  1  'x, y, z'
loop_
 _atom_site_type_symbol
 _atom_site_label
 _atom_site_symmetry_multiplicity
 _atom_site_fract_x
 _atom_site_fract_y
 _atom_site_fract_z
 _atom_site_occupancy
  Sr  Sr0  1  0.992735  0.179673  0.597602  1
  Sr  Sr1  1  0.507233  0.679089  0.405263  1
  Sr  Sr2  1  0.009026  0.818776  0.094698  1
  Sr  Sr3  1  0.507128  0.682902  0.092721  1
  Sr  Sr4  1  0.003251  0.822312  0.406545  1
  Sr  Sr5  1  0.497198  0.322361  0.595382  1
  Sr  Sr6  1  0.992980  0.179279  0.903953  1
  Ca  Ca7  1  0.328124  0.829531  0.875958  1
  Ca  Ca8  1  0.827630  0.669577  0.625398  1
  Ca  Ca9  1  0.672741  0.170490  0.377031  1
  Ca  Ca10  1  0.158263  0.493463  0.749238  1
  Ca  Ca11  1  0.660486  0.006167  0.749316  1
  Ca  Ca12  1  0.838297  0.509038  0.252139  1
  Ca  Ca13  1  0.340799  0.990351  0.251202  1
  La  La14  1  0.170922  0.329198  0.123291  1
  La  La15  1  0.670226  0.170972  0.123366  1
  La  La16  1  0.170227  0.329414  0.376372  1
  La  La17  1  0.330858  0.827789  0.625770  1
  La  La18  1  0.830459  0.672907  0.875415  1
  La  La19  1  0.486536  0.314989  0.900485  1
  Sn  Sn20  1  0.339026  0.044041  0.036019  1
  Sn  Sn21  1  0.837583  0.463103  0.462975  1
  Sn  Sn22  1  0.664150  0.962770  0.539039  1
  Sn  Sn23  1  0.166638  0.532291  0.956824  1
  Sn  Sn24  1  0.656091  0.969568  0.957057  1
  Sn  Sn25  1  0.157182  0.537397  0.540381  1
  Sn  Sn26  1  0.344171  0.037147  0.460814  1
  Sn  Sn27  1  0.840035  0.460540  0.037664  1
  Sn  Sn28  1  0.527693  0.607374  0.752349  1
  Sn  Sn29  1  0.031970  0.892098  0.751057  1
  Sn  Sn30  1  0.470857  0.388409  0.249666  1
  Sn  Sn31  1  0.969450  0.109107  0.250560  1
  Sn  Sn32  1  0.287638  0.131440  0.750888  1
  Sn  Sn33  1  0.779409  0.368510  0.754768  1
  Sn  Sn34  1  0.716677  0.870553  0.248979  1
  Sn  Sn35  1  0.216312  0.627375  0.249817  1
