# generated using pymatgen
data_Sr2CaSm(Al3Pd)6
_symmetry_space_group_name_H-M   'P 1'
_cell_length_a   7.72026700
_cell_length_b   7.71470598
_cell_length_c   9.64530300
_cell_angle_alpha   90.00000000
_cell_angle_beta   90.00000000
_cell_angle_gamma   119.46079754
_symmetry_Int_Tables_number   1
_chemical_formula_structural   Sr2CaSm(Al3Pd)6
_chemical_formula_sum   'Sr2 Ca1 Sm1 Al18 Pd6'
_cell_volume   500.18692564
_cell_formula_units_Z   1
loop_
 _symmetry_equiv_pos_site_id
 _symmetry_equiv_pos_as_xyz
  1  'x, y, z'
loop_
 _atom_site_type_symbol
 _atom_site_label
 _atom_site_symmetry_multiplicity
 _atom_site_fract_x
 _atom_site_fract_y
 _atom_site_fract_z
 _atom_site_occupancy
  Sr  Sr0  1  0.993045  0.669335  0.250000  1
  Sr  Sr1  1  0.671591  0.995463  0.250000  1
  Ca  Ca2  1  0.003533  0.329728  0.750000  1
  Sm  Sm3  1  0.330226  0.002482  0.750000  1
  Al  Al4  1  0.137432  0.137816  0.250000  1
  Al  Al5  1  0.871455  0.869632  0.750000  1
  Al  Al6  1  0.006020  0.335171  0.067356  1
  Al  Al7  1  0.998699  0.663394  0.918322  1
  Al  Al8  1  0.998699  0.663394  0.581678  1
  Al  Al9  1  0.334852  0.004771  0.431270  1
  Al  Al10  1  0.006020  0.335171  0.432644  1
  Al  Al11  1  0.666453  0.000534  0.581498  1
  Al  Al12  1  0.666453  0.000534  0.918502  1
  Al  Al13  1  0.334852  0.004771  0.068730  1
  Al  Al14  1  0.331859  0.331890  0.563450  1
  Al  Al15  1  0.662693  0.662875  0.459314  1
  Al  Al16  1  0.662693  0.662875  0.040686  1
  Al  Al17  1  0.331859  0.331890  0.936550  1
  Al  Al18  1  0.339931  0.542692  0.250000  1
  Al  Al19  1  0.656221  0.452307  0.750000  1
  Al  Al20  1  0.540500  0.340580  0.250000  1
  Al  Al21  1  0.455092  0.663475  0.750000  1
  Pd  Pd22  1  0.670768  0.328273  0.996968  1
  Pd  Pd23  1  0.328137  0.670328  0.996424  1
  Pd  Pd24  1  0.328137  0.670328  0.503576  1
  Pd  Pd25  1  0.670768  0.328273  0.503032  1
  Pd  Pd26  1  0.001009  0.001009  0.996326  1
  Pd  Pd27  1  0.001009  0.001009  0.503674  1
