# generated using pymatgen
data_Hf3ZnNi2N
_symmetry_space_group_name_H-M   'P 1'
_cell_length_a   8.32693367
_cell_length_b   8.32693313
_cell_length_c   8.32693300
_cell_angle_alpha   59.99999654
_cell_angle_beta   59.99999869
_cell_angle_gamma   59.99999468
_symmetry_Int_Tables_number   1
_chemical_formula_structural   Hf3ZnNi2N
_chemical_formula_sum   'Hf12 Zn4 Ni8 N4'
_cell_volume   408.26318708
_cell_formula_units_Z   4
loop_
 _symmetry_equiv_pos_site_id
 _symmetry_equiv_pos_as_xyz
  1  'x, y, z'
loop_
 _atom_site_type_symbol
 _atom_site_label
 _atom_site_symmetry_multiplicity
 _atom_site_fract_x
 _atom_site_fract_y
 _atom_site_fract_z
 _atom_site_occupancy
  Hf  Hf0  1  0.808597  0.191403  0.191403  1
  Hf  Hf1  1  0.191403  0.808597  0.191403  1
  Hf  Hf2  1  0.808597  0.808597  0.191403  1
  Hf  Hf3  1  0.191403  0.808597  0.808597  1
  Hf  Hf4  1  0.808597  0.191403  0.808597  1
  Hf  Hf5  1  0.191403  0.191403  0.808597  1
  Hf  Hf6  1  0.441403  0.058597  0.058597  1
  Hf  Hf7  1  0.058597  0.441403  0.058597  1
  Hf  Hf8  1  0.441403  0.441403  0.058597  1
  Hf  Hf9  1  0.058597  0.441403  0.441403  1
  Hf  Hf10  1  0.441403  0.058597  0.441403  1
  Hf  Hf11  1  0.058597  0.058597  0.441403  1
  Zn  Zn12  1  0.625000  0.625000  0.125000  1
  Zn  Zn13  1  0.625000  0.625000  0.625000  1
  Zn  Zn14  1  0.125000  0.625000  0.625000  1
  Zn  Zn15  1  0.625000  0.125000  0.625000  1
  Ni  Ni16  1  0.414800  0.414800  0.755600  1
  Ni  Ni17  1  0.414800  0.414800  0.414800  1
  Ni  Ni18  1  0.755600  0.414800  0.414800  1
  Ni  Ni19  1  0.414800  0.755600  0.414800  1
  Ni  Ni20  1  0.835200  0.835200  0.494400  1
  Ni  Ni21  1  0.835200  0.835200  0.835200  1
  Ni  Ni22  1  0.494400  0.835200  0.835200  1
  Ni  Ni23  1  0.835200  0.494400  0.835200  1
  N  N24  1  0.125000  0.125000  0.625000  1
  N  N25  1  0.125000  0.125000  0.125000  1
  N  N26  1  0.625000  0.125000  0.125000  1
  N  N27  1  0.125000  0.625000  0.125000  1
