# generated using pymatgen
data_Na3CoH8
_symmetry_space_group_name_H-M   'P 1'
_cell_length_a   5.34082385
_cell_length_b   5.76551214
_cell_length_c   5.38808355
_cell_angle_alpha   87.01717084
_cell_angle_beta   60.31558168
_cell_angle_gamma   89.04368723
_symmetry_Int_Tables_number   1
_chemical_formula_structural   Na3CoH8
_chemical_formula_sum   'Na3 Co1 H8'
_cell_volume   143.93646004
_cell_formula_units_Z   1
loop_
 _symmetry_equiv_pos_site_id
 _symmetry_equiv_pos_as_xyz
  1  'x, y, z'
loop_
 _atom_site_type_symbol
 _atom_site_label
 _atom_site_symmetry_multiplicity
 _atom_site_fract_x
 _atom_site_fract_y
 _atom_site_fract_z
 _atom_site_occupancy
  Na  Na0  1  0.888960  0.585713  0.678576  1
  Na  Na1  1  0.570512  0.042733  0.331500  1
  Na  Na2  1  0.241877  0.123834  0.986562  1
  Co  Co3  1  0.903315  0.084398  0.666206  1
  H  H4  1  0.694367  0.248767  0.618759  1
  H  H5  1  0.156760  0.244528  0.448125  1
  H  H6  1  0.176286  0.515031  0.153429  1
  H  H7  1  0.178997  0.620226  0.062228  1
  H  H8  1  0.936259  0.933714  0.421460  1
  H  H9  1  0.116472  0.918039  0.706523  1
  H  H10  1  0.650044  0.923151  0.886212  1
  H  H11  1  0.870478  0.238788  0.909618  1
