# generated using pymatgen
data_La4Tl2Rh3Au
_symmetry_space_group_name_H-M   'P 1'
_cell_length_a   7.89564300
_cell_length_b   7.89564279
_cell_length_c   3.96001100
_cell_angle_alpha   90.00000000
_cell_angle_beta   90.00000000
_cell_angle_gamma   89.44322609
_symmetry_Int_Tables_number   1
_chemical_formula_structural   La4Tl2Rh3Au
_chemical_formula_sum   'La4 Tl2 Rh3 Au1'
_cell_volume   246.86008962
_cell_formula_units_Z   1
loop_
 _symmetry_equiv_pos_site_id
 _symmetry_equiv_pos_as_xyz
  1  'x, y, z'
loop_
 _atom_site_type_symbol
 _atom_site_label
 _atom_site_symmetry_multiplicity
 _atom_site_fract_x
 _atom_site_fract_y
 _atom_site_fract_z
 _atom_site_occupancy
  La  La0  1  0.831567  0.687316  0.500000  1
  La  La1  1  0.324535  0.824535  0.500000  1
  La  La2  1  0.652983  0.152983  0.500000  1
  La  La3  1  0.187316  0.331567  0.500000  1
  Tl  Tl4  1  0.003567  0.998364  0.000000  1
  Tl  Tl5  1  0.498364  0.503567  0.000000  1
  Rh  Rh6  1  0.364669  0.132775  0.000000  1
  Rh  Rh7  1  0.632775  0.864669  0.000000  1
  Rh  Rh8  1  0.132877  0.632877  0.000000  1
  Au  Au9  1  0.871348  0.371348  0.000000  1
