# generated using pymatgen
data_Tm8In2IrOs
_symmetry_space_group_name_H-M   'P 1'
_cell_length_a   9.53830798
_cell_length_b   9.53830778
_cell_length_c   9.58868100
_cell_angle_alpha   59.82514324
_cell_angle_beta   59.82514392
_cell_angle_gamma   59.62103491
_symmetry_Int_Tables_number   1
_chemical_formula_structural   Tm8In2IrOs
_chemical_formula_sum   'Tm16 In4 Ir2 Os2'
_cell_volume   613.45249844
_cell_formula_units_Z   2
loop_
 _symmetry_equiv_pos_site_id
 _symmetry_equiv_pos_as_xyz
  1  'x, y, z'
loop_
 _atom_site_type_symbol
 _atom_site_label
 _atom_site_symmetry_multiplicity
 _atom_site_fract_x
 _atom_site_fract_y
 _atom_site_fract_z
 _atom_site_occupancy
  Tm  Tm0  1  0.056395  0.056395  0.443605  1
  Tm  Tm1  1  0.444951  0.059647  0.437409  1
  Tm  Tm2  1  0.059647  0.444951  0.057994  1
  Tm  Tm3  1  0.043883  0.651997  0.652061  1
  Tm  Tm4  1  0.438687  0.438687  0.061313  1
  Tm  Tm5  1  0.651997  0.043883  0.652061  1
  Tm  Tm6  1  0.191013  0.808992  0.193045  1
  Tm  Tm7  1  0.192299  0.192299  0.807701  1
  Tm  Tm8  1  0.808285  0.808285  0.191715  1
  Tm  Tm9  1  0.444951  0.059647  0.057994  1
  Tm  Tm10  1  0.808992  0.191013  0.193045  1
  Tm  Tm11  1  0.059647  0.444951  0.437409  1
  Tm  Tm12  1  0.808992  0.191013  0.806950  1
  Tm  Tm13  1  0.191013  0.808992  0.806950  1
  Tm  Tm14  1  0.651078  0.651078  0.047727  1
  Tm  Tm15  1  0.651078  0.651078  0.650120  1
  In  In16  1  0.416914  0.416914  0.417952  1
  In  In17  1  0.751006  0.416575  0.416209  1
  In  In18  1  0.416575  0.751006  0.416209  1
  In  In19  1  0.416914  0.416914  0.748218  1
  Ir  Ir20  1  0.421647  0.857344  0.860504  1
  Ir  Ir21  1  0.857344  0.421647  0.860504  1
  Os  Os22  1  0.858346  0.858346  0.421504  1
  Os  Os23  1  0.858346  0.858346  0.861804  1
