# generated using pymatgen
data_Ta4Ni(IrS6)2
_symmetry_space_group_name_H-M   'P 1'
_cell_length_a   6.80253137
_cell_length_b   6.80253223
_cell_length_c   18.71052300
_cell_angle_alpha   69.59482908
_cell_angle_beta   69.59482637
_cell_angle_gamma   29.06906343
_symmetry_Int_Tables_number   1
_chemical_formula_structural   Ta4Ni(IrS6)2
_chemical_formula_sum   'Ta4 Ni1 Ir2 S12'
_cell_volume   392.43506059
_cell_formula_units_Z   1
loop_
 _symmetry_equiv_pos_site_id
 _symmetry_equiv_pos_as_xyz
  1  'x, y, z'
loop_
 _atom_site_type_symbol
 _atom_site_label
 _atom_site_symmetry_multiplicity
 _atom_site_fract_x
 _atom_site_fract_y
 _atom_site_fract_z
 _atom_site_occupancy
  Ta  Ta0  1  0.619576  0.619576  0.854905  1
  Ta  Ta1  1  0.380424  0.380424  0.145095  1
  Ta  Ta2  1  0.743378  0.743378  0.594412  1
  Ta  Ta3  1  0.256622  0.256622  0.405588  1
  Ni  Ni4  1  0.000000  0.000000  0.000000  1
  Ir  Ir5  1  0.229876  0.229876  0.720805  1
  Ir  Ir6  1  0.770124  0.770124  0.279195  1
  S  S7  1  0.971248  0.971248  0.891132  1
  S  S8  1  0.028752  0.028752  0.108868  1
  S  S9  1  0.624747  0.624747  0.402800  1
  S  S10  1  0.375253  0.375253  0.597200  1
  S  S11  1  0.140598  0.140598  0.551252  1
  S  S12  1  0.859402  0.859402  0.448748  1
  S  S13  1  0.810344  0.810344  0.770068  1
  S  S14  1  0.189656  0.189656  0.229932  1
  S  S15  1  0.175829  0.175829  0.931114  1
  S  S16  1  0.824171  0.824171  0.068886  1
  S  S17  1  0.600701  0.600701  0.722795  1
  S  S18  1  0.399299  0.399299  0.277205  1
