# generated using pymatgen
data_ErTm5(Si3Ru)8
_symmetry_space_group_name_H-M   'P 1'
_cell_length_a   10.08603135
_cell_length_b   10.08603128
_cell_length_c   8.10029929
_cell_angle_alpha   89.97197088
_cell_angle_beta   90.02803069
_cell_angle_gamma   132.68793294
_symmetry_Int_Tables_number   1
_chemical_formula_structural   ErTm5(Si3Ru)8
_chemical_formula_sum   'Er1 Tm5 Si24 Ru8'
_cell_volume   605.70740861
_cell_formula_units_Z   1
loop_
 _symmetry_equiv_pos_site_id
 _symmetry_equiv_pos_as_xyz
  1  'x, y, z'
loop_
 _atom_site_type_symbol
 _atom_site_label
 _atom_site_symmetry_multiplicity
 _atom_site_fract_x
 _atom_site_fract_y
 _atom_site_fract_z
 _atom_site_occupancy
  Er  Er0  1  0.997452  0.497452  0.250000  1
  Tm  Tm1  1  0.497496  0.997496  0.250000  1
  Tm  Tm2  1  0.002513  0.502513  0.750000  1
  Tm  Tm3  1  0.502554  0.002554  0.750000  1
  Tm  Tm4  1  0.499999  0.499998  0.500016  1
  Tm  Tm5  1  0.999998  0.999999  0.999984  1
  Si  Si6  1  0.388331  0.154783  0.005171  1
  Si  Si7  1  0.654783  0.888331  0.494829  1
  Si  Si8  1  0.111756  0.345486  0.505300  1
  Si  Si9  1  0.845486  0.611756  0.994700  1
  Si  Si10  1  0.611664  0.845214  0.994870  1
  Si  Si11  1  0.345214  0.111664  0.505130  1
  Si  Si12  1  0.888217  0.654523  0.494894  1
  Si  Si13  1  0.154523  0.388217  0.005106  1
  Si  Si14  1  0.612858  0.378383  0.228656  1
  Si  Si15  1  0.878383  0.112858  0.271344  1
  Si  Si16  1  0.887496  0.121982  0.728473  1
  Si  Si17  1  0.621982  0.387496  0.771527  1
  Si  Si18  1  0.387068  0.621444  0.771423  1
  Si  Si19  1  0.121444  0.887068  0.728577  1
  Si  Si20  1  0.704937  0.295012  0.999879  1
  Si  Si21  1  0.795012  0.204937  0.500121  1
  Si  Si22  1  0.295056  0.704957  0.999872  1
  Si  Si23  1  0.204957  0.795056  0.500128  1
  Si  Si24  1  0.167595  0.167651  0.333242  1
  Si  Si25  1  0.667651  0.667595  0.166758  1
  Si  Si26  1  0.332353  0.332407  0.833260  1
  Si  Si27  1  0.832407  0.832353  0.666740  1
  Si  Si28  1  0.378162  0.612593  0.228592  1
  Si  Si29  1  0.112593  0.878162  0.271408  1
  Ru  Ru30  1  0.626632  0.626660  0.872257  1
  Ru  Ru31  1  0.126660  0.126632  0.627743  1
  Ru  Ru32  1  0.873350  0.873392  0.372229  1
  Ru  Ru33  1  0.373392  0.373350  0.127771  1
  Ru  Ru34  1  0.330838  0.670333  0.500133  1
  Ru  Ru35  1  0.170333  0.830838  0.999867  1
  Ru  Ru36  1  0.669161  0.329692  0.500386  1
  Ru  Ru37  1  0.829692  0.169161  0.999614  1
