# generated using pymatgen
data_Er8ZnIn4Pd7
_symmetry_space_group_name_H-M   'P 1'
_cell_length_a   7.73021442
_cell_length_b   7.73021507
_cell_length_c   7.34026140
_cell_angle_alpha   90.07503701
_cell_angle_beta   90.07503276
_cell_angle_gamma   89.80090423
_symmetry_Int_Tables_number   1
_chemical_formula_structural   Er8ZnIn4Pd7
_chemical_formula_sum   'Er8 Zn1 In4 Pd7'
_cell_volume   438.62287763
_cell_formula_units_Z   1
loop_
 _symmetry_equiv_pos_site_id
 _symmetry_equiv_pos_as_xyz
  1  'x, y, z'
loop_
 _atom_site_type_symbol
 _atom_site_label
 _atom_site_symmetry_multiplicity
 _atom_site_fract_x
 _atom_site_fract_y
 _atom_site_fract_z
 _atom_site_occupancy
  Er  Er0  1  0.162494  0.162494  0.996400  1
  Er  Er1  1  0.828387  0.828387  0.001755  1
  Er  Er2  1  0.675466  0.335616  0.504517  1
  Er  Er3  1  0.335616  0.675466  0.504517  1
  Er  Er4  1  0.682976  0.329361  0.995636  1
  Er  Er5  1  0.329361  0.682976  0.995636  1
  Er  Er6  1  0.823325  0.823325  0.498559  1
  Er  Er7  1  0.169864  0.169864  0.503248  1
  Zn  Zn8  1  0.374758  0.374758  0.240004  1
  In  In9  1  0.500717  0.004298  0.250145  1
  In  In10  1  0.500958  0.005923  0.750701  1
  In  In11  1  0.004298  0.500717  0.250145  1
  In  In12  1  0.005923  0.500958  0.750701  1
  Pd  Pd13  1  0.628456  0.628456  0.756452  1
  Pd  Pd14  1  0.616697  0.616697  0.243693  1
  Pd  Pd15  1  0.870523  0.124633  0.742918  1
  Pd  Pd16  1  0.868963  0.125987  0.256839  1
  Pd  Pd17  1  0.370596  0.370596  0.758377  1
  Pd  Pd18  1  0.125987  0.868963  0.256839  1
  Pd  Pd19  1  0.124633  0.870523  0.742918  1
