# generated using pymatgen
data_Ca2Zn14Pd3
_symmetry_space_group_name_H-M   'P 1'
_cell_length_a   6.88588449
_cell_length_b   6.88588417
_cell_length_c   6.88588529
_cell_angle_alpha   83.38428188
_cell_angle_beta   83.38427721
_cell_angle_gamma   83.38429784
_symmetry_Int_Tables_number   1
_chemical_formula_structural   Ca2Zn14Pd3
_chemical_formula_sum   'Ca2 Zn14 Pd3'
_cell_volume   320.43960035
_cell_formula_units_Z   1
loop_
 _symmetry_equiv_pos_site_id
 _symmetry_equiv_pos_as_xyz
  1  'x, y, z'
loop_
 _atom_site_type_symbol
 _atom_site_label
 _atom_site_symmetry_multiplicity
 _atom_site_fract_x
 _atom_site_fract_y
 _atom_site_fract_z
 _atom_site_occupancy
  Ca  Ca0  1  0.662807  0.662807  0.662807  1
  Ca  Ca1  1  0.337193  0.337193  0.337193  1
  Zn  Zn2  1  0.350101  0.350101  0.840820  1
  Zn  Zn3  1  0.840820  0.350101  0.350101  1
  Zn  Zn4  1  0.101018  0.101018  0.101018  1
  Zn  Zn5  1  0.898982  0.898982  0.898982  1
  Zn  Zn6  1  0.296961  0.703039  0.000000  1
  Zn  Zn7  1  0.703039  0.000000  0.296961  1
  Zn  Zn8  1  0.000000  0.296961  0.703039  1
  Zn  Zn9  1  0.703039  0.296961  0.000000  1
  Zn  Zn10  1  0.296961  0.000000  0.703039  1
  Zn  Zn11  1  0.000000  0.703039  0.296961  1
  Zn  Zn12  1  0.159180  0.649899  0.649899  1
  Zn  Zn13  1  0.649899  0.649899  0.159180  1
  Zn  Zn14  1  0.649899  0.159180  0.649899  1
  Zn  Zn15  1  0.350101  0.840820  0.350101  1
  Pd  Pd16  1  0.000000  0.000000  0.500000  1
  Pd  Pd17  1  0.000000  0.500000  0.000000  1
  Pd  Pd18  1  0.500000  0.000000  0.000000  1
