# generated using pymatgen
data_ScMn3Cu2(B2Rh5)2
_symmetry_space_group_name_H-M   'P 1'
_cell_length_a   9.28742877
_cell_length_b   2.94916000
_cell_length_c   9.28742877
_cell_angle_alpha   90.00000000
_cell_angle_beta   89.21707616
_cell_angle_gamma   90.00000000
_symmetry_Int_Tables_number   1
_chemical_formula_structural   ScMn3Cu2(B2Rh5)2
_chemical_formula_sum   'Sc1 Mn3 Cu2 B4 Rh10'
_cell_volume   254.35997840
_cell_formula_units_Z   1
loop_
 _symmetry_equiv_pos_site_id
 _symmetry_equiv_pos_as_xyz
  1  'x, y, z'
loop_
 _atom_site_type_symbol
 _atom_site_label
 _atom_site_symmetry_multiplicity
 _atom_site_fract_x
 _atom_site_fract_y
 _atom_site_fract_z
 _atom_site_occupancy
  Sc  Sc0  1  0.324206  0.000000  0.824206  1
  Mn  Mn1  1  0.679810  0.000000  0.179810  1
  Mn  Mn2  1  0.176447  0.000000  0.323919  1
  Mn  Mn3  1  0.823919  0.000000  0.676447  1
  Cu  Cu4  1  0.001257  0.000000  0.999062  1
  Cu  Cu5  1  0.499063  0.000000  0.501258  1
  B  B6  1  0.370908  0.000000  0.130326  1
  B  B7  1  0.869981  0.000000  0.369980  1
  B  B8  1  0.123938  0.000000  0.623938  1
  B  B9  1  0.630326  0.000000  0.870909  1
  Rh  Rh10  1  0.503429  0.499999  0.003428  1
  Rh  Rh11  1  0.214545  0.499999  0.074157  1
  Rh  Rh12  1  0.930626  0.499999  0.214376  1
  Rh  Rh13  1  0.429021  0.499999  0.286249  1
  Rh  Rh14  1  0.714377  0.499999  0.430626  1
  Rh  Rh15  1  0.998591  0.499999  0.498592  1
  Rh  Rh16  1  0.282397  0.499999  0.566757  1
  Rh  Rh17  1  0.574158  0.499999  0.714546  1
  Rh  Rh18  1  0.066756  0.499999  0.782398  1
  Rh  Rh19  1  0.786250  0.499999  0.929021  1
