# generated using pymatgen
data_Tb3Ho2InSb2
_symmetry_space_group_name_H-M   'P 1'
_cell_length_a   8.99591000
_cell_length_b   8.99494868
_cell_length_c   6.45611300
_cell_angle_alpha   90.00000000
_cell_angle_beta   90.00000000
_cell_angle_gamma   119.99645923
_symmetry_Int_Tables_number   1
_chemical_formula_structural   Tb3Ho2InSb2
_chemical_formula_sum   'Tb6 Ho4 In2 Sb4'
_cell_volume   452.44004898
_cell_formula_units_Z   2
loop_
 _symmetry_equiv_pos_site_id
 _symmetry_equiv_pos_as_xyz
  1  'x, y, z'
loop_
 _atom_site_type_symbol
 _atom_site_label
 _atom_site_symmetry_multiplicity
 _atom_site_fract_x
 _atom_site_fract_y
 _atom_site_fract_z
 _atom_site_occupancy
  Tb  Tb0  1  0.758383  0.998734  0.750000  1
  Tb  Tb1  1  0.758383  0.759649  0.250000  1
  Tb  Tb2  1  0.001891  0.242071  0.250000  1
  Tb  Tb3  1  0.001891  0.759820  0.750000  1
  Tb  Tb4  1  0.240612  0.237398  0.750000  1
  Tb  Tb5  1  0.240612  0.003214  0.250000  1
  Ho  Ho6  1  0.334823  0.667412  0.000000  1
  Ho  Ho7  1  0.663512  0.331755  0.500000  1
  Ho  Ho8  1  0.663512  0.331755  0.000000  1
  Ho  Ho9  1  0.334823  0.667412  0.500000  1
  In  In10  1  0.395192  0.998316  0.750000  1
  In  In11  1  0.395192  0.396875  0.250000  1
  Sb  Sb12  1  0.999466  0.607045  0.250000  1
  Sb  Sb13  1  0.999466  0.392421  0.750000  1
  Sb  Sb14  1  0.606121  0.605760  0.750000  1
  Sb  Sb15  1  0.606121  0.000361  0.250000  1
