# generated using pymatgen
data_SmBi11S18
_symmetry_space_group_name_H-M   'P 1'
_cell_length_a   4.09285000
_cell_length_b   10.85777096
_cell_length_c   18.46893900
_cell_angle_alpha   80.97232149
_cell_angle_beta   90.00000000
_cell_angle_gamma   90.00000000
_symmetry_Int_Tables_number   1
_chemical_formula_structural   SmBi11S18
_chemical_formula_sum   'Sm1 Bi11 S18'
_cell_volume   810.57853212
_cell_formula_units_Z   1
loop_
 _symmetry_equiv_pos_site_id
 _symmetry_equiv_pos_as_xyz
  1  'x, y, z'
loop_
 _atom_site_type_symbol
 _atom_site_label
 _atom_site_symmetry_multiplicity
 _atom_site_fract_x
 _atom_site_fract_y
 _atom_site_fract_z
 _atom_site_occupancy
  Sm  Sm0  1  0.250000  0.812324  0.024336  1
  Bi  Bi1  1  0.750000  0.562066  0.897588  1
  Bi  Bi2  1  0.250000  0.434733  0.108719  1
  Bi  Bi3  1  0.750000  0.478829  0.593591  1
  Bi  Bi4  1  0.250000  0.524007  0.404735  1
  Bi  Bi5  1  0.750000  0.197148  0.280267  1
  Bi  Bi6  1  0.250000  0.804539  0.722471  1
  Bi  Bi7  1  0.750000  0.828713  0.217328  1
  Bi  Bi8  1  0.250000  0.173340  0.776551  1
  Bi  Bi9  1  0.750000  0.099692  0.585139  1
  Bi  Bi10  1  0.250000  0.897567  0.412339  1
  Bi  Bi11  1  0.750000  0.181526  0.968470  1
  S  S12  1  0.750000  0.375290  0.469972  1
  S  S13  1  0.250000  0.626622  0.530067  1
  S  S14  1  0.750000  0.309625  0.825284  1
  S  S15  1  0.250000  0.691016  0.175259  1
  S  S16  1  0.750000  0.948504  0.071983  1
  S  S17  1  0.250000  0.044462  0.922563  1
  S  S18  1  0.750000  0.718427  0.365931  1
  S  S19  1  0.250000  0.282660  0.631379  1
  S  S20  1  0.750000  0.006021  0.731842  1
  S  S21  1  0.250000  0.997427  0.268740  1
  S  S22  1  0.750000  0.641203  0.718559  1
  S  S23  1  0.250000  0.361429  0.284751  1
  S  S24  1  0.250000  0.935006  0.577102  1
  S  S25  1  0.750000  0.060541  0.426538  1
  S  S26  1  0.250000  0.736314  0.879080  1
  S  S27  1  0.750000  0.266616  0.127350  1
  S  S28  1  0.250000  0.384966  0.969511  1
  S  S29  1  0.750000  0.619384  0.032552  1
