# generated using pymatgen
data_Sc4Fe10Co9MoP12
_symmetry_space_group_name_H-M   'P 1'
_cell_length_a   3.61767800
_cell_length_b   10.14000426
_cell_length_c   11.65890259
_cell_angle_alpha   90.10688643
_cell_angle_beta   90.00000000
_cell_angle_gamma   90.00000000
_symmetry_Int_Tables_number   1
_chemical_formula_structural   Sc4Fe10Co9MoP12
_chemical_formula_sum   'Sc4 Fe10 Co9 Mo1 P12'
_cell_volume   427.68593148
_cell_formula_units_Z   1
loop_
 _symmetry_equiv_pos_site_id
 _symmetry_equiv_pos_as_xyz
  1  'x, y, z'
loop_
 _atom_site_type_symbol
 _atom_site_label
 _atom_site_symmetry_multiplicity
 _atom_site_fract_x
 _atom_site_fract_y
 _atom_site_fract_z
 _atom_site_occupancy
  Sc  Sc0  1  0.250000  0.580106  0.706146  1
  Sc  Sc1  1  0.250000  0.921465  0.204394  1
  Sc  Sc2  1  0.750000  0.422923  0.295307  1
  Sc  Sc3  1  0.750000  0.079668  0.792830  1
  Fe  Fe4  1  0.250000  0.621396  0.205596  1
  Fe  Fe5  1  0.250000  0.406548  0.489350  1
  Fe  Fe6  1  0.250000  0.094519  0.986696  1
  Fe  Fe7  1  0.250000  0.457369  0.932149  1
  Fe  Fe8  1  0.250000  0.037752  0.429140  1
  Fe  Fe9  1  0.750000  0.531827  0.066842  1
  Fe  Fe10  1  0.750000  0.963195  0.566511  1
  Fe  Fe11  1  0.250000  0.787132  0.492257  1
  Fe  Fe12  1  0.750000  0.290724  0.008132  1
  Fe  Fe13  1  0.750000  0.211726  0.508713  1
  Co  Co14  1  0.250000  0.224679  0.173271  1
  Co  Co15  1  0.250000  0.274872  0.675075  1
  Co  Co16  1  0.750000  0.776048  0.822333  1
  Co  Co17  1  0.750000  0.724921  0.330646  1
  Co  Co18  1  0.250000  0.880649  0.699935  1
  Co  Co19  1  0.750000  0.122935  0.296098  1
  Co  Co20  1  0.750000  0.378442  0.797108  1
  Co  Co21  1  0.750000  0.593312  0.516423  1
  Co  Co22  1  0.750000  0.907588  0.015927  1
  Mo  Mo23  1  0.250000  0.706434  0.989768  1
  P  P24  1  0.250000  0.425015  0.117622  1
  P  P25  1  0.250000  0.076578  0.612510  1
  P  P26  1  0.750000  0.573176  0.882421  1
  P  P27  1  0.750000  0.926159  0.384029  1
  P  P28  1  0.250000  0.259772  0.866070  1
  P  P29  1  0.250000  0.238188  0.365860  1
  P  P30  1  0.750000  0.732969  0.141813  1
  P  P31  1  0.750000  0.765397  0.633228  1
  P  P32  1  0.250000  0.597069  0.393787  1
  P  P33  1  0.250000  0.908339  0.887716  1
  P  P34  1  0.750000  0.399025  0.608280  1
  P  P35  1  0.750000  0.102084  0.106012  1
