# generated using pymatgen
data_LiTh8(Si4Pd)3
_symmetry_space_group_name_H-M   'P 1'
_cell_length_a   8.24151500
_cell_length_b   8.24156392
_cell_length_c   8.50834800
_cell_angle_alpha   90.00217951
_cell_angle_beta   89.99782412
_cell_angle_gamma   119.99899505
_symmetry_Int_Tables_number   1
_chemical_formula_structural   LiTh8(Si4Pd)3
_chemical_formula_sum   'Li1 Th8 Si12 Pd3'
_cell_volume   500.49179116
_cell_formula_units_Z   1
loop_
 _symmetry_equiv_pos_site_id
 _symmetry_equiv_pos_as_xyz
  1  'x, y, z'
loop_
 _atom_site_type_symbol
 _atom_site_label
 _atom_site_symmetry_multiplicity
 _atom_site_fract_x
 _atom_site_fract_y
 _atom_site_fract_z
 _atom_site_occupancy
  Li  Li0  1  0.333336  0.666667  0.999132  1
  Th  Th1  1  0.500187  0.000346  0.247269  1
  Th  Th2  1  0.500386  0.000789  0.752695  1
  Th  Th3  1  0.999653  0.499813  0.247270  1
  Th  Th4  1  0.999210  0.499614  0.752695  1
  Th  Th5  1  0.500175  0.499824  0.247274  1
  Th  Th6  1  0.500393  0.499607  0.752700  1
  Th  Th7  1  0.999997  0.000004  0.249084  1
  Th  Th8  1  0.999999  0.000001  0.750927  1
  Si  Si9  1  0.168234  0.336465  0.000136  1
  Si  Si10  1  0.834693  0.669392  0.999930  1
  Si  Si11  1  0.663534  0.831763  0.000137  1
  Si  Si12  1  0.834929  0.669867  0.499636  1
  Si  Si13  1  0.330609  0.165309  0.999930  1
  Si  Si14  1  0.165603  0.331192  0.500343  1
  Si  Si15  1  0.168228  0.831769  0.000123  1
  Si  Si16  1  0.330136  0.165074  0.499636  1
  Si  Si17  1  0.834695  0.165306  0.999954  1
  Si  Si18  1  0.668804  0.834394  0.500343  1
  Si  Si19  1  0.834935  0.165068  0.499664  1
  Si  Si20  1  0.165596  0.834400  0.500321  1
  Pd  Pd21  1  0.666669  0.333335  0.000096  1
  Pd  Pd22  1  0.666665  0.333338  0.499988  1
  Pd  Pd23  1  0.333333  0.666664  0.500717  1
