# generated using pymatgen
data_CaTbPa2(Al3Ir)6
_symmetry_space_group_name_H-M   'P 1'
_cell_length_a   7.60242977
_cell_length_b   7.60222464
_cell_length_c   9.38377500
_cell_angle_alpha   90.00000000
_cell_angle_beta   90.00000000
_cell_angle_gamma   119.63367463
_symmetry_Int_Tables_number   1
_chemical_formula_structural   CaTbPa2(Al3Ir)6
_chemical_formula_sum   'Ca1 Tb1 Pa2 Al18 Ir6'
_cell_volume   471.40333870
_cell_formula_units_Z   1
loop_
 _symmetry_equiv_pos_site_id
 _symmetry_equiv_pos_as_xyz
  1  'x, y, z'
loop_
 _atom_site_type_symbol
 _atom_site_label
 _atom_site_symmetry_multiplicity
 _atom_site_fract_x
 _atom_site_fract_y
 _atom_site_fract_z
 _atom_site_occupancy
  Ca  Ca0  1  0.670196  0.993833  0.250000  1
  Tb  Tb1  1  0.330869  0.006625  0.750000  1
  Pa  Pa2  1  0.997716  0.671795  0.250000  1
  Pa  Pa3  1  0.002262  0.328178  0.750000  1
  Al  Al4  1  0.131026  0.126734  0.250000  1
  Al  Al5  1  0.868839  0.872331  0.750000  1
  Al  Al6  1  0.999882  0.331262  0.078285  1
  Al  Al7  1  0.998958  0.667840  0.922060  1
  Al  Al8  1  0.998958  0.667840  0.577940  1
  Al  Al9  1  0.339073  0.003408  0.424563  1
  Al  Al10  1  0.999882  0.331262  0.421715  1
  Al  Al11  1  0.661893  0.996355  0.573674  1
  Al  Al12  1  0.661893  0.996355  0.926326  1
  Al  Al13  1  0.339073  0.003408  0.075437  1
  Al  Al14  1  0.335246  0.333666  0.553388  1
  Al  Al15  1  0.664516  0.666915  0.446438  1
  Al  Al16  1  0.664516  0.666915  0.053562  1
  Al  Al17  1  0.335246  0.333666  0.946612  1
  Al  Al18  1  0.339543  0.547819  0.250000  1
  Al  Al19  1  0.659652  0.452694  0.750000  1
  Al  Al20  1  0.549677  0.343040  0.250000  1
  Al  Al21  1  0.451415  0.658787  0.750000  1
  Ir  Ir22  1  0.675766  0.330812  0.998570  1
  Ir  Ir23  1  0.322709  0.668667  0.999409  1
  Ir  Ir24  1  0.322709  0.668667  0.500591  1
  Ir  Ir25  1  0.675766  0.330812  0.501430  1
  Ir  Ir26  1  0.001359  0.000157  0.999058  1
  Ir  Ir27  1  0.001359  0.000157  0.500942  1
