# generated using pymatgen
data_Li2Dy13Er3(InRh2)2
_symmetry_space_group_name_H-M   'P 1'
_cell_length_a   9.62195360
_cell_length_b   9.65272716
_cell_length_c   9.62388011
_cell_angle_alpha   59.90079732
_cell_angle_beta   59.97019894
_cell_angle_gamma   59.89414737
_symmetry_Int_Tables_number   1
_chemical_formula_structural   Li2Dy13Er3(InRh2)2
_chemical_formula_sum   'Li2 Dy13 Er3 In2 Rh4'
_cell_volume   630.92265077
_cell_formula_units_Z   1
loop_
 _symmetry_equiv_pos_site_id
 _symmetry_equiv_pos_as_xyz
  1  'x, y, z'
loop_
 _atom_site_type_symbol
 _atom_site_label
 _atom_site_symmetry_multiplicity
 _atom_site_fract_x
 _atom_site_fract_y
 _atom_site_fract_z
 _atom_site_occupancy
  Li  Li0  1  0.924847  0.927188  0.220777  1
  Li  Li1  1  0.220729  0.927170  0.924932  1
  Dy  Dy2  1  0.936497  0.935739  0.563246  1
  Dy  Dy3  1  0.147912  0.151487  0.549114  1
  Dy  Dy4  1  0.562205  0.938010  0.561776  1
  Dy  Dy5  1  0.151152  0.155186  0.151540  1
  Dy  Dy6  1  0.312759  0.311873  0.688689  1
  Dy  Dy7  1  0.936497  0.564519  0.563246  1
  Dy  Dy8  1  0.563457  0.564300  0.936765  1
  Dy  Dy9  1  0.563457  0.935479  0.936765  1
  Dy  Dy10  1  0.935045  0.564729  0.935498  1
  Dy  Dy11  1  0.151152  0.542120  0.151540  1
  Dy  Dy12  1  0.312759  0.686679  0.688689  1
  Dy  Dy13  1  0.692267  0.308025  0.691684  1
  Dy  Dy14  1  0.549492  0.151154  0.148200  1
  Er  Er15  1  0.688801  0.312255  0.312613  1
  Er  Er16  1  0.688801  0.686331  0.312613  1
  Er  Er17  1  0.317041  0.683086  0.316787  1
  In  In18  1  0.920672  0.244237  0.920907  1
  In  In19  1  0.920672  0.914185  0.920907  1
  Rh  Rh20  1  0.359035  0.356214  0.358681  1
  Rh  Rh21  1  0.926530  0.357164  0.359144  1
  Rh  Rh22  1  0.359189  0.356800  0.927212  1
  Rh  Rh23  1  0.359035  0.926073  0.358681  1
