# generated using pymatgen
data_Y5P12Ir16Os3
_symmetry_space_group_name_H-M   'P 1'
_cell_length_a   12.68997900
_cell_length_b   12.68997822
_cell_length_c   3.99630500
_cell_angle_alpha   90.00000000
_cell_angle_beta   90.00000000
_cell_angle_gamma   120.00000464
_symmetry_Int_Tables_number   1
_chemical_formula_structural   Y5P12Ir16Os3
_chemical_formula_sum   'Y5 P12 Ir16 Os3'
_cell_volume   557.32819959
_cell_formula_units_Z   1
loop_
 _symmetry_equiv_pos_site_id
 _symmetry_equiv_pos_as_xyz
  1  'x, y, z'
loop_
 _atom_site_type_symbol
 _atom_site_label
 _atom_site_symmetry_multiplicity
 _atom_site_fract_x
 _atom_site_fract_y
 _atom_site_fract_z
 _atom_site_occupancy
  Y  Y0  1  0.666667  0.333333  0.000000  1
  Y  Y1  1  0.333333  0.666667  0.000000  1
  Y  Y2  1  0.817279  0.817279  0.500000  1
  Y  Y3  1  0.182721  0.000000  0.500000  1
  Y  Y4  1  0.000000  0.182721  0.500000  1
  P  P5  1  0.690222  0.170856  0.500000  1
  P  P6  1  0.829144  0.519365  0.500000  1
  P  P7  1  0.480635  0.309778  0.500000  1
  P  P8  1  0.170856  0.690222  0.500000  1
  P  P9  1  0.519365  0.829144  0.500000  1
  P  P10  1  0.309778  0.480635  0.500000  1
  P  P11  1  0.641988  0.641988  0.000000  1
  P  P12  1  0.358012  0.000000  0.000000  1
  P  P13  1  0.000000  0.358012  0.000000  1
  P  P14  1  0.181108  0.181108  0.000000  1
  P  P15  1  0.818892  0.000000  0.000000  1
  P  P16  1  0.000000  0.818892  0.000000  1
  Ir  Ir17  1  0.805128  0.182884  0.000000  1
  Ir  Ir18  1  0.817116  0.622244  0.000000  1
  Ir  Ir19  1  0.377756  0.194872  0.000000  1
  Ir  Ir20  1  0.182884  0.805128  0.000000  1
  Ir  Ir21  1  0.622244  0.817116  0.000000  1
  Ir  Ir22  1  0.194872  0.377756  0.000000  1
  Ir  Ir23  1  0.460438  0.460438  0.000000  1
  Ir  Ir24  1  0.539562  0.000000  0.000000  1
  Ir  Ir25  1  0.000000  0.539562  0.000000  1
  Ir  Ir26  1  0.868696  0.362970  0.500000  1
  Ir  Ir27  1  0.637030  0.505726  0.500000  1
  Ir  Ir28  1  0.494274  0.131304  0.500000  1
  Ir  Ir29  1  0.362970  0.868696  0.500000  1
  Ir  Ir30  1  0.505726  0.637030  0.500000  1
  Ir  Ir31  1  0.131304  0.494274  0.500000  1
  Ir  Ir32  1  0.000000  0.000000  0.000000  1
  Os  Os33  1  0.285986  0.285986  0.500000  1
  Os  Os34  1  0.714014  0.000000  0.500000  1
  Os  Os35  1  0.000000  0.714014  0.500000  1
