# generated using pymatgen
data_Hf10CuSn3Sb4
_symmetry_space_group_name_H-M   'P 1'
_cell_length_a   5.84977001
_cell_length_b   8.67866816
_cell_length_c   8.67870300
_cell_angle_alpha   119.99984907
_cell_angle_beta   89.99876443
_cell_angle_gamma   90.00358023
_symmetry_Int_Tables_number   1
_chemical_formula_structural   Hf10CuSn3Sb4
_chemical_formula_sum   'Hf10 Cu1 Sn3 Sb4'
_cell_volume   381.57331255
_cell_formula_units_Z   1
loop_
 _symmetry_equiv_pos_site_id
 _symmetry_equiv_pos_as_xyz
  1  'x, y, z'
loop_
 _atom_site_type_symbol
 _atom_site_label
 _atom_site_symmetry_multiplicity
 _atom_site_fract_x
 _atom_site_fract_y
 _atom_site_fract_z
 _atom_site_occupancy
  Hf  Hf0  1  0.498211  0.333338  0.666659  1
  Hf  Hf1  1  0.498214  0.666664  0.333340  1
  Hf  Hf2  1  0.001592  0.666665  0.333331  1
  Hf  Hf3  1  0.001581  0.333338  0.666674  1
  Hf  Hf4  1  0.733489  0.272466  0.999994  1
  Hf  Hf5  1  0.733492  0.727536  0.727532  1
  Hf  Hf6  1  0.733486  0.999996  0.272463  1
  Hf  Hf7  1  0.268009  0.724633  0.000002  1
  Hf  Hf8  1  0.268003  0.275367  0.275372  1
  Hf  Hf9  1  0.268016  0.000004  0.724636  1
  Cu  Cu10  1  0.496372  0.999993  0.999997  1
  Sn  Sn11  1  0.245242  0.385172  0.000011  1
  Sn  Sn12  1  0.245239  0.614833  0.614833  1
  Sn  Sn13  1  0.245236  0.999992  0.385167  1
  Sb  Sb14  1  0.753491  0.611020  0.999992  1
  Sb  Sb15  1  0.753490  0.388976  0.388976  1
  Sb  Sb16  1  0.753495  0.000005  0.611020  1
  Sb  Sb17  1  0.003343  0.000002  0.000001  1
