# generated using pymatgen
data_La6NdDy13Sn16
_symmetry_space_group_name_H-M   'P 1'
_cell_length_a   8.17869300
_cell_length_b   8.33076631
_cell_length_c   15.71723100
_cell_angle_alpha   90.05937444
_cell_angle_beta   90.45066803
_cell_angle_gamma   89.82014261
_symmetry_Int_Tables_number   1
_chemical_formula_structural   La6NdDy13Sn16
_chemical_formula_sum   'La6 Nd1 Dy13 Sn16'
_cell_volume   1070.85112682
_cell_formula_units_Z   1
loop_
 _symmetry_equiv_pos_site_id
 _symmetry_equiv_pos_as_xyz
  1  'x, y, z'
loop_
 _atom_site_type_symbol
 _atom_site_label
 _atom_site_symmetry_multiplicity
 _atom_site_fract_x
 _atom_site_fract_y
 _atom_site_fract_z
 _atom_site_occupancy
  La  La0  1  0.014808  0.179400  0.598995  1
  La  La1  1  0.486857  0.678369  0.404013  1
  La  La2  1  0.984862  0.821881  0.095373  1
  La  La3  1  0.485007  0.676728  0.094887  1
  La  La4  1  0.986366  0.821683  0.403859  1
  La  La5  1  0.512829  0.323080  0.596665  1
  Nd  Nd6  1  0.015693  0.180490  0.902093  1
  Dy  Dy7  1  0.361249  0.835973  0.877518  1
  Dy  Dy8  1  0.858121  0.664660  0.625077  1
  Dy  Dy9  1  0.641468  0.164141  0.376470  1
  Dy  Dy10  1  0.136505  0.336757  0.121340  1
  Dy  Dy11  1  0.637424  0.162470  0.121426  1
  Dy  Dy12  1  0.142125  0.336240  0.376915  1
  Dy  Dy13  1  0.357823  0.837322  0.625841  1
  Dy  Dy14  1  0.861468  0.662294  0.878083  1
  Dy  Dy15  1  0.520444  0.320747  0.901046  1
  Dy  Dy16  1  0.193779  0.501206  0.751719  1
  Dy  Dy17  1  0.692601  0.997755  0.751386  1
  Dy  Dy18  1  0.805478  0.496863  0.249474  1
  Dy  Dy19  1  0.305870  0.002726  0.248620  1
  Sn  Sn20  1  0.301391  0.043719  0.039957  1
  Sn  Sn21  1  0.808009  0.458271  0.458094  1
  Sn  Sn22  1  0.692244  0.959594  0.543365  1
  Sn  Sn23  1  0.203536  0.532195  0.954884  1
  Sn  Sn24  1  0.697432  0.965259  0.955400  1
  Sn  Sn25  1  0.191280  0.543793  0.543152  1
  Sn  Sn26  1  0.308142  0.041468  0.458238  1
  Sn  Sn27  1  0.798506  0.453374  0.039029  1
  Sn  Sn28  1  0.558495  0.622799  0.751252  1
  Sn  Sn29  1  0.058012  0.876268  0.752294  1
  Sn  Sn30  1  0.440819  0.374285  0.248822  1
  Sn  Sn31  1  0.941077  0.125990  0.249389  1
  Sn  Sn32  1  0.326089  0.144994  0.753735  1
  Sn  Sn33  1  0.819928  0.358461  0.752176  1
  Sn  Sn34  1  0.676726  0.858480  0.249618  1
  Sn  Sn35  1  0.177534  0.640265  0.249801  1
