# generated using pymatgen
data_YTmHf2(Al3Ir)6
_symmetry_space_group_name_H-M   'P 1'
_cell_length_a   7.50748482
_cell_length_b   7.50642125
_cell_length_c   9.33706600
_cell_angle_alpha   90.00000000
_cell_angle_beta   90.00000000
_cell_angle_gamma   119.73217976
_symmetry_Int_Tables_number   1
_chemical_formula_structural   YTmHf2(Al3Ir)6
_chemical_formula_sum   'Y1 Tm1 Hf2 Al18 Ir6'
_cell_volume   456.91370681
_cell_formula_units_Z   1
loop_
 _symmetry_equiv_pos_site_id
 _symmetry_equiv_pos_as_xyz
  1  'x, y, z'
loop_
 _atom_site_type_symbol
 _atom_site_label
 _atom_site_symmetry_multiplicity
 _atom_site_fract_x
 _atom_site_fract_y
 _atom_site_fract_z
 _atom_site_occupancy
  Y  Y0  1  0.005908  0.328934  0.750000  1
  Tm  Tm1  1  0.328814  0.005850  0.750000  1
  Hf  Hf2  1  0.994395  0.672635  0.250000  1
  Hf  Hf3  1  0.672131  0.994060  0.250000  1
  Al  Al4  1  0.123007  0.122991  0.250000  1
  Al  Al5  1  0.870384  0.869788  0.750000  1
  Al  Al6  1  0.997639  0.335053  0.082532  1
  Al  Al7  1  0.999542  0.665616  0.929516  1
  Al  Al8  1  0.999542  0.665616  0.570484  1
  Al  Al9  1  0.335099  0.997730  0.417870  1
  Al  Al10  1  0.997639  0.335053  0.417468  1
  Al  Al11  1  0.664725  0.999001  0.570542  1
  Al  Al12  1  0.664725  0.999001  0.929458  1
  Al  Al13  1  0.335099  0.997730  0.082130  1
  Al  Al14  1  0.333949  0.333504  0.552443  1
  Al  Al15  1  0.668433  0.668367  0.437629  1
  Al  Al16  1  0.668433  0.668367  0.062371  1
  Al  Al17  1  0.333949  0.333504  0.947557  1
  Al  Al18  1  0.339416  0.554311  0.250000  1
  Al  Al19  1  0.660969  0.452158  0.750000  1
  Al  Al20  1  0.554398  0.339575  0.250000  1
  Al  Al21  1  0.452873  0.662254  0.750000  1
  Ir  Ir22  1  0.673003  0.327916  0.002372  1
  Ir  Ir23  1  0.328099  0.673303  0.002405  1
  Ir  Ir24  1  0.328099  0.673303  0.497595  1
  Ir  Ir25  1  0.673003  0.327916  0.497628  1
  Ir  Ir26  1  0.998364  0.998230  0.002280  1
  Ir  Ir27  1  0.998364  0.998230  0.497720  1
