# generated using pymatgen
data_Lu(S8Cl)3
_symmetry_space_group_name_H-M   'P 1'
_cell_length_a   4.56138972
_cell_length_b   14.81737318
_cell_length_c   14.81737322
_cell_angle_alpha   118.96043879
_cell_angle_beta   95.88968518
_cell_angle_gamma   95.88968945
_symmetry_Int_Tables_number   1
_chemical_formula_structural   Lu(S8Cl)3
_chemical_formula_sum   'Lu1 S24 Cl3'
_cell_volume   858.16958312
_cell_formula_units_Z   1
loop_
 _symmetry_equiv_pos_site_id
 _symmetry_equiv_pos_as_xyz
  1  'x, y, z'
loop_
 _atom_site_type_symbol
 _atom_site_label
 _atom_site_symmetry_multiplicity
 _atom_site_fract_x
 _atom_site_fract_y
 _atom_site_fract_z
 _atom_site_occupancy
  Lu  Lu0  1  0.711629  0.000000  0.000000  1
  S  S1  1  0.397449  0.400845  0.000000  1
  S  S2  1  0.543874  0.725491  0.000000  1
  S  S3  1  0.272812  0.517087  0.130595  1
  S  S4  1  0.377952  0.746265  0.132376  1
  S  S5  1  0.564757  0.655718  0.185343  1
  S  S6  1  0.631687  0.386111  0.253735  1
  S  S7  1  0.818382  0.274509  0.274509  1
  S  S8  1  0.909038  0.529624  0.344281  1
  S  S9  1  0.142217  0.869406  0.386492  1
  S  S10  1  0.631687  0.253735  0.386111  1
  S  S11  1  0.397449  0.000000  0.400845  1
  S  S12  1  0.379414  0.814658  0.470376  1
  S  S13  1  0.755726  0.613508  0.482914  1
  S  S14  1  0.272812  0.130595  0.517087  1
  S  S15  1  0.909038  0.344281  0.529624  1
  S  S16  1  0.996606  0.599155  0.599155  1
  S  S17  1  0.245576  0.867624  0.613889  1
  S  S18  1  0.755726  0.482914  0.613508  1
  S  S19  1  0.564757  0.185343  0.655718  1
  S  S20  1  0.543874  0.000000  0.725491  1
  S  S21  1  0.377952  0.132376  0.746265  1
  S  S22  1  0.379414  0.470376  0.814658  1
  S  S23  1  0.245576  0.613889  0.867624  1
  S  S24  1  0.142217  0.386492  0.869406  1
  Cl  Cl25  1  0.041102  0.138016  0.000000  1
  Cl  Cl26  1  0.041102  0.000000  0.138016  1
  Cl  Cl27  1  0.903086  0.861984  0.861984  1
