# generated using pymatgen
data_Ho16In2Ag2IrRh3
_symmetry_space_group_name_H-M   'P 1'
_cell_length_a   9.53490339
_cell_length_b   9.55563768
_cell_length_c   9.54834300
_cell_angle_alpha   60.02525993
_cell_angle_beta   59.95337300
_cell_angle_gamma   60.07225233
_symmetry_Int_Tables_number   1
_chemical_formula_structural   Ho16In2Ag2IrRh3
_chemical_formula_sum   'Ho16 In2 Ag2 Ir1 Rh3'
_cell_volume   615.39647178
_cell_formula_units_Z   1
loop_
 _symmetry_equiv_pos_site_id
 _symmetry_equiv_pos_as_xyz
  1  'x, y, z'
loop_
 _atom_site_type_symbol
 _atom_site_label
 _atom_site_symmetry_multiplicity
 _atom_site_fract_x
 _atom_site_fract_y
 _atom_site_fract_z
 _atom_site_occupancy
  Ho  Ho0  1  0.185797  0.185766  0.814219  1
  Ho  Ho1  1  0.600202  0.600641  0.198888  1
  Ho  Ho2  1  0.439102  0.059865  0.440397  1
  Ho  Ho3  1  0.441061  0.441545  0.058697  1
  Ho  Ho4  1  0.812751  0.182652  0.814703  1
  Ho  Ho5  1  0.183337  0.812589  0.190519  1
  Ho  Ho6  1  0.439102  0.059865  0.060636  1
  Ho  Ho7  1  0.183337  0.812589  0.813555  1
  Ho  Ho8  1  0.060241  0.439221  0.060440  1
  Ho  Ho9  1  0.810101  0.811759  0.189070  1
  Ho  Ho10  1  0.198111  0.601617  0.600136  1
  Ho  Ho11  1  0.060241  0.439221  0.440098  1
  Ho  Ho12  1  0.061869  0.061230  0.438451  1
  Ho  Ho13  1  0.812751  0.182652  0.189894  1
  Ho  Ho14  1  0.601440  0.197539  0.600511  1
  Ho  Ho15  1  0.600202  0.600641  0.600269  1
  In  In16  1  0.507262  0.833605  0.829567  1
  In  In17  1  0.833567  0.507110  0.829662  1
  Ag  Ag18  1  0.833905  0.834033  0.831771  1
  Ag  Ag19  1  0.833905  0.834033  0.500292  1
  Ir  Ir20  1  0.393243  0.822959  0.391899  1
  Rh  Rh21  1  0.392808  0.392917  0.391480  1
  Rh  Rh22  1  0.822860  0.393036  0.392052  1
  Rh  Rh23  1  0.392808  0.392917  0.822796  1
