# generated using pymatgen
data_Ho8Ti11Si16Hg
_symmetry_space_group_name_H-M   'P 1'
_cell_length_a   7.07496619
_cell_length_b   7.07496619
_cell_length_c   12.90833110
_cell_angle_alpha   90.13119251
_cell_angle_beta   89.86880749
_cell_angle_gamma   89.59790863
_symmetry_Int_Tables_number   1
_chemical_formula_structural   Ho8Ti11Si16Hg
_chemical_formula_sum   'Ho8 Ti11 Si16 Hg1'
_cell_volume   646.10908346
_cell_formula_units_Z   1
loop_
 _symmetry_equiv_pos_site_id
 _symmetry_equiv_pos_as_xyz
  1  'x, y, z'
loop_
 _atom_site_type_symbol
 _atom_site_label
 _atom_site_symmetry_multiplicity
 _atom_site_fract_x
 _atom_site_fract_y
 _atom_site_fract_z
 _atom_site_occupancy
  Ho  Ho0  1  0.341397  0.002210  0.466972  1
  Ho  Ho1  1  0.498048  0.839379  0.716056  1
  Ho  Ho2  1  0.501289  0.157393  0.215186  1
  Ho  Ho3  1  0.839379  0.498048  0.283944  1
  Ho  Ho4  1  0.157393  0.501289  0.784814  1
  Ho  Ho5  1  0.657188  0.000030  0.968317  1
  Ho  Ho6  1  0.002210  0.341397  0.533028  1
  Ho  Ho7  1  0.000030  0.657188  0.031683  1
  Ti  Ti8  1  0.173557  0.826796  0.250568  1
  Ti  Ti9  1  0.826796  0.173557  0.749432  1
  Ti  Ti10  1  0.673060  0.673060  0.500000  1
  Ti  Ti11  1  0.147377  0.008051  0.876823  1
  Ti  Ti12  1  0.495215  0.650135  0.124062  1
  Ti  Ti13  1  0.507297  0.351350  0.624687  1
  Ti  Ti14  1  0.650135  0.495215  0.875938  1
  Ti  Ti15  1  0.351350  0.507297  0.375313  1
  Ti  Ti16  1  0.849649  0.991807  0.374883  1
  Ti  Ti17  1  0.008051  0.147377  0.123177  1
  Ti  Ti18  1  0.991807  0.849649  0.625117  1
  Si  Si19  1  0.201994  0.131968  0.683812  1
  Si  Si20  1  0.373842  0.724020  0.927476  1
  Si  Si21  1  0.631520  0.294693  0.432908  1
  Si  Si22  1  0.724020  0.373842  0.072524  1
  Si  Si23  1  0.294693  0.631520  0.567092  1
  Si  Si24  1  0.798106  0.867278  0.183277  1
  Si  Si25  1  0.131968  0.201994  0.316188  1
  Si  Si26  1  0.867278  0.798106  0.816723  1
  Si  Si27  1  0.286032  0.933195  0.067512  1
  Si  Si28  1  0.546584  0.791484  0.315022  1
  Si  Si29  1  0.458641  0.204863  0.805543  1
  Si  Si30  1  0.791484  0.546584  0.684978  1
  Si  Si31  1  0.204863  0.458641  0.194457  1
  Si  Si32  1  0.709325  0.047793  0.564178  1
  Si  Si33  1  0.933195  0.286032  0.932488  1
  Si  Si34  1  0.047793  0.709325  0.435822  1
  Hg  Hg35  1  0.327431  0.327431  0.000000  1
