# generated using pymatgen
data_Nd20GaSi11
_symmetry_space_group_name_H-M   'P 1'
_cell_length_a   7.77354100
_cell_length_b   7.77354100
_cell_length_c   14.27673500
_cell_angle_alpha   90.00000000
_cell_angle_beta   90.00000000
_cell_angle_gamma   90.00000000
_symmetry_Int_Tables_number   1
_chemical_formula_structural   Nd20GaSi11
_chemical_formula_sum   'Nd20 Ga1 Si11'
_cell_volume   862.71368139
_cell_formula_units_Z   1
loop_
 _symmetry_equiv_pos_site_id
 _symmetry_equiv_pos_as_xyz
  1  'x, y, z'
loop_
 _atom_site_type_symbol
 _atom_site_label
 _atom_site_symmetry_multiplicity
 _atom_site_fract_x
 _atom_site_fract_y
 _atom_site_fract_z
 _atom_site_occupancy
  Nd  Nd0  1  0.500000  0.000000  0.771818  1
  Nd  Nd1  1  0.326141  0.315646  0.105480  1
  Nd  Nd2  1  0.828577  0.813758  0.894426  1
  Nd  Nd3  1  0.000000  0.500000  0.235808  1
  Nd  Nd4  1  0.824062  0.181527  0.391875  1
  Nd  Nd5  1  0.171423  0.186242  0.894426  1
  Nd  Nd6  1  0.673859  0.684354  0.105480  1
  Nd  Nd7  1  0.000000  0.500000  0.727436  1
  Nd  Nd8  1  0.810877  0.832915  0.608452  1
  Nd  Nd9  1  0.318473  0.324062  0.391875  1
  Nd  Nd10  1  0.184354  0.826141  0.105480  1
  Nd  Nd11  1  0.189123  0.167085  0.608452  1
  Nd  Nd12  1  0.815646  0.173859  0.105480  1
  Nd  Nd13  1  0.332915  0.689123  0.608452  1
  Nd  Nd14  1  0.500000  0.000000  0.265166  1
  Nd  Nd15  1  0.686242  0.328577  0.894426  1
  Nd  Nd16  1  0.667085  0.310877  0.608452  1
  Nd  Nd17  1  0.313758  0.671423  0.894426  1
  Nd  Nd18  1  0.175938  0.818473  0.391875  1
  Nd  Nd19  1  0.681527  0.675938  0.391875  1
  Ga  Ga20  1  0.000000  0.500000  0.503214  1
  Si  Si21  1  0.614359  0.386978  0.248259  1
  Si  Si22  1  0.886587  0.114238  0.752083  1
  Si  Si23  1  0.500000  0.000000  0.491192  1
  Si  Si24  1  0.886978  0.885641  0.248259  1
  Si  Si25  1  0.000000  0.500000  0.008827  1
  Si  Si26  1  0.113413  0.885762  0.752083  1
  Si  Si27  1  0.385762  0.386587  0.752083  1
  Si  Si28  1  0.113022  0.114359  0.248259  1
  Si  Si29  1  0.385641  0.613022  0.248259  1
  Si  Si30  1  0.614238  0.613413  0.752083  1
  Si  Si31  1  0.500000  0.000000  0.994232  1
