# generated using pymatgen
data_SrTcPb2Cl2O5
_symmetry_space_group_name_H-M   'P 1'
_cell_length_a   7.21646058
_cell_length_b   7.21645968
_cell_length_c   11.12296700
_cell_angle_alpha   90.00000000
_cell_angle_beta   90.00000000
_cell_angle_gamma   133.93683828
_symmetry_Int_Tables_number   1
_chemical_formula_structural   SrTcPb2Cl2O5
_chemical_formula_sum   'Sr2 Tc2 Pb4 Cl4 O10'
_cell_volume   417.12382186
_cell_formula_units_Z   2
loop_
 _symmetry_equiv_pos_site_id
 _symmetry_equiv_pos_as_xyz
  1  'x, y, z'
loop_
 _atom_site_type_symbol
 _atom_site_label
 _atom_site_symmetry_multiplicity
 _atom_site_fract_x
 _atom_site_fract_y
 _atom_site_fract_z
 _atom_site_occupancy
  Sr  Sr0  1  0.898174  0.101826  0.750000  1
  Sr  Sr1  1  0.101826  0.898174  0.250000  1
  Tc  Tc2  1  0.769247  0.230753  0.250000  1
  Tc  Tc3  1  0.230753  0.769247  0.750000  1
  Pb  Pb4  1  0.652242  0.347758  0.530155  1
  Pb  Pb5  1  0.347758  0.652242  0.030155  1
  Pb  Pb6  1  0.652242  0.347758  0.969845  1
  Pb  Pb7  1  0.347758  0.652242  0.469845  1
  Cl  Cl8  1  0.519530  0.480470  0.250000  1
  Cl  Cl9  1  0.000000  0.000000  0.500000  1
  Cl  Cl10  1  0.480470  0.519530  0.750000  1
  Cl  Cl11  1  0.000000  0.000000  0.000000  1
  O  O12  1  0.497240  0.042421  0.368653  1
  O  O13  1  0.042421  0.497240  0.631347  1
  O  O14  1  0.502760  0.957579  0.868653  1
  O  O15  1  0.502760  0.957579  0.631347  1
  O  O16  1  0.102910  0.897090  0.750000  1
  O  O17  1  0.042421  0.497240  0.868653  1
  O  O18  1  0.497240  0.042421  0.131347  1
  O  O19  1  0.957579  0.502760  0.368653  1
  O  O20  1  0.897090  0.102910  0.250000  1
  O  O21  1  0.957579  0.502760  0.131347  1
