# generated using pymatgen
data_Lu3Al12IrOs3
_symmetry_space_group_name_H-M   'P 1'
_cell_length_a   8.73883508
_cell_length_b   8.73883511
_cell_length_c   9.57026100
_cell_angle_alpha   90.00000000
_cell_angle_beta   90.00000000
_cell_angle_gamma   119.67262886
_symmetry_Int_Tables_number   1
_chemical_formula_structural   Lu3Al12IrOs3
_chemical_formula_sum   'Lu6 Al24 Ir2 Os6'
_cell_volume   635.01608327
_cell_formula_units_Z   2
loop_
 _symmetry_equiv_pos_site_id
 _symmetry_equiv_pos_as_xyz
  1  'x, y, z'
loop_
 _atom_site_type_symbol
 _atom_site_label
 _atom_site_symmetry_multiplicity
 _atom_site_fract_x
 _atom_site_fract_y
 _atom_site_fract_z
 _atom_site_occupancy
  Lu  Lu0  1  0.189384  0.389713  0.250000  1
  Lu  Lu1  1  0.810616  0.610287  0.750000  1
  Lu  Lu2  1  0.610287  0.810616  0.250000  1
  Lu  Lu3  1  0.389713  0.189384  0.750000  1
  Lu  Lu4  1  0.196015  0.803985  0.250000  1
  Lu  Lu5  1  0.803985  0.196015  0.750000  1
  Al  Al6  1  0.332892  0.667108  0.026004  1
  Al  Al7  1  0.667108  0.332892  0.973996  1
  Al  Al8  1  0.667108  0.332892  0.526004  1
  Al  Al9  1  0.332892  0.667108  0.473996  1
  Al  Al10  1  0.162851  0.326314  0.577533  1
  Al  Al11  1  0.837149  0.673686  0.422467  1
  Al  Al12  1  0.673686  0.837149  0.577533  1
  Al  Al13  1  0.837149  0.673686  0.077533  1
  Al  Al14  1  0.326314  0.162851  0.422467  1
  Al  Al15  1  0.162851  0.326314  0.922467  1
  Al  Al16  1  0.163816  0.836184  0.576826  1
  Al  Al17  1  0.326314  0.162851  0.077533  1
  Al  Al18  1  0.836184  0.163816  0.423174  1
  Al  Al19  1  0.673686  0.837149  0.922467  1
  Al  Al20  1  0.836184  0.163816  0.076826  1
  Al  Al21  1  0.163816  0.836184  0.923174  1
  Al  Al22  1  0.560984  0.125124  0.250000  1
  Al  Al23  1  0.439016  0.874876  0.750000  1
  Al  Al24  1  0.874876  0.439016  0.250000  1
  Al  Al25  1  0.125124  0.560984  0.750000  1
  Al  Al26  1  0.560660  0.439340  0.250000  1
  Al  Al27  1  0.439340  0.560660  0.750000  1
  Al  Al28  1  0.999340  0.000660  0.250000  1
  Al  Al29  1  0.000660  0.999340  0.750000  1
  Ir  Ir30  1  0.500000  0.500000  0.000000  1
  Ir  Ir31  1  0.500000  0.500000  0.500000  1
  Os  Os32  1  0.500000  0.000000  0.000000  1
  Os  Os33  1  0.000000  0.500000  0.000000  1
  Os  Os34  1  0.500000  0.000000  0.500000  1
  Os  Os35  1  0.000000  0.500000  0.500000  1
  Os  Os36  1  0.000000  0.000000  0.000000  1
  Os  Os37  1  0.000000  0.000000  0.500000  1
