# generated using pymatgen
data_Li2Se2O5
_symmetry_space_group_name_H-M   'P 1'
_cell_length_a   5.15617200
_cell_length_b   10.49142006
_cell_length_c   12.14468212
_cell_angle_alpha   55.92833715
_cell_angle_beta   90.00000000
_cell_angle_gamma   90.00000000
_symmetry_Int_Tables_number   1
_chemical_formula_structural   Li2Se2O5
_chemical_formula_sum   'Li8 Se8 O20'
_cell_volume   544.19575955
_cell_formula_units_Z   4
loop_
 _symmetry_equiv_pos_site_id
 _symmetry_equiv_pos_as_xyz
  1  'x, y, z'
loop_
 _atom_site_type_symbol
 _atom_site_label
 _atom_site_symmetry_multiplicity
 _atom_site_fract_x
 _atom_site_fract_y
 _atom_site_fract_z
 _atom_site_occupancy
  Li  Li0  1  0.136014  0.920101  0.818127  1
  Li  Li1  1  0.636014  0.079899  0.681873  1
  Li  Li2  1  0.863986  0.079899  0.181873  1
  Li  Li3  1  0.363986  0.920101  0.318127  1
  Li  Li4  1  0.302585  0.074915  0.508233  1
  Li  Li5  1  0.802585  0.925085  0.991767  1
  Li  Li6  1  0.697415  0.925085  0.491767  1
  Li  Li7  1  0.197415  0.074915  0.008233  1
  Se  Se8  1  0.115171  0.281575  0.622415  1
  Se  Se9  1  0.615171  0.718425  0.877585  1
  Se  Se10  1  0.884829  0.718425  0.377585  1
  Se  Se11  1  0.384829  0.281575  0.122415  1
  Se  Se12  1  0.161856  0.719234  0.629623  1
  Se  Se13  1  0.661856  0.280766  0.870377  1
  Se  Se14  1  0.838144  0.280766  0.370377  1
  Se  Se15  1  0.338144  0.719234  0.129623  1
  O  O16  1  0.033870  0.627226  0.542851  1
  O  O17  1  0.533870  0.372774  0.957149  1
  O  O18  1  0.966130  0.372774  0.457149  1
  O  O19  1  0.466130  0.627226  0.042851  1
  O  O20  1  0.153683  0.793267  0.281522  1
  O  O21  1  0.653683  0.206733  0.218478  1
  O  O22  1  0.846317  0.206733  0.718478  1
  O  O23  1  0.346317  0.793267  0.781522  1
  O  O24  1  0.246029  0.117244  0.148739  1
  O  O25  1  0.746029  0.882756  0.351261  1
  O  O26  1  0.753971  0.882756  0.851261  1
  O  O27  1  0.253971  0.117244  0.648739  1
  O  O28  1  0.378661  0.218932  0.848710  1
  O  O29  1  0.878661  0.781068  0.651290  1
  O  O30  1  0.621339  0.781068  0.151290  1
  O  O31  1  0.121339  0.218932  0.348710  1
  O  O32  1  0.307433  0.883752  0.500518  1
  O  O33  1  0.807433  0.116248  0.999482  1
  O  O34  1  0.692567  0.116248  0.499482  1
  O  O35  1  0.192567  0.883752  0.000518  1
