# generated using pymatgen
data_Tb16Er4Sn15Pb
_symmetry_space_group_name_H-M   'P 1'
_cell_length_a   8.01725069
_cell_length_b   8.17174073
_cell_length_c   15.48911400
_cell_angle_alpha   90.03514141
_cell_angle_beta   90.03721930
_cell_angle_gamma   89.96898655
_symmetry_Int_Tables_number   1
_chemical_formula_structural   Tb16Er4Sn15Pb
_chemical_formula_sum   'Tb16 Er4 Sn15 Pb1'
_cell_volume   1014.76710904
_cell_formula_units_Z   1
loop_
 _symmetry_equiv_pos_site_id
 _symmetry_equiv_pos_as_xyz
  1  'x, y, z'
loop_
 _atom_site_type_symbol
 _atom_site_label
 _atom_site_symmetry_multiplicity
 _atom_site_fract_x
 _atom_site_fract_y
 _atom_site_fract_z
 _atom_site_occupancy
  Tb  Tb0  1  0.366561  0.836501  0.876703  1
  Tb  Tb1  1  0.865970  0.662829  0.621937  1
  Tb  Tb2  1  0.634804  0.162422  0.377484  1
  Tb  Tb3  1  0.133035  0.340209  0.123037  1
  Tb  Tb4  1  0.635891  0.161973  0.122836  1
  Tb  Tb5  1  0.134453  0.337991  0.377672  1
  Tb  Tb6  1  0.365953  0.837606  0.622400  1
  Tb  Tb7  1  0.866418  0.662490  0.877622  1
  Tb  Tb8  1  0.520860  0.322220  0.902333  1
  Tb  Tb9  1  0.019340  0.179402  0.596683  1
  Tb  Tb10  1  0.481016  0.679277  0.403276  1
  Tb  Tb11  1  0.977457  0.818139  0.097602  1
  Tb  Tb12  1  0.481078  0.676714  0.097474  1
  Tb  Tb13  1  0.980871  0.820619  0.403299  1
  Tb  Tb14  1  0.519048  0.320428  0.596571  1
  Tb  Tb15  1  0.017424  0.181069  0.901981  1
  Er  Er16  1  0.197096  0.503263  0.749925  1
  Er  Er17  1  0.697082  0.996961  0.749836  1
  Er  Er18  1  0.802621  0.496814  0.250186  1
  Er  Er19  1  0.303283  0.003152  0.251961  1
  Sn  Sn20  1  0.794457  0.462670  0.457764  1
  Sn  Sn21  1  0.705738  0.963712  0.542073  1
  Sn  Sn22  1  0.206483  0.536679  0.957865  1
  Sn  Sn23  1  0.705950  0.963806  0.957584  1
  Sn  Sn24  1  0.206050  0.536787  0.542097  1
  Sn  Sn25  1  0.294386  0.037249  0.458062  1
  Sn  Sn26  1  0.793704  0.462500  0.042013  1
  Sn  Sn27  1  0.563544  0.616898  0.749626  1
  Sn  Sn28  1  0.063128  0.883195  0.749824  1
  Sn  Sn29  1  0.436853  0.381983  0.250028  1
  Sn  Sn30  1  0.937653  0.117191  0.249947  1
  Sn  Sn31  1  0.328475  0.149453  0.749963  1
  Sn  Sn32  1  0.828207  0.351099  0.749250  1
  Sn  Sn33  1  0.671202  0.850503  0.250295  1
  Sn  Sn34  1  0.171582  0.649808  0.250366  1
  Pb  Pb35  1  0.292330  0.036389  0.042425  1
