# generated using pymatgen
data_Ho6Tm(LuSi2)3
_symmetry_space_group_name_H-M   'P 1'
_cell_length_a   8.35511100
_cell_length_b   8.35511142
_cell_length_c   6.23498800
_cell_angle_alpha   90.00000000
_cell_angle_beta   90.00000000
_cell_angle_gamma   120.00001020
_symmetry_Int_Tables_number   1
_chemical_formula_structural   Ho6Tm(LuSi2)3
_chemical_formula_sum   'Ho6 Tm1 Lu3 Si6'
_cell_volume   376.93865710
_cell_formula_units_Z   1
loop_
 _symmetry_equiv_pos_site_id
 _symmetry_equiv_pos_as_xyz
  1  'x, y, z'
loop_
 _atom_site_type_symbol
 _atom_site_label
 _atom_site_symmetry_multiplicity
 _atom_site_fract_x
 _atom_site_fract_y
 _atom_site_fract_z
 _atom_site_occupancy
  Ho  Ho0  1  0.757111  0.999986  0.749966  1
  Ho  Ho1  1  0.757111  0.757125  0.250034  1
  Ho  Ho2  1  0.000014  0.242889  0.250034  1
  Ho  Ho3  1  0.000014  0.757125  0.749966  1
  Ho  Ho4  1  0.242875  0.242889  0.749966  1
  Ho  Ho5  1  0.242875  0.999986  0.250034  1
  Tm  Tm6  1  0.666667  0.333333  0.000000  1
  Lu  Lu7  1  0.333333  0.666667  0.500000  1
  Lu  Lu8  1  0.333333  0.666667  0.000000  1
  Lu  Lu9  1  0.666667  0.333333  0.500000  1
  Si  Si10  1  0.395581  0.999857  0.749887  1
  Si  Si11  1  0.395581  0.395725  0.250113  1
  Si  Si12  1  0.000143  0.604419  0.250113  1
  Si  Si13  1  0.000143  0.395725  0.749887  1
  Si  Si14  1  0.604275  0.604419  0.749887  1
  Si  Si15  1  0.604275  0.999857  0.250113  1
