# generated using pymatgen
data_La2Pr2PI5
_symmetry_space_group_name_H-M   'P 1'
_cell_length_a   10.06909184
_cell_length_b   10.06909156
_cell_length_c   9.21168328
_cell_angle_alpha   77.04556238
_cell_angle_beta   77.04556175
_cell_angle_gamma   24.26239191
_symmetry_Int_Tables_number   1
_chemical_formula_structural   La2Pr2PI5
_chemical_formula_sum   'La2 Pr2 P1 I5'
_cell_volume   373.54649085
_cell_formula_units_Z   1
loop_
 _symmetry_equiv_pos_site_id
 _symmetry_equiv_pos_as_xyz
  1  'x, y, z'
loop_
 _atom_site_type_symbol
 _atom_site_label
 _atom_site_symmetry_multiplicity
 _atom_site_fract_x
 _atom_site_fract_y
 _atom_site_fract_z
 _atom_site_occupancy
  La  La0  1  0.851676  0.851676  0.075526  1
  La  La1  1  0.148324  0.148324  0.924474  1
  Pr  Pr2  1  0.500690  0.500690  0.210071  1
  Pr  Pr3  1  0.499310  0.499310  0.789929  1
  P  P4  1  0.000000  0.000000  0.000000  1
  I  I5  1  0.669870  0.669870  0.181531  1
  I  I6  1  0.330130  0.330130  0.818469  1
  I  I7  1  0.664642  0.664642  0.654287  1
  I  I8  1  0.335358  0.335358  0.345713  1
  I  I9  1  0.000000  0.000000  0.500000  1
