# generated using pymatgen
data_Sr4In13Pt9
_symmetry_space_group_name_H-M   'P 1'
_cell_length_a   12.58106807
_cell_length_b   12.57875096
_cell_length_c   4.42265800
_cell_angle_alpha   90.00000000
_cell_angle_beta   90.00000000
_cell_angle_gamma   119.99392824
_symmetry_Int_Tables_number   1
_chemical_formula_structural   Sr4In13Pt9
_chemical_formula_sum   'Sr4 In13 Pt9'
_cell_volume   606.17160383
_cell_formula_units_Z   1
loop_
 _symmetry_equiv_pos_site_id
 _symmetry_equiv_pos_as_xyz
  1  'x, y, z'
loop_
 _atom_site_type_symbol
 _atom_site_label
 _atom_site_symmetry_multiplicity
 _atom_site_fract_x
 _atom_site_fract_y
 _atom_site_fract_z
 _atom_site_occupancy
  Sr  Sr0  1  0.204933  0.795222  0.500000  1
  Sr  Sr1  1  0.590348  0.795174  0.500000  1
  Sr  Sr2  1  0.204932  0.409710  0.500000  1
  Sr  Sr3  1  0.666445  0.333221  0.000000  1
  In  In4  1  0.955706  0.291666  0.000000  1
  In  In5  1  0.708288  0.663962  0.000000  1
  In  In6  1  0.955707  0.664039  0.000000  1
  In  In7  1  0.336064  0.044237  0.000000  1
  In  In8  1  0.167260  0.083630  0.500000  1
  In  In9  1  0.916440  0.832809  0.500000  1
  In  In10  1  0.708288  0.044325  0.000000  1
  In  In11  1  0.532896  0.065953  0.500000  1
  In  In12  1  0.916441  0.083631  0.500000  1
  In  In13  1  0.336064  0.291827  0.000000  1
  In  In14  1  0.532896  0.466943  0.500000  1
  In  In15  1  0.933957  0.466979  0.500000  1
  In  In16  1  0.333381  0.666691  0.000000  1
  Pt  Pt17  1  0.455890  0.544233  0.000000  1
  Pt  Pt18  1  0.841687  0.920844  0.000000  1
  Pt  Pt19  1  0.455890  0.911656  0.000000  1
  Pt  Pt20  1  0.079199  0.158333  0.000000  1
  Pt  Pt21  1  0.079200  0.920867  0.000000  1
  Pt  Pt22  1  0.789497  0.579131  0.500000  1
  Pt  Pt23  1  0.088278  0.544140  0.000000  1
  Pt  Pt24  1  0.789498  0.210366  0.500000  1
  Pt  Pt25  1  0.420817  0.210408  0.500000  1
