# generated using pymatgen
data_SrTh(Al5Ru)4
_symmetry_space_group_name_H-M   'P 1'
_cell_length_a   6.91248641
_cell_length_b   6.91248692
_cell_length_c   9.24128000
_cell_angle_alpha   90.00000000
_cell_angle_beta   90.00000000
_cell_angle_gamma   96.99055651
_symmetry_Int_Tables_number   1
_chemical_formula_structural   SrTh(Al5Ru)4
_chemical_formula_sum   'Sr1 Th1 Al20 Ru4'
_cell_volume   438.28866089
_cell_formula_units_Z   1
loop_
 _symmetry_equiv_pos_site_id
 _symmetry_equiv_pos_as_xyz
  1  'x, y, z'
loop_
 _atom_site_type_symbol
 _atom_site_label
 _atom_site_symmetry_multiplicity
 _atom_site_fract_x
 _atom_site_fract_y
 _atom_site_fract_z
 _atom_site_occupancy
  Sr  Sr0  1  0.878044  0.121956  0.750000  1
  Th  Th1  1  0.124396  0.875604  0.250000  1
  Al  Al2  1  0.622553  0.377447  0.542545  1
  Al  Al3  1  0.378440  0.621560  0.445193  1
  Al  Al4  1  0.378440  0.621560  0.054807  1
  Al  Al5  1  0.622553  0.377447  0.957455  1
  Al  Al6  1  0.225961  0.229515  0.499741  1
  Al  Al7  1  0.770485  0.774039  0.499741  1
  Al  Al8  1  0.770485  0.774039  0.000259  1
  Al  Al9  1  0.225961  0.229515  0.000259  1
  Al  Al10  1  0.841852  0.158148  0.101945  1
  Al  Al11  1  0.164981  0.835019  0.897766  1
  Al  Al12  1  0.164981  0.835019  0.602234  1
  Al  Al13  1  0.841852  0.158148  0.398055  1
  Al  Al14  1  0.859292  0.590789  0.750000  1
  Al  Al15  1  0.138949  0.409496  0.250000  1
  Al  Al16  1  0.409211  0.140708  0.750000  1
  Al  Al17  1  0.590504  0.861051  0.250000  1
  Al  Al18  1  0.220442  0.480415  0.750000  1
  Al  Al19  1  0.779182  0.516965  0.250000  1
  Al  Al20  1  0.519585  0.779558  0.750000  1
  Al  Al21  1  0.483035  0.220818  0.250000  1
  Ru  Ru22  1  0.999775  0.505365  0.497905  1
  Ru  Ru23  1  0.999775  0.505365  0.002095  1
  Ru  Ru24  1  0.494635  0.000225  0.002095  1
  Ru  Ru25  1  0.494635  0.000225  0.497905  1
