# generated using pymatgen
data_SrPr6TcI12
_symmetry_space_group_name_H-M   'P 1'
_cell_length_a   10.13071999
_cell_length_b   10.13071915
_cell_length_c   10.13072132
_cell_angle_alpha   106.32734341
_cell_angle_beta   106.32733381
_cell_angle_gamma   106.32733603
_symmetry_Int_Tables_number   1
_chemical_formula_structural   SrPr6TcI12
_chemical_formula_sum   'Sr1 Pr6 Tc1 I12'
_cell_volume   881.30407796
_cell_formula_units_Z   1
loop_
 _symmetry_equiv_pos_site_id
 _symmetry_equiv_pos_as_xyz
  1  'x, y, z'
loop_
 _atom_site_type_symbol
 _atom_site_label
 _atom_site_symmetry_multiplicity
 _atom_site_fract_x
 _atom_site_fract_y
 _atom_site_fract_z
 _atom_site_occupancy
  Sr  Sr0  1  0.500000  0.500000  0.500000  1
  Pr  Pr1  1  0.979238  0.903973  0.699811  1
  Pr  Pr2  1  0.020762  0.096027  0.300189  1
  Pr  Pr3  1  0.096027  0.300189  0.020762  1
  Pr  Pr4  1  0.300189  0.020762  0.096027  1
  Pr  Pr5  1  0.903973  0.699811  0.979238  1
  Pr  Pr6  1  0.699811  0.979238  0.903973  1
  Tc  Tc7  1  0.000000  0.000000  0.000000  1
  I  I8  1  0.548275  0.629266  0.856398  1
  I  I9  1  0.451725  0.370734  0.143602  1
  I  I10  1  0.320199  0.926073  0.774104  1
  I  I11  1  0.370734  0.143602  0.451725  1
  I  I12  1  0.926073  0.774104  0.320199  1
  I  I13  1  0.679801  0.073927  0.225896  1
  I  I14  1  0.073927  0.225896  0.679801  1
  I  I15  1  0.774104  0.320199  0.926073  1
  I  I16  1  0.225896  0.679801  0.073927  1
  I  I17  1  0.856398  0.548275  0.629266  1
  I  I18  1  0.143602  0.451725  0.370734  1
  I  I19  1  0.629266  0.856398  0.548275  1
