# generated using pymatgen
data_PrSm4MnRuO12
_symmetry_space_group_name_H-M   'P 1'
_cell_length_a   7.02343212
_cell_length_b   7.02343036
_cell_length_c   7.49215762
_cell_angle_alpha   74.54315353
_cell_angle_beta   74.54315798
_cell_angle_gamma   50.12548810
_symmetry_Int_Tables_number   1
_chemical_formula_structural   PrSm4MnRuO12
_chemical_formula_sum   'Pr1 Sm4 Mn1 Ru1 O12'
_cell_volume   271.07871382
_cell_formula_units_Z   1
loop_
 _symmetry_equiv_pos_site_id
 _symmetry_equiv_pos_as_xyz
  1  'x, y, z'
loop_
 _atom_site_type_symbol
 _atom_site_label
 _atom_site_symmetry_multiplicity
 _atom_site_fract_x
 _atom_site_fract_y
 _atom_site_fract_z
 _atom_site_occupancy
  Pr  Pr0  1  0.998143  0.001857  0.500000  1
  Sm  Sm1  1  0.309511  0.298756  0.357307  1
  Sm  Sm2  1  0.701244  0.690489  0.642693  1
  Sm  Sm3  1  0.695460  0.695323  0.163289  1
  Sm  Sm4  1  0.304677  0.304540  0.836711  1
  Mn  Mn5  1  0.749675  0.250325  0.000000  1
  Ru  Ru6  1  0.240680  0.759320  0.000000  1
  O  O7  1  0.098057  0.591961  0.577996  1
  O  O8  1  0.994753  0.003831  0.173469  1
  O  O9  1  0.408039  0.901943  0.422004  1
  O  O10  1  0.503104  0.497571  0.175780  1
  O  O11  1  0.098810  0.579783  0.079352  1
  O  O12  1  0.906717  0.407172  0.420679  1
  O  O13  1  0.996169  0.005247  0.826531  1
  O  O14  1  0.592828  0.093282  0.579321  1
  O  O15  1  0.502429  0.496896  0.824220  1
  O  O16  1  0.582002  0.102516  0.077946  1
  O  O17  1  0.420217  0.901190  0.920648  1
  O  O18  1  0.897484  0.417998  0.922054  1
