# generated using pymatgen
data_Tb12Co4CuSn
_symmetry_space_group_name_H-M   'P 1'
_cell_length_a   8.34646321
_cell_length_b   8.34646348
_cell_length_c   8.34646277
_cell_angle_alpha   111.78764751
_cell_angle_beta   109.47527327
_cell_angle_gamma   107.18346317
_symmetry_Int_Tables_number   1
_chemical_formula_structural   Tb12Co4CuSn
_chemical_formula_sum   'Tb12 Co4 Cu1 Sn1'
_cell_volume   446.87275971
_cell_formula_units_Z   1
loop_
 _symmetry_equiv_pos_site_id
 _symmetry_equiv_pos_as_xyz
  1  'x, y, z'
loop_
 _atom_site_type_symbol
 _atom_site_label
 _atom_site_symmetry_multiplicity
 _atom_site_fract_x
 _atom_site_fract_y
 _atom_site_fract_z
 _atom_site_occupancy
  Tb  Tb0  1  0.418508  0.222516  0.195992  1
  Tb  Tb1  1  0.581492  0.777484  0.804008  1
  Tb  Tb2  1  0.026524  0.222516  0.804008  1
  Tb  Tb3  1  0.973476  0.777484  0.195992  1
  Tb  Tb4  1  0.180871  0.285373  0.466244  1
  Tb  Tb5  1  0.819129  0.714627  0.533756  1
  Tb  Tb6  1  0.180871  0.714627  0.895498  1
  Tb  Tb7  1  0.819129  0.285373  0.104502  1
  Tb  Tb8  1  0.323376  0.635269  0.311893  1
  Tb  Tb9  1  0.676624  0.364731  0.688107  1
  Tb  Tb10  1  0.323376  0.011483  0.688107  1
  Tb  Tb11  1  0.676624  0.988517  0.311893  1
  Co  Co12  1  0.350344  0.000000  0.350344  1
  Co  Co13  1  0.649656  0.000000  0.649656  1
  Co  Co14  1  0.113703  0.613703  0.500000  1
  Co  Co15  1  0.886297  0.386297  0.500000  1
  Cu  Cu16  1  0.000000  0.000000  0.000000  1
  Sn  Sn17  1  0.500000  0.500000  0.000000  1
