# generated using pymatgen
data_Ho2ErPa2Ga15
_symmetry_space_group_name_H-M   'P 1'
_cell_length_a   12.40442896
_cell_length_b   12.40442923
_cell_length_c   12.40442842
_cell_angle_alpha   28.64083478
_cell_angle_beta   28.64083303
_cell_angle_gamma   28.64083631
_symmetry_Int_Tables_number   1
_chemical_formula_structural   Ho2ErPa2Ga15
_chemical_formula_sum   'Ho2 Er1 Pa2 Ga15'
_cell_volume   387.65667714
_cell_formula_units_Z   1
loop_
 _symmetry_equiv_pos_site_id
 _symmetry_equiv_pos_as_xyz
  1  'x, y, z'
loop_
 _atom_site_type_symbol
 _atom_site_label
 _atom_site_symmetry_multiplicity
 _atom_site_fract_x
 _atom_site_fract_y
 _atom_site_fract_z
 _atom_site_occupancy
  Ho  Ho0  1  0.400332  0.400332  0.400332  1
  Ho  Ho1  1  0.599668  0.599668  0.599668  1
  Er  Er2  1  0.000000  0.000000  0.000000  1
  Pa  Pa3  1  0.130061  0.130061  0.130061  1
  Pa  Pa4  1  0.869939  0.869939  0.869939  1
  Ga  Ga5  1  0.434405  0.881367  0.881367  1
  Ga  Ga6  1  0.881367  0.881367  0.434405  1
  Ga  Ga7  1  0.881367  0.434405  0.881367  1
  Ga  Ga8  1  0.118633  0.565595  0.118633  1
  Ga  Ga9  1  0.118633  0.118633  0.565595  1
  Ga  Ga10  1  0.565595  0.118633  0.118633  1
  Ga  Ga11  1  0.130055  0.634872  0.634872  1
  Ga  Ga12  1  0.634872  0.634872  0.130055  1
  Ga  Ga13  1  0.634872  0.130055  0.634872  1
  Ga  Ga14  1  0.365128  0.869945  0.365128  1
  Ga  Ga15  1  0.365128  0.365128  0.869945  1
  Ga  Ga16  1  0.869945  0.365128  0.365128  1
  Ga  Ga17  1  0.500000  0.500000  0.000000  1
  Ga  Ga18  1  0.500000  0.000000  0.500000  1
  Ga  Ga19  1  0.000000  0.500000  0.500000  1
