# generated using pymatgen
data_Ca2Ga9Pt2Rh
_symmetry_space_group_name_H-M   'P 1'
_cell_length_a   7.67819900
_cell_length_b   7.67820012
_cell_length_c   9.60851000
_cell_angle_alpha   90.00000000
_cell_angle_beta   90.00000000
_cell_angle_gamma   119.57459575
_symmetry_Int_Tables_number   1
_chemical_formula_structural   Ca2Ga9Pt2Rh
_chemical_formula_sum   'Ca4 Ga18 Pt4 Rh2'
_cell_volume   492.66444891
_cell_formula_units_Z   2
loop_
 _symmetry_equiv_pos_site_id
 _symmetry_equiv_pos_as_xyz
  1  'x, y, z'
loop_
 _atom_site_type_symbol
 _atom_site_label
 _atom_site_symmetry_multiplicity
 _atom_site_fract_x
 _atom_site_fract_y
 _atom_site_fract_z
 _atom_site_occupancy
  Ca  Ca0  1  0.996220  0.666592  0.750000  1
  Ca  Ca1  1  0.003780  0.333408  0.250000  1
  Ca  Ca2  1  0.666592  0.996220  0.750000  1
  Ca  Ca3  1  0.333408  0.003780  0.250000  1
  Ga  Ga4  1  0.122477  0.122477  0.750000  1
  Ga  Ga5  1  0.877523  0.877523  0.250000  1
  Ga  Ga6  1  0.998329  0.329805  0.580400  1
  Ga  Ga7  1  0.001671  0.670195  0.419600  1
  Ga  Ga8  1  0.001671  0.670195  0.080400  1
  Ga  Ga9  1  0.329805  0.998329  0.919600  1
  Ga  Ga10  1  0.998329  0.329805  0.919600  1
  Ga  Ga11  1  0.670195  0.001671  0.080400  1
  Ga  Ga12  1  0.670195  0.001671  0.419600  1
  Ga  Ga13  1  0.329805  0.998329  0.580400  1
  Ga  Ga14  1  0.326937  0.326937  0.060533  1
  Ga  Ga15  1  0.673063  0.673063  0.939467  1
  Ga  Ga16  1  0.673063  0.673063  0.560533  1
  Ga  Ga17  1  0.326937  0.326937  0.439467  1
  Ga  Ga18  1  0.340605  0.543211  0.750000  1
  Ga  Ga19  1  0.659395  0.456789  0.250000  1
  Ga  Ga20  1  0.543211  0.340605  0.750000  1
  Ga  Ga21  1  0.456789  0.659395  0.250000  1
  Pt  Pt22  1  0.670385  0.329615  0.500000  1
  Pt  Pt23  1  0.329615  0.670385  0.500000  1
  Pt  Pt24  1  0.329615  0.670385  0.000000  1
  Pt  Pt25  1  0.670385  0.329615  0.000000  1
  Rh  Rh26  1  0.000000  0.000000  0.500000  1
  Rh  Rh27  1  0.000000  0.000000  0.000000  1
