# generated using pymatgen
data_Dy16Ho4Si15Pt
_symmetry_space_group_name_H-M   'P 1'
_cell_length_a   7.44325505
_cell_length_b   7.68383053
_cell_length_c   14.61157330
_cell_angle_alpha   89.81351369
_cell_angle_beta   89.67035330
_cell_angle_gamma   90.19694154
_symmetry_Int_Tables_number   1
_chemical_formula_structural   Dy16Ho4Si15Pt
_chemical_formula_sum   'Dy16 Ho4 Si15 Pt1'
_cell_volume   835.65223193
_cell_formula_units_Z   1
loop_
 _symmetry_equiv_pos_site_id
 _symmetry_equiv_pos_as_xyz
  1  'x, y, z'
loop_
 _atom_site_type_symbol
 _atom_site_label
 _atom_site_symmetry_multiplicity
 _atom_site_fract_x
 _atom_site_fract_y
 _atom_site_fract_z
 _atom_site_occupancy
  Dy  Dy0  1  0.973524  0.817109  0.098568  1
  Dy  Dy1  1  0.471470  0.682984  0.401404  1
  Dy  Dy2  1  0.528608  0.321839  0.900662  1
  Dy  Dy3  1  0.029313  0.183766  0.599162  1
  Dy  Dy4  1  0.028803  0.183222  0.900987  1
  Dy  Dy5  1  0.529680  0.317370  0.598663  1
  Dy  Dy6  1  0.473804  0.682091  0.099847  1
  Dy  Dy7  1  0.969719  0.816729  0.400481  1
  Dy  Dy8  1  0.681112  0.816245  0.880492  1
  Dy  Dy9  1  0.179796  0.681111  0.621856  1
  Dy  Dy10  1  0.818586  0.329996  0.120207  1
  Dy  Dy11  1  0.316962  0.178318  0.376476  1
  Dy  Dy12  1  0.320680  0.178663  0.123437  1
  Dy  Dy13  1  0.819206  0.319814  0.377298  1
  Dy  Dy14  1  0.178147  0.675413  0.877898  1
  Dy  Dy15  1  0.682305  0.819901  0.622638  1
  Ho  Ho16  1  0.648212  0.991758  0.249326  1
  Ho  Ho17  1  0.148930  0.511224  0.248203  1
  Ho  Ho18  1  0.847324  0.488171  0.755747  1
  Ho  Ho19  1  0.351632  0.011132  0.751227  1
  Si  Si20  1  0.765215  0.629231  0.252116  1
  Si  Si21  1  0.266037  0.872464  0.250886  1
  Si  Si22  1  0.733285  0.124579  0.748797  1
  Si  Si23  1  0.233636  0.373327  0.746675  1
  Si  Si24  1  0.020095  0.104733  0.249307  1
  Si  Si25  1  0.522926  0.396666  0.251525  1
  Si  Si26  1  0.473245  0.605515  0.746885  1
  Si  Si27  1  0.977678  0.896416  0.748418  1
  Si  Si28  1  0.354352  0.971965  0.539930  1
  Si  Si29  1  0.646711  0.027026  0.042286  1
  Si  Si30  1  0.147286  0.470344  0.460074  1
  Si  Si31  1  0.156211  0.472195  0.041810  1
  Si  Si32  1  0.644718  0.028698  0.459573  1
  Si  Si33  1  0.353195  0.969406  0.961190  1
  Si  Si34  1  0.854651  0.528945  0.539296  1
  Pt  Pt35  1  0.852946  0.521634  0.956658  1
