# generated using pymatgen
data_Y10PPb6Br
_symmetry_space_group_name_H-M   'P 1'
_cell_length_a   9.19537400
_cell_length_b   9.19537408
_cell_length_c   6.85209300
_cell_angle_alpha   90.00000000
_cell_angle_beta   90.00000000
_cell_angle_gamma   120.00000690
_symmetry_Int_Tables_number   1
_chemical_formula_structural   Y10PPb6Br
_chemical_formula_sum   'Y10 P1 Pb6 Br1'
_cell_volume   501.75608713
_cell_formula_units_Z   1
loop_
 _symmetry_equiv_pos_site_id
 _symmetry_equiv_pos_as_xyz
  1  'x, y, z'
loop_
 _atom_site_type_symbol
 _atom_site_label
 _atom_site_symmetry_multiplicity
 _atom_site_fract_x
 _atom_site_fract_y
 _atom_site_fract_z
 _atom_site_occupancy
  Y  Y0  1  0.749921  0.749921  0.728792  1
  Y  Y1  1  0.250079  0.000000  0.728792  1
  Y  Y2  1  0.000000  0.250079  0.728792  1
  Y  Y3  1  0.250079  0.250079  0.271208  1
  Y  Y4  1  0.749921  0.000000  0.271208  1
  Y  Y5  1  0.000000  0.749921  0.271208  1
  Y  Y6  1  0.666667  0.333333  0.000000  1
  Y  Y7  1  0.333333  0.666667  0.000000  1
  Y  Y8  1  0.333333  0.666667  0.500000  1
  Y  Y9  1  0.666667  0.333333  0.500000  1
  P  P10  1  0.000000  0.000000  0.500000  1
  Pb  Pb11  1  0.395956  0.395956  0.750638  1
  Pb  Pb12  1  0.604044  0.000000  0.750638  1
  Pb  Pb13  1  0.000000  0.604044  0.750638  1
  Pb  Pb14  1  0.604044  0.604044  0.249362  1
  Pb  Pb15  1  0.395956  0.000000  0.249362  1
  Pb  Pb16  1  0.000000  0.395956  0.249362  1
  Br  Br17  1  0.000000  0.000000  0.000000  1
