# generated using pymatgen
data_Lu3Ag(Pt2O7)2
_symmetry_space_group_name_H-M   'P 1'
_cell_length_a   7.26363078
_cell_length_b   7.12032854
_cell_length_c   7.26363000
_cell_angle_alpha   59.33198439
_cell_angle_beta   60.00000354
_cell_angle_gamma   59.33198047
_symmetry_Int_Tables_number   1
_chemical_formula_structural   Lu3Ag(Pt2O7)2
_chemical_formula_sum   'Lu3 Ag1 Pt4 O14'
_cell_volume   262.92556127
_cell_formula_units_Z   1
loop_
 _symmetry_equiv_pos_site_id
 _symmetry_equiv_pos_as_xyz
  1  'x, y, z'
loop_
 _atom_site_type_symbol
 _atom_site_label
 _atom_site_symmetry_multiplicity
 _atom_site_fract_x
 _atom_site_fract_y
 _atom_site_fract_z
 _atom_site_occupancy
  Lu  Lu0  1  0.625000  0.625000  0.125000  1
  Lu  Lu1  1  0.625000  0.625000  0.625000  1
  Lu  Lu2  1  0.125000  0.625000  0.625000  1
  Ag  Ag3  1  0.625000  0.125000  0.625000  1
  Pt  Pt4  1  0.125000  0.125000  0.125000  1
  Pt  Pt5  1  0.625000  0.125000  0.125000  1
  Pt  Pt6  1  0.125000  0.125000  0.625000  1
  Pt  Pt7  1  0.125000  0.625000  0.125000  1
  O  O8  1  0.028788  0.474357  0.468066  1
  O  O9  1  0.781934  0.775643  0.221212  1
  O  O10  1  0.790569  0.224170  0.194692  1
  O  O11  1  0.459431  0.025830  0.459431  1
  O  O12  1  0.747318  0.758047  0.747318  1
  O  O13  1  0.028788  0.474357  0.028788  1
  O  O14  1  0.055308  0.025830  0.459431  1
  O  O15  1  0.221212  0.775643  0.221212  1
  O  O16  1  0.194692  0.224170  0.790569  1
  O  O17  1  0.790569  0.224170  0.790569  1
  O  O18  1  0.502682  0.491953  0.502682  1
  O  O19  1  0.459431  0.025830  0.055308  1
  O  O20  1  0.468066  0.474357  0.028788  1
  O  O21  1  0.221212  0.775643  0.781934  1
