# generated using pymatgen
data_TbHoWO6
_symmetry_space_group_name_H-M   'P 1'
_cell_length_a   5.41048600
_cell_length_b   7.72214765
_cell_length_c   11.46639367
_cell_angle_alpha   75.57943084
_cell_angle_beta   90.00000000
_cell_angle_gamma   90.00000000
_symmetry_Int_Tables_number   1
_chemical_formula_structural   TbHoWO6
_chemical_formula_sum   'Tb4 Ho4 W4 O24'
_cell_volume   463.97873895
_cell_formula_units_Z   4
loop_
 _symmetry_equiv_pos_site_id
 _symmetry_equiv_pos_as_xyz
  1  'x, y, z'
loop_
 _atom_site_type_symbol
 _atom_site_label
 _atom_site_symmetry_multiplicity
 _atom_site_fract_x
 _atom_site_fract_y
 _atom_site_fract_z
 _atom_site_occupancy
  Tb  Tb0  1  0.739793  0.000000  0.750000  1
  Tb  Tb1  1  0.260207  0.000000  0.250000  1
  Tb  Tb2  1  0.683396  0.500000  0.750000  1
  Tb  Tb3  1  0.316604  0.500000  0.250000  1
  Ho  Ho4  1  0.185477  0.794778  0.578139  1
  Ho  Ho5  1  0.814523  0.794778  0.078139  1
  Ho  Ho6  1  0.185477  0.205222  0.921861  1
  Ho  Ho7  1  0.814523  0.205222  0.421861  1
  W  W8  1  0.254669  0.723104  0.885988  1
  W  W9  1  0.745331  0.723104  0.385988  1
  W  W10  1  0.254669  0.276896  0.614012  1
  W  W11  1  0.745331  0.276896  0.114012  1
  O  O12  1  0.044068  0.939538  0.896428  1
  O  O13  1  0.531488  0.846841  0.931844  1
  O  O14  1  0.955932  0.939538  0.396428  1
  O  O15  1  0.457051  0.789174  0.727743  1
  O  O16  1  0.468512  0.846841  0.431844  1
  O  O17  1  0.982508  0.710778  0.771573  1
  O  O18  1  0.542949  0.789174  0.227743  1
  O  O19  1  0.851730  0.635311  0.548522  1
  O  O20  1  0.360025  0.489729  0.886999  1
  O  O21  1  0.017492  0.710778  0.271573  1
  O  O22  1  0.360025  0.510271  0.613001  1
  O  O23  1  0.851730  0.364689  0.951478  1
  O  O24  1  0.148270  0.635311  0.048522  1
  O  O25  1  0.639975  0.489729  0.386999  1
  O  O26  1  0.982508  0.289222  0.728427  1
  O  O27  1  0.639975  0.510271  0.113001  1
  O  O28  1  0.148270  0.364689  0.451478  1
  O  O29  1  0.457051  0.210826  0.772257  1
  O  O30  1  0.017492  0.289222  0.228427  1
  O  O31  1  0.531488  0.153159  0.568156  1
  O  O32  1  0.542949  0.210826  0.272257  1
  O  O33  1  0.044068  0.060462  0.603572  1
  O  O34  1  0.468512  0.153159  0.068156  1
  O  O35  1  0.955932  0.060462  0.103572  1
