# generated using pymatgen
data_HoTm3Al18(OsPd2)2
_symmetry_space_group_name_H-M   'P 1'
_cell_length_a   7.58018952
_cell_length_b   7.58043219
_cell_length_c   9.45587900
_cell_angle_alpha   90.00000000
_cell_angle_beta   90.00000000
_cell_angle_gamma   119.30528675
_symmetry_Int_Tables_number   1
_chemical_formula_structural   HoTm3Al18(OsPd2)2
_chemical_formula_sum   'Ho1 Tm3 Al18 Os2 Pd4'
_cell_volume   473.81022798
_cell_formula_units_Z   1
loop_
 _symmetry_equiv_pos_site_id
 _symmetry_equiv_pos_as_xyz
  1  'x, y, z'
loop_
 _atom_site_type_symbol
 _atom_site_label
 _atom_site_symmetry_multiplicity
 _atom_site_fract_x
 _atom_site_fract_y
 _atom_site_fract_z
 _atom_site_occupancy
  Ho  Ho0  1  0.326737  0.005455  0.750000  1
  Tm  Tm1  1  0.994467  0.673867  0.250000  1
  Tm  Tm2  1  0.005181  0.326186  0.750000  1
  Tm  Tm3  1  0.674111  0.994308  0.250000  1
  Al  Al4  1  0.127568  0.127436  0.250000  1
  Al  Al5  1  0.872224  0.872532  0.750000  1
  Al  Al6  1  0.999626  0.331632  0.077057  1
  Al  Al7  1  0.000058  0.668034  0.923121  1
  Al  Al8  1  0.000058  0.668034  0.576879  1
  Al  Al9  1  0.331645  0.999668  0.422759  1
  Al  Al10  1  0.999626  0.331632  0.422943  1
  Al  Al11  1  0.668730  0.000564  0.576757  1
  Al  Al12  1  0.668730  0.000564  0.923243  1
  Al  Al13  1  0.331645  0.999668  0.077241  1
  Al  Al14  1  0.328624  0.329109  0.554828  1
  Al  Al15  1  0.671076  0.671022  0.445512  1
  Al  Al16  1  0.671076  0.671022  0.054488  1
  Al  Al17  1  0.328624  0.329109  0.945172  1
  Al  Al18  1  0.342897  0.549705  0.250000  1
  Al  Al19  1  0.657765  0.450769  0.750000  1
  Al  Al20  1  0.550233  0.342628  0.250000  1
  Al  Al21  1  0.450013  0.657378  0.750000  1
  Os  Os22  1  0.999793  0.999858  0.000212  1
  Os  Os23  1  0.999793  0.999858  0.499788  1
  Pd  Pd24  1  0.672072  0.327777  0.999870  1
  Pd  Pd25  1  0.327775  0.672206  0.999999  1
  Pd  Pd26  1  0.327775  0.672206  0.500001  1
  Pd  Pd27  1  0.672072  0.327777  0.500130  1
