# generated using pymatgen
data_Li2Pr8Dy9ScSi16
_symmetry_space_group_name_H-M   'P 1'
_cell_length_a   7.36911777
_cell_length_b   7.77947382
_cell_length_c   14.87606500
_cell_angle_alpha   90.00000000
_cell_angle_beta   90.00000000
_cell_angle_gamma   89.94748395
_symmetry_Int_Tables_number   1
_chemical_formula_structural   Li2Pr8Dy9ScSi16
_chemical_formula_sum   'Li2 Pr8 Dy9 Sc1 Si16'
_cell_volume   852.81259523
_cell_formula_units_Z   1
loop_
 _symmetry_equiv_pos_site_id
 _symmetry_equiv_pos_as_xyz
  1  'x, y, z'
loop_
 _atom_site_type_symbol
 _atom_site_label
 _atom_site_symmetry_multiplicity
 _atom_site_fract_x
 _atom_site_fract_y
 _atom_site_fract_z
 _atom_site_occupancy
  Li  Li0  1  0.656254  0.992781  0.750000  1
  Li  Li1  1  0.844245  0.493529  0.250000  1
  Pr  Pr2  1  0.014121  0.188165  0.399251  1
  Pr  Pr3  1  0.525105  0.324805  0.398450  1
  Pr  Pr4  1  0.485359  0.687153  0.897517  1
  Pr  Pr5  1  0.485359  0.687153  0.602483  1
  Pr  Pr6  1  0.976235  0.823412  0.603009  1
  Pr  Pr7  1  0.976235  0.823412  0.896991  1
  Pr  Pr8  1  0.525105  0.324805  0.101550  1
  Pr  Pr9  1  0.014121  0.188165  0.100749  1
  Dy  Dy10  1  0.332403  0.174661  0.624977  1
  Dy  Dy11  1  0.678042  0.810304  0.374810  1
  Dy  Dy12  1  0.166702  0.673609  0.376503  1
  Dy  Dy13  1  0.822481  0.311073  0.873427  1
  Dy  Dy14  1  0.822481  0.311073  0.626573  1
  Dy  Dy15  1  0.342979  0.007787  0.250000  1
  Dy  Dy16  1  0.332403  0.174661  0.875023  1
  Dy  Dy17  1  0.166702  0.673609  0.123497  1
  Dy  Dy18  1  0.678042  0.810304  0.125190  1
  Sc  Sc19  1  0.156320  0.506453  0.750000  1
  Si  Si20  1  0.271044  0.875516  0.750000  1
  Si  Si21  1  0.464116  0.606447  0.250000  1
  Si  Si22  1  0.036674  0.106689  0.750000  1
  Si  Si23  1  0.523238  0.403138  0.750000  1
  Si  Si24  1  0.148991  0.469831  0.543503  1
  Si  Si25  1  0.969800  0.898195  0.250000  1
  Si  Si26  1  0.722833  0.111566  0.250000  1
  Si  Si27  1  0.849274  0.536323  0.027983  1
  Si  Si28  1  0.350926  0.968710  0.040102  1
  Si  Si29  1  0.148991  0.469831  0.956497  1
  Si  Si30  1  0.651036  0.035964  0.529722  1
  Si  Si31  1  0.350926  0.968710  0.459898  1
  Si  Si32  1  0.849274  0.536323  0.472017  1
  Si  Si33  1  0.785057  0.608672  0.750000  1
  Si  Si34  1  0.226089  0.381204  0.250000  1
  Si  Si35  1  0.651036  0.035964  0.970278  1
