# generated using pymatgen
data_Tm20Si4Bi7Pb
_symmetry_space_group_name_H-M   'P 1'
_cell_length_a   7.93535383
_cell_length_b   9.08708485
_cell_length_c   11.86895700
_cell_angle_alpha   89.95306417
_cell_angle_beta   90.05631127
_cell_angle_gamma   89.90770665
_symmetry_Int_Tables_number   1
_chemical_formula_structural   Tm20Si4Bi7Pb
_chemical_formula_sum   'Tm20 Si4 Bi7 Pb1'
_cell_volume   855.85958080
_cell_formula_units_Z   1
loop_
 _symmetry_equiv_pos_site_id
 _symmetry_equiv_pos_as_xyz
  1  'x, y, z'
loop_
 _atom_site_type_symbol
 _atom_site_label
 _atom_site_symmetry_multiplicity
 _atom_site_fract_x
 _atom_site_fract_y
 _atom_site_fract_z
 _atom_site_occupancy
  Tm  Tm0  1  0.678265  0.946024  0.435099  1
  Tm  Tm1  1  0.819827  0.553427  0.938078  1
  Tm  Tm2  1  0.320412  0.445240  0.563081  1
  Tm  Tm3  1  0.182845  0.051956  0.062940  1
  Tm  Tm4  1  0.320259  0.054868  0.562228  1
  Tm  Tm5  1  0.180542  0.445691  0.062372  1
  Tm  Tm6  1  0.680210  0.554337  0.436859  1
  Tm  Tm7  1  0.819688  0.946313  0.938110  1
  Tm  Tm8  1  0.336402  0.752806  0.286581  1
  Tm  Tm9  1  0.164926  0.750287  0.788600  1
  Tm  Tm10  1  0.665176  0.250441  0.712390  1
  Tm  Tm11  1  0.831839  0.247323  0.212654  1
  Tm  Tm12  1  0.041067  0.749426  0.497510  1
  Tm  Tm13  1  0.461395  0.753269  0.999871  1
  Tm  Tm14  1  0.960091  0.250675  0.501971  1
  Tm  Tm15  1  0.540701  0.246606  0.003046  1
  Tm  Tm16  1  0.857235  0.753195  0.205674  1
  Tm  Tm17  1  0.637068  0.749992  0.705803  1
  Tm  Tm18  1  0.137702  0.249811  0.794204  1
  Tm  Tm19  1  0.365757  0.247425  0.293141  1
  Si  Si20  1  0.087409  0.749372  0.023154  1
  Si  Si21  1  0.411688  0.749573  0.521776  1
  Si  Si22  1  0.913567  0.249865  0.978393  1
  Si  Si23  1  0.588716  0.250614  0.478582  1
  Bi  Bi24  1  0.931775  0.511518  0.674399  1
  Bi  Bi25  1  0.432041  0.489623  0.827263  1
  Bi  Bi26  1  0.067677  0.011184  0.326372  1
  Bi  Bi27  1  0.431887  0.010829  0.824349  1
  Bi  Bi28  1  0.067963  0.488858  0.324432  1
  Bi  Bi29  1  0.567570  0.510349  0.173927  1
  Bi  Bi30  1  0.931436  0.988883  0.673771  1
  Pb  Pb31  1  0.566866  0.990221  0.173374  1
