# generated using pymatgen
data_Tb2TmTh(Al8Pt3)3
_symmetry_space_group_name_H-M   'P 1'
_cell_length_a   7.56062840
_cell_length_b   7.57854428
_cell_length_c   13.17890124
_cell_angle_alpha   84.52923006
_cell_angle_beta   78.99658659
_cell_angle_gamma   59.92174491
_symmetry_Int_Tables_number   1
_chemical_formula_structural   Tb2TmTh(Al8Pt3)3
_chemical_formula_sum   'Tb2 Tm1 Th1 Al24 Pt9'
_cell_volume   641.43408242
_cell_formula_units_Z   1
loop_
 _symmetry_equiv_pos_site_id
 _symmetry_equiv_pos_as_xyz
  1  'x, y, z'
loop_
 _atom_site_type_symbol
 _atom_site_label
 _atom_site_symmetry_multiplicity
 _atom_site_fract_x
 _atom_site_fract_y
 _atom_site_fract_z
 _atom_site_occupancy
  Tb  Tb0  1  0.605837  0.831489  0.193159  1
  Tb  Tb1  1  0.733309  0.499050  0.807901  1
  Tm  Tm2  1  0.265836  0.501249  0.194186  1
  Th  Th3  1  0.394171  0.167963  0.807387  1
  Al  Al4  1  0.687056  0.830796  0.947153  1
  Al  Al5  1  0.314940  0.166969  0.058964  1
  Al  Al6  1  0.146836  0.832648  0.560205  1
  Al  Al7  1  0.854173  0.167566  0.437482  1
  Al  Al8  1  0.480998  0.166600  0.556450  1
  Al  Al9  1  0.520270  0.832554  0.440620  1
  Al  Al10  1  0.217455  0.165862  0.328813  1
  Al  Al11  1  0.787586  0.831070  0.667006  1
  Al  Al12  1  0.437933  0.510378  0.667558  1
  Al  Al13  1  0.562827  0.493293  0.328576  1
  Al  Al14  1  0.107150  0.159687  0.665855  1
  Al  Al15  1  0.890931  0.839801  0.330045  1
  Al  Al16  1  0.351224  0.502861  0.947546  1
  Al  Al17  1  0.645489  0.501132  0.057016  1
  Al  Al18  1  0.011790  0.167084  0.956634  1
  Al  Al19  1  0.984441  0.831132  0.049491  1
  Al  Al20  1  0.186046  0.500197  0.440563  1
  Al  Al21  1  0.813677  0.500356  0.558062  1
  Al  Al22  1  0.733458  0.164881  0.183464  1
  Al  Al23  1  0.264762  0.832376  0.816613  1
  Al  Al24  1  0.058292  0.635235  0.815452  1
  Al  Al25  1  0.938602  0.369276  0.184882  1
  Al  Al26  1  0.859819  0.040755  0.816296  1
  Al  Al27  1  0.144228  0.957384  0.184225  1
  Pt  Pt28  1  0.121622  0.490856  0.638624  1
  Pt  Pt29  1  0.880519  0.508107  0.360918  1
  Pt  Pt30  1  0.656460  0.171506  0.999976  1
  Pt  Pt31  1  0.342724  0.829604  0.000165  1
  Pt  Pt32  1  0.537182  0.167425  0.360797  1
  Pt  Pt33  1  0.461924  0.834470  0.638388  1
  Pt  Pt34  1  0.778039  0.174793  0.637184  1
  Pt  Pt35  1  0.221319  0.824483  0.362227  1
  Pt  Pt36  1  0.001075  0.499115  0.000114  1
