# generated using pymatgen
data_Dy15Y5(Cd3Os)2
_symmetry_space_group_name_H-M   'P 1'
_cell_length_a   9.60763100
_cell_length_b   9.60763138
_cell_length_c   9.88496400
_cell_angle_alpha   90.00000000
_cell_angle_beta   90.00000000
_cell_angle_gamma   119.99923484
_symmetry_Int_Tables_number   1
_chemical_formula_structural   Dy15Y5(Cd3Os)2
_chemical_formula_sum   'Dy15 Y5 Cd6 Os2'
_cell_volume   790.20854020
_cell_formula_units_Z   1
loop_
 _symmetry_equiv_pos_site_id
 _symmetry_equiv_pos_as_xyz
  1  'x, y, z'
loop_
 _atom_site_type_symbol
 _atom_site_label
 _atom_site_symmetry_multiplicity
 _atom_site_fract_x
 _atom_site_fract_y
 _atom_site_fract_z
 _atom_site_occupancy
  Dy  Dy0  1  0.000028  0.999972  0.500035  1
  Dy  Dy1  1  0.000028  0.999972  0.999965  1
  Dy  Dy2  1  0.209732  0.790268  0.440266  1
  Dy  Dy3  1  0.209827  0.419450  0.440204  1
  Dy  Dy4  1  0.580550  0.790173  0.440204  1
  Dy  Dy5  1  0.790309  0.209691  0.559802  1
  Dy  Dy6  1  0.790204  0.580548  0.559697  1
  Dy  Dy7  1  0.419452  0.209796  0.559697  1
  Dy  Dy8  1  0.790309  0.209691  0.940198  1
  Dy  Dy9  1  0.790204  0.580548  0.940303  1
  Dy  Dy10  1  0.419452  0.209796  0.940303  1
  Dy  Dy11  1  0.209732  0.790268  0.059734  1
  Dy  Dy12  1  0.209827  0.419450  0.059796  1
  Dy  Dy13  1  0.580550  0.790173  0.059796  1
  Dy  Dy14  1  0.540027  0.459973  0.250000  1
  Y  Y15  1  0.540180  0.080379  0.250000  1
  Y  Y16  1  0.919621  0.459820  0.250000  1
  Y  Y17  1  0.459873  0.540127  0.750000  1
  Y  Y18  1  0.459866  0.919734  0.750000  1
  Y  Y19  1  0.080266  0.540134  0.750000  1
  Cd  Cd20  1  0.885521  0.114479  0.250000  1
  Cd  Cd21  1  0.885409  0.770968  0.250000  1
  Cd  Cd22  1  0.229032  0.114591  0.250000  1
  Cd  Cd23  1  0.114483  0.885517  0.750000  1
  Cd  Cd24  1  0.114465  0.228978  0.750000  1
  Cd  Cd25  1  0.771022  0.885535  0.750000  1
  Os  Os26  1  0.333381  0.666619  0.250000  1
  Os  Os27  1  0.666649  0.333351  0.750000  1
