# generated using pymatgen
data_Ca3TbSb6Rh7
_symmetry_space_group_name_H-M   'P 1'
_cell_length_a   7.61777114
_cell_length_b   7.67026961
_cell_length_c   7.61777163
_cell_angle_alpha   109.61087675
_cell_angle_beta   109.33120037
_cell_angle_gamma   109.61088600
_symmetry_Int_Tables_number   1
_chemical_formula_structural   Ca3TbSb6Rh7
_chemical_formula_sum   'Ca3 Tb1 Sb6 Rh7'
_cell_volume   342.05279980
_cell_formula_units_Z   1
loop_
 _symmetry_equiv_pos_site_id
 _symmetry_equiv_pos_as_xyz
  1  'x, y, z'
loop_
 _atom_site_type_symbol
 _atom_site_label
 _atom_site_symmetry_multiplicity
 _atom_site_fract_x
 _atom_site_fract_y
 _atom_site_fract_z
 _atom_site_occupancy
  Ca  Ca0  1  0.500000  0.000000  0.000000  1
  Ca  Ca1  1  0.000000  0.000000  0.500000  1
  Ca  Ca2  1  0.500000  0.500000  0.500000  1
  Tb  Tb3  1  0.000000  0.500000  0.000000  1
  Sb  Sb4  1  0.000000  0.316232  0.320561  1
  Sb  Sb5  1  0.679439  0.995672  0.679439  1
  Sb  Sb6  1  0.679439  0.683768  0.000000  1
  Sb  Sb7  1  0.000000  0.683768  0.679439  1
  Sb  Sb8  1  0.320561  0.004328  0.320561  1
  Sb  Sb9  1  0.320561  0.316232  0.000000  1
  Rh  Rh10  1  0.000000  0.000000  0.000000  1
  Rh  Rh11  1  0.495038  0.747519  0.247519  1
  Rh  Rh12  1  0.752481  0.500000  0.247519  1
  Rh  Rh13  1  0.247519  0.747519  0.495038  1
  Rh  Rh14  1  0.247519  0.500000  0.752481  1
  Rh  Rh15  1  0.504962  0.252481  0.752481  1
  Rh  Rh16  1  0.752481  0.252481  0.504962  1
