# generated using pymatgen
data_Nb3V3Si5
_symmetry_space_group_name_H-M   'P 1'
_cell_length_a   4.97390354
_cell_length_b   7.78301709
_cell_length_c   9.38305607
_cell_angle_alpha   65.12025921
_cell_angle_beta   74.63024397
_cell_angle_gamma   89.99999318
_symmetry_Int_Tables_number   1
_chemical_formula_structural   Nb3V3Si5
_chemical_formula_sum   'Nb6 V6 Si10'
_cell_volume   315.14810974
_cell_formula_units_Z   2
loop_
 _symmetry_equiv_pos_site_id
 _symmetry_equiv_pos_as_xyz
  1  'x, y, z'
loop_
 _atom_site_type_symbol
 _atom_site_label
 _atom_site_symmetry_multiplicity
 _atom_site_fract_x
 _atom_site_fract_y
 _atom_site_fract_z
 _atom_site_occupancy
  Nb  Nb0  1  0.356749  0.741218  0.286503  1
  Nb  Nb1  1  0.643251  0.258782  0.713497  1
  Nb  Nb2  1  0.143089  0.025263  0.713822  1
  Nb  Nb3  1  0.856911  0.974737  0.286178  1
  Nb  Nb4  1  0.063739  0.319361  0.872521  1
  Nb  Nb5  1  0.936261  0.680639  0.127479  1
  V  V6  1  0.940832  0.691486  0.618079  1
  V  V7  1  0.558911  0.308514  0.381921  1
  V  V8  1  0.059168  0.308514  0.381921  1
  V  V9  1  0.441089  0.691486  0.618079  1
  V  V10  1  0.437593  0.190819  0.124814  1
  V  V11  1  0.562407  0.809181  0.875186  1
  Si  Si12  1  0.435927  0.514848  0.128147  1
  Si  Si13  1  0.564073  0.485152  0.871853  1
  Si  Si14  1  0.067440  0.652895  0.865121  1
  Si  Si15  1  0.932560  0.347105  0.134879  1
  Si  Si16  1  0.256913  0.000000  0.000000  1
  Si  Si17  1  0.743087  0.000000  0.000000  1
  Si  Si18  1  0.217202  0.422602  0.565596  1
  Si  Si19  1  0.782798  0.577398  0.434404  1
  Si  Si20  1  0.287132  0.992777  0.425736  1
  Si  Si21  1  0.712868  0.007223  0.574264  1
