# generated using pymatgen
data_Pr3ThS6
_symmetry_space_group_name_H-M   'P 1'
_cell_length_a   4.05829400
_cell_length_b   10.74204201
_cell_length_c   11.03290312
_cell_angle_alpha   89.50867870
_cell_angle_beta   90.00000000
_cell_angle_gamma   90.00000000
_symmetry_Int_Tables_number   1
_chemical_formula_structural   Pr3ThS6
_chemical_formula_sum   'Pr6 Th2 S12'
_cell_volume   480.95471772
_cell_formula_units_Z   2
loop_
 _symmetry_equiv_pos_site_id
 _symmetry_equiv_pos_as_xyz
  1  'x, y, z'
loop_
 _atom_site_type_symbol
 _atom_site_label
 _atom_site_symmetry_multiplicity
 _atom_site_fract_x
 _atom_site_fract_y
 _atom_site_fract_z
 _atom_site_occupancy
  Pr  Pr0  1  0.250000  0.006449  0.308815  1
  Pr  Pr1  1  0.750000  0.993551  0.691185  1
  Pr  Pr2  1  0.750000  0.503153  0.191644  1
  Pr  Pr3  1  0.250000  0.496846  0.808356  1
  Pr  Pr4  1  0.250000  0.686467  0.488569  1
  Pr  Pr5  1  0.750000  0.313533  0.511431  1
  Th  Th6  1  0.750000  0.186820  0.011396  1
  Th  Th7  1  0.250000  0.813180  0.988604  1
  S  S8  1  0.250000  0.055490  0.881599  1
  S  S9  1  0.750000  0.944510  0.118401  1
  S  S10  1  0.750000  0.552899  0.622884  1
  S  S11  1  0.250000  0.447101  0.377116  1
  S  S12  1  0.250000  0.127532  0.547648  1
  S  S13  1  0.750000  0.872468  0.452352  1
  S  S14  1  0.750000  0.629936  0.952080  1
  S  S15  1  0.250000  0.370064  0.047920  1
  S  S16  1  0.250000  0.703972  0.222431  1
  S  S17  1  0.750000  0.296028  0.777569  1
  S  S18  1  0.750000  0.202751  0.266899  1
  S  S19  1  0.250000  0.797249  0.733101  1
