# generated using pymatgen
data_Eu8Zn(Si4Pt)3
_symmetry_space_group_name_H-M   'P 1'
_cell_length_a   8.26094200
_cell_length_b   8.26094332
_cell_length_c   8.67064700
_cell_angle_alpha   90.00000000
_cell_angle_beta   90.00000000
_cell_angle_gamma   120.00001073
_symmetry_Int_Tables_number   1
_chemical_formula_structural   Eu8Zn(Si4Pt)3
_chemical_formula_sum   'Eu8 Zn1 Si12 Pt3'
_cell_volume   512.43797418
_cell_formula_units_Z   1
loop_
 _symmetry_equiv_pos_site_id
 _symmetry_equiv_pos_as_xyz
  1  'x, y, z'
loop_
 _atom_site_type_symbol
 _atom_site_label
 _atom_site_symmetry_multiplicity
 _atom_site_fract_x
 _atom_site_fract_y
 _atom_site_fract_z
 _atom_site_occupancy
  Eu  Eu0  1  0.498220  0.501780  0.746296  1
  Eu  Eu1  1  0.499252  0.500748  0.253480  1
  Eu  Eu2  1  0.003560  0.501780  0.746296  1
  Eu  Eu3  1  0.001498  0.500748  0.253480  1
  Eu  Eu4  1  0.498220  0.996440  0.746296  1
  Eu  Eu5  1  0.499252  0.998502  0.253480  1
  Eu  Eu6  1  0.000000  0.000000  0.749658  1
  Eu  Eu7  1  0.000000  0.000000  0.251105  1
  Zn  Zn8  1  0.666667  0.333333  0.996557  1
  Si  Si9  1  0.837455  0.162545  0.001288  1
  Si  Si10  1  0.166925  0.833075  0.000004  1
  Si  Si11  1  0.325089  0.162545  0.001288  1
  Si  Si12  1  0.165168  0.834832  0.499558  1
  Si  Si13  1  0.666152  0.833075  0.000004  1
  Si  Si14  1  0.834554  0.165446  0.499654  1
  Si  Si15  1  0.837455  0.674911  0.001288  1
  Si  Si16  1  0.669662  0.834832  0.499558  1
  Si  Si17  1  0.166925  0.333848  0.000004  1
  Si  Si18  1  0.330894  0.165446  0.499654  1
  Si  Si19  1  0.165168  0.330338  0.499558  1
  Si  Si20  1  0.834554  0.669106  0.499654  1
  Pt  Pt21  1  0.333333  0.666667  0.001427  1
  Pt  Pt22  1  0.333333  0.666667  0.499021  1
  Pt  Pt23  1  0.666667  0.333333  0.501392  1
