# generated using pymatgen
data_Yb6Ga6Sb3RhO24
_symmetry_space_group_name_H-M   'P 1'
_cell_length_a   10.87751016
_cell_length_b   10.87751004
_cell_length_c   10.87751099
_cell_angle_alpha   109.60981861
_cell_angle_beta   109.60981724
_cell_angle_gamma   109.60981535
_symmetry_Int_Tables_number   1
_chemical_formula_structural   Yb6Ga6Sb3RhO24
_chemical_formula_sum   'Yb12 Ga12 Sb6 Rh2 O48'
_cell_volume   985.63907916
_cell_formula_units_Z   2
loop_
 _symmetry_equiv_pos_site_id
 _symmetry_equiv_pos_as_xyz
  1  'x, y, z'
loop_
 _atom_site_type_symbol
 _atom_site_label
 _atom_site_symmetry_multiplicity
 _atom_site_fract_x
 _atom_site_fract_y
 _atom_site_fract_z
 _atom_site_occupancy
  Yb  Yb0  1  0.250000  0.367522  0.132478  1
  Yb  Yb1  1  0.374967  0.750000  0.125032  1
  Yb  Yb2  1  0.367522  0.132478  0.250000  1
  Yb  Yb3  1  0.874966  0.625033  0.250000  1
  Yb  Yb4  1  0.132478  0.250000  0.367522  1
  Yb  Yb5  1  0.750000  0.125032  0.374967  1
  Yb  Yb6  1  0.250000  0.874966  0.625033  1
  Yb  Yb7  1  0.867522  0.750000  0.632478  1
  Yb  Yb8  1  0.125032  0.374967  0.750000  1
  Yb  Yb9  1  0.632478  0.867522  0.750000  1
  Yb  Yb10  1  0.625033  0.250000  0.874966  1
  Yb  Yb11  1  0.750000  0.632478  0.867522  1
  Ga  Ga12  1  0.752027  0.875883  0.121449  1
  Ga  Ga13  1  0.878551  0.247974  0.124117  1
  Ga  Ga14  1  0.621449  0.375883  0.252027  1
  Ga  Ga15  1  0.124117  0.878551  0.247974  1
  Ga  Ga16  1  0.624117  0.747973  0.378551  1
  Ga  Ga17  1  0.252027  0.621449  0.375883  1
  Ga  Ga18  1  0.747973  0.378551  0.624117  1
  Ga  Ga19  1  0.375883  0.252027  0.621449  1
  Ga  Ga20  1  0.875883  0.121449  0.752027  1
  Ga  Ga21  1  0.378551  0.624117  0.747973  1
  Ga  Ga22  1  0.247974  0.124117  0.878551  1
  Ga  Ga23  1  0.121449  0.752027  0.875883  1
  Sb  Sb24  1  0.499999  0.000000  0.000000  1
  Sb  Sb25  1  0.500000  0.500000  0.000000  1
  Sb  Sb26  1  0.000000  0.499999  0.000000  1
  Sb  Sb27  1  0.500000  0.000000  0.500000  1
  Sb  Sb28  1  0.000000  0.500000  0.500000  1
  Sb  Sb29  1  0.000000  0.000000  0.499999  1
  Rh  Rh30  1  0.000000  0.000000  0.000000  1
  Rh  Rh31  1  0.499999  0.499999  0.499999  1
  O  O32  1  0.323211  0.901718  0.023818  1
  O  O33  1  0.209725  0.122715  0.028525  1
  O  O34  1  0.702507  0.677882  0.083412  1
  O  O35  1  0.879214  0.403433  0.081518  1
  O  O36  1  0.976182  0.676789  0.098282  1
  O  O37  1  0.620785  0.418482  0.096567  1
  O  O38  1  0.596567  0.918482  0.120786  1
  O  O39  1  0.028525  0.209725  0.122715  1
  O  O40  1  0.476182  0.598281  0.176789  1
  O  O41  1  0.202507  0.583412  0.177882  1
  O  O42  1  0.122715  0.028525  0.209725  1
  O  O43  1  0.583412  0.177882  0.202507  1
  O  O44  1  0.471474  0.377284  0.290274  1
  O  O45  1  0.322118  0.916587  0.297493  1
  O  O46  1  0.901718  0.023818  0.323211  1
  O  O47  1  0.916587  0.297493  0.322118  1
  O  O48  1  0.290274  0.471474  0.377284  1
  O  O49  1  0.581518  0.903433  0.379214  1
  O  O50  1  0.823210  0.523817  0.401717  1
  O  O51  1  0.081518  0.879214  0.403433  1
  O  O52  1  0.822118  0.797493  0.416588  1
  O  O53  1  0.096567  0.620785  0.418482  1
  O  O54  1  0.598281  0.176789  0.476182  1
  O  O55  1  0.377284  0.290274  0.471474  1
  O  O56  1  0.622716  0.709726  0.528526  1
  O  O57  1  0.401717  0.823210  0.523817  1
  O  O58  1  0.903433  0.379214  0.581518  1
  O  O59  1  0.177882  0.202507  0.583412  1
  O  O60  1  0.918482  0.120786  0.596567  1
  O  O61  1  0.176789  0.476182  0.598281  1
  O  O62  1  0.418482  0.096567  0.620785  1
  O  O63  1  0.709726  0.528526  0.622716  1
  O  O64  1  0.083412  0.702507  0.677882  1
  O  O65  1  0.098282  0.976182  0.676789  1
  O  O66  1  0.677882  0.083412  0.702507  1
  O  O67  1  0.528526  0.622716  0.709726  1
  O  O68  1  0.416588  0.822118  0.797493  1
  O  O69  1  0.877284  0.971474  0.790273  1
  O  O70  1  0.797493  0.416588  0.822118  1
  O  O71  1  0.523817  0.401717  0.823210  1
  O  O72  1  0.971474  0.790273  0.877284  1
  O  O73  1  0.403433  0.081518  0.879214  1
  O  O74  1  0.379214  0.581518  0.903433  1
  O  O75  1  0.023818  0.323211  0.901718  1
  O  O76  1  0.120786  0.596567  0.918482  1
  O  O77  1  0.297493  0.322118  0.916587  1
  O  O78  1  0.676789  0.098282  0.976182  1
  O  O79  1  0.790273  0.877284  0.971474  1
