# generated using pymatgen
data_Tb2Ho8Tl7InPt4
_symmetry_space_group_name_H-M   'P 1'
_cell_length_a   3.61029500
_cell_length_b   8.25493676
_cell_length_c   18.39095804
_cell_angle_alpha   89.92457830
_cell_angle_beta   90.00000000
_cell_angle_gamma   90.00000000
_symmetry_Int_Tables_number   1
_chemical_formula_structural   Tb2Ho8Tl7InPt4
_chemical_formula_sum   'Tb2 Ho8 Tl7 In1 Pt4'
_cell_volume   548.10077712
_cell_formula_units_Z   1
loop_
 _symmetry_equiv_pos_site_id
 _symmetry_equiv_pos_as_xyz
  1  'x, y, z'
loop_
 _atom_site_type_symbol
 _atom_site_label
 _atom_site_symmetry_multiplicity
 _atom_site_fract_x
 _atom_site_fract_y
 _atom_site_fract_z
 _atom_site_occupancy
  Tb  Tb0  1  0.000000  0.000242  0.000172  1
  Tb  Tb1  1  0.000000  0.503422  0.499650  1
  Ho  Ho2  1  0.000000  0.115361  0.412913  1
  Ho  Ho3  1  0.000000  0.885266  0.586362  1
  Ho  Ho4  1  0.000000  0.385267  0.911950  1
  Ho  Ho5  1  0.000000  0.614731  0.088109  1
  Ho  Ho6  1  0.000000  0.243361  0.220640  1
  Ho  Ho7  1  0.000000  0.756485  0.780130  1
  Ho  Ho8  1  0.000000  0.255325  0.719124  1
  Ho  Ho9  1  0.000000  0.743038  0.280731  1
  Tl  Tl10  1  0.500000  0.422972  0.353378  1
  Tl  Tl11  1  0.500000  0.580521  0.647184  1
  Tl  Tl12  1  0.500000  0.079708  0.852635  1
  Tl  Tl13  1  0.500000  0.920849  0.147767  1
  Tl  Tl14  1  0.500000  0.294629  0.064610  1
  Tl  Tl15  1  0.500000  0.705246  0.935894  1
  Tl  Tl16  1  0.500000  0.206208  0.563810  1
  In  In17  1  0.500000  0.795989  0.434264  1
  Pt  Pt18  1  0.500000  0.022619  0.304350  1
  Pt  Pt19  1  0.500000  0.972491  0.696987  1
  Pt  Pt20  1  0.500000  0.471240  0.801962  1
  Pt  Pt21  1  0.500000  0.525029  0.197378  1
