# generated using pymatgen
data_HoEr8TmIn6
_symmetry_space_group_name_H-M   'P 1'
_cell_length_a   5.99367854
_cell_length_b   9.10039727
_cell_length_c   9.10039712
_cell_angle_alpha   83.78481505
_cell_angle_beta   70.75591476
_cell_angle_gamma   70.75591596
_symmetry_Int_Tables_number   1
_chemical_formula_structural   HoEr8TmIn6
_chemical_formula_sum   'Ho1 Er8 Tm1 In6'
_cell_volume   442.45724396
_cell_formula_units_Z   1
loop_
 _symmetry_equiv_pos_site_id
 _symmetry_equiv_pos_as_xyz
  1  'x, y, z'
loop_
 _atom_site_type_symbol
 _atom_site_label
 _atom_site_symmetry_multiplicity
 _atom_site_fract_x
 _atom_site_fract_y
 _atom_site_fract_z
 _atom_site_occupancy
  Ho  Ho0  1  0.250000  0.500075  0.499925  1
  Er  Er1  1  0.719046  0.861888  0.699250  1
  Er  Er2  1  0.280608  0.138118  0.300742  1
  Er  Er3  1  0.780954  0.300750  0.138112  1
  Er  Er4  1  0.219392  0.699258  0.861882  1
  Er  Er5  1  0.580728  0.699400  0.138064  1
  Er  Er6  1  0.419621  0.300580  0.861946  1
  Er  Er7  1  0.080379  0.138054  0.699420  1
  Er  Er8  1  0.919272  0.861936  0.300600  1
  Tm  Tm9  1  0.750000  0.500001  0.499999  1
  In  In10  1  0.161402  0.500254  0.175169  1
  In  In11  1  0.837554  0.499705  0.824878  1
  In  In12  1  0.338598  0.824831  0.499746  1
  In  In13  1  0.662446  0.175122  0.500295  1
  In  In14  1  0.250000  0.999746  0.000254  1
  In  In15  1  0.750000  0.000281  0.999719  1
