# generated using pymatgen
data_Zn20CdPt5
_symmetry_space_group_name_H-M   'P 1'
_cell_length_a   7.98106637
_cell_length_b   8.00058311
_cell_length_c   7.95997382
_cell_angle_alpha   70.76357654
_cell_angle_beta   70.85106499
_cell_angle_gamma   109.44074292
_symmetry_Int_Tables_number   1
_chemical_formula_structural   Zn20CdPt5
_chemical_formula_sum   'Zn20 Cd1 Pt5'
_cell_volume   394.07580342
_cell_formula_units_Z   1
loop_
 _symmetry_equiv_pos_site_id
 _symmetry_equiv_pos_as_xyz
  1  'x, y, z'
loop_
 _atom_site_type_symbol
 _atom_site_label
 _atom_site_symmetry_multiplicity
 _atom_site_fract_x
 _atom_site_fract_y
 _atom_site_fract_z
 _atom_site_occupancy
  Zn  Zn0  1  0.004381  0.997567  0.790116  1
  Zn  Zn1  1  0.776144  0.776067  0.224038  1
  Zn  Zn2  1  0.206998  0.001290  0.994508  1
  Zn  Zn3  1  0.000284  0.224425  0.002351  1
  Zn  Zn4  1  0.275757  0.255468  0.388816  1
  Zn  Zn5  1  0.015495  0.744212  0.646263  1
  Zn  Zn6  1  0.720819  0.992300  0.651274  1
  Zn  Zn7  1  0.661139  0.642436  0.627553  1
  Zn  Zn8  1  0.384776  0.644339  0.338635  1
  Zn  Zn9  1  0.646754  0.374651  0.358616  1
  Zn  Zn10  1  0.350927  0.743362  0.987708  1
  Zn  Zn11  1  0.594728  0.243093  0.741291  1
  Zn  Zn12  1  0.349489  0.997013  0.272952  1
  Zn  Zn13  1  0.718162  0.351064  0.997049  1
  Zn  Zn14  1  0.016037  0.357675  0.266008  1
  Zn  Zn15  1  0.276217  0.628387  0.730303  1
  Zn  Zn16  1  0.642613  0.647569  0.991431  1
  Zn  Zn17  1  0.011679  0.661621  0.342484  1
  Zn  Zn18  1  0.647925  0.002669  0.351685  1
  Zn  Zn19  1  0.359290  0.355685  0.006165  1
  Cd  Cd20  1  0.993083  0.364241  0.634799  1
  Pt  Pt21  1  0.367907  0.000021  0.629709  1
  Pt  Pt22  1  0.996224  0.001061  0.344916  1
  Pt  Pt23  1  0.349247  0.362121  0.657202  1
  Pt  Pt24  1  0.652916  0.994979  0.007783  1
  Pt  Pt25  1  0.981011  0.636686  0.016346  1
