# generated using pymatgen
data_DyHo2In3Pt2Rh
_symmetry_space_group_name_H-M   'P 1'
_cell_length_a   7.68842206
_cell_length_b   7.68672018
_cell_length_c   3.81713700
_cell_angle_alpha   90.00000000
_cell_angle_beta   90.00000000
_cell_angle_gamma   119.99267370
_symmetry_Int_Tables_number   1
_chemical_formula_structural   DyHo2In3Pt2Rh
_chemical_formula_sum   'Dy1 Ho2 In3 Pt2 Rh1'
_cell_volume   195.37937862
_cell_formula_units_Z   1
loop_
 _symmetry_equiv_pos_site_id
 _symmetry_equiv_pos_as_xyz
  1  'x, y, z'
loop_
 _atom_site_type_symbol
 _atom_site_label
 _atom_site_symmetry_multiplicity
 _atom_site_fract_x
 _atom_site_fract_y
 _atom_site_fract_z
 _atom_site_occupancy
  Dy  Dy0  1  0.000000  0.404962  0.500000  1
  Ho  Ho1  1  0.595070  0.595066  0.500000  1
  Ho  Ho2  1  0.404930  0.999996  0.500000  1
  In  In3  1  0.257178  0.257040  0.000000  1
  In  In4  1  0.000000  0.743070  0.000000  1
  In  In5  1  0.742822  0.999862  0.000000  1
  Pt  Pt6  1  0.333609  0.666886  0.000000  1
  Pt  Pt7  1  0.666391  0.333276  0.000000  1
  Rh  Rh8  1  0.000000  0.999841  0.500000  1
