# generated using pymatgen
data_TbY2U5(PS)8
_symmetry_space_group_name_H-M   'P 1'
_cell_length_a   5.35527800
_cell_length_b   5.34753700
_cell_length_c   16.21484400
_cell_angle_alpha   89.99869820
_cell_angle_beta   89.99903092
_cell_angle_gamma   90.00021416
_symmetry_Int_Tables_number   1
_chemical_formula_structural   TbY2U5(PS)8
_chemical_formula_sum   'Tb1 Y2 U5 P8 S8'
_cell_volume   464.35336114
_cell_formula_units_Z   1
loop_
 _symmetry_equiv_pos_site_id
 _symmetry_equiv_pos_as_xyz
  1  'x, y, z'
loop_
 _atom_site_type_symbol
 _atom_site_label
 _atom_site_symmetry_multiplicity
 _atom_site_fract_x
 _atom_site_fract_y
 _atom_site_fract_z
 _atom_site_occupancy
  Tb  Tb0  1  0.750000  0.500024  0.129392  1
  Y  Y1  1  0.250001  0.500018  0.370173  1
  Y  Y2  1  0.249999  0.000038  0.142792  1
  U  U3  1  0.749996  0.499986  0.641335  1
  U  U4  1  0.749999  0.999966  0.857602  1
  U  U5  1  0.250002  0.999968  0.641103  1
  U  U6  1  0.249999  0.499965  0.856814  1
  U  U7  1  0.750004  0.000015  0.358003  1
  P  P8  1  0.028250  0.222733  0.994341  1
  P  P9  1  0.528988  0.777344  0.504289  1
  P  P10  1  0.471747  0.777271  0.994344  1
  P  P11  1  0.971022  0.222648  0.504286  1
  P  P12  1  0.028254  0.777269  0.994344  1
  P  P13  1  0.528974  0.222647  0.504287  1
  P  P14  1  0.471751  0.222730  0.994342  1
  P  P15  1  0.971009  0.777342  0.504289  1
  S  S16  1  0.250008  0.500041  0.187833  1
  S  S17  1  0.250001  0.000021  0.321721  1
  S  S18  1  0.750003  0.499988  0.818089  1
  S  S19  1  0.749998  0.999972  0.685185  1
  S  S20  1  0.250000  0.999988  0.814193  1
  S  S21  1  0.249993  0.499974  0.680205  1
  S  S22  1  0.750004  0.000038  0.183562  1
  S  S23  1  0.749996  0.500012  0.317475  1
