# generated using pymatgen
data_Tb5Sm3(CuP)12
_symmetry_space_group_name_H-M   'P 1'
_cell_length_a   3.89357400
_cell_length_b   10.74015409
_cell_length_c   12.99209511
_cell_angle_alpha   90.01475686
_cell_angle_beta   90.00000000
_cell_angle_gamma   90.00000000
_symmetry_Int_Tables_number   1
_chemical_formula_structural   Tb5Sm3(CuP)12
_chemical_formula_sum   'Tb5 Sm3 Cu12 P12'
_cell_volume   543.29801980
_cell_formula_units_Z   1
loop_
 _symmetry_equiv_pos_site_id
 _symmetry_equiv_pos_as_xyz
  1  'x, y, z'
loop_
 _atom_site_type_symbol
 _atom_site_label
 _atom_site_symmetry_multiplicity
 _atom_site_fract_x
 _atom_site_fract_y
 _atom_site_fract_z
 _atom_site_occupancy
  Tb  Tb0  1  0.750000  0.069711  0.206861  1
  Tb  Tb1  1  0.250000  0.841787  0.502238  1
  Tb  Tb2  1  0.750000  0.341474  0.997877  1
  Tb  Tb3  1  0.250000  0.658414  0.002543  1
  Tb  Tb4  1  0.750000  0.157738  0.496995  1
  Sm  Sm5  1  0.250000  0.930756  0.793476  1
  Sm  Sm6  1  0.750000  0.430648  0.706510  1
  Sm  Sm7  1  0.250000  0.569372  0.293467  1
  Cu  Cu8  1  0.250000  0.400846  0.513016  1
  Cu  Cu9  1  0.750000  0.901268  0.987268  1
  Cu  Cu10  1  0.250000  0.098518  0.013925  1
  Cu  Cu11  1  0.750000  0.599023  0.486924  1
  Cu  Cu12  1  0.250000  0.272210  0.332467  1
  Cu  Cu13  1  0.750000  0.773173  0.167473  1
  Cu  Cu14  1  0.250000  0.227680  0.833002  1
  Cu  Cu15  1  0.750000  0.727743  0.667124  1
  Cu  Cu16  1  0.250000  0.861563  0.279029  1
  Cu  Cu17  1  0.750000  0.359223  0.220835  1
  Cu  Cu18  1  0.250000  0.639870  0.779230  1
  Cu  Cu19  1  0.750000  0.139930  0.720688  1
  P  P20  1  0.250000  0.237691  0.643977  1
  P  P21  1  0.750000  0.737833  0.855873  1
  P  P22  1  0.250000  0.260038  0.144631  1
  P  P23  1  0.750000  0.762250  0.355898  1
  P  P24  1  0.250000  0.604612  0.599178  1
  P  P25  1  0.750000  0.104637  0.900729  1
  P  P26  1  0.250000  0.896409  0.099807  1
  P  P27  1  0.750000  0.395407  0.400851  1
  P  P28  1  0.250000  0.057644  0.368126  1
  P  P29  1  0.750000  0.557416  0.130012  1
  P  P30  1  0.250000  0.442504  0.870184  1
  P  P31  1  0.750000  0.942612  0.629787  1
