# generated using pymatgen
data_PrDy2Tm(Mo2O7)2
_symmetry_space_group_name_H-M   'P 1'
_cell_length_a   7.40964567
_cell_length_b   7.48714621
_cell_length_c   7.48714530
_cell_angle_alpha   58.99521960
_cell_angle_beta   58.91169165
_cell_angle_gamma   58.91169087
_symmetry_Int_Tables_number   1
_chemical_formula_structural   PrDy2Tm(Mo2O7)2
_chemical_formula_sum   'Pr1 Dy2 Tm1 Mo4 O14'
_cell_volume   286.59986147
_cell_formula_units_Z   1
loop_
 _symmetry_equiv_pos_site_id
 _symmetry_equiv_pos_as_xyz
  1  'x, y, z'
loop_
 _atom_site_type_symbol
 _atom_site_label
 _atom_site_symmetry_multiplicity
 _atom_site_fract_x
 _atom_site_fract_y
 _atom_site_fract_z
 _atom_site_occupancy
  Pr  Pr0  1  0.125000  0.125000  0.125000  1
  Dy  Dy1  1  0.125000  0.625000  0.125000  1
  Dy  Dy2  1  0.125000  0.125000  0.625000  1
  Tm  Tm3  1  0.625000  0.125000  0.125000  1
  Mo  Mo4  1  0.125000  0.625000  0.625000  1
  Mo  Mo5  1  0.625000  0.125000  0.625000  1
  Mo  Mo6  1  0.625000  0.625000  0.125000  1
  Mo  Mo7  1  0.625000  0.625000  0.625000  1
  O  O8  1  0.699582  0.713172  0.299105  1
  O  O9  1  0.286498  0.272321  0.709695  1
  O  O10  1  0.699582  0.299105  0.713172  1
  O  O11  1  0.286498  0.709695  0.272321  1
  O  O12  1  0.294405  0.713770  0.713770  1
  O  O13  1  0.692278  0.287038  0.287038  1
  O  O14  1  0.550418  0.536828  0.950895  1
  O  O15  1  0.963502  0.977679  0.540305  1
  O  O16  1  0.550418  0.950895  0.536828  1
  O  O17  1  0.963502  0.540305  0.977679  1
  O  O18  1  0.955595  0.536230  0.536230  1
  O  O19  1  0.557722  0.962962  0.962962  1
  O  O20  1  0.260255  0.252633  0.252633  1
  O  O21  1  0.989745  0.997367  0.997367  1
