# generated using pymatgen
data_Y3Lu7Al3Ru
_symmetry_space_group_name_H-M   'P 1'
_cell_length_a   9.40774200
_cell_length_b   9.40774324
_cell_length_c   9.48029100
_cell_angle_alpha   90.00000000
_cell_angle_beta   90.00000000
_cell_angle_gamma   119.99999563
_symmetry_Int_Tables_number   1
_chemical_formula_structural   Y3Lu7Al3Ru
_chemical_formula_sum   'Y6 Lu14 Al6 Ru2'
_cell_volume   726.64647979
_cell_formula_units_Z   2
loop_
 _symmetry_equiv_pos_site_id
 _symmetry_equiv_pos_as_xyz
  1  'x, y, z'
loop_
 _atom_site_type_symbol
 _atom_site_label
 _atom_site_symmetry_multiplicity
 _atom_site_fract_x
 _atom_site_fract_y
 _atom_site_fract_z
 _atom_site_occupancy
  Y  Y0  1  0.539193  0.460807  0.250000  1
  Y  Y1  1  0.539193  0.078386  0.250000  1
  Y  Y2  1  0.921614  0.460807  0.250000  1
  Y  Y3  1  0.460807  0.539193  0.750000  1
  Y  Y4  1  0.460807  0.921614  0.750000  1
  Y  Y5  1  0.078386  0.539193  0.750000  1
  Lu  Lu6  1  0.000000  0.000000  0.500000  1
  Lu  Lu7  1  0.000000  0.000000  0.000000  1
  Lu  Lu8  1  0.207189  0.792811  0.439373  1
  Lu  Lu9  1  0.207189  0.414380  0.439373  1
  Lu  Lu10  1  0.585620  0.792811  0.439373  1
  Lu  Lu11  1  0.792811  0.207189  0.560627  1
  Lu  Lu12  1  0.792811  0.585620  0.560627  1
  Lu  Lu13  1  0.414380  0.207189  0.560627  1
  Lu  Lu14  1  0.792811  0.207189  0.939373  1
  Lu  Lu15  1  0.792811  0.585620  0.939373  1
  Lu  Lu16  1  0.414380  0.207189  0.939373  1
  Lu  Lu17  1  0.207189  0.792811  0.060627  1
  Lu  Lu18  1  0.207189  0.414380  0.060627  1
  Lu  Lu19  1  0.585620  0.792811  0.060627  1
  Al  Al20  1  0.890064  0.109936  0.250000  1
  Al  Al21  1  0.890064  0.780127  0.250000  1
  Al  Al22  1  0.219873  0.109936  0.250000  1
  Al  Al23  1  0.109936  0.890064  0.750000  1
  Al  Al24  1  0.109936  0.219873  0.750000  1
  Al  Al25  1  0.780127  0.890064  0.750000  1
  Ru  Ru26  1  0.333333  0.666667  0.250000  1
  Ru  Ru27  1  0.666667  0.333333  0.750000  1
