# generated using pymatgen
data_Nb2SnB2Ru5
_symmetry_space_group_name_H-M   'P 1'
_cell_length_a   9.49770500
_cell_length_b   9.49770500
_cell_length_c   3.03236000
_cell_angle_alpha   90.00000000
_cell_angle_beta   90.00000000
_cell_angle_gamma   90.00000000
_symmetry_Int_Tables_number   1
_chemical_formula_structural   Nb2SnB2Ru5
_chemical_formula_sum   'Nb4 Sn2 B4 Ru10'
_cell_volume   273.53827991
_cell_formula_units_Z   2
loop_
 _symmetry_equiv_pos_site_id
 _symmetry_equiv_pos_as_xyz
  1  'x, y, z'
loop_
 _atom_site_type_symbol
 _atom_site_label
 _atom_site_symmetry_multiplicity
 _atom_site_fract_x
 _atom_site_fract_y
 _atom_site_fract_z
 _atom_site_occupancy
  Nb  Nb0  1  0.822968  0.677032  0.000000  1
  Nb  Nb1  1  0.177032  0.322968  0.000000  1
  Nb  Nb2  1  0.322968  0.822968  0.000000  1
  Nb  Nb3  1  0.677032  0.177032  0.000000  1
  Sn  Sn4  1  0.500000  0.500000  0.000000  1
  Sn  Sn5  1  0.000000  0.000000  0.000000  1
  B  B6  1  0.621884  0.878116  0.000000  1
  B  B7  1  0.378116  0.121884  0.000000  1
  B  B8  1  0.121884  0.621884  0.000000  1
  B  B9  1  0.878116  0.378116  0.000000  1
  Ru  Ru10  1  0.569579  0.722185  0.500000  1
  Ru  Ru11  1  0.430421  0.277815  0.500000  1
  Ru  Ru12  1  0.069579  0.777815  0.500000  1
  Ru  Ru13  1  0.930421  0.222185  0.500000  1
  Ru  Ru14  1  0.277815  0.569579  0.500000  1
  Ru  Ru15  1  0.722185  0.430421  0.500000  1
  Ru  Ru16  1  0.222185  0.069579  0.500000  1
  Ru  Ru17  1  0.777815  0.930421  0.500000  1
  Ru  Ru18  1  0.500000  0.000000  0.500000  1
  Ru  Ru19  1  0.000000  0.500000  0.500000  1
