# generated using pymatgen
data_Er3ThHgIr
_symmetry_space_group_name_H-M   'P 1'
_cell_length_a   9.65063296
_cell_length_b   9.65063315
_cell_length_c   9.65063400
_cell_angle_alpha   59.99999708
_cell_angle_beta   59.99999642
_cell_angle_gamma   60.00000223
_symmetry_Int_Tables_number   1
_chemical_formula_structural   Er3ThHgIr
_chemical_formula_sum   'Er12 Th4 Hg4 Ir4'
_cell_volume   635.55397427
_cell_formula_units_Z   4
loop_
 _symmetry_equiv_pos_site_id
 _symmetry_equiv_pos_as_xyz
  1  'x, y, z'
loop_
 _atom_site_type_symbol
 _atom_site_label
 _atom_site_symmetry_multiplicity
 _atom_site_fract_x
 _atom_site_fract_y
 _atom_site_fract_z
 _atom_site_occupancy
  Er  Er0  1  0.062779  0.437221  0.437221  1
  Er  Er1  1  0.437221  0.062779  0.062779  1
  Er  Er2  1  0.437221  0.062779  0.437221  1
  Er  Er3  1  0.062779  0.437221  0.062779  1
  Er  Er4  1  0.437221  0.437221  0.062779  1
  Er  Er5  1  0.062779  0.062779  0.437221  1
  Er  Er6  1  0.185367  0.814633  0.814633  1
  Er  Er7  1  0.814633  0.185367  0.185367  1
  Er  Er8  1  0.814633  0.185367  0.814633  1
  Er  Er9  1  0.185367  0.814633  0.185367  1
  Er  Er10  1  0.814633  0.814633  0.185367  1
  Er  Er11  1  0.185367  0.185367  0.814633  1
  Th  Th12  1  0.601928  0.601928  0.601928  1
  Th  Th13  1  0.601928  0.601928  0.194216  1
  Th  Th14  1  0.601928  0.194216  0.601928  1
  Th  Th15  1  0.194216  0.601928  0.601928  1
  Hg  Hg16  1  0.837856  0.837856  0.837856  1
  Hg  Hg17  1  0.837856  0.837856  0.486433  1
  Hg  Hg18  1  0.837856  0.486433  0.837856  1
  Hg  Hg19  1  0.486433  0.837856  0.837856  1
  Ir  Ir20  1  0.392988  0.392988  0.392988  1
  Ir  Ir21  1  0.392988  0.392988  0.821033  1
  Ir  Ir22  1  0.392988  0.821033  0.392988  1
  Ir  Ir23  1  0.821033  0.392988  0.392988  1
