# generated using pymatgen
data_NiRh2Cl9
_symmetry_space_group_name_H-M   'P 1'
_cell_length_a   6.11104585
_cell_length_b   6.10214718
_cell_length_c   18.56817900
_cell_angle_alpha   89.57531148
_cell_angle_beta   90.21203359
_cell_angle_gamma   119.95186162
_symmetry_Int_Tables_number   1
_chemical_formula_structural   NiRh2Cl9
_chemical_formula_sum   'Ni2 Rh4 Cl18'
_cell_volume   599.92463525
_cell_formula_units_Z   2
loop_
 _symmetry_equiv_pos_site_id
 _symmetry_equiv_pos_as_xyz
  1  'x, y, z'
loop_
 _atom_site_type_symbol
 _atom_site_label
 _atom_site_symmetry_multiplicity
 _atom_site_fract_x
 _atom_site_fract_y
 _atom_site_fract_z
 _atom_site_occupancy
  Ni  Ni0  1  0.551755  0.444900  0.333411  1
  Ni  Ni1  1  0.550663  0.107495  0.666414  1
  Rh  Rh2  1  0.554916  0.777391  0.000210  1
  Rh  Rh3  1  0.220883  0.777763  0.333512  1
  Rh  Rh4  1  0.220680  0.443442  0.666297  1
  Rh  Rh5  1  0.888576  0.444240  0.000192  1
  Cl  Cl6  1  0.222094  0.466156  0.930087  1
  Cl  Cl7  1  0.535648  0.747651  0.265693  1
  Cl  Cl8  1  0.222032  0.755616  0.070368  1
  Cl  Cl9  1  0.247881  0.783560  0.595588  1
  Cl  Cl10  1  0.535452  0.789299  0.733431  1
  Cl  Cl11  1  0.250524  0.463016  0.403114  1
  Cl  Cl12  1  0.574474  0.111965  0.930050  1
  Cl  Cl13  1  0.884207  0.470124  0.266181  1
  Cl  Cl14  1  0.574714  0.462622  0.070431  1
  Cl  Cl15  1  0.533221  0.412240  0.600257  1
  Cl  Cl16  1  0.888198  0.416818  0.734317  1
  Cl  Cl17  1  0.532945  0.119366  0.399819  1
  Cl  Cl18  1  0.867283  0.108128  0.070383  1
  Cl  Cl19  1  0.899110  0.758764  0.405700  1
  Cl  Cl20  1  0.867468  0.759280  0.930081  1
  Cl  Cl21  1  0.238263  0.135047  0.739479  1
  Cl  Cl22  1  0.899953  0.141408  0.594377  1
  Cl  Cl23  1  0.239063  0.103706  0.260610  1
