# generated using pymatgen
data_Y20Ni3Bi8Os
_symmetry_space_group_name_H-M   'P 1'
_cell_length_a   8.06010130
_cell_length_b   8.99776000
_cell_length_c   12.39887895
_cell_angle_alpha   90.00000000
_cell_angle_beta   90.21942267
_cell_angle_gamma   90.00000000
_symmetry_Int_Tables_number   1
_chemical_formula_structural   Y20Ni3Bi8Os
_chemical_formula_sum   'Y20 Ni3 Bi8 Os1'
_cell_volume   899.19553193
_cell_formula_units_Z   1
loop_
 _symmetry_equiv_pos_site_id
 _symmetry_equiv_pos_as_xyz
  1  'x, y, z'
loop_
 _atom_site_type_symbol
 _atom_site_label
 _atom_site_symmetry_multiplicity
 _atom_site_fract_x
 _atom_site_fract_y
 _atom_site_fract_z
 _atom_site_occupancy
  Y  Y0  1  0.838856  0.750000  0.791260  1
  Y  Y1  1  0.159012  0.250000  0.205449  1
  Y  Y2  1  0.345079  0.250000  0.703210  1
  Y  Y3  1  0.655855  0.750000  0.294511  1
  Y  Y4  1  0.376282  0.750000  0.697059  1
  Y  Y5  1  0.621445  0.250000  0.306060  1
  Y  Y6  1  0.878102  0.250000  0.807592  1
  Y  Y7  1  0.122269  0.750000  0.190746  1
  Y  Y8  1  0.948084  0.750000  0.501584  1
  Y  Y9  1  0.049493  0.250000  0.497631  1
  Y  Y10  1  0.452726  0.250000  0.999957  1
  Y  Y11  1  0.546246  0.750000  0.000846  1
  Y  Y12  1  0.678068  0.039743  0.566249  1
  Y  Y13  1  0.324439  0.957768  0.435710  1
  Y  Y14  1  0.177188  0.960651  0.934264  1
  Y  Y15  1  0.324439  0.542232  0.435710  1
  Y  Y16  1  0.822001  0.039838  0.064863  1
  Y  Y17  1  0.678068  0.460257  0.566249  1
  Y  Y18  1  0.822001  0.460162  0.064863  1
  Y  Y19  1  0.177188  0.539349  0.934264  1
  Ni  Ni20  1  0.426616  0.250000  0.488278  1
  Ni  Ni21  1  0.070152  0.250000  0.991059  1
  Ni  Ni22  1  0.928697  0.750000  0.007897  1
  Bi  Bi23  1  0.570982  0.489599  0.829060  1
  Bi  Bi24  1  0.428641  0.509228  0.172502  1
  Bi  Bi25  1  0.070488  0.507341  0.673462  1
  Bi  Bi26  1  0.428641  0.990772  0.172502  1
  Bi  Bi27  1  0.931598  0.491123  0.325795  1
  Bi  Bi28  1  0.570982  0.010401  0.829060  1
  Bi  Bi29  1  0.931598  0.008877  0.325795  1
  Bi  Bi30  1  0.070488  0.992659  0.673462  1
  Os  Os31  1  0.574276  0.750000  0.513046  1
