# generated using pymatgen
data_Er16Al4IrPt3
_symmetry_space_group_name_H-M   'P 1'
_cell_length_a   9.49745672
_cell_length_b   9.53005458
_cell_length_c   9.49745700
_cell_angle_alpha   60.11308845
_cell_angle_beta   60.00000251
_cell_angle_gamma   60.11308561
_symmetry_Int_Tables_number   1
_chemical_formula_structural   Er16Al4IrPt3
_chemical_formula_sum   'Er16 Al4 Ir1 Pt3'
_cell_volume   608.88502134
_cell_formula_units_Z   1
loop_
 _symmetry_equiv_pos_site_id
 _symmetry_equiv_pos_as_xyz
  1  'x, y, z'
loop_
 _atom_site_type_symbol
 _atom_site_label
 _atom_site_symmetry_multiplicity
 _atom_site_fract_x
 _atom_site_fract_y
 _atom_site_fract_z
 _atom_site_occupancy
  Er  Er0  1  0.064066  0.062673  0.436631  1
  Er  Er1  1  0.645170  0.064492  0.645170  1
  Er  Er2  1  0.193992  0.805756  0.193992  1
  Er  Er3  1  0.436631  0.062673  0.436631  1
  Er  Er4  1  0.189514  0.195559  0.807464  1
  Er  Er5  1  0.648008  0.644268  0.648008  1
  Er  Er6  1  0.059718  0.644268  0.648008  1
  Er  Er7  1  0.436631  0.062673  0.064066  1
  Er  Er8  1  0.648008  0.644268  0.059718  1
  Er  Er9  1  0.193992  0.805756  0.806259  1
  Er  Er10  1  0.807464  0.195559  0.807464  1
  Er  Er11  1  0.807464  0.195559  0.189514  1
  Er  Er12  1  0.806259  0.805756  0.193992  1
  Er  Er13  1  0.063177  0.434763  0.438885  1
  Er  Er14  1  0.438885  0.434763  0.063177  1
  Er  Er15  1  0.063177  0.434763  0.063177  1
  Al  Al16  1  0.734071  0.422003  0.421963  1
  Al  Al17  1  0.421963  0.422003  0.734071  1
  Al  Al18  1  0.421416  0.735751  0.421416  1
  Al  Al19  1  0.421963  0.422003  0.421963  1
  Ir  Ir20  1  0.857049  0.428854  0.857049  1
  Pt  Pt21  1  0.856037  0.858613  0.856037  1
  Pt  Pt22  1  0.429315  0.858613  0.856037  1
  Pt  Pt23  1  0.856037  0.858613  0.429315  1
