# generated using pymatgen
data_Hf3ScTa3NbP4
_symmetry_space_group_name_H-M   'P 1'
_cell_length_a   3.52760700
_cell_length_b   6.90272985
_cell_length_c   8.31957577
_cell_angle_alpha   89.55595847
_cell_angle_beta   90.00000000
_cell_angle_gamma   90.00000000
_symmetry_Int_Tables_number   1
_chemical_formula_structural   Hf3ScTa3NbP4
_chemical_formula_sum   'Hf3 Sc1 Ta3 Nb1 P4'
_cell_volume   202.57656934
_cell_formula_units_Z   1
loop_
 _symmetry_equiv_pos_site_id
 _symmetry_equiv_pos_as_xyz
  1  'x, y, z'
loop_
 _atom_site_type_symbol
 _atom_site_label
 _atom_site_symmetry_multiplicity
 _atom_site_fract_x
 _atom_site_fract_y
 _atom_site_fract_z
 _atom_site_occupancy
  Hf  Hf0  1  0.250000  0.531736  0.834061  1
  Hf  Hf1  1  0.750000  0.468045  0.168211  1
  Hf  Hf2  1  0.750000  0.967640  0.331436  1
  Sc  Sc3  1  0.250000  0.031954  0.665279  1
  Ta  Ta4  1  0.750000  0.858792  0.941008  1
  Ta  Ta5  1  0.250000  0.640221  0.440057  1
  Ta  Ta6  1  0.250000  0.142207  0.060847  1
  Nb  Nb7  1  0.750000  0.360908  0.559095  1
  P  P8  1  0.250000  0.262800  0.356923  1
  P  P9  1  0.250000  0.763769  0.144340  1
  P  P10  1  0.750000  0.737636  0.644461  1
  P  P11  1  0.750000  0.234293  0.854281  1
