# generated using pymatgen
data_Ho3GaC3
_symmetry_space_group_name_H-M   'P 1'
_cell_length_a   3.54663100
_cell_length_b   7.00149100
_cell_length_c   9.86333300
_cell_angle_alpha   90.00000000
_cell_angle_beta   90.00000000
_cell_angle_gamma   90.00000000
_symmetry_Int_Tables_number   1
_chemical_formula_structural   Ho3GaC3
_chemical_formula_sum   'Ho6 Ga2 C6'
_cell_volume   244.92337564
_cell_formula_units_Z   2
loop_
 _symmetry_equiv_pos_site_id
 _symmetry_equiv_pos_as_xyz
  1  'x, y, z'
loop_
 _atom_site_type_symbol
 _atom_site_label
 _atom_site_symmetry_multiplicity
 _atom_site_fract_x
 _atom_site_fract_y
 _atom_site_fract_z
 _atom_site_occupancy
  Ho  Ho0  1  0.500000  0.510599  0.197673  1
  Ho  Ho1  1  0.500000  0.489401  0.802327  1
  Ho  Ho2  1  0.500000  0.989401  0.197673  1
  Ho  Ho3  1  0.500000  0.010599  0.802327  1
  Ho  Ho4  1  0.000000  0.750000  0.458166  1
  Ho  Ho5  1  0.000000  0.250000  0.541834  1
  Ga  Ga6  1  0.000000  0.750000  0.000905  1
  Ga  Ga7  1  0.000000  0.250000  0.999095  1
  C  C8  1  0.500000  0.509370  0.566967  1
  C  C9  1  0.500000  0.490630  0.433033  1
  C  C10  1  0.500000  0.990630  0.566967  1
  C  C11  1  0.500000  0.009370  0.433033  1
  C  C12  1  0.000000  0.750000  0.209336  1
  C  C13  1  0.000000  0.250000  0.790664  1
