# generated using pymatgen
data_Tm5ReWC7
_symmetry_space_group_name_H-M   'P 1'
_cell_length_a   8.26858700
_cell_length_b   8.26858584
_cell_length_c   3.37096600
_cell_angle_alpha   90.00000000
_cell_angle_beta   90.00000000
_cell_angle_gamma   122.04200256
_symmetry_Int_Tables_number   1
_chemical_formula_structural   Tm5ReWC7
_chemical_formula_sum   'Tm5 Re1 W1 C7'
_cell_volume   195.36118960
_cell_formula_units_Z   1
loop_
 _symmetry_equiv_pos_site_id
 _symmetry_equiv_pos_as_xyz
  1  'x, y, z'
loop_
 _atom_site_type_symbol
 _atom_site_label
 _atom_site_symmetry_multiplicity
 _atom_site_fract_x
 _atom_site_fract_y
 _atom_site_fract_z
 _atom_site_occupancy
  Tm  Tm0  1  0.498837  0.501163  0.000000  1
  Tm  Tm1  1  0.078321  0.336481  0.500000  1
  Tm  Tm2  1  0.924515  0.666053  0.500000  1
  Tm  Tm3  1  0.663519  0.921679  0.500000  1
  Tm  Tm4  1  0.333947  0.075485  0.500000  1
  Re  Re5  1  0.285585  0.714415  0.000000  1
  W  W6  1  0.714603  0.285397  0.000000  1
  C  C7  1  0.622679  0.377321  0.500000  1
  C  C8  1  0.375787  0.624213  0.500000  1
  C  C9  1  0.999946  0.000054  0.000000  1
  C  C10  1  0.169707  0.168664  0.000000  1
  C  C11  1  0.831336  0.830293  0.000000  1
  C  C12  1  0.000939  0.499723  0.000000  1
  C  C13  1  0.500277  0.999061  0.000000  1
