# generated using pymatgen
data_Cs3LaV2O8
_symmetry_space_group_name_H-M   'P 1'
_cell_length_a   6.34138100
_cell_length_b   6.34137935
_cell_length_c   8.46028800
_cell_angle_alpha   90.00000000
_cell_angle_beta   90.00000000
_cell_angle_gamma   119.99999297
_symmetry_Int_Tables_number   1
_chemical_formula_structural   Cs3LaV2O8
_chemical_formula_sum   'Cs3 La1 V2 O8'
_cell_volume   294.63435882
_cell_formula_units_Z   1
loop_
 _symmetry_equiv_pos_site_id
 _symmetry_equiv_pos_as_xyz
  1  'x, y, z'
loop_
 _atom_site_type_symbol
 _atom_site_label
 _atom_site_symmetry_multiplicity
 _atom_site_fract_x
 _atom_site_fract_y
 _atom_site_fract_z
 _atom_site_occupancy
  Cs  Cs0  1  0.333333  0.666667  0.716115  1
  Cs  Cs1  1  0.666667  0.333333  0.283885  1
  Cs  Cs2  1  0.000000  0.000000  0.000000  1
  La  La3  1  0.000000  0.000000  0.500000  1
  V  V4  1  0.333333  0.666667  0.266695  1
  V  V5  1  0.666667  0.333333  0.733305  1
  O  O6  1  0.333333  0.666667  0.066954  1
  O  O7  1  0.666667  0.333333  0.933046  1
  O  O8  1  0.180677  0.819323  0.335147  1
  O  O9  1  0.819323  0.180677  0.664853  1
  O  O10  1  0.180677  0.361354  0.335147  1
  O  O11  1  0.819323  0.638646  0.664853  1
  O  O12  1  0.638646  0.819323  0.335147  1
  O  O13  1  0.361354  0.180677  0.664853  1
