# generated using pymatgen
data_Y11Ho9IrRh11
_symmetry_space_group_name_H-M   'P 1'
_cell_length_a   10.92127785
_cell_length_b   10.92262211
_cell_length_c   6.37475956
_cell_angle_alpha   90.04493988
_cell_angle_beta   90.02648739
_cell_angle_gamma   90.02004939
_symmetry_Int_Tables_number   1
_chemical_formula_structural   Y11Ho9IrRh11
_chemical_formula_sum   'Y11 Ho9 Ir1 Rh11'
_cell_volume   760.43827383
_cell_formula_units_Z   1
loop_
 _symmetry_equiv_pos_site_id
 _symmetry_equiv_pos_as_xyz
  1  'x, y, z'
loop_
 _atom_site_type_symbol
 _atom_site_label
 _atom_site_symmetry_multiplicity
 _atom_site_fract_x
 _atom_site_fract_y
 _atom_site_fract_z
 _atom_site_occupancy
  Y  Y0  1  0.289629  0.089654  0.379199  1
  Y  Y1  1  0.290212  0.908284  0.879737  1
  Y  Y2  1  0.710152  0.089273  0.878842  1
  Y  Y3  1  0.709714  0.909944  0.378858  1
  Y  Y4  1  0.587875  0.789154  0.878768  1
  Y  Y5  1  0.589491  0.209253  0.379806  1
  Y  Y6  1  0.409984  0.789996  0.379810  1
  Y  Y7  1  0.410480  0.208783  0.878236  1
  Y  Y8  1  0.209982  0.413135  0.620936  1
  Y  Y9  1  0.209360  0.589411  0.119333  1
  Y  Y10  1  0.790528  0.411126  0.120586  1
  Ho  Ho11  1  0.792439  0.589117  0.620175  1
  Ho  Ho12  1  0.911568  0.708485  0.119647  1
  Ho  Ho13  1  0.912246  0.291801  0.619646  1
  Ho  Ho14  1  0.090031  0.708157  0.619386  1
  Ho  Ho15  1  0.088125  0.292482  0.119798  1
  Ho  Ho16  1  0.999327  0.999738  0.502249  1
  Ho  Ho17  1  0.999989  0.000430  0.001485  1
  Ho  Ho18  1  0.499644  0.499634  0.000229  1
  Ho  Ho19  1  0.500943  0.500503  0.499838  1
  Ir  Ir20  1  0.346667  0.651966  0.749208  1
  Rh  Rh21  1  0.849550  0.153785  0.251947  1
  Rh  Rh22  1  0.848623  0.844723  0.751773  1
  Rh  Rh23  1  0.150228  0.154546  0.751635  1
  Rh  Rh24  1  0.149538  0.847029  0.252030  1
  Rh  Rh25  1  0.654874  0.349086  0.748153  1
  Rh  Rh26  1  0.656000  0.651773  0.251443  1
  Rh  Rh27  1  0.346111  0.346835  0.248717  1
  Rh  Rh28  1  0.500181  0.000471  0.126791  1
  Rh  Rh29  1  0.500337  0.000434  0.626134  1
  Rh  Rh30  1  0.997949  0.500401  0.872060  1
  Rh  Rh31  1  0.998223  0.500588  0.373546  1
