# generated using pymatgen
data_Al2PbBr8
_symmetry_space_group_name_H-M   'P 1'
_cell_length_a   7.47316200
_cell_length_b   7.89552425
_cell_length_c   14.46534700
_cell_angle_alpha   87.40250305
_cell_angle_beta   90.00000000
_cell_angle_gamma   90.00000000
_symmetry_Int_Tables_number   1
_chemical_formula_structural   Al2PbBr8
_chemical_formula_sum   'Al4 Pb2 Br16'
_cell_volume   852.64407750
_cell_formula_units_Z   2
loop_
 _symmetry_equiv_pos_site_id
 _symmetry_equiv_pos_as_xyz
  1  'x, y, z'
loop_
 _atom_site_type_symbol
 _atom_site_label
 _atom_site_symmetry_multiplicity
 _atom_site_fract_x
 _atom_site_fract_y
 _atom_site_fract_z
 _atom_site_occupancy
  Al  Al0  1  0.936084  0.222549  0.578969  1
  Al  Al1  1  0.063916  0.222549  0.078969  1
  Al  Al2  1  0.562213  0.641544  0.777385  1
  Al  Al3  1  0.437787  0.641544  0.277385  1
  Pb  Pb4  1  0.754524  0.078538  0.816597  1
  Pb  Pb5  1  0.245476  0.078538  0.316597  1
  Br  Br6  1  0.422649  0.613753  0.639953  1
  Br  Br7  1  0.577351  0.613753  0.139953  1
  Br  Br8  1  0.864605  0.724356  0.760554  1
  Br  Br9  1  0.135395  0.724356  0.260554  1
  Br  Br10  1  0.942044  0.470753  0.494384  1
  Br  Br11  1  0.057956  0.470753  0.994384  1
  Br  Br12  1  0.928897  0.993637  0.006976  1
  Br  Br13  1  0.071103  0.993637  0.506976  1
  Br  Br14  1  0.641106  0.133649  0.614491  1
  Br  Br15  1  0.358894  0.133649  0.114491  1
  Br  Br16  1  0.550133  0.396061  0.875604  1
  Br  Br17  1  0.449867  0.396061  0.375604  1
  Br  Br18  1  0.428102  0.854221  0.864204  1
  Br  Br19  1  0.571898  0.854221  0.364204  1
  Br  Br20  1  0.917682  0.238339  0.223083  1
  Br  Br21  1  0.082318  0.238339  0.723083  1
