# generated using pymatgen
data_TiOs3(PbO4)4
_symmetry_space_group_name_H-M   'P 1'
_cell_length_a   5.09680702
_cell_length_b   5.52964811
_cell_length_c   13.78152460
_cell_angle_alpha   69.59769084
_cell_angle_beta   89.62467088
_cell_angle_gamma   89.82302905
_symmetry_Int_Tables_number   1
_chemical_formula_structural   TiOs3(PbO4)4
_chemical_formula_sum   'Ti1 Os3 Pb4 O16'
_cell_volume   364.03843081
_cell_formula_units_Z   1
loop_
 _symmetry_equiv_pos_site_id
 _symmetry_equiv_pos_as_xyz
  1  'x, y, z'
loop_
 _atom_site_type_symbol
 _atom_site_label
 _atom_site_symmetry_multiplicity
 _atom_site_fract_x
 _atom_site_fract_y
 _atom_site_fract_z
 _atom_site_occupancy
  Ti  Ti0  1  0.246929  0.597221  0.419970  1
  Os  Os1  1  0.753855  0.417624  0.073329  1
  Os  Os2  1  0.747497  0.418286  0.569939  1
  Os  Os3  1  0.254462  0.587218  0.924006  1
  Pb  Pb4  1  0.722106  0.148186  0.351254  1
  Pb  Pb5  1  0.225576  0.836986  0.176297  1
  Pb  Pb6  1  0.278264  0.838959  0.651642  1
  Pb  Pb7  1  0.781218  0.164175  0.835456  1
  O  O8  1  0.550503  0.727653  0.477490  1
  O  O9  1  0.047278  0.276455  0.027472  1
  O  O10  1  0.459343  0.256125  0.536552  1
  O  O11  1  0.948261  0.724790  0.966282  1
  O  O12  1  0.935993  0.360442  0.453389  1
  O  O13  1  0.446212  0.622262  0.047844  1
  O  O14  1  0.038333  0.638140  0.554443  1
  O  O15  1  0.555470  0.371149  0.945755  1
  O  O16  1  0.114264  0.901334  0.334309  1
  O  O17  1  0.638314  0.103650  0.161928  1
  O  O18  1  0.877049  0.111987  0.663209  1
  O  O19  1  0.368571  0.899265  0.832349  1
  O  O20  1  0.390175  0.501020  0.318459  1
  O  O21  1  0.873533  0.502626  0.180765  1
  O  O22  1  0.619891  0.497600  0.682759  1
  O  O23  1  0.126901  0.496845  0.815102  1
