# generated using pymatgen
data_BeNb8VTe8
_symmetry_space_group_name_H-M   'P 1'
_cell_length_a   4.83594000
_cell_length_b   10.98448500
_cell_length_c   19.05717800
_cell_angle_alpha   90.00000000
_cell_angle_beta   90.00000000
_cell_angle_gamma   90.00000000
_symmetry_Int_Tables_number   1
_chemical_formula_structural   BeNb8VTe8
_chemical_formula_sum   'Be2 Nb16 V2 Te16'
_cell_volume   1012.32321053
_cell_formula_units_Z   2
loop_
 _symmetry_equiv_pos_site_id
 _symmetry_equiv_pos_as_xyz
  1  'x, y, z'
loop_
 _atom_site_type_symbol
 _atom_site_label
 _atom_site_symmetry_multiplicity
 _atom_site_fract_x
 _atom_site_fract_y
 _atom_site_fract_z
 _atom_site_occupancy
  Be  Be0  1  0.250005  0.500000  0.500000  1
  Be  Be1  1  0.749995  0.000000  0.000000  1
  Nb  Nb2  1  0.494601  0.564022  0.382882  1
  Nb  Nb3  1  0.494601  0.435978  0.617118  1
  Nb  Nb4  1  0.505399  0.064022  0.117118  1
  Nb  Nb5  1  0.505399  0.935978  0.882882  1
  Nb  Nb6  1  0.493532  0.704325  0.536645  1
  Nb  Nb7  1  0.493532  0.295675  0.463355  1
  Nb  Nb8  1  0.506468  0.204325  0.963355  1
  Nb  Nb9  1  0.506468  0.795675  0.036645  1
  Nb  Nb10  1  0.006240  0.689680  0.442763  1
  Nb  Nb11  1  0.006240  0.310320  0.557237  1
  Nb  Nb12  1  0.993760  0.189680  0.057237  1
  Nb  Nb13  1  0.993760  0.810320  0.942763  1
  Nb  Nb14  1  0.005526  0.400910  0.391322  1
  Nb  Nb15  1  0.005526  0.599090  0.608678  1
  Nb  Nb16  1  0.994474  0.900910  0.108678  1
  Nb  Nb17  1  0.994474  0.099090  0.891322  1
  V  V18  1  0.750140  0.500000  0.500000  1
  V  V19  1  0.249860  0.000000  0.000000  1
  Te  Te20  1  0.994071  0.847508  0.562626  1
  Te  Te21  1  0.994071  0.152492  0.437374  1
  Te  Te22  1  0.005929  0.347508  0.937374  1
  Te  Te23  1  0.005929  0.652492  0.062626  1
  Te  Te24  1  0.504159  0.332298  0.314796  1
  Te  Te25  1  0.504159  0.667702  0.685204  1
  Te  Te26  1  0.495841  0.832298  0.185204  1
  Te  Te27  1  0.495841  0.167702  0.814796  1
  Te  Te28  1  0.505300  0.822585  0.402567  1
  Te  Te29  1  0.505300  0.177415  0.597433  1
  Te  Te30  1  0.494700  0.322585  0.097433  1
  Te  Te31  1  0.494700  0.677415  0.902567  1
  Te  Te32  1  0.996580  0.607873  0.300397  1
  Te  Te33  1  0.996580  0.392127  0.699603  1
  Te  Te34  1  0.003420  0.107873  0.199603  1
  Te  Te35  1  0.003420  0.892127  0.800397  1
