# generated using pymatgen
data_Y4HoLu3Pt4
_symmetry_space_group_name_H-M   'P 1'
_cell_length_a   4.73725800
_cell_length_b   7.13981088
_cell_length_c   8.71299900
_cell_angle_alpha   89.87554301
_cell_angle_beta   90.00000000
_cell_angle_gamma   90.00000000
_symmetry_Int_Tables_number   1
_chemical_formula_structural   Y4HoLu3Pt4
_chemical_formula_sum   'Y4 Ho1 Lu3 Pt4'
_cell_volume   294.70016973
_cell_formula_units_Z   1
loop_
 _symmetry_equiv_pos_site_id
 _symmetry_equiv_pos_as_xyz
  1  'x, y, z'
loop_
 _atom_site_type_symbol
 _atom_site_label
 _atom_site_symmetry_multiplicity
 _atom_site_fract_x
 _atom_site_fract_y
 _atom_site_fract_z
 _atom_site_occupancy
  Y  Y0  1  0.250000  0.991004  0.330689  1
  Y  Y1  1  0.250000  0.487630  0.167828  1
  Y  Y2  1  0.750000  0.012656  0.671995  1
  Y  Y3  1  0.750000  0.511281  0.829998  1
  Ho  Ho4  1  0.750000  0.643752  0.421171  1
  Lu  Lu5  1  0.250000  0.857726  0.922738  1
  Lu  Lu6  1  0.250000  0.356284  0.578688  1
  Lu  Lu7  1  0.750000  0.142484  0.077410  1
  Pt  Pt8  1  0.250000  0.251814  0.905111  1
  Pt  Pt9  1  0.250000  0.753762  0.597916  1
  Pt  Pt10  1  0.750000  0.747969  0.090689  1
  Pt  Pt11  1  0.750000  0.243638  0.405767  1
