# generated using pymatgen
data_Ta4Nb6Al5
_symmetry_space_group_name_H-M   'P 1'
_cell_length_a   10.01450500
_cell_length_b   10.01450500
_cell_length_c   5.18618900
_cell_angle_alpha   90.00000000
_cell_angle_beta   90.00000000
_cell_angle_gamma   90.00000000
_symmetry_Int_Tables_number   1
_chemical_formula_structural   Ta4Nb6Al5
_chemical_formula_sum   'Ta8 Nb12 Al10'
_cell_volume   520.12450458
_cell_formula_units_Z   2
loop_
 _symmetry_equiv_pos_site_id
 _symmetry_equiv_pos_as_xyz
  1  'x, y, z'
loop_
 _atom_site_type_symbol
 _atom_site_label
 _atom_site_symmetry_multiplicity
 _atom_site_fract_x
 _atom_site_fract_y
 _atom_site_fract_z
 _atom_site_occupancy
  Ta  Ta0  1  0.128243  0.465111  0.000000  1
  Ta  Ta1  1  0.965111  0.371757  0.500000  1
  Ta  Ta2  1  0.034889  0.628243  0.500000  1
  Ta  Ta3  1  0.871757  0.534889  0.000000  1
  Ta  Ta4  1  0.371757  0.965111  0.500000  1
  Ta  Ta5  1  0.628243  0.034889  0.500000  1
  Ta  Ta6  1  0.465111  0.128243  0.000000  1
  Ta  Ta7  1  0.534889  0.871757  0.000000  1
  Nb  Nb8  1  0.396796  0.396796  0.000000  1
  Nb  Nb9  1  0.896796  0.103204  0.500000  1
  Nb  Nb10  1  0.103204  0.896796  0.500000  1
  Nb  Nb11  1  0.603204  0.603204  0.000000  1
  Nb  Nb12  1  0.182010  0.182010  0.252054  1
  Nb  Nb13  1  0.682010  0.317990  0.752054  1
  Nb  Nb14  1  0.317990  0.682010  0.752054  1
  Nb  Nb15  1  0.817990  0.817990  0.252054  1
  Nb  Nb16  1  0.317990  0.682010  0.247946  1
  Nb  Nb17  1  0.682010  0.317990  0.247946  1
  Nb  Nb18  1  0.182010  0.182010  0.747946  1
  Nb  Nb19  1  0.817990  0.817990  0.747946  1
  Al  Al20  1  0.000000  0.000000  0.000000  1
  Al  Al21  1  0.500000  0.500000  0.500000  1
  Al  Al22  1  0.261720  0.933229  0.000000  1
  Al  Al23  1  0.433229  0.238280  0.500000  1
  Al  Al24  1  0.566771  0.761720  0.500000  1
  Al  Al25  1  0.738280  0.066771  0.000000  1
  Al  Al26  1  0.238280  0.433229  0.500000  1
  Al  Al27  1  0.761720  0.566771  0.500000  1
  Al  Al28  1  0.933229  0.261720  0.000000  1
  Al  Al29  1  0.066771  0.738280  0.000000  1
