# generated using pymatgen
data_Nd4PdPt2Au
_symmetry_space_group_name_H-M   'P 1'
_cell_length_a   4.70832100
_cell_length_b   5.76351147
_cell_length_c   7.38599798
_cell_angle_alpha   90.09642488
_cell_angle_beta   90.00000000
_cell_angle_gamma   90.00000000
_symmetry_Int_Tables_number   1
_chemical_formula_structural   Nd4PdPt2Au
_chemical_formula_sum   'Nd4 Pd1 Pt2 Au1'
_cell_volume   200.42957035
_cell_formula_units_Z   1
loop_
 _symmetry_equiv_pos_site_id
 _symmetry_equiv_pos_as_xyz
  1  'x, y, z'
loop_
 _atom_site_type_symbol
 _atom_site_label
 _atom_site_symmetry_multiplicity
 _atom_site_fract_x
 _atom_site_fract_y
 _atom_site_fract_z
 _atom_site_occupancy
  Nd  Nd0  1  0.250000  0.360876  0.692862  1
  Nd  Nd1  1  0.250000  0.142595  0.175508  1
  Nd  Nd2  1  0.750000  0.634163  0.305902  1
  Nd  Nd3  1  0.750000  0.858662  0.826832  1
  Pd  Pd4  1  0.750000  0.145083  0.459656  1
  Pt  Pt5  1  0.250000  0.658058  0.043573  1
  Pt  Pt6  1  0.750000  0.342816  0.956330  1
  Au  Au7  1  0.250000  0.857747  0.539336  1
