# generated using pymatgen
data_La3VCrC6
_symmetry_space_group_name_H-M   'P 1'
_cell_length_a   8.33939900
_cell_length_b   8.33939878
_cell_length_c   5.24353400
_cell_angle_alpha   90.00000000
_cell_angle_beta   90.00000000
_cell_angle_gamma   119.99998897
_symmetry_Int_Tables_number   1
_chemical_formula_structural   La3VCrC6
_chemical_formula_sum   'La6 V2 Cr2 C12'
_cell_volume   315.80882619
_cell_formula_units_Z   2
loop_
 _symmetry_equiv_pos_site_id
 _symmetry_equiv_pos_as_xyz
  1  'x, y, z'
loop_
 _atom_site_type_symbol
 _atom_site_label
 _atom_site_symmetry_multiplicity
 _atom_site_fract_x
 _atom_site_fract_y
 _atom_site_fract_z
 _atom_site_occupancy
  La  La0  1  0.610076  0.686323  0.750000  1
  La  La1  1  0.923755  0.610076  0.250000  1
  La  La2  1  0.686323  0.076245  0.250000  1
  La  La3  1  0.313677  0.923755  0.750000  1
  La  La4  1  0.076245  0.389924  0.750000  1
  La  La5  1  0.389924  0.313677  0.250000  1
  V  V6  1  0.000000  0.000000  0.500000  1
  V  V7  1  0.000000  0.000000  0.000000  1
  Cr  Cr8  1  0.666667  0.333333  0.750000  1
  Cr  Cr9  1  0.333333  0.666667  0.250000  1
  C  C10  1  0.953165  0.769268  0.750000  1
  C  C11  1  0.183896  0.953165  0.250000  1
  C  C12  1  0.769268  0.816104  0.250000  1
  C  C13  1  0.230732  0.183896  0.750000  1
  C  C14  1  0.816104  0.046835  0.750000  1
  C  C15  1  0.046835  0.230732  0.250000  1
  C  C16  1  0.855790  0.577999  0.750000  1
  C  C17  1  0.277790  0.855790  0.250000  1
  C  C18  1  0.577999  0.722210  0.250000  1
  C  C19  1  0.422001  0.277790  0.750000  1
  C  C20  1  0.144210  0.422001  0.250000  1
  C  C21  1  0.722210  0.144210  0.750000  1
