# generated using pymatgen
data_Lu9ScTl5In3Co4
_symmetry_space_group_name_H-M   'P 1'
_cell_length_a   3.50574000
_cell_length_b   7.83487348
_cell_length_c   17.81748815
_cell_angle_alpha   90.00392519
_cell_angle_beta   90.00000000
_cell_angle_gamma   90.00000000
_symmetry_Int_Tables_number   1
_chemical_formula_structural   Lu9ScTl5In3Co4
_chemical_formula_sum   'Lu9 Sc1 Tl5 In3 Co4'
_cell_volume   489.39346887
_cell_formula_units_Z   1
loop_
 _symmetry_equiv_pos_site_id
 _symmetry_equiv_pos_as_xyz
  1  'x, y, z'
loop_
 _atom_site_type_symbol
 _atom_site_label
 _atom_site_symmetry_multiplicity
 _atom_site_fract_x
 _atom_site_fract_y
 _atom_site_fract_z
 _atom_site_occupancy
  Lu  Lu0  1  0.500000  0.499484  0.500972  1
  Lu  Lu1  1  0.500000  0.883455  0.406747  1
  Lu  Lu2  1  0.500000  0.116444  0.593138  1
  Lu  Lu3  1  0.500000  0.615266  0.908987  1
  Lu  Lu4  1  0.500000  0.384759  0.090246  1
  Lu  Lu5  1  0.500000  0.248712  0.277891  1
  Lu  Lu6  1  0.500000  0.751154  0.721809  1
  Lu  Lu7  1  0.500000  0.249274  0.780682  1
  Lu  Lu8  1  0.500000  0.751097  0.219535  1
  Sc  Sc9  1  0.500000  0.999694  0.999520  1
  Tl  Tl10  1  0.000000  0.201339  0.434598  1
  Tl  Tl11  1  0.000000  0.796263  0.566554  1
  Tl  Tl12  1  0.000000  0.290790  0.935623  1
  Tl  Tl13  1  0.000000  0.709508  0.064554  1
  Tl  Tl14  1  0.000000  0.570609  0.347288  1
  In  In15  1  0.000000  0.427595  0.653876  1
  In  In16  1  0.000000  0.927041  0.849792  1
  In  In17  1  0.000000  0.073556  0.149751  1
  Co  Co18  1  0.000000  0.971244  0.300515  1
  Co  Co19  1  0.000000  0.033686  0.699682  1
  Co  Co20  1  0.000000  0.534087  0.802413  1
  Co  Co21  1  0.000000  0.464943  0.195825  1
