# generated using pymatgen
data_Y2HoPa(Pd2Pb)2
_symmetry_space_group_name_H-M   'P 1'
_cell_length_a   7.97493066
_cell_length_b   7.97493146
_cell_length_c   3.60445700
_cell_angle_alpha   90.00000000
_cell_angle_beta   90.00000000
_cell_angle_gamma   92.05538756
_symmetry_Int_Tables_number   1
_chemical_formula_structural   Y2HoPa(Pd2Pb)2
_chemical_formula_sum   'Y2 Ho1 Pa1 Pd4 Pb2'
_cell_volume   229.09426585
_cell_formula_units_Z   1
loop_
 _symmetry_equiv_pos_site_id
 _symmetry_equiv_pos_as_xyz
  1  'x, y, z'
loop_
 _atom_site_type_symbol
 _atom_site_label
 _atom_site_symmetry_multiplicity
 _atom_site_fract_x
 _atom_site_fract_y
 _atom_site_fract_z
 _atom_site_occupancy
  Y  Y0  1  0.170175  0.330395  0.500000  1
  Y  Y1  1  0.830395  0.670175  0.500000  1
  Ho  Ho2  1  0.327124  0.827124  0.500000  1
  Pa  Pa3  1  0.668859  0.168859  0.500000  1
  Pd  Pd4  1  0.383991  0.129213  0.000000  1
  Pd  Pd5  1  0.122829  0.622829  0.000000  1
  Pd  Pd6  1  0.629213  0.883991  0.000000  1
  Pd  Pd7  1  0.864788  0.364788  0.000000  1
  Pb  Pb8  1  0.006378  0.996249  0.000000  1
  Pb  Pb9  1  0.496249  0.506378  0.000000  1
