# generated using pymatgen
data_NaLaNb4O8
_symmetry_space_group_name_H-M   'P 1'
_cell_length_a   5.14767500
_cell_length_b   5.95877400
_cell_length_c   12.06734000
_cell_angle_alpha   90.00000000
_cell_angle_beta   90.00000000
_cell_angle_gamma   90.00000000
_symmetry_Int_Tables_number   1
_chemical_formula_structural   NaLaNb4O8
_chemical_formula_sum   'Na2 La2 Nb8 O16'
_cell_volume   370.15155925
_cell_formula_units_Z   2
loop_
 _symmetry_equiv_pos_site_id
 _symmetry_equiv_pos_as_xyz
  1  'x, y, z'
loop_
 _atom_site_type_symbol
 _atom_site_label
 _atom_site_symmetry_multiplicity
 _atom_site_fract_x
 _atom_site_fract_y
 _atom_site_fract_z
 _atom_site_occupancy
  Na  Na0  1  0.727528  0.250000  0.503338  1
  Na  Na1  1  0.727528  0.750000  0.996662  1
  La  La2  1  0.318914  0.250000  0.003338  1
  La  La3  1  0.318914  0.750000  0.496662  1
  Nb  Nb4  1  0.151236  0.000000  0.250000  1
  Nb  Nb5  1  0.151236  0.500000  0.250000  1
  Nb  Nb6  1  0.336551  0.250000  0.744364  1
  Nb  Nb7  1  0.336551  0.750000  0.755636  1
  Nb  Nb8  1  0.656273  0.250000  0.249040  1
  Nb  Nb9  1  0.656273  0.750000  0.250960  1
  Nb  Nb10  1  0.839051  0.000000  0.750000  1
  Nb  Nb11  1  0.839051  0.500000  0.750000  1
  O  O12  1  0.002525  0.250000  0.643028  1
  O  O13  1  0.002525  0.750000  0.856972  1
  O  O14  1  0.008603  0.250000  0.856843  1
  O  O15  1  0.008603  0.750000  0.643157  1
  O  O16  1  0.489720  0.503958  0.140460  1
  O  O17  1  0.489720  0.996042  0.140460  1
  O  O18  1  0.489720  0.003958  0.359540  1
  O  O19  1  0.489720  0.496042  0.359540  1
  O  O20  1  0.504580  0.506040  0.640120  1
  O  O21  1  0.504580  0.006040  0.859880  1
  O  O22  1  0.504580  0.493960  0.859880  1
  O  O23  1  0.504580  0.993960  0.640120  1
  O  O24  1  0.987298  0.750000  0.145967  1
  O  O25  1  0.987298  0.250000  0.354033  1
  O  O26  1  0.983423  0.250000  0.139579  1
  O  O27  1  0.983423  0.750000  0.360421  1
