# generated using pymatgen
data_Dy16In3Hg(IrPt)2
_symmetry_space_group_name_H-M   'P 1'
_cell_length_a   9.62129870
_cell_length_b   9.62129884
_cell_length_c   9.61666429
_cell_angle_alpha   60.52365353
_cell_angle_beta   60.52365227
_cell_angle_gamma   60.63361107
_symmetry_Int_Tables_number   1
_chemical_formula_structural   Dy16In3Hg(IrPt)2
_chemical_formula_sum   'Dy16 In3 Hg1 Ir2 Pt2'
_cell_volume   637.43887127
_cell_formula_units_Z   1
loop_
 _symmetry_equiv_pos_site_id
 _symmetry_equiv_pos_as_xyz
  1  'x, y, z'
loop_
 _atom_site_type_symbol
 _atom_site_label
 _atom_site_symmetry_multiplicity
 _atom_site_fract_x
 _atom_site_fract_y
 _atom_site_fract_z
 _atom_site_occupancy
  Dy  Dy0  1  0.599323  0.599323  0.594966  1
  Dy  Dy1  1  0.603230  0.603230  0.197012  1
  Dy  Dy2  1  0.606549  0.193172  0.601487  1
  Dy  Dy3  1  0.193172  0.606549  0.601487  1
  Dy  Dy4  1  0.055416  0.441613  0.440996  1
  Dy  Dy5  1  0.439811  0.055983  0.062629  1
  Dy  Dy6  1  0.441613  0.055416  0.440996  1
  Dy  Dy7  1  0.055983  0.439811  0.062629  1
  Dy  Dy8  1  0.441780  0.441780  0.058050  1
  Dy  Dy9  1  0.059794  0.059794  0.439213  1
  Dy  Dy10  1  0.185733  0.814357  0.811015  1
  Dy  Dy11  1  0.812282  0.189388  0.188637  1
  Dy  Dy12  1  0.814357  0.185733  0.811015  1
  Dy  Dy13  1  0.189388  0.812282  0.188637  1
  Dy  Dy14  1  0.812326  0.812326  0.186068  1
  Dy  Dy15  1  0.188263  0.188263  0.811360  1
  In  In16  1  0.832675  0.832675  0.502183  1
  In  In17  1  0.832086  0.502652  0.833026  1
  In  In18  1  0.502652  0.832086  0.833026  1
  Hg  Hg19  1  0.836438  0.836438  0.836209  1
  Ir  Ir20  1  0.389938  0.823807  0.391275  1
  Ir  Ir21  1  0.823807  0.389938  0.391275  1
  Pt  Pt22  1  0.392637  0.392637  0.393908  1
  Pt  Pt23  1  0.390748  0.390748  0.822902  1
