# generated using pymatgen
data_ErTm9(PtPb3)2
_symmetry_space_group_name_H-M   'P 1'
_cell_length_a   9.12132600
_cell_length_b   9.12132511
_cell_length_c   6.75868200
_cell_angle_alpha   90.00000000
_cell_angle_beta   90.00000000
_cell_angle_gamma   120.00000324
_symmetry_Int_Tables_number   1
_chemical_formula_structural   ErTm9(PtPb3)2
_chemical_formula_sum   'Er1 Tm9 Pt2 Pb6'
_cell_volume   486.97710529
_cell_formula_units_Z   1
loop_
 _symmetry_equiv_pos_site_id
 _symmetry_equiv_pos_as_xyz
  1  'x, y, z'
loop_
 _atom_site_type_symbol
 _atom_site_label
 _atom_site_symmetry_multiplicity
 _atom_site_fract_x
 _atom_site_fract_y
 _atom_site_fract_z
 _atom_site_occupancy
  Er  Er0  1  0.333333  0.666667  0.500000  1
  Tm  Tm1  1  0.755758  0.755735  0.249938  1
  Tm  Tm2  1  0.999976  0.755735  0.750062  1
  Tm  Tm3  1  0.244265  0.000024  0.249938  1
  Tm  Tm4  1  0.244265  0.244242  0.750062  1
  Tm  Tm5  1  0.999976  0.244242  0.249938  1
  Tm  Tm6  1  0.666667  0.333333  0.500000  1
  Tm  Tm7  1  0.755758  0.000024  0.750062  1
  Tm  Tm8  1  0.333333  0.666667  0.000000  1
  Tm  Tm9  1  0.666667  0.333333  0.000000  1
  Pt  Pt10  1  0.000000  0.000000  0.000000  1
  Pt  Pt11  1  0.000000  0.000000  0.500000  1
  Pb  Pb12  1  0.401540  0.000100  0.750086  1
  Pb  Pb13  1  0.598559  0.000100  0.249914  1
  Pb  Pb14  1  0.401540  0.401441  0.249914  1
  Pb  Pb15  1  0.999900  0.598460  0.249914  1
  Pb  Pb16  1  0.999900  0.401441  0.750086  1
  Pb  Pb17  1  0.598559  0.598460  0.750086  1
