# generated using pymatgen
data_Sc8Ti3Re8Si16Mo
_symmetry_space_group_name_H-M   'P 1'
_cell_length_a   6.64114269
_cell_length_b   6.64114283
_cell_length_c   12.65821943
_cell_angle_alpha   90.02881192
_cell_angle_beta   90.02881241
_cell_angle_gamma   90.39555332
_symmetry_Int_Tables_number   1
_chemical_formula_structural   Sc8Ti3Re8Si16Mo
_chemical_formula_sum   'Sc8 Ti3 Re8 Si16 Mo1'
_cell_volume   558.27450146
_cell_formula_units_Z   1
loop_
 _symmetry_equiv_pos_site_id
 _symmetry_equiv_pos_as_xyz
  1  'x, y, z'
loop_
 _atom_site_type_symbol
 _atom_site_label
 _atom_site_symmetry_multiplicity
 _atom_site_fract_x
 _atom_site_fract_y
 _atom_site_fract_z
 _atom_site_occupancy
  Sc  Sc0  1  0.009940  0.662011  0.032035  1
  Sc  Sc1  1  0.987913  0.336647  0.532250  1
  Sc  Sc2  1  0.337989  0.990060  0.467965  1
  Sc  Sc3  1  0.157401  0.489063  0.780785  1
  Sc  Sc4  1  0.839851  0.508281  0.281063  1
  Sc  Sc5  1  0.491719  0.160149  0.218937  1
  Sc  Sc6  1  0.510937  0.842599  0.719215  1
  Sc  Sc7  1  0.663353  0.012087  0.967750  1
  Ti  Ti8  1  0.657839  0.656546  0.501794  1
  Ti  Ti9  1  0.159436  0.840564  0.250000  1
  Ti  Ti10  1  0.343454  0.342161  0.998206  1
  Re  Re11  1  0.996171  0.808496  0.634830  1
  Re  Re12  1  0.002759  0.179859  0.135306  1
  Re  Re13  1  0.820141  0.997241  0.364694  1
  Re  Re14  1  0.317812  0.499656  0.387085  1
  Re  Re15  1  0.680304  0.506278  0.889749  1
  Re  Re16  1  0.493722  0.319696  0.610251  1
  Re  Re17  1  0.500344  0.682188  0.112915  1
  Re  Re18  1  0.191504  0.003829  0.865170  1
  Si  Si19  1  0.021703  0.714061  0.442514  1
  Si  Si20  1  0.625478  0.293250  0.424363  1
  Si  Si21  1  0.374859  0.706436  0.925784  1
  Si  Si22  1  0.199332  0.121435  0.675572  1
  Si  Si23  1  0.293564  0.625141  0.574216  1
  Si  Si24  1  0.706750  0.374522  0.075637  1
  Si  Si25  1  0.795986  0.874271  0.176221  1
  Si  Si26  1  0.125729  0.204014  0.323779  1
  Si  Si27  1  0.976586  0.283230  0.940947  1
  Si  Si28  1  0.716770  0.023414  0.559053  1
  Si  Si29  1  0.221155  0.476831  0.193591  1
  Si  Si30  1  0.772487  0.519756  0.696034  1
  Si  Si31  1  0.480244  0.227513  0.803966  1
  Si  Si32  1  0.523169  0.778845  0.306409  1
  Si  Si33  1  0.285939  0.978297  0.057486  1
  Si  Si34  1  0.878565  0.800668  0.824428  1
  Mo  Mo35  1  0.839094  0.160906  0.750000  1
