# generated using pymatgen
data_Er4Tc2OsRu5
_symmetry_space_group_name_H-M   'P 1'
_cell_length_a   5.28718573
_cell_length_b   5.28021893
_cell_length_c   8.98155200
_cell_angle_alpha   90.00000000
_cell_angle_beta   90.00000000
_cell_angle_gamma   121.08944725
_symmetry_Int_Tables_number   1
_chemical_formula_structural   Er4Tc2OsRu5
_chemical_formula_sum   'Er4 Tc2 Os1 Ru5'
_cell_volume   214.72636770
_cell_formula_units_Z   1
loop_
 _symmetry_equiv_pos_site_id
 _symmetry_equiv_pos_as_xyz
  1  'x, y, z'
loop_
 _atom_site_type_symbol
 _atom_site_label
 _atom_site_symmetry_multiplicity
 _atom_site_fract_x
 _atom_site_fract_y
 _atom_site_fract_z
 _atom_site_occupancy
  Er  Er0  1  0.338781  0.668709  0.433902  1
  Er  Er1  1  0.670151  0.338217  0.565999  1
  Er  Er2  1  0.670151  0.338217  0.934001  1
  Er  Er3  1  0.338781  0.668709  0.066098  1
  Tc  Tc4  1  0.162092  0.332684  0.750000  1
  Tc  Tc5  1  0.323822  0.161248  0.250000  1
  Os  Os6  1  0.165202  0.827964  0.750000  1
  Ru  Ru7  1  0.814903  0.646518  0.250000  1
  Ru  Ru8  1  0.647726  0.821924  0.750000  1
  Ru  Ru9  1  0.024469  0.014549  0.000556  1
  Ru  Ru10  1  0.819454  0.166710  0.250000  1
  Ru  Ru11  1  0.024469  0.014549  0.499444  1
