# generated using pymatgen
data_Ti8Re2Si6CN
_symmetry_space_group_name_H-M   'P 1'
_cell_length_a   7.37093300
_cell_length_b   7.37093342
_cell_length_c   5.16727400
_cell_angle_alpha   90.00000000
_cell_angle_beta   90.00000000
_cell_angle_gamma   119.99999363
_symmetry_Int_Tables_number   1
_chemical_formula_structural   Ti8Re2Si6CN
_chemical_formula_sum   'Ti8 Re2 Si6 C1 N1'
_cell_volume   243.12918960
_cell_formula_units_Z   1
loop_
 _symmetry_equiv_pos_site_id
 _symmetry_equiv_pos_as_xyz
  1  'x, y, z'
loop_
 _atom_site_type_symbol
 _atom_site_label
 _atom_site_symmetry_multiplicity
 _atom_site_fract_x
 _atom_site_fract_y
 _atom_site_fract_z
 _atom_site_occupancy
  Ti  Ti0  1  0.666667  0.333333  0.500000  1
  Ti  Ti1  1  0.333333  0.666667  0.500000  1
  Ti  Ti2  1  0.229722  0.000000  0.254228  1
  Ti  Ti3  1  0.770278  0.000000  0.745772  1
  Ti  Ti4  1  0.000000  0.229722  0.254228  1
  Ti  Ti5  1  0.000000  0.770278  0.745772  1
  Ti  Ti6  1  0.770278  0.770278  0.254228  1
  Ti  Ti7  1  0.229722  0.229722  0.745772  1
  Re  Re8  1  0.333333  0.666667  0.000000  1
  Re  Re9  1  0.666667  0.333333  0.000000  1
  Si  Si10  1  0.591771  0.000000  0.237677  1
  Si  Si11  1  0.408229  0.000000  0.762323  1
  Si  Si12  1  0.000000  0.591771  0.237677  1
  Si  Si13  1  0.000000  0.408229  0.762323  1
  Si  Si14  1  0.408229  0.408229  0.237677  1
  Si  Si15  1  0.591771  0.591771  0.762323  1
  C  C16  1  0.000000  0.000000  0.000000  1
  N  N17  1  0.000000  0.000000  0.500000  1
