# generated using pymatgen
data_TmAuCl6
_symmetry_space_group_name_H-M   'P 1'
_cell_length_a   7.99507827
_cell_length_b   9.84827358
_cell_length_c   13.99133778
_cell_angle_alpha   102.87651427
_cell_angle_beta   97.64864975
_cell_angle_gamma   113.19020125
_symmetry_Int_Tables_number   1
_chemical_formula_structural   TmAuCl6
_chemical_formula_sum   'Tm4 Au4 Cl24'
_cell_volume   956.71857814
_cell_formula_units_Z   4
loop_
 _symmetry_equiv_pos_site_id
 _symmetry_equiv_pos_as_xyz
  1  'x, y, z'
loop_
 _atom_site_type_symbol
 _atom_site_label
 _atom_site_symmetry_multiplicity
 _atom_site_fract_x
 _atom_site_fract_y
 _atom_site_fract_z
 _atom_site_occupancy
  Tm  Tm0  1  0.578313  0.931054  0.623190  1
  Tm  Tm1  1  0.031430  0.683506  0.128044  1
  Tm  Tm2  1  0.421687  0.068946  0.376810  1
  Tm  Tm3  1  0.968570  0.316494  0.871956  1
  Au  Au4  1  0.290029  0.635590  0.762865  1
  Au  Au5  1  0.500000  0.500000  0.500000  1
  Au  Au6  1  0.709971  0.364410  0.237135  1
  Au  Au7  1  0.000000  0.000000  0.000000  1
  Cl  Cl8  1  0.793160  0.109188  0.975416  1
  Cl  Cl9  1  0.718019  0.146557  0.270203  1
  Cl  Cl10  1  0.281981  0.853443  0.729797  1
  Cl  Cl11  1  0.778905  0.787509  0.031402  1
  Cl  Cl12  1  0.624926  0.196279  0.745326  1
  Cl  Cl13  1  0.295129  0.413524  0.791503  1
  Cl  Cl14  1  0.704871  0.586476  0.208497  1
  Cl  Cl15  1  0.314401  0.631962  0.499166  1
  Cl  Cl16  1  0.221095  0.212491  0.968598  1
  Cl  Cl17  1  0.754637  0.738560  0.532110  1
  Cl  Cl18  1  0.206840  0.890812  0.024584  1
  Cl  Cl19  1  0.711978  0.045979  0.483463  1
  Cl  Cl20  1  0.598259  0.736424  0.747959  1
  Cl  Cl21  1  0.931369  0.062355  0.732095  1
  Cl  Cl22  1  0.245363  0.261440  0.467890  1
  Cl  Cl23  1  0.375074  0.803721  0.254674  1
  Cl  Cl24  1  0.979726  0.535923  0.773910  1
  Cl  Cl25  1  0.775581  0.437817  0.977029  1
  Cl  Cl26  1  0.224419  0.562183  0.022971  1
  Cl  Cl27  1  0.020274  0.464077  0.226090  1
  Cl  Cl28  1  0.401741  0.263576  0.252041  1
  Cl  Cl29  1  0.288022  0.954021  0.516537  1
  Cl  Cl30  1  0.685599  0.368038  0.500834  1
  Cl  Cl31  1  0.068631  0.937645  0.267905  1
