# generated using pymatgen
data_CeDy2Mg3Si2Au
_symmetry_space_group_name_H-M   'P 1'
_cell_length_a   7.20835900
_cell_length_b   7.23341728
_cell_length_c   4.35392400
_cell_angle_alpha   90.00000000
_cell_angle_beta   90.00000000
_cell_angle_gamma   119.88545623
_symmetry_Int_Tables_number   1
_chemical_formula_structural   CeDy2Mg3Si2Au
_chemical_formula_sum   'Ce1 Dy2 Mg3 Si2 Au1'
_cell_volume   196.83010200
_cell_formula_units_Z   1
loop_
 _symmetry_equiv_pos_site_id
 _symmetry_equiv_pos_as_xyz
  1  'x, y, z'
loop_
 _atom_site_type_symbol
 _atom_site_label
 _atom_site_symmetry_multiplicity
 _atom_site_fract_x
 _atom_site_fract_y
 _atom_site_fract_z
 _atom_site_occupancy
  Ce  Ce0  1  0.579306  0.000000  0.000000  1
  Dy  Dy1  1  0.997847  0.580068  0.000000  1
  Dy  Dy2  1  0.417779  0.419932  0.000000  1
  Mg  Mg3  1  0.000625  0.245282  0.500000  1
  Mg  Mg4  1  0.243476  0.000000  0.500000  1
  Mg  Mg5  1  0.755343  0.754718  0.500000  1
  Si  Si6  1  0.332320  0.664712  0.500000  1
  Si  Si7  1  0.667609  0.335288  0.500000  1
  Au  Au8  1  0.005694  0.000000  0.000000  1
