# generated using pymatgen
data_Y3Tm(Hf4Pb5)2
_symmetry_space_group_name_H-M   'P 1'
_cell_length_a   6.02177833
_cell_length_b   9.12766639
_cell_length_c   11.29750800
_cell_angle_alpha   113.84254368
_cell_angle_beta   105.45664579
_cell_angle_gamma   90.00000487
_symmetry_Int_Tables_number   1
_chemical_formula_structural   Y3Tm(Hf4Pb5)2
_chemical_formula_sum   'Y3 Tm1 Hf8 Pb10'
_cell_volume   543.32683222
_cell_formula_units_Z   1
loop_
 _symmetry_equiv_pos_site_id
 _symmetry_equiv_pos_as_xyz
  1  'x, y, z'
loop_
 _atom_site_type_symbol
 _atom_site_label
 _atom_site_symmetry_multiplicity
 _atom_site_fract_x
 _atom_site_fract_y
 _atom_site_fract_z
 _atom_site_occupancy
  Y  Y0  1  0.856022  0.745657  0.712044  1
  Y  Y1  1  0.643963  0.033990  0.287925  1
  Y  Y2  1  0.356030  0.966397  0.712060  1
  Tm  Tm3  1  0.143921  0.254389  0.287842  1
  Hf  Hf4  1  0.562188  0.312306  0.624473  1
  Hf  Hf5  1  0.437647  0.687749  0.375352  1
  Hf  Hf6  1  0.937704  0.687749  0.375352  1
  Hf  Hf7  1  0.062287  0.312306  0.624473  1
  Hf  Hf8  1  0.434330  0.671489  0.868658  1
  Hf  Hf9  1  0.565789  0.328281  0.131578  1
  Hf  Hf10  1  0.934201  0.197090  0.868403  1
  Hf  Hf11  1  0.065675  0.802979  0.131349  1
  Pb  Pb12  1  0.288310  0.588312  0.576621  1
  Pb  Pb13  1  0.711414  0.410810  0.422828  1
  Pb  Pb14  1  0.788525  0.988129  0.577049  1
  Pb  Pb15  1  0.211318  0.012638  0.422635  1
  Pb  Pb16  1  0.249981  0.000365  0.000379  1
  Pb  Pb17  1  0.750399  0.000365  0.000379  1
  Pb  Pb18  1  0.067041  0.461271  0.134083  1
  Pb  Pb19  1  0.933237  0.537693  0.866474  1
  Pb  Pb20  1  0.566766  0.671248  0.133532  1
  Pb  Pb21  1  0.433254  0.328785  0.866509  1
