# generated using pymatgen
data_Th3AlPt3Au2
_symmetry_space_group_name_H-M   'P 1'
_cell_length_a   7.75361755
_cell_length_b   7.47777962
_cell_length_c   3.91307100
_cell_angle_alpha   90.00000000
_cell_angle_beta   90.00000000
_cell_angle_gamma   118.82999873
_symmetry_Int_Tables_number   1
_chemical_formula_structural   Th3AlPt3Au2
_chemical_formula_sum   'Th3 Al1 Pt3 Au2'
_cell_volume   198.75854219
_cell_formula_units_Z   1
loop_
 _symmetry_equiv_pos_site_id
 _symmetry_equiv_pos_as_xyz
  1  'x, y, z'
loop_
 _atom_site_type_symbol
 _atom_site_label
 _atom_site_symmetry_multiplicity
 _atom_site_fract_x
 _atom_site_fract_y
 _atom_site_fract_z
 _atom_site_occupancy
  Th  Th0  1  0.404038  0.395625  0.500000  1
  Th  Th1  1  0.595962  0.991588  0.500000  1
  Th  Th2  1  0.000000  0.615337  0.500000  1
  Al  Al3  1  0.000000  0.251871  0.000000  1
  Pt  Pt4  1  0.693779  0.327700  0.000000  1
  Pt  Pt5  1  0.306221  0.633921  0.000000  1
  Pt  Pt6  1  0.000000  0.042349  0.500000  1
  Au  Au7  1  0.733854  0.737731  0.000000  1
  Au  Au8  1  0.266146  0.003877  0.000000  1
