# generated using pymatgen
data_Dy8Lu12Si15As
_symmetry_space_group_name_H-M   'P 1'
_cell_length_a   7.36645673
_cell_length_b   7.56015157
_cell_length_c   14.36296574
_cell_angle_alpha   89.90157428
_cell_angle_beta   87.20036243
_cell_angle_gamma   90.03219962
_symmetry_Int_Tables_number   1
_chemical_formula_structural   Dy8Lu12Si15As
_chemical_formula_sum   'Dy8 Lu12 Si15 As1'
_cell_volume   798.93946478
_cell_formula_units_Z   1
loop_
 _symmetry_equiv_pos_site_id
 _symmetry_equiv_pos_as_xyz
  1  'x, y, z'
loop_
 _atom_site_type_symbol
 _atom_site_label
 _atom_site_symmetry_multiplicity
 _atom_site_fract_x
 _atom_site_fract_y
 _atom_site_fract_z
 _atom_site_occupancy
  Dy  Dy0  1  0.017734  0.180237  0.098803  1
  Dy  Dy1  1  0.982662  0.820871  0.900638  1
  Dy  Dy2  1  0.483473  0.679324  0.901199  1
  Dy  Dy3  1  0.999419  0.821830  0.598003  1
  Dy  Dy4  1  0.517256  0.321361  0.098883  1
  Dy  Dy5  1  0.998122  0.177198  0.401419  1
  Dy  Dy6  1  0.500234  0.317467  0.400807  1
  Dy  Dy7  1  0.505417  0.681330  0.598782  1
  Lu  Lu8  1  0.169989  0.505071  0.749247  1
  Lu  Lu9  1  0.829833  0.495156  0.253895  1
  Lu  Lu10  1  0.328749  0.005325  0.253164  1
  Lu  Lu11  1  0.671506  0.994804  0.747244  1
  Lu  Lu12  1  0.351369  0.165643  0.622582  1
  Lu  Lu13  1  0.649605  0.832074  0.377801  1
  Lu  Lu14  1  0.148404  0.667785  0.379755  1
  Lu  Lu15  1  0.670100  0.822520  0.123524  1
  Lu  Lu16  1  0.848242  0.332477  0.620350  1
  Lu  Lu17  1  0.329452  0.176965  0.875958  1
  Lu  Lu18  1  0.829830  0.322512  0.876076  1
  Lu  Lu19  1  0.169906  0.677969  0.123345  1
  Si  Si20  1  0.043072  0.113079  0.750137  1
  Si  Si21  1  0.956586  0.887881  0.248725  1
  Si  Si22  1  0.455330  0.611841  0.249155  1
  Si  Si23  1  0.543044  0.388251  0.750427  1
  Si  Si24  1  0.290809  0.868919  0.751670  1
  Si  Si25  1  0.710628  0.129364  0.247729  1
  Si  Si26  1  0.210173  0.371363  0.248575  1
  Si  Si27  1  0.791504  0.629701  0.751213  1
  Si  Si28  1  0.797385  0.536257  0.457025  1
  Si  Si29  1  0.305416  0.962802  0.458564  1
  Si  Si30  1  0.847856  0.531355  0.039925  1
  Si  Si31  1  0.693746  0.036953  0.542003  1
  Si  Si32  1  0.151723  0.469698  0.959593  1
  Si  Si33  1  0.651294  0.030908  0.959319  1
  Si  Si34  1  0.348604  0.970179  0.040810  1
  As  As35  1  0.201521  0.463533  0.543655  1
