# generated using pymatgen
data_Yb6Y2Si12IrPd3
_symmetry_space_group_name_H-M   'P 1'
_cell_length_a   8.24163200
_cell_length_b   8.24163091
_cell_length_c   8.12933300
_cell_angle_alpha   90.00000000
_cell_angle_beta   90.00000000
_cell_angle_gamma   119.99999635
_symmetry_Int_Tables_number   1
_chemical_formula_structural   Yb6Y2Si12IrPd3
_chemical_formula_sum   'Yb6 Y2 Si12 Ir1 Pd3'
_cell_volume   478.20260949
_cell_formula_units_Z   1
loop_
 _symmetry_equiv_pos_site_id
 _symmetry_equiv_pos_as_xyz
  1  'x, y, z'
loop_
 _atom_site_type_symbol
 _atom_site_label
 _atom_site_symmetry_multiplicity
 _atom_site_fract_x
 _atom_site_fract_y
 _atom_site_fract_z
 _atom_site_occupancy
  Yb  Yb0  1  0.499874  0.999747  0.247463  1
  Yb  Yb1  1  0.496261  0.992523  0.752553  1
  Yb  Yb2  1  0.000253  0.500126  0.247463  1
  Yb  Yb3  1  0.007477  0.503739  0.752553  1
  Yb  Yb4  1  0.499874  0.500126  0.247463  1
  Yb  Yb5  1  0.496261  0.503739  0.752553  1
  Y  Y6  1  0.000000  0.000000  0.250003  1
  Y  Y7  1  0.000000  0.000000  0.749473  1
  Si  Si8  1  0.167256  0.334512  0.002205  1
  Si  Si9  1  0.836427  0.672853  0.998075  1
  Si  Si10  1  0.665488  0.832744  0.002205  1
  Si  Si11  1  0.835559  0.671116  0.502275  1
  Si  Si12  1  0.327147  0.163573  0.998075  1
  Si  Si13  1  0.163771  0.327542  0.497366  1
  Si  Si14  1  0.167256  0.832744  0.002205  1
  Si  Si15  1  0.328884  0.164441  0.502275  1
  Si  Si16  1  0.836427  0.163573  0.998075  1
  Si  Si17  1  0.672458  0.836229  0.497366  1
  Si  Si18  1  0.835559  0.164441  0.502275  1
  Si  Si19  1  0.163771  0.836229  0.497366  1
  Ir  Ir20  1  0.333333  0.666667  0.001418  1
  Pd  Pd21  1  0.666667  0.333333  0.999320  1
  Pd  Pd22  1  0.666667  0.333333  0.500516  1
  Pd  Pd23  1  0.333333  0.666667  0.499463  1
