# generated using pymatgen
data_Sc12Co2Si12IrRh
_symmetry_space_group_name_H-M   'P 1'
_cell_length_a   4.00819900
_cell_length_b   10.11789062
_cell_length_c   11.68539600
_cell_angle_alpha   89.74831522
_cell_angle_beta   90.00000000
_cell_angle_gamma   90.00000000
_symmetry_Int_Tables_number   1
_chemical_formula_structural   Sc12Co2Si12IrRh
_chemical_formula_sum   'Sc12 Co2 Si12 Ir1 Rh1'
_cell_volume   473.89104260
_cell_formula_units_Z   1
loop_
 _symmetry_equiv_pos_site_id
 _symmetry_equiv_pos_as_xyz
  1  'x, y, z'
loop_
 _atom_site_type_symbol
 _atom_site_label
 _atom_site_symmetry_multiplicity
 _atom_site_fract_x
 _atom_site_fract_y
 _atom_site_fract_z
 _atom_site_occupancy
  Sc  Sc0  1  0.250000  0.876536  0.019856  1
  Sc  Sc1  1  0.250000  0.618435  0.523985  1
  Sc  Sc2  1  0.750000  0.123241  0.979402  1
  Sc  Sc3  1  0.750000  0.381117  0.476129  1
  Sc  Sc4  1  0.250000  0.919273  0.603140  1
  Sc  Sc5  1  0.250000  0.579390  0.098987  1
  Sc  Sc6  1  0.750000  0.080399  0.398319  1
  Sc  Sc7  1  0.750000  0.420942  0.900904  1
  Sc  Sc8  1  0.250000  0.651160  0.799252  1
  Sc  Sc9  1  0.250000  0.835462  0.301015  1
  Sc  Sc10  1  0.750000  0.348969  0.200517  1
  Sc  Sc11  1  0.750000  0.164860  0.699105  1
  Co  Co12  1  0.250000  0.388469  0.675948  1
  Co  Co13  1  0.750000  0.611436  0.323838  1
  Si  Si14  1  0.250000  0.017043  0.821916  1
  Si  Si15  1  0.250000  0.496970  0.321518  1
  Si  Si16  1  0.750000  0.983213  0.178225  1
  Si  Si17  1  0.750000  0.502470  0.678282  1
  Si  Si18  1  0.250000  0.256105  0.837777  1
  Si  Si19  1  0.250000  0.254100  0.341645  1
  Si  Si20  1  0.750000  0.744497  0.162042  1
  Si  Si21  1  0.750000  0.744835  0.658387  1
  Si  Si22  1  0.250000  0.199195  0.546094  1
  Si  Si23  1  0.250000  0.306872  0.043994  1
  Si  Si24  1  0.750000  0.800792  0.454360  1
  Si  Si25  1  0.750000  0.693887  0.955292  1
  Ir  Ir26  1  0.750000  0.888946  0.821326  1
  Rh  Rh27  1  0.250000  0.111385  0.178743  1
