# generated using pymatgen
data_HoLu3Ru4F28
_symmetry_space_group_name_H-M   'P 1'
_cell_length_a   5.50209540
_cell_length_b   8.79378761
_cell_length_c   11.82298900
_cell_angle_alpha   63.70094444
_cell_angle_beta   90.06374072
_cell_angle_gamma   90.09415136
_symmetry_Int_Tables_number   1
_chemical_formula_structural   HoLu3Ru4F28
_chemical_formula_sum   'Ho1 Lu3 Ru4 F28'
_cell_volume   512.83541240
_cell_formula_units_Z   1
loop_
 _symmetry_equiv_pos_site_id
 _symmetry_equiv_pos_as_xyz
  1  'x, y, z'
loop_
 _atom_site_type_symbol
 _atom_site_label
 _atom_site_symmetry_multiplicity
 _atom_site_fract_x
 _atom_site_fract_y
 _atom_site_fract_z
 _atom_site_occupancy
  Ho  Ho0  1  0.242154  0.813213  0.769826  1
  Lu  Lu1  1  0.257457  0.812847  0.269873  1
  Lu  Lu2  1  0.741428  0.193149  0.728201  1
  Lu  Lu3  1  0.757918  0.188590  0.229485  1
  Ru  Ru4  1  0.754907  0.726663  0.048479  1
  Ru  Ru5  1  0.244967  0.270457  0.955112  1
  Ru  Ru6  1  0.255858  0.273629  0.453069  1
  Ru  Ru7  1  0.746233  0.727322  0.543320  1
  F  F8  1  0.953696  0.703858  0.416892  1
  F  F9  1  0.045905  0.296409  0.579191  1
  F  F10  1  0.455104  0.294812  0.080739  1
  F  F11  1  0.548536  0.703469  0.921260  1
  F  F12  1  0.467992  0.731431  0.146682  1
  F  F13  1  0.531996  0.268960  0.855780  1
  F  F14  1  0.970784  0.267483  0.354143  1
  F  F15  1  0.034975  0.730141  0.640336  1
  F  F16  1  0.959909  0.750865  0.176879  1
  F  F17  1  0.037675  0.246837  0.826516  1
  F  F18  1  0.462874  0.248964  0.325426  1
  F  F19  1  0.544736  0.749112  0.673609  1
  F  F20  1  0.766226  0.484582  0.143780  1
  F  F21  1  0.229941  0.511685  0.858714  1
  F  F22  1  0.267615  0.514606  0.356964  1
  F  F23  1  0.732681  0.485189  0.640260  1
  F  F24  1  0.950806  0.279903  0.048792  1
  F  F25  1  0.048991  0.716924  0.955956  1
  F  F26  1  0.449252  0.718893  0.450838  1
  F  F27  1  0.549536  0.283119  0.546854  1
  F  F28  1  0.747392  0.967187  0.450713  1
  F  F29  1  0.254478  0.033485  0.547176  1
  F  F30  1  0.246912  0.030631  0.048516  1
  F  F31  1  0.753671  0.965676  0.956013  1
  F  F32  1  0.566895  0.976980  0.234960  1
  F  F33  1  0.430793  0.030689  0.766307  1
  F  F34  1  0.066838  0.024046  0.264881  1
  F  F35  1  0.922871  0.978199  0.734461  1
