# generated using pymatgen
data_YbSm2Ho5(B6Os)4
_symmetry_space_group_name_H-M   'P 1'
_cell_length_a   3.66208700
_cell_length_b   9.16868800
_cell_length_c   11.56654579
_cell_angle_alpha   90.07809653
_cell_angle_beta   90.00000000
_cell_angle_gamma   90.00000000
_symmetry_Int_Tables_number   1
_chemical_formula_structural   YbSm2Ho5(B6Os)4
_chemical_formula_sum   'Yb1 Sm2 Ho5 B24 Os4'
_cell_volume   388.36414727
_cell_formula_units_Z   1
loop_
 _symmetry_equiv_pos_site_id
 _symmetry_equiv_pos_as_xyz
  1  'x, y, z'
loop_
 _atom_site_type_symbol
 _atom_site_label
 _atom_site_symmetry_multiplicity
 _atom_site_fract_x
 _atom_site_fract_y
 _atom_site_fract_z
 _atom_site_occupancy
  Yb  Yb0  1  0.000000  0.823063  0.086022  1
  Sm  Sm1  1  0.000000  0.322060  0.413182  1
  Sm  Sm2  1  0.000000  0.678193  0.586001  1
  Ho  Ho3  1  0.000000  0.176367  0.915342  1
  Ho  Ho4  1  0.000000  0.943031  0.369949  1
  Ho  Ho5  1  0.000000  0.056077  0.628419  1
  Ho  Ho6  1  0.000000  0.443952  0.127530  1
  Ho  Ho7  1  0.000000  0.557991  0.873332  1
  B  B8  1  0.500000  0.554453  0.431499  1
  B  B9  1  0.500000  0.444782  0.569273  1
  B  B10  1  0.500000  0.053526  0.066895  1
  B  B11  1  0.500000  0.946260  0.933198  1
  B  B12  1  0.500000  0.748492  0.417263  1
  B  B13  1  0.500000  0.250828  0.582548  1
  B  B14  1  0.500000  0.247810  0.080244  1
  B  B15  1  0.500000  0.752793  0.919648  1
  B  B16  1  0.500000  0.790365  0.264931  1
  B  B17  1  0.500000  0.208915  0.735056  1
  B  B18  1  0.500000  0.290230  0.232071  1
  B  B19  1  0.500000  0.710868  0.767659  1
  B  B20  1  0.500000  0.631555  0.184914  1
  B  B21  1  0.500000  0.368281  0.815901  1
  B  B22  1  0.500000  0.130428  0.312574  1
  B  B23  1  0.500000  0.869981  0.686343  1
  B  B24  1  0.500000  0.983077  0.211279  1
  B  B25  1  0.500000  0.017044  0.788170  1
  B  B26  1  0.500000  0.484501  0.286339  1
  B  B27  1  0.500000  0.515468  0.714552  1
  B  B28  1  0.500000  0.604785  0.029064  1
  B  B29  1  0.500000  0.394059  0.970859  1
  B  B30  1  0.500000  0.103616  0.471014  1
  B  B31  1  0.500000  0.896424  0.528276  1
  Os  Os32  1  0.000000  0.637735  0.320527  1
  Os  Os33  1  0.000000  0.361270  0.680834  1
  Os  Os34  1  0.000000  0.138535  0.178151  1
  Os  Os35  1  0.000000  0.863184  0.821143  1
