# generated using pymatgen
data_Sr10HfWN10
_symmetry_space_group_name_H-M   'P 1'
_cell_length_a   7.37620967
_cell_length_b   7.37620965
_cell_length_c   9.41179900
_cell_angle_alpha   81.38384026
_cell_angle_beta   81.38384028
_cell_angle_gamma   59.50034721
_symmetry_Int_Tables_number   1
_chemical_formula_structural   Sr10HfWN10
_chemical_formula_sum   'Sr10 Hf1 W1 N10'
_cell_volume   434.60733531
_cell_formula_units_Z   1
loop_
 _symmetry_equiv_pos_site_id
 _symmetry_equiv_pos_as_xyz
  1  'x, y, z'
loop_
 _atom_site_type_symbol
 _atom_site_label
 _atom_site_symmetry_multiplicity
 _atom_site_fract_x
 _atom_site_fract_y
 _atom_site_fract_z
 _atom_site_occupancy
  Sr  Sr0  1  0.876785  0.360016  0.841865  1
  Sr  Sr1  1  0.874349  0.874349  0.822302  1
  Sr  Sr2  1  0.732103  0.732103  0.538667  1
  Sr  Sr3  1  0.739467  0.256165  0.507526  1
  Sr  Sr4  1  0.621150  0.136781  0.142909  1
  Sr  Sr5  1  0.360016  0.876785  0.841865  1
  Sr  Sr6  1  0.256165  0.739467  0.507526  1
  Sr  Sr7  1  0.236766  0.236766  0.498021  1
  Sr  Sr8  1  0.143642  0.143642  0.163680  1
  Sr  Sr9  1  0.136781  0.621150  0.142909  1
  Hf  Hf10  1  0.368502  0.368502  0.773402  1
  W  W11  1  0.637063  0.637063  0.225606  1
  N  N12  1  0.896945  0.481269  0.317937  1
  N  N13  1  0.996421  0.996421  0.024629  1
  N  N14  1  0.688020  0.688020  0.025905  1
  N  N15  1  0.535086  0.535086  0.694871  1
  N  N16  1  0.481269  0.896945  0.317937  1
  N  N17  1  0.536133  0.087204  0.673052  1
  N  N18  1  0.485810  0.485810  0.279987  1
  N  N19  1  0.313931  0.313931  0.991242  1
  N  N20  1  0.058679  0.058679  0.640919  1
  N  N21  1  0.087204  0.536133  0.673052  1
