# generated using pymatgen
data_LaGa3Pd5
_symmetry_space_group_name_H-M   'P 1'
_cell_length_a   4.12013000
_cell_length_b   20.50118500
_cell_length_c   7.49776600
_cell_angle_alpha   90.00000000
_cell_angle_beta   90.00000000
_cell_angle_gamma   90.00000000
_symmetry_Int_Tables_number   1
_chemical_formula_structural   LaGa3Pd5
_chemical_formula_sum   'La4 Ga12 Pd20'
_cell_volume   633.31790465
_cell_formula_units_Z   4
loop_
 _symmetry_equiv_pos_site_id
 _symmetry_equiv_pos_as_xyz
  1  'x, y, z'
loop_
 _atom_site_type_symbol
 _atom_site_label
 _atom_site_symmetry_multiplicity
 _atom_site_fract_x
 _atom_site_fract_y
 _atom_site_fract_z
 _atom_site_occupancy
  La  La0  1  0.750000  0.642423  0.120471  1
  La  La1  1  0.250000  0.357577  0.879529  1
  La  La2  1  0.250000  0.857577  0.620471  1
  La  La3  1  0.750000  0.142423  0.379529  1
  Ga  Ga4  1  0.750000  0.737332  0.625435  1
  Ga  Ga5  1  0.250000  0.262668  0.374565  1
  Ga  Ga6  1  0.250000  0.762668  0.125435  1
  Ga  Ga7  1  0.750000  0.237332  0.874565  1
  Ga  Ga8  1  0.750000  0.924699  0.343277  1
  Ga  Ga9  1  0.250000  0.075301  0.656723  1
  Ga  Ga10  1  0.250000  0.575301  0.843277  1
  Ga  Ga11  1  0.750000  0.424699  0.156723  1
  Ga  Ga12  1  0.750000  0.914985  0.916855  1
  Ga  Ga13  1  0.250000  0.085015  0.083145  1
  Ga  Ga14  1  0.250000  0.585015  0.416855  1
  Ga  Ga15  1  0.750000  0.414985  0.583145  1
  Pd  Pd16  1  0.750000  0.799110  0.322108  1
  Pd  Pd17  1  0.250000  0.200890  0.677892  1
  Pd  Pd18  1  0.250000  0.700890  0.822108  1
  Pd  Pd19  1  0.750000  0.299110  0.177892  1
  Pd  Pd20  1  0.750000  0.993687  0.629190  1
  Pd  Pd21  1  0.250000  0.006313  0.370810  1
  Pd  Pd22  1  0.250000  0.506313  0.129190  1
  Pd  Pd23  1  0.750000  0.493687  0.870810  1
  Pd  Pd24  1  0.750000  0.514411  0.380791  1
  Pd  Pd25  1  0.250000  0.485589  0.619209  1
  Pd  Pd26  1  0.250000  0.985589  0.880791  1
  Pd  Pd27  1  0.750000  0.014411  0.119209  1
  Pd  Pd28  1  0.750000  0.793981  0.930718  1
  Pd  Pd29  1  0.250000  0.206019  0.069282  1
  Pd  Pd30  1  0.250000  0.706019  0.430718  1
  Pd  Pd31  1  0.750000  0.293981  0.569282  1
  Pd  Pd32  1  0.750000  0.614972  0.646550  1
  Pd  Pd33  1  0.250000  0.385027  0.353450  1
  Pd  Pd34  1  0.250000  0.885028  0.146550  1
  Pd  Pd35  1  0.750000  0.114972  0.853450  1
