# generated using pymatgen
data_TbY7Cd2IrPt
_symmetry_space_group_name_H-M   'P 1'
_cell_length_a   9.69789745
_cell_length_b   9.69789651
_cell_length_c   9.67812400
_cell_angle_alpha   60.06742157
_cell_angle_beta   60.06742475
_cell_angle_gamma   60.17307770
_symmetry_Int_Tables_number   1
_chemical_formula_structural   TbY7Cd2IrPt
_chemical_formula_sum   'Tb2 Y14 Cd4 Ir2 Pt2'
_cell_volume   645.11801270
_cell_formula_units_Z   2
loop_
 _symmetry_equiv_pos_site_id
 _symmetry_equiv_pos_as_xyz
  1  'x, y, z'
loop_
 _atom_site_type_symbol
 _atom_site_label
 _atom_site_symmetry_multiplicity
 _atom_site_fract_x
 _atom_site_fract_y
 _atom_site_fract_z
 _atom_site_occupancy
  Tb  Tb0  1  0.350356  0.350356  0.346285  1
  Tb  Tb1  1  0.350356  0.350356  0.953003  1
  Y  Y2  1  0.356366  0.942838  0.350398  1
  Y  Y3  1  0.942838  0.356366  0.350398  1
  Y  Y4  1  0.806453  0.190611  0.190641  1
  Y  Y5  1  0.190611  0.806453  0.812295  1
  Y  Y6  1  0.190611  0.806453  0.190641  1
  Y  Y7  1  0.806453  0.190611  0.812295  1
  Y  Y8  1  0.191659  0.191659  0.808341  1
  Y  Y9  1  0.811060  0.811060  0.188940  1
  Y  Y10  1  0.938220  0.564533  0.561434  1
  Y  Y11  1  0.564533  0.938220  0.935813  1
  Y  Y12  1  0.564533  0.938220  0.561434  1
  Y  Y13  1  0.938220  0.564533  0.935813  1
  Y  Y14  1  0.563504  0.563504  0.936496  1
  Y  Y15  1  0.937417  0.937417  0.562583  1
  Cd  Cd16  1  0.581111  0.581111  0.581803  1
  Cd  Cd17  1  0.581111  0.581111  0.255976  1
  Cd  Cd18  1  0.580760  0.256104  0.581568  1
  Cd  Cd19  1  0.256104  0.580760  0.581568  1
  Ir  Ir20  1  0.141286  0.572643  0.143036  1
  Ir  Ir21  1  0.572643  0.141286  0.143036  1
  Pt  Pt22  1  0.141897  0.141897  0.145030  1
  Pt  Pt23  1  0.141897  0.141897  0.571175  1
