# generated using pymatgen
data_Ba11Dy(SnAu)12
_symmetry_space_group_name_H-M   'P 1'
_cell_length_a   5.02138800
_cell_length_b   8.46490183
_cell_length_c   25.05873851
_cell_angle_alpha   90.09784661
_cell_angle_beta   90.00000000
_cell_angle_gamma   90.00000000
_symmetry_Int_Tables_number   1
_chemical_formula_structural   Ba11Dy(SnAu)12
_chemical_formula_sum   'Ba11 Dy1 Sn12 Au12'
_cell_volume   1065.13407212
_cell_formula_units_Z   1
loop_
 _symmetry_equiv_pos_site_id
 _symmetry_equiv_pos_as_xyz
  1  'x, y, z'
loop_
 _atom_site_type_symbol
 _atom_site_label
 _atom_site_symmetry_multiplicity
 _atom_site_fract_x
 _atom_site_fract_y
 _atom_site_fract_z
 _atom_site_occupancy
  Ba  Ba0  1  0.250000  0.795076  0.166841  1
  Ba  Ba1  1  0.250000  0.789306  0.502479  1
  Ba  Ba2  1  0.250000  0.794198  0.832415  1
  Ba  Ba3  1  0.250000  0.707390  0.335971  1
  Ba  Ba4  1  0.750000  0.204616  0.832845  1
  Ba  Ba5  1  0.750000  0.292484  0.997254  1
  Ba  Ba6  1  0.750000  0.290913  0.664270  1
  Ba  Ba7  1  0.750000  0.292002  0.335450  1
  Ba  Ba8  1  0.250000  0.703997  0.663530  1
  Ba  Ba9  1  0.250000  0.707453  0.002662  1
  Ba  Ba10  1  0.750000  0.205839  0.167495  1
  Dy  Dy11  1  0.750000  0.245105  0.495892  1
  Sn  Sn12  1  0.250000  0.401981  0.559694  1
  Sn  Sn13  1  0.250000  0.086432  0.401913  1
  Sn  Sn14  1  0.250000  0.086763  0.062911  1
  Sn  Sn15  1  0.250000  0.416875  0.894883  1
  Sn  Sn16  1  0.750000  0.582772  0.105259  1
  Sn  Sn17  1  0.250000  0.417808  0.770762  1
  Sn  Sn18  1  0.750000  0.582328  0.229182  1
  Sn  Sn19  1  0.750000  0.584081  0.436384  1
  Sn  Sn20  1  0.750000  0.913105  0.937177  1
  Sn  Sn21  1  0.250000  0.082300  0.273353  1
  Sn  Sn22  1  0.750000  0.916046  0.598371  1
  Sn  Sn23  1  0.750000  0.917107  0.725970  1
  Au  Au24  1  0.250000  0.084992  0.587376  1
  Au  Au25  1  0.250000  0.085957  0.738751  1
  Au  Au26  1  0.750000  0.586610  0.905577  1
  Au  Au27  1  0.750000  0.929699  0.417930  1
  Au  Au28  1  0.750000  0.573328  0.560846  1
  Au  Au29  1  0.750000  0.585298  0.758531  1
  Au  Au30  1  0.250000  0.397815  0.442031  1
  Au  Au31  1  0.250000  0.414450  0.240901  1
  Au  Au32  1  0.750000  0.918203  0.066319  1
  Au  Au33  1  0.250000  0.413148  0.094449  1
  Au  Au34  1  0.250000  0.081528  0.933347  1
  Au  Au35  1  0.750000  0.912996  0.260979  1
