# generated using pymatgen
data_Pr3Sm3RuBr10
_symmetry_space_group_name_H-M   'P 1'
_cell_length_a   7.66213676
_cell_length_b   9.36331811
_cell_length_c   9.63442456
_cell_angle_alpha   109.07293027
_cell_angle_beta   97.15714942
_cell_angle_gamma   105.96138982
_symmetry_Int_Tables_number   1
_chemical_formula_structural   Pr3Sm3RuBr10
_chemical_formula_sum   'Pr3 Sm3 Ru1 Br10'
_cell_volume   610.33125484
_cell_formula_units_Z   1
loop_
 _symmetry_equiv_pos_site_id
 _symmetry_equiv_pos_as_xyz
  1  'x, y, z'
loop_
 _atom_site_type_symbol
 _atom_site_label
 _atom_site_symmetry_multiplicity
 _atom_site_fract_x
 _atom_site_fract_y
 _atom_site_fract_z
 _atom_site_occupancy
  Pr  Pr0  1  0.026670  0.710228  0.909302  1
  Pr  Pr1  1  0.376165  0.150491  0.192947  1
  Pr  Pr2  1  0.971076  0.288759  0.088898  1
  Sm  Sm3  1  0.127402  0.048121  0.750423  1
  Sm  Sm4  1  0.629307  0.853616  0.811110  1
  Sm  Sm5  1  0.869498  0.949698  0.248159  1
  Ru  Ru6  1  0.999352  0.999582  0.999896  1
  Br  Br7  1  0.204006  0.744879  0.649211  1
  Br  Br8  1  0.635654  0.537026  0.723309  1
  Br  Br9  1  0.244343  0.079783  0.455036  1
  Br  Br10  1  0.805523  0.257126  0.354590  1
  Br  Br11  1  0.548946  0.170844  0.914924  1
  Br  Br12  1  0.750376  0.917248  0.548050  1
  Br  Br13  1  0.906859  0.633415  0.173057  1
  Br  Br14  1  0.359794  0.469501  0.276390  1
  Br  Br15  1  0.092955  0.366025  0.826240  1
  Br  Br16  1  0.452075  0.823660  0.078458  1
