# generated using pymatgen
data_Ti3B2IrRu4
_symmetry_space_group_name_H-M   'P 1'
_cell_length_a   9.31004600
_cell_length_b   9.29138407
_cell_length_c   3.04072500
_cell_angle_alpha   90.00000000
_cell_angle_beta   90.00000000
_cell_angle_gamma   90.00688187
_symmetry_Int_Tables_number   1
_chemical_formula_structural   Ti3B2IrRu4
_chemical_formula_sum   'Ti6 B4 Ir2 Ru8'
_cell_volume   263.03248066
_cell_formula_units_Z   2
loop_
 _symmetry_equiv_pos_site_id
 _symmetry_equiv_pos_as_xyz
  1  'x, y, z'
loop_
 _atom_site_type_symbol
 _atom_site_label
 _atom_site_symmetry_multiplicity
 _atom_site_fract_x
 _atom_site_fract_y
 _atom_site_fract_z
 _atom_site_occupancy
  Ti  Ti0  1  0.829150  0.675923  0.000000  1
  Ti  Ti1  1  0.170850  0.324077  0.000000  1
  Ti  Ti2  1  0.319131  0.824719  0.000000  1
  Ti  Ti3  1  0.680869  0.175281  0.000000  1
  Ti  Ti4  1  0.500000  0.500000  0.000000  1
  Ti  Ti5  1  0.000000  0.000000  0.000000  1
  B  B6  1  0.627225  0.882503  0.000000  1
  B  B7  1  0.372775  0.117497  0.000000  1
  B  B8  1  0.123972  0.623419  0.000000  1
  B  B9  1  0.876028  0.376581  0.000000  1
  Ir  Ir10  1  0.573007  0.715991  0.500000  1
  Ir  Ir11  1  0.426993  0.284009  0.500000  1
  Ru  Ru12  1  0.073397  0.784907  0.500000  1
  Ru  Ru13  1  0.926603  0.215093  0.500000  1
  Ru  Ru14  1  0.285861  0.572028  0.500000  1
  Ru  Ru15  1  0.714139  0.427972  0.500000  1
  Ru  Ru16  1  0.214140  0.073146  0.500000  1
  Ru  Ru17  1  0.785860  0.926854  0.500000  1
  Ru  Ru18  1  0.500000  0.000000  0.500000  1
  Ru  Ru19  1  0.000000  0.500000  0.500000  1
