# generated using pymatgen
data_Ba12SiP2PbI8
_symmetry_space_group_name_H-M   'P 1'
_cell_length_a   16.37167888
_cell_length_b   15.61678791
_cell_length_c   8.77379514
_cell_angle_alpha   78.94383336
_cell_angle_beta   69.45322926
_cell_angle_gamma   30.94659970
_symmetry_Int_Tables_number   1
_chemical_formula_structural   Ba12SiP2PbI8
_chemical_formula_sum   'Ba12 Si1 P2 Pb1 I8'
_cell_volume   1052.00775435
_cell_formula_units_Z   1
loop_
 _symmetry_equiv_pos_site_id
 _symmetry_equiv_pos_as_xyz
  1  'x, y, z'
loop_
 _atom_site_type_symbol
 _atom_site_label
 _atom_site_symmetry_multiplicity
 _atom_site_fract_x
 _atom_site_fract_y
 _atom_site_fract_z
 _atom_site_occupancy
  Ba  Ba0  1  0.385342  0.940899  0.573020  1
  Ba  Ba1  1  0.590573  0.090610  0.371429  1
  Ba  Ba2  1  0.315838  0.868656  0.168504  1
  Ba  Ba3  1  0.941445  0.384758  0.101705  1
  Ba  Ba4  1  0.457092  0.041717  0.040369  1
  Ba  Ba5  1  0.867829  0.316763  0.647337  1
  Ba  Ba6  1  0.090471  0.590652  0.947260  1
  Ba  Ba7  1  0.663149  0.154975  0.879765  1
  Ba  Ba8  1  0.779614  0.210492  0.218595  1
  Ba  Ba9  1  0.211391  0.779170  0.790412  1
  Ba  Ba10  1  0.155272  0.663003  0.301639  1
  Ba  Ba11  1  0.041374  0.457134  0.460861  1
  Si  Si12  1  0.333535  0.333503  0.166554  1
  P  P13  1  0.915318  0.915570  0.084724  1
  P  P14  1  0.166858  0.166185  0.333667  1
  Pb  Pb15  1  0.083858  0.084631  0.916083  1
  I  I16  1  0.672127  0.672283  0.828308  1
  I  I17  1  0.748066  0.749117  0.251257  1
  I  I18  1  0.254825  0.253525  0.745394  1
  I  I19  1  0.578270  0.577723  0.421368  1
  I  I20  1  0.995899  0.996464  0.504114  1
  I  I21  1  0.829121  0.828913  0.670594  1
  I  I22  1  0.419214  0.420454  0.580461  1
  I  I23  1  0.503519  0.502807  0.996579  1
