# generated using pymatgen
data_Pr3Th(TcB2)6
_symmetry_space_group_name_H-M   'P 1'
_cell_length_a   6.32719547
_cell_length_b   6.32589168
_cell_length_c   7.66344614
_cell_angle_alpha   89.50911686
_cell_angle_beta   89.18467198
_cell_angle_gamma   114.81425666
_symmetry_Int_Tables_number   1
_chemical_formula_structural   Pr3Th(TcB2)6
_chemical_formula_sum   'Pr3 Th1 Tc6 B12'
_cell_volume   278.34720148
_cell_formula_units_Z   1
loop_
 _symmetry_equiv_pos_site_id
 _symmetry_equiv_pos_as_xyz
  1  'x, y, z'
loop_
 _atom_site_type_symbol
 _atom_site_label
 _atom_site_symmetry_multiplicity
 _atom_site_fract_x
 _atom_site_fract_y
 _atom_site_fract_z
 _atom_site_occupancy
  Pr  Pr0  1  0.438504  0.092187  0.172652  1
  Pr  Pr1  1  0.093135  0.438016  0.675805  1
  Pr  Pr2  1  0.562090  0.908522  0.825838  1
  Th  Th3  1  0.908925  0.563022  0.326905  1
  Tc  Tc4  1  0.414823  0.582551  0.250929  1
  Tc  Tc5  1  0.583858  0.416827  0.749055  1
  Tc  Tc6  1  0.010824  0.198239  0.088381  1
  Tc  Tc7  1  0.803174  0.988611  0.410981  1
  Tc  Tc8  1  0.988843  0.802207  0.913016  1
  Tc  Tc9  1  0.196583  0.009886  0.587342  1
  B  B10  1  0.760208  0.848687  0.130806  1
  B  B11  1  0.152327  0.241286  0.369730  1
  B  B12  1  0.239528  0.151867  0.868322  1
  B  B13  1  0.847776  0.759273  0.632301  1
  B  B14  1  0.418586  0.842370  0.481259  1
  B  B15  1  0.157546  0.581921  0.017653  1
  B  B16  1  0.581008  0.158414  0.517009  1
  B  B17  1  0.841949  0.418026  0.982366  1
  B  B18  1  0.559116  0.650132  0.532591  1
  B  B19  1  0.349926  0.440835  0.967879  1
  B  B20  1  0.441637  0.349185  0.467222  1
  B  B21  1  0.649632  0.557936  0.031958  1
