# generated using pymatgen
data_Yb2Y18Cd6OsRu
_symmetry_space_group_name_H-M   'P 1'
_cell_length_a   9.64199500
_cell_length_b   9.64199472
_cell_length_c   9.84788600
_cell_angle_alpha   90.00000000
_cell_angle_beta   90.00000000
_cell_angle_gamma   120.00000439
_symmetry_Int_Tables_number   1
_chemical_formula_structural   Yb2Y18Cd6OsRu
_chemical_formula_sum   'Yb2 Y18 Cd6 Os1 Ru1'
_cell_volume   792.87991432
_cell_formula_units_Z   1
loop_
 _symmetry_equiv_pos_site_id
 _symmetry_equiv_pos_as_xyz
  1  'x, y, z'
loop_
 _atom_site_type_symbol
 _atom_site_label
 _atom_site_symmetry_multiplicity
 _atom_site_fract_x
 _atom_site_fract_y
 _atom_site_fract_z
 _atom_site_occupancy
  Yb  Yb0  1  0.000000  0.000000  0.499723  1
  Yb  Yb1  1  0.000000  0.000000  0.000277  1
  Y  Y2  1  0.210289  0.789711  0.440321  1
  Y  Y3  1  0.210289  0.420579  0.440321  1
  Y  Y4  1  0.579421  0.789711  0.440321  1
  Y  Y5  1  0.789631  0.210369  0.560087  1
  Y  Y6  1  0.789631  0.579259  0.560087  1
  Y  Y7  1  0.420741  0.210369  0.560087  1
  Y  Y8  1  0.789631  0.210369  0.939913  1
  Y  Y9  1  0.789631  0.579259  0.939913  1
  Y  Y10  1  0.420741  0.210369  0.939913  1
  Y  Y11  1  0.210289  0.789711  0.059679  1
  Y  Y12  1  0.210289  0.420579  0.059679  1
  Y  Y13  1  0.579421  0.789711  0.059679  1
  Y  Y14  1  0.540280  0.459720  0.250000  1
  Y  Y15  1  0.540280  0.080560  0.250000  1
  Y  Y16  1  0.919440  0.459720  0.250000  1
  Y  Y17  1  0.458482  0.541518  0.750000  1
  Y  Y18  1  0.458482  0.916964  0.750000  1
  Y  Y19  1  0.083036  0.541518  0.750000  1
  Cd  Cd20  1  0.885195  0.114805  0.250000  1
  Cd  Cd21  1  0.885195  0.770391  0.250000  1
  Cd  Cd22  1  0.229609  0.114805  0.250000  1
  Cd  Cd23  1  0.114781  0.885219  0.750000  1
  Cd  Cd24  1  0.114781  0.229560  0.750000  1
  Cd  Cd25  1  0.770440  0.885219  0.750000  1
  Os  Os26  1  0.333333  0.666667  0.250000  1
  Ru  Ru27  1  0.666667  0.333333  0.750000  1
