# generated using pymatgen
data_Pr2SiOsBr
_symmetry_space_group_name_H-M   'P 1'
_cell_length_a   4.18629700
_cell_length_b   4.18629714
_cell_length_c   17.37838400
_cell_angle_alpha   90.00000000
_cell_angle_beta   90.00000000
_cell_angle_gamma   119.99999099
_symmetry_Int_Tables_number   1
_chemical_formula_structural   Pr2SiOsBr
_chemical_formula_sum   'Pr4 Si2 Os2 Br2'
_cell_volume   263.75466389
_cell_formula_units_Z   2
loop_
 _symmetry_equiv_pos_site_id
 _symmetry_equiv_pos_as_xyz
  1  'x, y, z'
loop_
 _atom_site_type_symbol
 _atom_site_label
 _atom_site_symmetry_multiplicity
 _atom_site_fract_x
 _atom_site_fract_y
 _atom_site_fract_z
 _atom_site_occupancy
  Pr  Pr0  1  0.000000  0.000000  0.611093  1
  Pr  Pr1  1  0.000000  0.000000  0.390366  1
  Pr  Pr2  1  0.000000  0.000000  0.111093  1
  Pr  Pr3  1  0.000000  0.000000  0.890366  1
  Si  Si4  1  0.666667  0.333333  0.501039  1
  Si  Si5  1  0.333333  0.666667  0.001039  1
  Os  Os6  1  0.666667  0.333333  0.998896  1
  Os  Os7  1  0.333333  0.666667  0.498896  1
  Br  Br8  1  0.666667  0.333333  0.248605  1
  Br  Br9  1  0.333333  0.666667  0.748605  1
