# generated using pymatgen
data_Ho12Mn2Tl2Zn
_symmetry_space_group_name_H-M   'P 1'
_cell_length_a   8.38553016
_cell_length_b   8.38582364
_cell_length_c   8.38553000
_cell_angle_alpha   109.61065671
_cell_angle_beta   109.61842896
_cell_angle_gamma   109.18355230
_symmetry_Int_Tables_number   1
_chemical_formula_structural   Ho12Mn2Tl2Zn
_chemical_formula_sum   'Ho12 Mn2 Tl2 Zn1'
_cell_volume   453.92512963
_cell_formula_units_Z   1
loop_
 _symmetry_equiv_pos_site_id
 _symmetry_equiv_pos_as_xyz
  1  'x, y, z'
loop_
 _atom_site_type_symbol
 _atom_site_label
 _atom_site_symmetry_multiplicity
 _atom_site_fract_x
 _atom_site_fract_y
 _atom_site_fract_z
 _atom_site_occupancy
  Ho  Ho0  1  0.444288  0.201990  0.242286  1
  Ho  Ho1  1  0.555712  0.798010  0.757714  1
  Ho  Ho2  1  0.959704  0.201990  0.757703  1
  Ho  Ho3  1  0.201963  0.959631  0.757668  1
  Ho  Ho4  1  0.040296  0.798010  0.242297  1
  Ho  Ho5  1  0.798037  0.040369  0.242332  1
  Ho  Ho6  1  0.201991  0.444307  0.242315  1
  Ho  Ho7  1  0.798009  0.555693  0.757685  1
  Ho  Ho8  1  0.305054  0.305116  0.610223  1
  Ho  Ho9  1  0.694946  0.694884  0.389777  1
  Ho  Ho10  1  0.305106  0.694884  0.999938  1
  Ho  Ho11  1  0.694894  0.305116  0.000062  1
  Mn  Mn12  1  0.391302  0.391334  0.000031  1
  Mn  Mn13  1  0.608698  0.608666  0.999969  1
  Tl  Tl14  1  0.500000  0.000000  0.500000  1
  Tl  Tl15  1  0.000000  0.500000  0.500000  1
  Zn  Zn16  1  0.000000  0.000000  0.000000  1
