# generated using pymatgen
data_Rb2Si3MoO9
_symmetry_space_group_name_H-M   'P 1'
_cell_length_a   7.07457000
_cell_length_b   7.07457011
_cell_length_c   10.31665800
_cell_angle_alpha   90.00000000
_cell_angle_beta   90.00000000
_cell_angle_gamma   119.99999892
_symmetry_Int_Tables_number   1
_chemical_formula_structural   Rb2Si3MoO9
_chemical_formula_sum   'Rb4 Si6 Mo2 O18'
_cell_volume   447.16702777
_cell_formula_units_Z   2
loop_
 _symmetry_equiv_pos_site_id
 _symmetry_equiv_pos_as_xyz
  1  'x, y, z'
loop_
 _atom_site_type_symbol
 _atom_site_label
 _atom_site_symmetry_multiplicity
 _atom_site_fract_x
 _atom_site_fract_y
 _atom_site_fract_z
 _atom_site_occupancy
  Rb  Rb0  1  0.333333  0.666667  0.060661  1
  Rb  Rb1  1  0.666667  0.333333  0.560661  1
  Rb  Rb2  1  0.333333  0.666667  0.439339  1
  Rb  Rb3  1  0.666667  0.333333  0.939339  1
  Si  Si4  1  0.616849  0.755875  0.750000  1
  Si  Si5  1  0.860974  0.616849  0.250000  1
  Si  Si6  1  0.755875  0.139026  0.250000  1
  Si  Si7  1  0.244125  0.860974  0.750000  1
  Si  Si8  1  0.139026  0.383151  0.750000  1
  Si  Si9  1  0.383151  0.244125  0.250000  1
  Mo  Mo10  1  0.000000  0.000000  0.000000  1
  Mo  Mo11  1  0.000000  0.000000  0.500000  1
  O  O12  1  0.252527  0.217974  0.383325  1
  O  O13  1  0.034553  0.252527  0.883325  1
  O  O14  1  0.217974  0.965447  0.883325  1
  O  O15  1  0.782026  0.034553  0.383325  1
  O  O16  1  0.965447  0.747473  0.383325  1
  O  O17  1  0.747473  0.782026  0.883325  1
  O  O18  1  0.747473  0.782026  0.616675  1
  O  O19  1  0.965447  0.747473  0.116675  1
  O  O20  1  0.782026  0.034553  0.116675  1
  O  O21  1  0.217974  0.965447  0.616675  1
  O  O22  1  0.034553  0.252527  0.616675  1
  O  O23  1  0.252527  0.217974  0.116675  1
  O  O24  1  0.497458  0.087905  0.250000  1
  O  O25  1  0.409553  0.497458  0.750000  1
  O  O26  1  0.087905  0.590447  0.750000  1
  O  O27  1  0.912095  0.409553  0.250000  1
  O  O28  1  0.590447  0.502542  0.250000  1
  O  O29  1  0.502542  0.912095  0.750000  1
