# generated using pymatgen
data_SrSmSn5Pd3
_symmetry_space_group_name_H-M   'P 1'
_cell_length_a   13.66097200
_cell_length_b   13.66097298
_cell_length_c   7.38333900
_cell_angle_alpha   90.00000000
_cell_angle_beta   90.00000000
_cell_angle_gamma   160.41569209
_symmetry_Int_Tables_number   1
_chemical_formula_structural   SrSmSn5Pd3
_chemical_formula_sum   'Sr2 Sm2 Sn10 Pd6'
_cell_volume   461.86142691
_cell_formula_units_Z   2
loop_
 _symmetry_equiv_pos_site_id
 _symmetry_equiv_pos_as_xyz
  1  'x, y, z'
loop_
 _atom_site_type_symbol
 _atom_site_label
 _atom_site_symmetry_multiplicity
 _atom_site_fract_x
 _atom_site_fract_y
 _atom_site_fract_z
 _atom_site_occupancy
  Sr  Sr0  1  0.172655  0.827345  0.750714  1
  Sr  Sr1  1  0.827345  0.172655  0.250714  1
  Sm  Sm2  1  0.478715  0.521285  0.740779  1
  Sm  Sm3  1  0.521285  0.478715  0.240779  1
  Sn  Sn4  1  0.881809  0.118191  0.735899  1
  Sn  Sn5  1  0.118191  0.881809  0.235899  1
  Sn  Sn6  1  0.702637  0.297363  0.053195  1
  Sn  Sn7  1  0.297363  0.702637  0.553195  1
  Sn  Sn8  1  0.596426  0.403574  0.602592  1
  Sn  Sn9  1  0.403574  0.596426  0.102592  1
  Sn  Sn10  1  0.953532  0.046468  0.404925  1
  Sn  Sn11  1  0.046468  0.953532  0.904925  1
  Sn  Sn12  1  0.288619  0.711381  0.970726  1
  Sn  Sn13  1  0.711381  0.288619  0.470726  1
  Pd  Pd14  1  0.050463  0.949537  0.520699  1
  Pd  Pd15  1  0.949537  0.050463  0.020699  1
  Pd  Pd16  1  0.778655  0.221345  0.768008  1
  Pd  Pd17  1  0.221345  0.778655  0.268008  1
  Pd  Pd18  1  0.398051  0.601949  0.480461  1
  Pd  Pd19  1  0.601949  0.398051  0.980461  1
