# generated using pymatgen
data_YbPa2(CoSn)3
_symmetry_space_group_name_H-M   'P 1'
_cell_length_a   7.16073500
_cell_length_b   7.29236776
_cell_length_c   3.92618300
_cell_angle_alpha   90.00000000
_cell_angle_beta   90.00000000
_cell_angle_gamma   119.40466527
_symmetry_Int_Tables_number   1
_chemical_formula_structural   YbPa2(CoSn)3
_chemical_formula_sum   'Yb1 Pa2 Co3 Sn3'
_cell_volume   178.60825468
_cell_formula_units_Z   1
loop_
 _symmetry_equiv_pos_site_id
 _symmetry_equiv_pos_as_xyz
  1  'x, y, z'
loop_
 _atom_site_type_symbol
 _atom_site_label
 _atom_site_symmetry_multiplicity
 _atom_site_fract_x
 _atom_site_fract_y
 _atom_site_fract_z
 _atom_site_occupancy
  Yb  Yb0  1  0.409373  0.000000  0.000000  1
  Pa  Pa1  1  0.000710  0.414773  0.000000  1
  Pa  Pa2  1  0.585936  0.585227  0.000000  1
  Co  Co3  1  0.694530  0.366070  0.500000  1
  Co  Co4  1  0.328459  0.633930  0.500000  1
  Co  Co5  1  0.980067  0.000000  0.000000  1
  Sn  Sn6  1  0.253396  0.240344  0.500000  1
  Sn  Sn7  1  0.013052  0.759656  0.500000  1
  Sn  Sn8  1  0.734477  0.000000  0.500000  1
