# generated using pymatgen
data_Y2MgNi7B2
_symmetry_space_group_name_H-M   'P 1'
_cell_length_a   5.04077033
_cell_length_b   5.04076998
_cell_length_c   7.63299695
_cell_angle_alpha   109.26660817
_cell_angle_beta   109.26660701
_cell_angle_gamma   59.83598223
_symmetry_Int_Tables_number   1
_chemical_formula_structural   Y2MgNi7B2
_chemical_formula_sum   'Y2 Mg1 Ni7 B2'
_cell_volume   155.06021562
_cell_formula_units_Z   1
loop_
 _symmetry_equiv_pos_site_id
 _symmetry_equiv_pos_as_xyz
  1  'x, y, z'
loop_
 _atom_site_type_symbol
 _atom_site_label
 _atom_site_symmetry_multiplicity
 _atom_site_fract_x
 _atom_site_fract_y
 _atom_site_fract_z
 _atom_site_occupancy
  Y  Y0  1  0.353111  0.353111  0.058904  1
  Y  Y1  1  0.504018  0.504018  0.511565  1
  Mg  Mg2  1  0.646156  0.646156  0.938659  1
  Ni  Ni3  1  0.998952  0.998952  0.997145  1
  Ni  Ni4  1  0.933136  0.933136  0.295520  1
  Ni  Ni5  1  0.933192  0.429202  0.295952  1
  Ni  Ni6  1  0.429202  0.933192  0.295952  1
  Ni  Ni7  1  0.571535  0.066141  0.703619  1
  Ni  Ni8  1  0.066141  0.571535  0.703619  1
  Ni  Ni9  1  0.066067  0.066067  0.703578  1
  B  B10  1  0.831641  0.831641  0.494636  1
  B  B11  1  0.166844  0.166844  0.500851  1
