# generated using pymatgen
data_TaTiMnV3
_symmetry_space_group_name_H-M   'P 1'
_cell_length_a   4.92268171
_cell_length_b   4.92268122
_cell_length_c   4.92268132
_cell_angle_alpha   61.16597074
_cell_angle_beta   61.16598061
_cell_angle_gamma   61.16597234
_symmetry_Int_Tables_number   1
_chemical_formula_structural   TaTiMnV3
_chemical_formula_sum   'Ta1 Ti1 Mn1 V3'
_cell_volume   86.56383638
_cell_formula_units_Z   1
loop_
 _symmetry_equiv_pos_site_id
 _symmetry_equiv_pos_as_xyz
  1  'x, y, z'
loop_
 _atom_site_type_symbol
 _atom_site_label
 _atom_site_symmetry_multiplicity
 _atom_site_fract_x
 _atom_site_fract_y
 _atom_site_fract_z
 _atom_site_occupancy
  Ta  Ta0  1  0.374553  0.374553  0.374553  1
  Ti  Ti1  1  0.625271  0.625271  0.625271  1
  Mn  Mn2  1  0.000003  0.000003  0.000003  1
  V  V3  1  0.999879  0.500415  0.999879  1
  V  V4  1  0.500415  0.999879  0.999879  1
  V  V5  1  0.999879  0.999879  0.500415  1
