# generated using pymatgen
data_Yb3Ce4SmRu6
_symmetry_space_group_name_H-M   'P 1'
_cell_length_a   8.19804327
_cell_length_b   8.10704574
_cell_length_c   6.01880818
_cell_angle_alpha   78.21316308
_cell_angle_beta   74.63265945
_cell_angle_gamma   117.65890914
_symmetry_Int_Tables_number   1
_chemical_formula_structural   Yb3Ce4SmRu6
_chemical_formula_sum   'Yb3 Ce4 Sm1 Ru6'
_cell_volume   315.56061350
_cell_formula_units_Z   1
loop_
 _symmetry_equiv_pos_site_id
 _symmetry_equiv_pos_as_xyz
  1  'x, y, z'
loop_
 _atom_site_type_symbol
 _atom_site_label
 _atom_site_symmetry_multiplicity
 _atom_site_fract_x
 _atom_site_fract_y
 _atom_site_fract_z
 _atom_site_occupancy
  Yb  Yb0  1  0.342115  0.331680  0.304334  1
  Yb  Yb1  1  0.104367  0.385511  0.846556  1
  Yb  Yb2  1  0.374952  0.095768  0.855567  1
  Ce  Ce3  1  0.163037  0.821881  0.493874  1
  Ce  Ce4  1  0.649548  0.656956  0.700861  1
  Ce  Ce5  1  0.847711  0.170264  0.486349  1
  Ce  Ce6  1  0.632664  0.911184  0.133920  1
  Sm  Sm7  1  0.882180  0.615977  0.147289  1
  Ru  Ru8  1  0.788483  0.444899  0.738012  1
  Ru  Ru9  1  0.990936  0.005903  0.255382  1
  Ru  Ru10  1  0.441021  0.791672  0.751356  1
  Ru  Ru11  1  0.595280  0.156001  0.262911  1
  Ru  Ru12  1  0.993314  0.998981  0.758162  1
  Ru  Ru13  1  0.194392  0.613323  0.265425  1
