# generated using pymatgen
data_KRb2HoBr6
_symmetry_space_group_name_H-M   'P 1'
_cell_length_a   8.19446431
_cell_length_b   8.19446435
_cell_length_c   8.38017542
_cell_angle_alpha   119.19847258
_cell_angle_beta   119.19846988
_cell_angle_gamma   60.39826955
_symmetry_Int_Tables_number   1
_chemical_formula_structural   KRb2HoBr6
_chemical_formula_sum   'K1 Rb2 Ho1 Br6'
_cell_volume   403.88429243
_cell_formula_units_Z   1
loop_
 _symmetry_equiv_pos_site_id
 _symmetry_equiv_pos_as_xyz
  1  'x, y, z'
loop_
 _atom_site_type_symbol
 _atom_site_label
 _atom_site_symmetry_multiplicity
 _atom_site_fract_x
 _atom_site_fract_y
 _atom_site_fract_z
 _atom_site_occupancy
  K  K0  1  0.500000  0.500000  0.500001  1
  Rb  Rb1  1  0.748941  0.748941  0.231710  1
  Rb  Rb2  1  0.251059  0.251059  0.768292  1
  Ho  Ho3  1  0.000000  0.000000  0.000000  1
  Br  Br4  1  0.702888  0.181225  0.167308  1
  Br  Br5  1  0.181225  0.702888  0.167308  1
  Br  Br6  1  0.226148  0.226148  0.327329  1
  Br  Br7  1  0.773852  0.773852  0.672671  1
  Br  Br8  1  0.818775  0.297113  0.832691  1
  Br  Br9  1  0.297113  0.818775  0.832691  1
