# generated using pymatgen
data_ErTm15(CdPt)4
_symmetry_space_group_name_H-M   'P 1'
_cell_length_a   9.56180084
_cell_length_b   9.56180067
_cell_length_c   9.56180000
_cell_angle_alpha   59.99809714
_cell_angle_beta   59.99809530
_cell_angle_gamma   59.99809488
_symmetry_Int_Tables_number   1
_chemical_formula_structural   ErTm15(CdPt)4
_chemical_formula_sum   'Er1 Tm15 Cd4 Pt4'
_cell_volume   618.13777812
_cell_formula_units_Z   1
loop_
 _symmetry_equiv_pos_site_id
 _symmetry_equiv_pos_as_xyz
  1  'x, y, z'
loop_
 _atom_site_type_symbol
 _atom_site_label
 _atom_site_symmetry_multiplicity
 _atom_site_fract_x
 _atom_site_fract_y
 _atom_site_fract_z
 _atom_site_occupancy
  Er  Er0  1  0.353014  0.353014  0.353014  1
  Tm  Tm1  1  0.352989  0.352989  0.941041  1
  Tm  Tm2  1  0.352989  0.941041  0.352989  1
  Tm  Tm3  1  0.941041  0.352989  0.352989  1
  Tm  Tm4  1  0.810966  0.189088  0.189088  1
  Tm  Tm5  1  0.189178  0.810833  0.810833  1
  Tm  Tm6  1  0.189088  0.810966  0.189088  1
  Tm  Tm7  1  0.810833  0.189178  0.810833  1
  Tm  Tm8  1  0.189088  0.189088  0.810966  1
  Tm  Tm9  1  0.810833  0.810833  0.189178  1
  Tm  Tm10  1  0.934891  0.565096  0.565096  1
  Tm  Tm11  1  0.565023  0.934976  0.934976  1
  Tm  Tm12  1  0.565096  0.934891  0.565096  1
  Tm  Tm13  1  0.934976  0.565023  0.934976  1
  Tm  Tm14  1  0.565096  0.565096  0.934891  1
  Tm  Tm15  1  0.934976  0.934976  0.565023  1
  Cd  Cd16  1  0.582475  0.582475  0.582475  1
  Cd  Cd17  1  0.582471  0.582471  0.252587  1
  Cd  Cd18  1  0.582471  0.252587  0.582471  1
  Cd  Cd19  1  0.252587  0.582471  0.582471  1
  Pt  Pt20  1  0.143513  0.143513  0.143513  1
  Pt  Pt21  1  0.143385  0.143385  0.569639  1
  Pt  Pt22  1  0.143385  0.569639  0.143385  1
  Pt  Pt23  1  0.569639  0.143385  0.143385  1
