# generated using pymatgen
data_La2GaIrBr2
_symmetry_space_group_name_H-M   'P 1'
_cell_length_a   4.37706100
_cell_length_b   4.37706210
_cell_length_c   11.14722500
_cell_angle_alpha   90.00000000
_cell_angle_beta   90.00000000
_cell_angle_gamma   119.99999925
_symmetry_Int_Tables_number   1
_chemical_formula_structural   La2GaIrBr2
_chemical_formula_sum   'La2 Ga1 Ir1 Br2'
_cell_volume   184.95356610
_cell_formula_units_Z   1
loop_
 _symmetry_equiv_pos_site_id
 _symmetry_equiv_pos_as_xyz
  1  'x, y, z'
loop_
 _atom_site_type_symbol
 _atom_site_label
 _atom_site_symmetry_multiplicity
 _atom_site_fract_x
 _atom_site_fract_y
 _atom_site_fract_z
 _atom_site_occupancy
  La  La0  1  0.000000  0.000000  0.175873  1
  La  La1  1  0.000000  0.000000  0.824770  1
  Ga  Ga2  1  0.333333  0.666667  0.998641  1
  Ir  Ir3  1  0.666666  0.333332  0.001366  1
  Br  Br4  1  0.333333  0.666667  0.346009  1
  Br  Br5  1  0.666666  0.333332  0.653342  1
