# generated using pymatgen
data_Pr4AgAu3
_symmetry_space_group_name_H-M   'P 1'
_cell_length_a   4.87226500
_cell_length_b   5.89617501
_cell_length_c   7.61915539
_cell_angle_alpha   90.01572940
_cell_angle_beta   90.00000000
_cell_angle_gamma   90.00000000
_symmetry_Int_Tables_number   1
_chemical_formula_structural   Pr4AgAu3
_chemical_formula_sum   'Pr4 Ag1 Au3'
_cell_volume   218.88100865
_cell_formula_units_Z   1
loop_
 _symmetry_equiv_pos_site_id
 _symmetry_equiv_pos_as_xyz
  1  'x, y, z'
loop_
 _atom_site_type_symbol
 _atom_site_label
 _atom_site_symmetry_multiplicity
 _atom_site_fract_x
 _atom_site_fract_y
 _atom_site_fract_z
 _atom_site_occupancy
  Pr  Pr0  1  0.250000  0.351249  0.690539  1
  Pr  Pr1  1  0.250000  0.152195  0.183617  1
  Pr  Pr2  1  0.750000  0.644549  0.309043  1
  Pr  Pr3  1  0.750000  0.851851  0.818176  1
  Ag  Ag4  1  0.250000  0.851513  0.536885  1
  Au  Au5  1  0.250000  0.656333  0.040595  1
  Au  Au6  1  0.750000  0.145539  0.461927  1
  Au  Au7  1  0.750000  0.346772  0.959218  1
