# generated using pymatgen
data_Er10Tl7In(PtAu)2
_symmetry_space_group_name_H-M   'P 1'
_cell_length_a   3.61925500
_cell_length_b   8.25132242
_cell_length_c   18.43904011
_cell_angle_alpha   90.00620916
_cell_angle_beta   90.00000000
_cell_angle_gamma   90.00000000
_symmetry_Int_Tables_number   1
_chemical_formula_structural   Er10Tl7In(PtAu)2
_chemical_formula_sum   'Er10 Tl7 In1 Pt2 Au2'
_cell_volume   550.65685152
_cell_formula_units_Z   1
loop_
 _symmetry_equiv_pos_site_id
 _symmetry_equiv_pos_as_xyz
  1  'x, y, z'
loop_
 _atom_site_type_symbol
 _atom_site_label
 _atom_site_symmetry_multiplicity
 _atom_site_fract_x
 _atom_site_fract_y
 _atom_site_fract_z
 _atom_site_occupancy
  Er  Er0  1  0.000000  0.118417  0.417473  1
  Er  Er1  1  0.000000  0.882732  0.581505  1
  Er  Er2  1  0.000000  0.385476  0.913895  1
  Er  Er3  1  0.000000  0.612827  0.086141  1
  Er  Er4  1  0.000000  0.256109  0.217478  1
  Er  Er5  1  0.000000  0.743387  0.783503  1
  Er  Er6  1  0.000000  0.267696  0.720343  1
  Er  Er7  1  0.000000  0.731741  0.279356  1
  Er  Er8  1  0.000000  0.999494  0.000016  1
  Er  Er9  1  0.000000  0.503213  0.499520  1
  Tl  Tl10  1  0.500000  0.422579  0.355325  1
  Tl  Tl11  1  0.500000  0.580972  0.645233  1
  Tl  Tl12  1  0.500000  0.078363  0.854668  1
  Tl  Tl13  1  0.500000  0.921064  0.145735  1
  Tl  Tl14  1  0.500000  0.292153  0.062348  1
  Tl  Tl15  1  0.500000  0.706173  0.938184  1
  Tl  Tl16  1  0.500000  0.210078  0.564865  1
  In  In17  1  0.500000  0.793201  0.433594  1
  Pt  Pt18  1  0.500000  0.470013  0.802863  1
  Pt  Pt19  1  0.500000  0.527957  0.197092  1
  Au  Au20  1  0.500000  0.027009  0.302221  1
  Au  Au21  1  0.500000  0.969346  0.698644  1
