# generated using pymatgen
data_Tb3Pr17Si15Hg
_symmetry_space_group_name_H-M   'P 1'
_cell_length_a   7.94579834
_cell_length_b   7.91847614
_cell_length_c   15.24366938
_cell_angle_alpha   90.04849369
_cell_angle_beta   89.63006869
_cell_angle_gamma   89.95679101
_symmetry_Int_Tables_number   1
_chemical_formula_structural   Tb3Pr17Si15Hg
_chemical_formula_sum   'Tb3 Pr17 Si15 Hg1'
_cell_volume   959.08994674
_cell_formula_units_Z   1
loop_
 _symmetry_equiv_pos_site_id
 _symmetry_equiv_pos_as_xyz
  1  'x, y, z'
loop_
 _atom_site_type_symbol
 _atom_site_label
 _atom_site_symmetry_multiplicity
 _atom_site_fract_x
 _atom_site_fract_y
 _atom_site_fract_z
 _atom_site_occupancy
  Tb  Tb0  1  0.309238  0.309804  0.999791  1
  Tb  Tb1  1  0.191523  0.810515  0.249681  1
  Tb  Tb2  1  0.799686  0.186614  0.752958  1
  Pr  Pr3  1  0.693242  0.690516  0.498112  1
  Pr  Pr4  1  0.373660  0.012550  0.448378  1
  Pr  Pr5  1  0.492116  0.869876  0.699659  1
  Pr  Pr6  1  0.510578  0.123380  0.197547  1
  Pr  Pr7  1  0.878389  0.488645  0.300409  1
  Pr  Pr8  1  0.119027  0.518109  0.803685  1
  Pr  Pr9  1  0.626389  0.987647  0.951040  1
  Pr  Pr10  1  0.001378  0.382465  0.547489  1
  Pr  Pr11  1  0.990487  0.625621  0.053023  1
  Pr  Pr12  1  0.130006  0.980912  0.879371  1
  Pr  Pr13  1  0.520059  0.629761  0.126719  1
  Pr  Pr14  1  0.484939  0.376462  0.626939  1
  Pr  Pr15  1  0.628676  0.520791  0.876277  1
  Pr  Pr16  1  0.373821  0.482021  0.371224  1
  Pr  Pr17  1  0.872790  0.020343  0.375773  1
  Pr  Pr18  1  0.982302  0.127653  0.123631  1
  Pr  Pr19  1  0.010245  0.860880  0.620648  1
  Si  Si20  1  0.329855  0.691708  0.954336  1
  Si  Si21  1  0.663361  0.302543  0.450924  1
  Si  Si22  1  0.695370  0.331517  0.048009  1
  Si  Si23  1  0.306354  0.669755  0.545552  1
  Si  Si24  1  0.809471  0.830658  0.203410  1
  Si  Si25  1  0.170739  0.192652  0.297086  1
  Si  Si26  1  0.832434  0.808137  0.798282  1
  Si  Si27  1  0.286769  0.923438  0.062773  1
  Si  Si28  1  0.576436  0.788622  0.309165  1
  Si  Si29  1  0.436508  0.210150  0.817515  1
  Si  Si30  1  0.786373  0.574610  0.692225  1
  Si  Si31  1  0.214316  0.422864  0.187782  1
  Si  Si32  1  0.710288  0.080588  0.561820  1
  Si  Si33  1  0.924651  0.288398  0.939068  1
  Si  Si34  1  0.082149  0.714496  0.435643  1
  Hg  Hg35  1  0.186374  0.165300  0.694055  1
