# generated using pymatgen
data_YHo2Er9ZnGaCo4
_symmetry_space_group_name_H-M   'P 1'
_cell_length_a   8.19318726
_cell_length_b   8.19160304
_cell_length_c   8.19154127
_cell_angle_alpha   111.95755560
_cell_angle_beta   109.70651790
_cell_angle_gamma   106.78485128
_symmetry_Int_Tables_number   1
_chemical_formula_structural   YHo2Er9ZnGaCo4
_chemical_formula_sum   'Y1 Ho2 Er9 Zn1 Ga1 Co4'
_cell_volume   422.38676429
_cell_formula_units_Z   1
loop_
 _symmetry_equiv_pos_site_id
 _symmetry_equiv_pos_as_xyz
  1  'x, y, z'
loop_
 _atom_site_type_symbol
 _atom_site_label
 _atom_site_symmetry_multiplicity
 _atom_site_fract_x
 _atom_site_fract_y
 _atom_site_fract_z
 _atom_site_occupancy
  Y  Y0  1  0.956792  0.261584  0.695183  1
  Ho  Ho1  1  0.180624  0.219876  0.399796  1
  Ho  Ho2  1  0.819522  0.219738  0.040244  1
  Er  Er3  1  0.041921  0.737823  0.304110  1
  Er  Er4  1  0.672868  0.861759  0.187986  1
  Er  Er5  1  0.326982  0.515858  0.189435  1
  Er  Er6  1  0.326735  0.137325  0.811133  1
  Er  Er7  1  0.673096  0.485079  0.811127  1
  Er  Er8  1  0.566200  0.262245  0.303956  1
  Er  Er9  1  0.433252  0.737589  0.695663  1
  Er  Er10  1  0.180432  0.780692  0.960542  1
  Er  Er11  1  0.819718  0.779277  0.600063  1
  Zn  Zn12  1  0.000067  0.500941  0.499712  1
  Ga  Ga13  1  0.499304  0.999726  0.499623  1
  Co  Co14  1  0.116161  0.115163  0.000411  1
  Co  Co15  1  0.884033  0.883833  0.999611  1
  Co  Co16  1  0.663405  0.500189  0.163519  1
  Co  Co17  1  0.338892  0.501300  0.837886  1
