# generated using pymatgen
data_Ho2MgSi5PPd20
_symmetry_space_group_name_H-M   'P 1'
_cell_length_a   8.67704749
_cell_length_b   8.67704737
_cell_length_c   8.67512500
_cell_angle_alpha   60.00732462
_cell_angle_beta   60.00732508
_cell_angle_gamma   59.98544806
_symmetry_Int_Tables_number   1
_chemical_formula_structural   Ho2MgSi5PPd20
_chemical_formula_sum   'Ho2 Mg1 Si5 P1 Pd20'
_cell_volume   461.85427186
_cell_formula_units_Z   1
loop_
 _symmetry_equiv_pos_site_id
 _symmetry_equiv_pos_as_xyz
  1  'x, y, z'
loop_
 _atom_site_type_symbol
 _atom_site_label
 _atom_site_symmetry_multiplicity
 _atom_site_fract_x
 _atom_site_fract_y
 _atom_site_fract_z
 _atom_site_occupancy
  Ho  Ho0  1  0.249594  0.249597  0.250405  1
  Ho  Ho1  1  0.749596  0.749596  0.750404  1
  Mg  Mg2  1  0.000917  0.000916  0.999084  1
  Si  Si3  1  0.733659  0.265139  0.266341  1
  Si  Si4  1  0.265139  0.733659  0.734861  1
  Si  Si5  1  0.265139  0.733659  0.266341  1
  Si  Si6  1  0.733659  0.265139  0.734861  1
  Si  Si7  1  0.266120  0.266119  0.733881  1
  P  P8  1  0.734708  0.734708  0.265292  1
  Pd  Pd9  1  0.383627  0.383628  0.383327  1
  Pd  Pd10  1  0.616743  0.616743  0.614707  1
  Pd  Pd11  1  0.383627  0.383628  0.849418  1
  Pd  Pd12  1  0.385293  0.848193  0.383257  1
  Pd  Pd13  1  0.616743  0.616743  0.151807  1
  Pd  Pd14  1  0.616673  0.150580  0.616373  1
  Pd  Pd15  1  0.848192  0.385294  0.383257  1
  Pd  Pd16  1  0.150581  0.616674  0.616373  1
  Pd  Pd17  1  0.344462  0.000098  0.999901  1
  Pd  Pd18  1  0.656382  0.998015  0.001985  1
  Pd  Pd19  1  0.000099  0.344461  0.655538  1
  Pd  Pd20  1  0.998016  0.656383  0.343617  1
  Pd  Pd21  1  0.000099  0.344461  0.999902  1
  Pd  Pd22  1  0.656382  0.998015  0.343618  1
  Pd  Pd23  1  0.998016  0.656383  0.001985  1
  Pd  Pd24  1  0.344462  0.000098  0.655539  1
  Pd  Pd25  1  0.000518  0.000518  0.344244  1
  Pd  Pd26  1  0.000518  0.000518  0.654720  1
  Pd  Pd27  1  0.655756  0.345279  0.999482  1
  Pd  Pd28  1  0.345281  0.655757  0.999481  1
