# generated using pymatgen
data_Tb6HoSn23Os6
_symmetry_space_group_name_H-M   'P 1'
_cell_length_a   9.87959516
_cell_length_b   9.87959512
_cell_length_c   10.14281392
_cell_angle_alpha   90.11023382
_cell_angle_beta   89.88975821
_cell_angle_gamma   120.10730909
_symmetry_Int_Tables_number   1
_chemical_formula_structural   Tb6HoSn23Os6
_chemical_formula_sum   'Tb6 Ho1 Sn23 Os6'
_cell_volume   856.43752472
_cell_formula_units_Z   1
loop_
 _symmetry_equiv_pos_site_id
 _symmetry_equiv_pos_as_xyz
  1  'x, y, z'
loop_
 _atom_site_type_symbol
 _atom_site_label
 _atom_site_symmetry_multiplicity
 _atom_site_fract_x
 _atom_site_fract_y
 _atom_site_fract_z
 _atom_site_occupancy
  Tb  Tb0  1  0.999722  0.000278  0.000206  1
  Tb  Tb1  1  0.515267  0.484733  0.698021  1
  Tb  Tb2  1  0.484718  0.969206  0.301991  1
  Tb  Tb3  1  0.515161  0.030814  0.697965  1
  Tb  Tb4  1  0.030794  0.515282  0.301991  1
  Tb  Tb5  1  0.969186  0.484839  0.697965  1
  Ho  Ho6  1  0.485694  0.514306  0.301242  1
  Sn  Sn7  1  0.349760  0.000555  0.000306  1
  Sn  Sn8  1  0.650114  0.999639  0.999763  1
  Sn  Sn9  1  0.000361  0.349886  0.999763  1
  Sn  Sn10  1  0.999445  0.650240  0.000306  1
  Sn  Sn11  1  0.650146  0.650308  0.000014  1
  Sn  Sn12  1  0.349692  0.349854  0.000014  1
  Sn  Sn13  1  0.333236  0.666764  0.824715  1
  Sn  Sn14  1  0.666820  0.333180  0.175424  1
  Sn  Sn15  1  0.999931  0.000069  0.499907  1
  Sn  Sn16  1  0.780470  0.219530  0.462369  1
  Sn  Sn17  1  0.219408  0.780592  0.537620  1
  Sn  Sn18  1  0.779956  0.560574  0.462288  1
  Sn  Sn19  1  0.220020  0.439533  0.537372  1
  Sn  Sn20  1  0.439426  0.220044  0.462288  1
  Sn  Sn21  1  0.560467  0.779980  0.537372  1
  Sn  Sn22  1  0.334562  0.665438  0.128287  1
  Sn  Sn23  1  0.666311  0.333689  0.872268  1
  Sn  Sn24  1  0.117473  0.882527  0.275662  1
  Sn  Sn25  1  0.882297  0.117703  0.724185  1
  Sn  Sn26  1  0.117322  0.234917  0.275773  1
  Sn  Sn27  1  0.883264  0.765874  0.724381  1
  Sn  Sn28  1  0.765083  0.882678  0.275773  1
  Sn  Sn29  1  0.234126  0.116736  0.724381  1
  Os  Os30  1  0.829930  0.170070  0.201646  1
  Os  Os31  1  0.170209  0.829791  0.798520  1
  Os  Os32  1  0.828910  0.659688  0.202402  1
  Os  Os33  1  0.170408  0.340004  0.797711  1
  Os  Os34  1  0.340312  0.171090  0.202402  1
  Os  Os35  1  0.659996  0.829592  0.797711  1
