# generated using pymatgen
data_Pr4Ag3Au10
_symmetry_space_group_name_H-M   'P 1'
_cell_length_a   8.76369578
_cell_length_b   8.76368632
_cell_length_c   10.34477600
_cell_angle_alpha   90.00036279
_cell_angle_beta   90.00044226
_cell_angle_gamma   109.24343343
_symmetry_Int_Tables_number   1
_chemical_formula_structural   Pr4Ag3Au10
_chemical_formula_sum   'Pr8 Ag6 Au20'
_cell_volume   750.11099975
_cell_formula_units_Z   2
loop_
 _symmetry_equiv_pos_site_id
 _symmetry_equiv_pos_as_xyz
  1  'x, y, z'
loop_
 _atom_site_type_symbol
 _atom_site_label
 _atom_site_symmetry_multiplicity
 _atom_site_fract_x
 _atom_site_fract_y
 _atom_site_fract_z
 _atom_site_occupancy
  Pr  Pr0  1  0.701838  0.298160  0.000004  1
  Pr  Pr1  1  0.201841  0.798159  0.500001  1
  Pr  Pr2  1  0.797953  0.797955  0.297556  1
  Pr  Pr3  1  0.297968  0.297968  0.202464  1
  Pr  Pr4  1  0.798159  0.201841  0.499999  1
  Pr  Pr5  1  0.298162  0.701840  0.999996  1
  Pr  Pr6  1  0.702032  0.702032  0.797536  1
  Pr  Pr7  1  0.202047  0.202045  0.702444  1
  Ag  Ag8  1  0.524635  0.024626  0.249981  1
  Ag  Ag9  1  0.975369  0.475364  0.750023  1
  Ag  Ag10  1  0.000000  0.000000  0.000000  1
  Ag  Ag11  1  0.024631  0.524636  0.249977  1
  Ag  Ag12  1  0.475365  0.975374  0.750019  1
  Ag  Ag13  1  0.500000  0.500000  0.500000  1
  Au  Au14  1  0.153022  0.431996  0.481901  1
  Au  Au15  1  0.903443  0.903444  0.593785  1
  Au  Au16  1  0.568005  0.846976  0.518098  1
  Au  Au17  1  0.892916  0.167295  0.207466  1
  Au  Au18  1  0.392926  0.667330  0.292521  1
  Au  Au19  1  0.667329  0.392928  0.292523  1
  Au  Au20  1  0.403419  0.403418  0.906238  1
  Au  Au21  1  0.931998  0.653044  0.018058  1
  Au  Au22  1  0.332671  0.607072  0.707477  1
  Au  Au23  1  0.346957  0.068003  0.981941  1
  Au  Au24  1  0.596581  0.596582  0.093762  1
  Au  Au25  1  0.653043  0.931997  0.018059  1
  Au  Au26  1  0.096557  0.096556  0.406215  1
  Au  Au27  1  0.607074  0.332670  0.707479  1
  Au  Au28  1  0.107084  0.832705  0.792534  1
  Au  Au29  1  0.068002  0.346956  0.981942  1
  Au  Au30  1  0.846978  0.568004  0.518099  1
  Au  Au31  1  0.167297  0.892914  0.207465  1
  Au  Au32  1  0.431995  0.153024  0.481902  1
  Au  Au33  1  0.832703  0.107086  0.792535  1
