# generated using pymatgen
data_TbSm9B2I15
_symmetry_space_group_name_H-M   'P 1'
_cell_length_a   9.77965450
_cell_length_b   10.51950101
_cell_length_c   11.47086498
_cell_angle_alpha   91.70325548
_cell_angle_beta   114.40123047
_cell_angle_gamma   110.44267629
_symmetry_Int_Tables_number   1
_chemical_formula_structural   TbSm9B2I15
_chemical_formula_sum   'Tb1 Sm9 B2 I15'
_cell_volume   985.83573150
_cell_formula_units_Z   1
loop_
 _symmetry_equiv_pos_site_id
 _symmetry_equiv_pos_as_xyz
  1  'x, y, z'
loop_
 _atom_site_type_symbol
 _atom_site_label
 _atom_site_symmetry_multiplicity
 _atom_site_fract_x
 _atom_site_fract_y
 _atom_site_fract_z
 _atom_site_occupancy
  Tb  Tb0  1  0.293689  0.930234  0.954779  1
  Sm  Sm1  1  0.787365  0.397007  0.269481  1
  Sm  Sm2  1  0.211272  0.602359  0.729813  1
  Sm  Sm3  1  0.664201  0.750286  0.823931  1
  Sm  Sm4  1  0.334528  0.249473  0.176139  1
  Sm  Sm5  1  0.523301  0.710069  0.087656  1
  Sm  Sm6  1  0.476132  0.289665  0.912172  1
  Sm  Sm7  1  0.581719  0.042229  0.312627  1
  Sm  Sm8  1  0.417316  0.957373  0.687025  1
  Sm  Sm9  1  0.712027  0.071208  0.046117  1
  B  B10  1  0.466274  0.821279  0.878503  1
  B  B11  1  0.530716  0.177518  0.120691  1
  I  I12  1  0.001857  0.998744  0.999272  1
  I  I13  1  0.638909  0.882615  0.581521  1
  I  I14  1  0.360304  0.116926  0.418303  1
  I  I15  1  0.885495  0.298862  0.532170  1
  I  I16  1  0.113978  0.700855  0.467481  1
  I  I17  1  0.282162  0.760809  0.175080  1
  I  I18  1  0.715481  0.240909  0.821046  1
  I  I19  1  0.057256  0.342337  0.226490  1
  I  I20  1  0.158022  0.054134  0.704401  1
  I  I21  1  0.841456  0.943278  0.298811  1
  I  I22  1  0.225238  0.408453  0.941923  1
  I  I23  1  0.774149  0.591284  0.057895  1
  I  I24  1  0.408105  0.458597  0.657008  1
  I  I25  1  0.591431  0.541159  0.342940  1
  I  I26  1  0.947617  0.662341  0.776726  1
