# generated using pymatgen
data_Sr3Ag(PRh3)2
_symmetry_space_group_name_H-M   'P 1'
_cell_length_a   5.76632400
_cell_length_b   5.76632344
_cell_length_c   15.87346000
_cell_angle_alpha   90.00000000
_cell_angle_beta   90.00000000
_cell_angle_gamma   119.99999174
_symmetry_Int_Tables_number   1
_chemical_formula_structural   Sr3Ag(PRh3)2
_chemical_formula_sum   'Sr6 Ag2 P4 Rh12'
_cell_volume   457.08851539
_cell_formula_units_Z   2
loop_
 _symmetry_equiv_pos_site_id
 _symmetry_equiv_pos_as_xyz
  1  'x, y, z'
loop_
 _atom_site_type_symbol
 _atom_site_label
 _atom_site_symmetry_multiplicity
 _atom_site_fract_x
 _atom_site_fract_y
 _atom_site_fract_z
 _atom_site_occupancy
  Sr  Sr0  1  0.666667  0.333333  0.959747  1
  Sr  Sr1  1  0.666667  0.333333  0.540253  1
  Sr  Sr2  1  0.333333  0.666667  0.040253  1
  Sr  Sr3  1  0.666667  0.333333  0.750000  1
  Sr  Sr4  1  0.333333  0.666667  0.459747  1
  Sr  Sr5  1  0.333333  0.666667  0.250000  1
  Ag  Ag6  1  0.000000  0.000000  0.500000  1
  Ag  Ag7  1  0.000000  0.000000  0.000000  1
  P  P8  1  0.666667  0.333333  0.250000  1
  P  P9  1  0.000000  0.000000  0.250000  1
  P  P10  1  0.000000  0.000000  0.750000  1
  P  P11  1  0.333333  0.666667  0.750000  1
  Rh  Rh12  1  0.166634  0.333267  0.850573  1
  Rh  Rh13  1  0.166634  0.333267  0.649427  1
  Rh  Rh14  1  0.666733  0.833366  0.850573  1
  Rh  Rh15  1  0.333267  0.166634  0.350573  1
  Rh  Rh16  1  0.833366  0.666733  0.350573  1
  Rh  Rh17  1  0.833366  0.166634  0.350573  1
  Rh  Rh18  1  0.833366  0.166634  0.149427  1
  Rh  Rh19  1  0.333267  0.166634  0.149427  1
  Rh  Rh20  1  0.666733  0.833366  0.649427  1
  Rh  Rh21  1  0.166634  0.833366  0.649427  1
  Rh  Rh22  1  0.833366  0.666733  0.149427  1
  Rh  Rh23  1  0.166634  0.833366  0.850573  1
