# generated using pymatgen
data_La5In4AgRh
_symmetry_space_group_name_H-M   'P 1'
_cell_length_a   3.81699700
_cell_length_b   8.48654900
_cell_length_c   19.09963300
_cell_angle_alpha   90.00000000
_cell_angle_beta   90.00000000
_cell_angle_gamma   90.00000000
_symmetry_Int_Tables_number   1
_chemical_formula_structural   La5In4AgRh
_chemical_formula_sum   'La10 In8 Ag2 Rh2'
_cell_volume   618.69693432
_cell_formula_units_Z   2
loop_
 _symmetry_equiv_pos_site_id
 _symmetry_equiv_pos_as_xyz
  1  'x, y, z'
loop_
 _atom_site_type_symbol
 _atom_site_label
 _atom_site_symmetry_multiplicity
 _atom_site_fract_x
 _atom_site_fract_y
 _atom_site_fract_z
 _atom_site_occupancy
  La  La0  1  0.500000  0.379701  0.584040  1
  La  La1  1  0.500000  0.873241  0.924113  1
  La  La2  1  0.500000  0.120299  0.084040  1
  La  La3  1  0.500000  0.733630  0.716691  1
  La  La4  1  0.500000  0.278885  0.777286  1
  La  La5  1  0.500000  0.497976  0.000858  1
  La  La6  1  0.500000  0.766370  0.216691  1
  La  La7  1  0.500000  0.221115  0.277286  1
  La  La8  1  0.500000  0.002024  0.500858  1
  La  La9  1  0.500000  0.626759  0.424113  1
  In  In10  1  0.000000  0.791497  0.070598  1
  In  In11  1  0.000000  0.928024  0.350536  1
  In  In12  1  0.000000  0.069928  0.649800  1
  In  In13  1  0.000000  0.571976  0.850536  1
  In  In14  1  0.000000  0.708503  0.570598  1
  In  In15  1  0.000000  0.206334  0.929123  1
  In  In16  1  0.000000  0.293666  0.429123  1
  In  In17  1  0.000000  0.430072  0.149800  1
  Ag  Ag18  1  0.000000  0.978737  0.800761  1
  Ag  Ag19  1  0.000000  0.521263  0.300761  1
  Rh  Rh20  1  0.000000  0.483495  0.696195  1
  Rh  Rh21  1  0.000000  0.016505  0.196195  1
