# generated using pymatgen
data_Y12ZnCo2Si2Sn
_symmetry_space_group_name_H-M   'P 1'
_cell_length_a   8.46789259
_cell_length_b   8.46789351
_cell_length_c   8.46789355
_cell_angle_alpha   113.35057481
_cell_angle_beta   110.89481391
_cell_angle_gamma   104.29950161
_symmetry_Int_Tables_number   1
_chemical_formula_structural   Y12ZnCo2Si2Sn
_chemical_formula_sum   'Y12 Zn1 Co2 Si2 Sn1'
_cell_volume   464.35939263
_cell_formula_units_Z   1
loop_
 _symmetry_equiv_pos_site_id
 _symmetry_equiv_pos_as_xyz
  1  'x, y, z'
loop_
 _atom_site_type_symbol
 _atom_site_label
 _atom_site_symmetry_multiplicity
 _atom_site_fract_x
 _atom_site_fract_y
 _atom_site_fract_z
 _atom_site_occupancy
  Y  Y0  1  0.430663  0.236088  0.194575  1
  Y  Y1  1  0.569337  0.763912  0.805425  1
  Y  Y2  1  0.041514  0.236088  0.805425  1
  Y  Y3  1  0.958486  0.763912  0.194575  1
  Y  Y4  1  0.184322  0.283135  0.467457  1
  Y  Y5  1  0.815678  0.716865  0.532543  1
  Y  Y6  1  0.184322  0.716865  0.901187  1
  Y  Y7  1  0.815678  0.283135  0.098813  1
  Y  Y8  1  0.305710  0.618889  0.313179  1
  Y  Y9  1  0.694290  0.381111  0.686821  1
  Y  Y10  1  0.305710  0.992531  0.686821  1
  Y  Y11  1  0.694290  0.007469  0.313179  1
  Zn  Zn12  1  0.000000  0.000000  0.000000  1
  Co  Co13  1  0.106787  0.606787  0.500000  1
  Co  Co14  1  0.893213  0.393213  0.500000  1
  Si  Si15  1  0.358541  0.000000  0.358541  1
  Si  Si16  1  0.641459  0.000000  0.641459  1
  Sn  Sn17  1  0.500000  0.500000  0.000000  1
