# generated using pymatgen
data_La5SnTe4
_symmetry_space_group_name_H-M   'P 1'
_cell_length_a   7.89498094
_cell_length_b   7.89498142
_cell_length_c   7.89498100
_cell_angle_alpha   99.49585163
_cell_angle_beta   99.49586693
_cell_angle_gamma   132.07072650
_symmetry_Int_Tables_number   1
_chemical_formula_structural   La5SnTe4
_chemical_formula_sum   'La5 Sn1 Te4'
_cell_volume   333.80498862
_cell_formula_units_Z   1
loop_
 _symmetry_equiv_pos_site_id
 _symmetry_equiv_pos_as_xyz
  1  'x, y, z'
loop_
 _atom_site_type_symbol
 _atom_site_label
 _atom_site_symmetry_multiplicity
 _atom_site_fract_x
 _atom_site_fract_y
 _atom_site_fract_z
 _atom_site_occupancy
  La  La0  1  0.403214  0.798097  0.201311  1
  La  La1  1  0.000000  0.000000  0.000000  1
  La  La2  1  0.596786  0.201903  0.798689  1
  La  La3  1  0.201903  0.403214  0.605117  1
  La  La4  1  0.798097  0.596786  0.394883  1
  Sn  Sn5  1  0.500000  0.500000  0.000000  1
  Te  Te6  1  0.101279  0.700710  0.801988  1
  Te  Te7  1  0.700710  0.898721  0.599429  1
  Te  Te8  1  0.299290  0.101279  0.400571  1
  Te  Te9  1  0.898721  0.299290  0.198012  1
