# generated using pymatgen
data_YTm3Si4TcRh3
_symmetry_space_group_name_H-M   'P 1'
_cell_length_a   4.26559100
_cell_length_b   6.90261446
_cell_length_c   7.28059812
_cell_angle_alpha   89.84784450
_cell_angle_beta   90.00000000
_cell_angle_gamma   90.00000000
_symmetry_Int_Tables_number   1
_chemical_formula_structural   YTm3Si4TcRh3
_chemical_formula_sum   'Y1 Tm3 Si4 Tc1 Rh3'
_cell_volume   214.36721022
_cell_formula_units_Z   1
loop_
 _symmetry_equiv_pos_site_id
 _symmetry_equiv_pos_as_xyz
  1  'x, y, z'
loop_
 _atom_site_type_symbol
 _atom_site_label
 _atom_site_symmetry_multiplicity
 _atom_site_fract_x
 _atom_site_fract_y
 _atom_site_fract_z
 _atom_site_occupancy
  Y  Y0  1  0.250000  0.498707  0.684571  1
  Tm  Tm1  1  0.750000  0.500656  0.311887  1
  Tm  Tm2  1  0.250000  0.990713  0.810618  1
  Tm  Tm3  1  0.750000  0.005945  0.190760  1
  Si  Si4  1  0.250000  0.298195  0.103881  1
  Si  Si5  1  0.250000  0.798195  0.386037  1
  Si  Si6  1  0.750000  0.704175  0.902192  1
  Si  Si7  1  0.750000  0.200917  0.608768  1
  Tc  Tc8  1  0.250000  0.656534  0.069874  1
  Rh  Rh9  1  0.250000  0.155858  0.432728  1
  Rh  Rh10  1  0.750000  0.847456  0.566100  1
  Rh  Rh11  1  0.750000  0.342648  0.932581  1
