# generated using pymatgen
data_Dy8SiPt24
_symmetry_space_group_name_H-M   'P 1'
_cell_length_a   8.34645600
_cell_length_b   8.34645600
_cell_length_c   8.34645600
_cell_angle_alpha   90.00000000
_cell_angle_beta   90.00000000
_cell_angle_gamma   90.00000000
_symmetry_Int_Tables_number   1
_chemical_formula_structural   Dy8SiPt24
_chemical_formula_sum   'Dy8 Si1 Pt24'
_cell_volume   581.44189996
_cell_formula_units_Z   1
loop_
 _symmetry_equiv_pos_site_id
 _symmetry_equiv_pos_as_xyz
  1  'x, y, z'
loop_
 _atom_site_type_symbol
 _atom_site_label
 _atom_site_symmetry_multiplicity
 _atom_site_fract_x
 _atom_site_fract_y
 _atom_site_fract_z
 _atom_site_occupancy
  Dy  Dy0  1  0.253152  0.253152  0.253152  1
  Dy  Dy1  1  0.746848  0.746848  0.746848  1
  Dy  Dy2  1  0.746848  0.746848  0.253152  1
  Dy  Dy3  1  0.746848  0.253152  0.746848  1
  Dy  Dy4  1  0.253152  0.253152  0.746848  1
  Dy  Dy5  1  0.253152  0.746848  0.253152  1
  Dy  Dy6  1  0.253152  0.746848  0.746848  1
  Dy  Dy7  1  0.746848  0.253152  0.253152  1
  Si  Si8  1  0.000000  0.000000  0.000000  1
  Pt  Pt9  1  0.257785  0.500000  0.000000  1
  Pt  Pt10  1  0.742215  0.500000  0.000000  1
  Pt  Pt11  1  0.000000  0.257785  0.500000  1
  Pt  Pt12  1  0.500000  0.257785  0.000000  1
  Pt  Pt13  1  0.000000  0.742215  0.500000  1
  Pt  Pt14  1  0.500000  0.742215  0.000000  1
  Pt  Pt15  1  0.500000  0.000000  0.257785  1
  Pt  Pt16  1  0.257785  0.000000  0.500000  1
  Pt  Pt17  1  0.500000  0.000000  0.742215  1
  Pt  Pt18  1  0.742215  0.000000  0.500000  1
  Pt  Pt19  1  0.000000  0.500000  0.257785  1
  Pt  Pt20  1  0.000000  0.500000  0.742215  1
  Pt  Pt21  1  0.252243  0.500000  0.500000  1
  Pt  Pt22  1  0.747757  0.500000  0.500000  1
  Pt  Pt23  1  0.500000  0.252243  0.500000  1
  Pt  Pt24  1  0.500000  0.747757  0.500000  1
  Pt  Pt25  1  0.500000  0.500000  0.252243  1
  Pt  Pt26  1  0.500000  0.500000  0.747757  1
  Pt  Pt27  1  0.281875  0.000000  0.000000  1
  Pt  Pt28  1  0.718125  0.000000  0.000000  1
  Pt  Pt29  1  0.000000  0.281875  0.000000  1
  Pt  Pt30  1  0.000000  0.718125  0.000000  1
  Pt  Pt31  1  0.000000  0.000000  0.281875  1
  Pt  Pt32  1  0.000000  0.000000  0.718125  1
