# generated using pymatgen
data_NdTh3TlInPd4
_symmetry_space_group_name_H-M   'P 1'
_cell_length_a   8.02274805
_cell_length_b   8.02481378
_cell_length_c   3.80035700
_cell_angle_alpha   90.00000000
_cell_angle_beta   90.00000000
_cell_angle_gamma   88.99517427
_symmetry_Int_Tables_number   1
_chemical_formula_structural   NdTh3TlInPd4
_chemical_formula_sum   'Nd1 Th3 Tl1 In1 Pd4'
_cell_volume   244.63338375
_cell_formula_units_Z   1
loop_
 _symmetry_equiv_pos_site_id
 _symmetry_equiv_pos_as_xyz
  1  'x, y, z'
loop_
 _atom_site_type_symbol
 _atom_site_label
 _atom_site_symmetry_multiplicity
 _atom_site_fract_x
 _atom_site_fract_y
 _atom_site_fract_z
 _atom_site_occupancy
  Nd  Nd0  1  0.674197  0.176871  0.500000  1
  Th  Th1  1  0.329294  0.826325  0.500000  1
  Th  Th2  1  0.823523  0.671466  0.500000  1
  Th  Th3  1  0.174164  0.326323  0.500000  1
  Tl  Tl4  1  0.996001  0.000796  0.000000  1
  In  In5  1  0.500420  0.496165  0.000000  1
  Pd  Pd6  1  0.368153  0.125740  0.000000  1
  Pd  Pd7  1  0.879199  0.383356  0.000000  1
  Pd  Pd8  1  0.133592  0.629332  0.000000  1
  Pd  Pd9  1  0.621458  0.863628  0.000000  1
