# generated using pymatgen
data_Cs2KLu(AsSe2)6
_symmetry_space_group_name_H-M   'P 1'
_cell_length_a   10.06793300
_cell_length_b   10.06793384
_cell_length_c   8.31845500
_cell_angle_alpha   90.00000000
_cell_angle_beta   90.00000000
_cell_angle_gamma   120.00000534
_symmetry_Int_Tables_number   1
_chemical_formula_structural   Cs2KLu(AsSe2)6
_chemical_formula_sum   'Cs2 K1 Lu1 As6 Se12'
_cell_volume   730.22037992
_cell_formula_units_Z   1
loop_
 _symmetry_equiv_pos_site_id
 _symmetry_equiv_pos_as_xyz
  1  'x, y, z'
loop_
 _atom_site_type_symbol
 _atom_site_label
 _atom_site_symmetry_multiplicity
 _atom_site_fract_x
 _atom_site_fract_y
 _atom_site_fract_z
 _atom_site_occupancy
  Cs  Cs0  1  0.333333  0.666667  0.843079  1
  Cs  Cs1  1  0.666667  0.333333  0.156921  1
  K  K2  1  0.000000  0.000000  0.000000  1
  Lu  Lu3  1  0.000000  0.000000  0.500000  1
  As  As4  1  0.283065  0.834967  0.391519  1
  As  As5  1  0.165033  0.448098  0.391519  1
  As  As6  1  0.551902  0.716935  0.391519  1
  As  As7  1  0.716935  0.165033  0.608481  1
  As  As8  1  0.834967  0.551902  0.608481  1
  As  As9  1  0.448098  0.283065  0.608481  1
  Se  Se10  1  0.244481  0.037438  0.297912  1
  Se  Se11  1  0.962562  0.207044  0.297912  1
  Se  Se12  1  0.792956  0.755519  0.297912  1
  Se  Se13  1  0.755519  0.962562  0.702088  1
  Se  Se14  1  0.037438  0.792956  0.702088  1
  Se  Se15  1  0.207044  0.244481  0.702088  1
  Se  Se16  1  0.519812  0.907085  0.234098  1
  Se  Se17  1  0.092915  0.612726  0.234098  1
  Se  Se18  1  0.387274  0.480188  0.234098  1
  Se  Se19  1  0.480188  0.092915  0.765902  1
  Se  Se20  1  0.907085  0.387274  0.765902  1
  Se  Se21  1  0.612726  0.519812  0.765902  1
