# generated using pymatgen
data_Ce(PaSe3)2
_symmetry_space_group_name_H-M   'P 1'
_cell_length_a   7.78925901
_cell_length_b   7.78925951
_cell_length_c   4.17404300
_cell_angle_alpha   90.00000000
_cell_angle_beta   90.00000000
_cell_angle_gamma   119.99999420
_symmetry_Int_Tables_number   1
_chemical_formula_structural   Ce(PaSe3)2
_chemical_formula_sum   'Ce1 Pa2 Se6'
_cell_volume   219.32083673
_cell_formula_units_Z   1
loop_
 _symmetry_equiv_pos_site_id
 _symmetry_equiv_pos_as_xyz
  1  'x, y, z'
loop_
 _atom_site_type_symbol
 _atom_site_label
 _atom_site_symmetry_multiplicity
 _atom_site_fract_x
 _atom_site_fract_y
 _atom_site_fract_z
 _atom_site_occupancy
  Ce  Ce0  1  0.333333  0.666667  0.500000  1
  Pa  Pa1  1  0.666667  0.333333  0.500000  1
  Pa  Pa2  1  0.000000  0.000000  0.000000  1
  Se  Se3  1  0.743304  0.743451  0.500000  1
  Se  Se4  1  0.256549  0.999853  0.500000  1
  Se  Se5  1  0.000147  0.256696  0.500000  1
  Se  Se6  1  0.408801  0.394317  0.000000  1
  Se  Se7  1  0.605683  0.014484  0.000000  1
  Se  Se8  1  0.985516  0.591199  0.000000  1
