# generated using pymatgen
data_Zr8Ti12Si15Sn
_symmetry_space_group_name_H-M   'P 1'
_cell_length_a   6.90925447
_cell_length_b   6.88006135
_cell_length_c   12.60272253
_cell_angle_alpha   89.98433028
_cell_angle_beta   89.77706013
_cell_angle_gamma   89.93720722
_symmetry_Int_Tables_number   1
_chemical_formula_structural   Zr8Ti12Si15Sn
_chemical_formula_sum   'Zr8 Ti12 Si15 Sn1'
_cell_volume   599.07929455
_cell_formula_units_Z   1
loop_
 _symmetry_equiv_pos_site_id
 _symmetry_equiv_pos_as_xyz
  1  'x, y, z'
loop_
 _atom_site_type_symbol
 _atom_site_label
 _atom_site_symmetry_multiplicity
 _atom_site_fract_x
 _atom_site_fract_y
 _atom_site_fract_z
 _atom_site_occupancy
  Zr  Zr0  1  0.347241  0.995460  0.460810  1
  Zr  Zr1  1  0.508620  0.838464  0.719686  1
  Zr  Zr2  1  0.499334  0.155641  0.217432  1
  Zr  Zr3  1  0.844118  0.500221  0.281770  1
  Zr  Zr4  1  0.156341  0.507877  0.785758  1
  Zr  Zr5  1  0.658619  0.999382  0.969109  1
  Zr  Zr6  1  0.987832  0.352702  0.526111  1
  Zr  Zr7  1  0.002195  0.655934  0.033240  1
  Ti  Ti8  1  0.327662  0.328189  0.001329  1
  Ti  Ti9  1  0.173324  0.827869  0.249586  1
  Ti  Ti10  1  0.818682  0.172095  0.751895  1
  Ti  Ti11  1  0.671631  0.671848  0.499751  1
  Ti  Ti12  1  0.153257  0.003773  0.880033  1
  Ti  Ti13  1  0.496771  0.651785  0.123607  1
  Ti  Ti14  1  0.512429  0.354055  0.624023  1
  Ti  Ti15  1  0.654437  0.496994  0.878874  1
  Ti  Ti16  1  0.345890  0.504658  0.375747  1
  Ti  Ti17  1  0.845395  0.996215  0.372416  1
  Ti  Ti18  1  0.005419  0.152711  0.126189  1
  Ti  Ti19  1  0.981556  0.833661  0.622246  1
  Si  Si20  1  0.367927  0.706094  0.929397  1
  Si  Si21  1  0.631596  0.295171  0.426150  1
  Si  Si22  1  0.706568  0.364781  0.073345  1
  Si  Si23  1  0.293655  0.636170  0.572190  1
  Si  Si24  1  0.795827  0.865212  0.177352  1
  Si  Si25  1  0.133647  0.205375  0.321244  1
  Si  Si26  1  0.867649  0.796576  0.822879  1
  Si  Si27  1  0.295202  0.953536  0.066121  1
  Si  Si28  1  0.548666  0.790164  0.312599  1
  Si  Si29  1  0.459296  0.208177  0.819491  1
  Si  Si30  1  0.795125  0.543407  0.688272  1
  Si  Si31  1  0.207729  0.453555  0.185908  1
  Si  Si32  1  0.703718  0.047606  0.563774  1
  Si  Si33  1  0.954424  0.293895  0.935777  1
  Si  Si34  1  0.046935  0.709186  0.433150  1
  Sn  Sn35  1  0.201281  0.131567  0.672740  1
