# generated using pymatgen
data_LaPr5Zn4Pt13
_symmetry_space_group_name_H-M   'P 1'
_cell_length_a   8.44338811
_cell_length_b   8.44267088
_cell_length_c   8.44267081
_cell_angle_alpha   109.62702584
_cell_angle_beta   109.39655241
_cell_angle_gamma   109.39653628
_symmetry_Int_Tables_number   1
_chemical_formula_structural   LaPr5Zn4Pt13
_chemical_formula_sum   'La1 Pr5 Zn4 Pt13'
_cell_volume   463.25298873
_cell_formula_units_Z   1
loop_
 _symmetry_equiv_pos_site_id
 _symmetry_equiv_pos_as_xyz
  1  'x, y, z'
loop_
 _atom_site_type_symbol
 _atom_site_label
 _atom_site_symmetry_multiplicity
 _atom_site_fract_x
 _atom_site_fract_y
 _atom_site_fract_z
 _atom_site_occupancy
  La  La0  1  0.999982  0.698911  0.698911  1
  Pr  Pr1  1  0.698343  0.698561  0.000177  1
  Pr  Pr2  1  0.301658  0.000241  0.301857  1
  Pr  Pr3  1  0.000024  0.300817  0.300817  1
  Pr  Pr4  1  0.301658  0.301857  0.000241  1
  Pr  Pr5  1  0.698343  0.000177  0.698561  1
  Zn  Zn6  1  0.999999  0.000194  0.499595  1
  Zn  Zn7  1  0.999999  0.499595  0.000194  1
  Zn  Zn8  1  0.500598  0.000194  0.000194  1
  Zn  Zn9  1  0.499402  0.499595  0.499595  1
  Pt  Pt10  1  0.328648  0.328897  0.657495  1
  Pt  Pt11  1  0.671404  0.000254  0.328844  1
  Pt  Pt12  1  0.999997  0.671559  0.328300  1
  Pt  Pt13  1  0.671404  0.328844  0.000254  1
  Pt  Pt14  1  0.328648  0.657495  0.328897  1
  Pt  Pt15  1  0.999997  0.328300  0.671559  1
  Pt  Pt16  1  0.328793  0.671178  0.999964  1
  Pt  Pt17  1  0.328793  0.999964  0.671178  1
  Pt  Pt18  1  0.656805  0.328343  0.328343  1
  Pt  Pt19  1  0.671161  0.671129  0.342333  1
  Pt  Pt20  1  0.671161  0.342333  0.671129  1
  Pt  Pt21  1  0.343186  0.671508  0.671508  1
  Pt  Pt22  1  0.999999  0.000053  0.000053  1
