# generated using pymatgen
data_Zr6Zn17PAu6
_symmetry_space_group_name_H-M   'P 1'
_cell_length_a   8.86560567
_cell_length_b   8.86550078
_cell_length_c   8.86616300
_cell_angle_alpha   59.99827904
_cell_angle_beta   59.99829732
_cell_angle_gamma   60.03268060
_symmetry_Int_Tables_number   1
_chemical_formula_structural   Zr6Zn17PAu6
_chemical_formula_sum   'Zr6 Zn17 P1 Au6'
_cell_volume   492.86536756
_cell_formula_units_Z   1
loop_
 _symmetry_equiv_pos_site_id
 _symmetry_equiv_pos_as_xyz
  1  'x, y, z'
loop_
 _atom_site_type_symbol
 _atom_site_label
 _atom_site_symmetry_multiplicity
 _atom_site_fract_x
 _atom_site_fract_y
 _atom_site_fract_z
 _atom_site_occupancy
  Zr  Zr0  1  0.704911  0.296918  0.293084  1
  Zr  Zr1  1  0.704911  0.296918  0.705086  1
  Zr  Zr2  1  0.702928  0.702929  0.297071  1
  Zr  Zr3  1  0.296921  0.704909  0.705084  1
  Zr  Zr4  1  0.296922  0.704908  0.293087  1
  Zr  Zr5  1  0.292821  0.292821  0.707179  1
  Zn  Zn6  1  0.878396  0.878396  0.365280  1
  Zn  Zn7  1  0.878395  0.878398  0.877927  1
  Zn  Zn8  1  0.504839  0.999351  0.997916  1
  Zn  Zn9  1  0.504839  0.999352  0.497895  1
  Zn  Zn10  1  0.499784  0.499783  0.000215  1
  Zn  Zn11  1  0.999352  0.504839  0.497894  1
  Zn  Zn12  1  0.999351  0.504841  0.997917  1
  Zn  Zn13  1  0.997389  0.997392  0.502608  1
  Zn  Zn14  1  0.998845  0.998849  0.001151  1
  Zn  Zn15  1  0.995119  0.334948  0.334967  1
  Zn  Zn16  1  0.334946  0.995122  0.334967  1
  Zn  Zn17  1  0.334600  0.334601  0.995851  1
  Zn  Zn18  1  0.334601  0.334600  0.334948  1
  Zn  Zn19  1  0.005745  0.666215  0.664021  1
  Zn  Zn20  1  0.666214  0.005746  0.664021  1
  Zn  Zn21  1  0.666561  0.666561  0.002451  1
  Zn  Zn22  1  0.666560  0.666559  0.664424  1
  P  P23  1  0.497430  0.497424  0.502573  1
  Au  Au24  1  0.640181  0.116206  0.121806  1
  Au  Au25  1  0.116207  0.640182  0.121808  1
  Au  Au26  1  0.118932  0.118931  0.636801  1
  Au  Au27  1  0.118931  0.118930  0.125336  1
  Au  Au28  1  0.364099  0.879268  0.878316  1
  Au  Au29  1  0.879270  0.364101  0.878315  1
