# generated using pymatgen
data_Sr4YbHo(OsO6)2
_symmetry_space_group_name_H-M   'P 1'
_cell_length_a   5.79518445
_cell_length_b   5.87822245
_cell_length_c   10.04890467
_cell_angle_alpha   90.07527432
_cell_angle_beta   124.92250963
_cell_angle_gamma   90.01664020
_symmetry_Int_Tables_number   1
_chemical_formula_structural   Sr4YbHo(OsO6)2
_chemical_formula_sum   'Sr4 Yb1 Ho1 Os2 O12'
_cell_volume   280.67678124
_cell_formula_units_Z   1
loop_
 _symmetry_equiv_pos_site_id
 _symmetry_equiv_pos_as_xyz
  1  'x, y, z'
loop_
 _atom_site_type_symbol
 _atom_site_label
 _atom_site_symmetry_multiplicity
 _atom_site_fract_x
 _atom_site_fract_y
 _atom_site_fract_z
 _atom_site_occupancy
  Sr  Sr0  1  0.263711  0.036772  0.754726  1
  Sr  Sr1  1  0.254623  0.458449  0.245321  1
  Sr  Sr2  1  0.736289  0.963228  0.245274  1
  Sr  Sr3  1  0.745377  0.541551  0.754679  1
  Yb  Yb4  1  0.000000  0.000000  0.000000  1
  Ho  Ho5  1  0.000000  0.500000  0.500000  1
  Os  Os6  1  0.500000  0.000000  0.500000  1
  Os  Os7  1  0.500000  0.500000  0.000000  1
  O  O8  1  0.189968  0.479996  0.765105  1
  O  O9  1  0.195037  0.020936  0.270103  1
  O  O10  1  0.810032  0.520004  0.234895  1
  O  O11  1  0.804963  0.979064  0.729897  1
  O  O12  1  0.732326  0.199742  0.460916  1
  O  O13  1  0.729484  0.304597  0.962113  1
  O  O14  1  0.267674  0.800258  0.539084  1
  O  O15  1  0.270516  0.695403  0.037887  1
  O  O16  1  0.654375  0.727950  0.457976  1
  O  O17  1  0.650348  0.768181  0.958810  1
  O  O18  1  0.345625  0.272050  0.542024  1
  O  O19  1  0.349652  0.231819  0.041190  1
