# generated using pymatgen
data_Pr16Sm4Si15Cl
_symmetry_space_group_name_H-M   'P 1'
_cell_length_a   7.94988244
_cell_length_b   7.87511547
_cell_length_c   15.26604972
_cell_angle_alpha   89.52931181
_cell_angle_beta   89.16981495
_cell_angle_gamma   90.83091264
_symmetry_Int_Tables_number   1
_chemical_formula_structural   Pr16Sm4Si15Cl
_chemical_formula_sum   'Pr16 Sm4 Si15 Cl1'
_cell_volume   955.51526155
_cell_formula_units_Z   1
loop_
 _symmetry_equiv_pos_site_id
 _symmetry_equiv_pos_as_xyz
  1  'x, y, z'
loop_
 _atom_site_type_symbol
 _atom_site_label
 _atom_site_symmetry_multiplicity
 _atom_site_fract_x
 _atom_site_fract_y
 _atom_site_fract_z
 _atom_site_occupancy
  Pr  Pr0  1  0.381159  0.003149  0.442529  1
  Pr  Pr1  1  0.499695  0.860891  0.701016  1
  Pr  Pr2  1  0.510554  0.122325  0.196995  1
  Pr  Pr3  1  0.873265  0.484126  0.300069  1
  Pr  Pr4  1  0.123841  0.518555  0.801632  1
  Pr  Pr5  1  0.635279  0.986907  0.952520  1
  Pr  Pr6  1  0.996108  0.381839  0.546333  1
  Pr  Pr7  1  0.994764  0.624118  0.052181  1
  Pr  Pr8  1  0.142231  0.991134  0.873091  1
  Pr  Pr9  1  0.518980  0.630819  0.125211  1
  Pr  Pr10  1  0.474656  0.361504  0.631610  1
  Pr  Pr11  1  0.636886  0.521015  0.875988  1
  Pr  Pr12  1  0.365779  0.476817  0.375982  1
  Pr  Pr13  1  0.871233  0.019572  0.377571  1
  Pr  Pr14  1  0.984289  0.125847  0.123068  1
  Pr  Pr15  1  0.019085  0.873886  0.621414  1
  Sm  Sm16  1  0.312450  0.310311  0.998817  1
  Sm  Sm17  1  0.186508  0.807035  0.249381  1
  Sm  Sm18  1  0.796397  0.189681  0.753108  1
  Sm  Sm19  1  0.686450  0.686671  0.498605  1
  Si  Si20  1  0.333478  0.697526  0.948927  1
  Si  Si21  1  0.661703  0.305830  0.454675  1
  Si  Si22  1  0.701122  0.334944  0.050401  1
  Si  Si23  1  0.305524  0.666031  0.551299  1
  Si  Si24  1  0.806465  0.830063  0.203679  1
  Si  Si25  1  0.168967  0.191271  0.295674  1
  Si  Si26  1  0.843787  0.807676  0.796848  1
  Si  Si27  1  0.288845  0.923778  0.058988  1
  Si  Si28  1  0.575392  0.783265  0.310005  1
  Si  Si29  1  0.454082  0.207338  0.824180  1
  Si  Si30  1  0.790067  0.577070  0.686628  1
  Si  Si31  1  0.212364  0.424553  0.189219  1
  Si  Si32  1  0.705692  0.073067  0.562344  1
  Si  Si33  1  0.930197  0.291175  0.938669  1
  Si  Si34  1  0.074844  0.711715  0.439948  1
  Cl  Cl35  1  0.137860  0.198500  0.691398  1
