# generated using pymatgen
data_Dy3Y7(CoSb2)2
_symmetry_space_group_name_H-M   'P 1'
_cell_length_a   7.93004121
_cell_length_b   8.74901614
_cell_length_c   12.23399900
_cell_angle_alpha   90.00000000
_cell_angle_beta   90.00000000
_cell_angle_gamma   90.00241763
_symmetry_Int_Tables_number   1
_chemical_formula_structural   Dy3Y7(CoSb2)2
_chemical_formula_sum   'Dy6 Y14 Co4 Sb8'
_cell_volume   848.79556672
_cell_formula_units_Z   2
loop_
 _symmetry_equiv_pos_site_id
 _symmetry_equiv_pos_as_xyz
  1  'x, y, z'
loop_
 _atom_site_type_symbol
 _atom_site_label
 _atom_site_symmetry_multiplicity
 _atom_site_fract_x
 _atom_site_fract_y
 _atom_site_fract_z
 _atom_site_occupancy
  Dy  Dy0  1  0.178060  0.034738  0.934856  1
  Dy  Dy1  1  0.321940  0.465262  0.434856  1
  Dy  Dy2  1  0.177923  0.465207  0.934887  1
  Dy  Dy3  1  0.322077  0.034793  0.434887  1
  Dy  Dy4  1  0.822005  0.965637  0.065066  1
  Dy  Dy5  1  0.677995  0.534363  0.565066  1
  Y  Y6  1  0.154674  0.750218  0.203963  1
  Y  Y7  1  0.345326  0.749782  0.703963  1
  Y  Y8  1  0.845432  0.249963  0.796361  1
  Y  Y9  1  0.654568  0.250037  0.296361  1
  Y  Y10  1  0.455605  0.750344  0.998184  1
  Y  Y11  1  0.044395  0.749656  0.498184  1
  Y  Y12  1  0.543086  0.249550  0.001616  1
  Y  Y13  1  0.956914  0.250450  0.501616  1
  Y  Y14  1  0.622986  0.749942  0.305655  1
  Y  Y15  1  0.877014  0.750058  0.805655  1
  Y  Y16  1  0.376942  0.250234  0.694276  1
  Y  Y17  1  0.123058  0.249766  0.194276  1
  Y  Y18  1  0.821042  0.534507  0.065490  1
  Y  Y19  1  0.678958  0.965493  0.565490  1
  Co  Co20  1  0.435099  0.749535  0.490390  1
  Co  Co21  1  0.064901  0.750465  0.990390  1
  Co  Co22  1  0.563507  0.250981  0.509243  1
  Co  Co23  1  0.936493  0.249019  0.009243  1
  Sb  Sb24  1  0.928383  0.508141  0.326813  1
  Sb  Sb25  1  0.571617  0.991859  0.826813  1
  Sb  Sb26  1  0.071773  0.008164  0.672992  1
  Sb  Sb27  1  0.428227  0.491836  0.172992  1
  Sb  Sb28  1  0.071568  0.491890  0.673221  1
  Sb  Sb29  1  0.428432  0.008110  0.173221  1
  Sb  Sb30  1  0.928155  0.991886  0.326987  1
  Sb  Sb31  1  0.571845  0.508114  0.826987  1
