# generated using pymatgen
data_CaYb11Si11Ag12Pb
_symmetry_space_group_name_H-M   'P 1'
_cell_length_a   4.54204900
_cell_length_b   7.75154509
_cell_length_c   21.42298993
_cell_angle_alpha   89.89498917
_cell_angle_beta   90.00000000
_cell_angle_gamma   90.00000000
_symmetry_Int_Tables_number   1
_chemical_formula_structural   CaYb11Si11Ag12Pb
_chemical_formula_sum   'Ca1 Yb11 Si11 Ag12 Pb1'
_cell_volume   754.25716937
_cell_formula_units_Z   1
loop_
 _symmetry_equiv_pos_site_id
 _symmetry_equiv_pos_as_xyz
  1  'x, y, z'
loop_
 _atom_site_type_symbol
 _atom_site_label
 _atom_site_symmetry_multiplicity
 _atom_site_fract_x
 _atom_site_fract_y
 _atom_site_fract_z
 _atom_site_occupancy
  Ca  Ca0  1  0.750000  0.706054  0.834389  1
  Yb  Yb1  1  0.250000  0.220563  0.000633  1
  Yb  Yb2  1  0.250000  0.288892  0.495178  1
  Yb  Yb3  1  0.750000  0.779750  0.001106  1
  Yb  Yb4  1  0.750000  0.710992  0.494791  1
  Yb  Yb5  1  0.250000  0.206255  0.331448  1
  Yb  Yb6  1  0.250000  0.295201  0.835108  1
  Yb  Yb7  1  0.750000  0.789691  0.670683  1
  Yb  Yb8  1  0.750000  0.705316  0.166246  1
  Yb  Yb9  1  0.250000  0.212054  0.672273  1
  Yb  Yb10  1  0.250000  0.291662  0.166909  1
  Yb  Yb11  1  0.750000  0.789924  0.330627  1
  Si  Si12  1  0.250000  0.580738  0.727521  1
  Si  Si13  1  0.250000  0.919900  0.224188  1
  Si  Si14  1  0.750000  0.419696  0.273824  1
  Si  Si15  1  0.750000  0.080477  0.776659  1
  Si  Si16  1  0.250000  0.913684  0.106774  1
  Si  Si17  1  0.250000  0.584596  0.610040  1
  Si  Si18  1  0.750000  0.087334  0.894151  1
  Si  Si19  1  0.750000  0.413153  0.391167  1
  Si  Si20  1  0.250000  0.591692  0.929098  1
  Si  Si21  1  0.250000  0.911112  0.429242  1
  Si  Si22  1  0.750000  0.409021  0.071890  1
  Ag  Ag23  1  0.250000  0.912944  0.763481  1
  Ag  Ag24  1  0.250000  0.588274  0.261119  1
  Ag  Ag25  1  0.750000  0.088255  0.237471  1
  Ag  Ag26  1  0.750000  0.409270  0.738487  1
  Ag  Ag27  1  0.250000  0.920451  0.907194  1
  Ag  Ag28  1  0.250000  0.584170  0.403050  1
  Ag  Ag29  1  0.750000  0.081844  0.094621  1
  Ag  Ag30  1  0.750000  0.444891  0.596588  1
  Ag  Ag31  1  0.250000  0.884966  0.560538  1
  Ag  Ag32  1  0.250000  0.583707  0.066129  1
  Ag  Ag33  1  0.750000  0.083349  0.427434  1
  Ag  Ag34  1  0.750000  0.415571  0.936688  1
  Pb  Pb35  1  0.750000  0.094548  0.573259  1
