# generated using pymatgen
data_TbTh3(MgNi2)2
_symmetry_space_group_name_H-M   'P 1'
_cell_length_a   7.59886713
_cell_length_b   7.59886713
_cell_length_c   3.68181200
_cell_angle_alpha   90.00000000
_cell_angle_beta   90.00000000
_cell_angle_gamma   90.68338824
_symmetry_Int_Tables_number   1
_chemical_formula_structural   TbTh3(MgNi2)2
_chemical_formula_sum   'Tb1 Th3 Mg2 Ni4'
_cell_volume   212.58294419
_cell_formula_units_Z   1
loop_
 _symmetry_equiv_pos_site_id
 _symmetry_equiv_pos_as_xyz
  1  'x, y, z'
loop_
 _atom_site_type_symbol
 _atom_site_label
 _atom_site_symmetry_multiplicity
 _atom_site_fract_x
 _atom_site_fract_y
 _atom_site_fract_z
 _atom_site_occupancy
  Tb  Tb0  1  0.828291  0.671709  0.500000  1
  Th  Th1  1  0.673342  0.170654  0.500000  1
  Th  Th2  1  0.329346  0.826658  0.500000  1
  Th  Th3  1  0.168556  0.331444  0.500000  1
  Mg  Mg4  1  0.998034  0.993711  0.000000  1
  Mg  Mg5  1  0.506289  0.501966  0.000000  1
  Ni  Ni6  1  0.129839  0.623314  0.000000  1
  Ni  Ni7  1  0.876686  0.370161  0.000000  1
  Ni  Ni8  1  0.617797  0.882203  0.000000  1
  Ni  Ni9  1  0.371819  0.128181  0.000000  1
