# generated using pymatgen
data_Ce9Sm3(CoSi)8
_symmetry_space_group_name_H-M   'P 1'
_cell_length_a   5.51665000
_cell_length_b   7.88576443
_cell_length_c   12.31171900
_cell_angle_alpha   90.00000000
_cell_angle_beta   90.00000000
_cell_angle_gamma   89.98113092
_symmetry_Int_Tables_number   1
_chemical_formula_structural   Ce9Sm3(CoSi)8
_chemical_formula_sum   'Ce9 Sm3 Co8 Si8'
_cell_volume   535.59671130
_cell_formula_units_Z   1
loop_
 _symmetry_equiv_pos_site_id
 _symmetry_equiv_pos_as_xyz
  1  'x, y, z'
loop_
 _atom_site_type_symbol
 _atom_site_label
 _atom_site_symmetry_multiplicity
 _atom_site_fract_x
 _atom_site_fract_y
 _atom_site_fract_z
 _atom_site_occupancy
  Ce  Ce0  1  0.656841  0.254247  0.250000  1
  Ce  Ce1  1  0.157401  0.398435  0.409074  1
  Ce  Ce2  1  0.159268  0.100666  0.589657  1
  Ce  Ce3  1  0.838984  0.902938  0.091455  1
  Ce  Ce4  1  0.839304  0.600552  0.910774  1
  Ce  Ce5  1  0.839304  0.600552  0.589226  1
  Ce  Ce6  1  0.838984  0.902938  0.408545  1
  Ce  Ce7  1  0.159268  0.100666  0.910343  1
  Ce  Ce8  1  0.157401  0.398435  0.090926  1
  Sm  Sm9  1  0.342490  0.747239  0.750000  1
  Sm  Sm10  1  0.345717  0.752108  0.250000  1
  Sm  Sm11  1  0.655973  0.246218  0.750000  1
  Co  Co12  1  0.378603  0.045399  0.413298  1
  Co  Co13  1  0.371189  0.456872  0.584417  1
  Co  Co14  1  0.627432  0.539208  0.086036  1
  Co  Co15  1  0.625305  0.955483  0.914588  1
  Co  Co16  1  0.378603  0.045399  0.086702  1
  Co  Co17  1  0.371189  0.456872  0.915583  1
  Co  Co18  1  0.627432  0.539208  0.413964  1
  Co  Co19  1  0.625305  0.955483  0.585412  1
  Si  Si20  1  0.645385  0.250347  0.500485  1
  Si  Si21  1  0.354634  0.749629  0.000816  1
  Si  Si22  1  0.354634  0.749629  0.499184  1
  Si  Si23  1  0.645385  0.250347  0.999515  1
  Si  Si24  1  0.839137  0.895854  0.750000  1
  Si  Si25  1  0.842227  0.606389  0.250000  1
  Si  Si26  1  0.160734  0.395571  0.750000  1
  Si  Si27  1  0.161869  0.103314  0.250000  1
