# generated using pymatgen
data_Y7HoTi8(Si4Mo)4
_symmetry_space_group_name_H-M   'P 1'
_cell_length_a   6.99358000
_cell_length_b   6.99322306
_cell_length_c   12.85749200
_cell_angle_alpha   90.00502229
_cell_angle_beta   89.99844262
_cell_angle_gamma   90.00469470
_symmetry_Int_Tables_number   1
_chemical_formula_structural   Y7HoTi8(Si4Mo)4
_chemical_formula_sum   'Y7 Ho1 Ti8 Si16 Mo4'
_cell_volume   628.82990590
_cell_formula_units_Z   1
loop_
 _symmetry_equiv_pos_site_id
 _symmetry_equiv_pos_as_xyz
  1  'x, y, z'
loop_
 _atom_site_type_symbol
 _atom_site_label
 _atom_site_symmetry_multiplicity
 _atom_site_fract_x
 _atom_site_fract_y
 _atom_site_fract_z
 _atom_site_occupancy
  Y  Y0  1  0.341315  0.001088  0.467101  1
  Y  Y1  1  0.498955  0.841314  0.717196  1
  Y  Y2  1  0.501100  0.158691  0.216982  1
  Y  Y3  1  0.841337  0.498911  0.282787  1
  Y  Y4  1  0.158618  0.501131  0.782947  1
  Y  Y5  1  0.658802  0.998799  0.967212  1
  Y  Y6  1  0.001076  0.341316  0.532889  1
  Ho  Ho7  1  0.999437  0.658459  0.032921  1
  Ti  Ti8  1  0.152109  0.008649  0.876202  1
  Ti  Ti9  1  0.491299  0.652336  0.125996  1
  Ti  Ti10  1  0.508708  0.347644  0.626083  1
  Ti  Ti11  1  0.652439  0.491507  0.874079  1
  Ti  Ti12  1  0.347626  0.508722  0.373885  1
  Ti  Ti13  1  0.847633  0.991199  0.375956  1
  Ti  Ti14  1  0.008718  0.152260  0.123906  1
  Ti  Ti15  1  0.991225  0.847614  0.624000  1
  Si  Si16  1  0.201270  0.130534  0.684819  1
  Si  Si17  1  0.368928  0.701147  0.934862  1
  Si  Si18  1  0.630565  0.298725  0.434722  1
  Si  Si19  1  0.701743  0.369922  0.065251  1
  Si  Si20  1  0.298737  0.630573  0.565242  1
  Si  Si21  1  0.799065  0.868969  0.184389  1
  Si  Si22  1  0.130562  0.201316  0.315196  1
  Si  Si23  1  0.869536  0.798526  0.815542  1
  Si  Si24  1  0.290498  0.951792  0.065118  1
  Si  Si25  1  0.547895  0.790869  0.315085  1
  Si  Si26  1  0.452202  0.209191  0.815248  1
  Si  Si27  1  0.790871  0.547821  0.684901  1
  Si  Si28  1  0.208759  0.452512  0.184599  1
  Si  Si29  1  0.709144  0.047812  0.565160  1
  Si  Si30  1  0.952322  0.291404  0.934958  1
  Si  Si31  1  0.047812  0.709145  0.434821  1
  Mo  Mo32  1  0.326299  0.326769  0.000029  1
  Mo  Mo33  1  0.173373  0.826384  0.249841  1
  Mo  Mo34  1  0.826546  0.173461  0.750076  1
  Mo  Mo35  1  0.673477  0.673488  0.499999  1
