# generated using pymatgen
data_SmErSiPd14
_symmetry_space_group_name_H-M   'P 1'
_cell_length_a   8.93503700
_cell_length_b   8.93503700
_cell_length_c   7.09187500
_cell_angle_alpha   90.00000000
_cell_angle_beta   90.00000000
_cell_angle_gamma   90.00000000
_symmetry_Int_Tables_number   1
_chemical_formula_structural   SmErSiPd14
_chemical_formula_sum   'Sm2 Er2 Si2 Pd28'
_cell_volume   566.17903351
_cell_formula_units_Z   2
loop_
 _symmetry_equiv_pos_site_id
 _symmetry_equiv_pos_as_xyz
  1  'x, y, z'
loop_
 _atom_site_type_symbol
 _atom_site_label
 _atom_site_symmetry_multiplicity
 _atom_site_fract_x
 _atom_site_fract_y
 _atom_site_fract_z
 _atom_site_occupancy
  Sm  Sm0  1  0.500000  0.000000  0.935103  1
  Sm  Sm1  1  0.000000  0.500000  0.064897  1
  Er  Er2  1  0.000000  0.000000  0.500000  1
  Er  Er3  1  0.500000  0.500000  0.500000  1
  Si  Si4  1  0.500000  0.000000  0.448041  1
  Si  Si5  1  0.000000  0.500000  0.551959  1
  Pd  Pd6  1  0.334094  0.834094  0.614723  1
  Pd  Pd7  1  0.334094  0.165906  0.614723  1
  Pd  Pd8  1  0.665906  0.834094  0.614723  1
  Pd  Pd9  1  0.665906  0.165906  0.614723  1
  Pd  Pd10  1  0.165906  0.665906  0.385277  1
  Pd  Pd11  1  0.165906  0.334094  0.385277  1
  Pd  Pd12  1  0.834094  0.665906  0.385277  1
  Pd  Pd13  1  0.834094  0.334094  0.385277  1
  Pd  Pd14  1  0.500000  0.768839  0.258137  1
  Pd  Pd15  1  0.500000  0.231161  0.258137  1
  Pd  Pd16  1  0.268839  0.000000  0.258137  1
  Pd  Pd17  1  0.731161  0.000000  0.258137  1
  Pd  Pd18  1  0.000000  0.731161  0.741863  1
  Pd  Pd19  1  0.000000  0.268839  0.741863  1
  Pd  Pd20  1  0.231161  0.500000  0.741863  1
  Pd  Pd21  1  0.768839  0.500000  0.741863  1
  Pd  Pd22  1  0.500000  0.349678  0.851838  1
  Pd  Pd23  1  0.500000  0.650322  0.851838  1
  Pd  Pd24  1  0.849678  0.000000  0.851838  1
  Pd  Pd25  1  0.150322  0.000000  0.851838  1
  Pd  Pd26  1  0.000000  0.150322  0.148162  1
  Pd  Pd27  1  0.000000  0.849678  0.148162  1
  Pd  Pd28  1  0.650322  0.500000  0.148162  1
  Pd  Pd29  1  0.349678  0.500000  0.148162  1
  Pd  Pd30  1  0.250000  0.750000  0.000000  1
  Pd  Pd31  1  0.250000  0.250000  0.000000  1
  Pd  Pd32  1  0.750000  0.750000  0.000000  1
  Pd  Pd33  1  0.750000  0.250000  0.000000  1
