# generated using pymatgen
data_Tb3GaGeIr2
_symmetry_space_group_name_H-M   'P 1'
_cell_length_a   5.58637500
_cell_length_b   7.95181000
_cell_length_c   13.39298600
_cell_angle_alpha   90.00000000
_cell_angle_beta   90.00000000
_cell_angle_gamma   90.00000000
_symmetry_Int_Tables_number   1
_chemical_formula_structural   Tb3GaGeIr2
_chemical_formula_sum   'Tb12 Ga4 Ge4 Ir8'
_cell_volume   594.94044624
_cell_formula_units_Z   4
loop_
 _symmetry_equiv_pos_site_id
 _symmetry_equiv_pos_as_xyz
  1  'x, y, z'
loop_
 _atom_site_type_symbol
 _atom_site_label
 _atom_site_symmetry_multiplicity
 _atom_site_fract_x
 _atom_site_fract_y
 _atom_site_fract_z
 _atom_site_occupancy
  Tb  Tb0  1  0.628386  0.261304  0.250000  1
  Tb  Tb1  1  0.371614  0.738696  0.750000  1
  Tb  Tb2  1  0.371614  0.761304  0.250000  1
  Tb  Tb3  1  0.628386  0.238696  0.750000  1
  Tb  Tb4  1  0.150910  0.398959  0.100902  1
  Tb  Tb5  1  0.849090  0.601041  0.899098  1
  Tb  Tb6  1  0.849090  0.601041  0.600902  1
  Tb  Tb7  1  0.849090  0.898959  0.399098  1
  Tb  Tb8  1  0.150910  0.398959  0.399098  1
  Tb  Tb9  1  0.150910  0.101041  0.600902  1
  Tb  Tb10  1  0.150910  0.101041  0.899098  1
  Tb  Tb11  1  0.849090  0.898959  0.100902  1
  Ga  Ga12  1  0.635630  0.250000  0.000000  1
  Ga  Ga13  1  0.364370  0.750000  0.000000  1
  Ga  Ga14  1  0.364370  0.750000  0.500000  1
  Ga  Ga15  1  0.635630  0.250000  0.500000  1
  Ge  Ge16  1  0.126683  0.116081  0.250000  1
  Ge  Ge17  1  0.873317  0.883919  0.750000  1
  Ge  Ge18  1  0.873317  0.616081  0.250000  1
  Ge  Ge19  1  0.126683  0.383919  0.750000  1
  Ir  Ir20  1  0.356175  0.031118  0.093224  1
  Ir  Ir21  1  0.643825  0.968882  0.906776  1
  Ir  Ir22  1  0.643825  0.968882  0.593224  1
  Ir  Ir23  1  0.643825  0.531118  0.406776  1
  Ir  Ir24  1  0.356175  0.031118  0.406776  1
  Ir  Ir25  1  0.356175  0.468882  0.593224  1
  Ir  Ir26  1  0.356175  0.468882  0.906776  1
  Ir  Ir27  1  0.643825  0.531118  0.093224  1
