# generated using pymatgen
data_Nd2ZnIrRh
_symmetry_space_group_name_H-M   'P 1'
_cell_length_a   5.64440159
_cell_length_b   5.64440164
_cell_length_c   5.64440085
_cell_angle_alpha   135.81306756
_cell_angle_beta   116.25549588
_cell_angle_gamma   80.82536175
_symmetry_Int_Tables_number   1
_chemical_formula_structural   Nd2ZnIrRh
_chemical_formula_sum   'Nd2 Zn1 Ir1 Rh1'
_cell_volume   108.76887397
_cell_formula_units_Z   1
loop_
 _symmetry_equiv_pos_site_id
 _symmetry_equiv_pos_as_xyz
  1  'x, y, z'
loop_
 _atom_site_type_symbol
 _atom_site_label
 _atom_site_symmetry_multiplicity
 _atom_site_fract_x
 _atom_site_fract_y
 _atom_site_fract_z
 _atom_site_occupancy
  Nd  Nd0  1  0.702105  0.200604  0.501502  1
  Nd  Nd1  1  0.300898  0.799397  0.501501  1
  Zn  Zn2  1  0.998225  0.000000  0.998225  1
  Ir  Ir3  1  0.736694  0.500000  0.236694  1
  Rh  Rh4  1  0.262079  0.500000  0.762079  1
