# generated using pymatgen
data_RbSn3RhO8
_symmetry_space_group_name_H-M   'P 1'
_cell_length_a   6.49337035
_cell_length_b   7.77669470
_cell_length_c   7.56648258
_cell_angle_alpha   92.91674760
_cell_angle_beta   77.68188578
_cell_angle_gamma   102.06339842
_symmetry_Int_Tables_number   1
_chemical_formula_structural   RbSn3RhO8
_chemical_formula_sum   'Rb2 Sn6 Rh2 O16'
_cell_volume   365.03680693
_cell_formula_units_Z   2
loop_
 _symmetry_equiv_pos_site_id
 _symmetry_equiv_pos_as_xyz
  1  'x, y, z'
loop_
 _atom_site_type_symbol
 _atom_site_label
 _atom_site_symmetry_multiplicity
 _atom_site_fract_x
 _atom_site_fract_y
 _atom_site_fract_z
 _atom_site_occupancy
  Rb  Rb0  1  0.253256  0.990867  0.986342  1
  Rb  Rb1  1  0.753288  0.990854  0.986219  1
  Sn  Sn2  1  0.173776  0.173464  0.482102  1
  Sn  Sn3  1  0.673777  0.173462  0.482092  1
  Sn  Sn4  1  0.919765  0.492391  0.809448  1
  Sn  Sn5  1  0.419770  0.492399  0.809447  1
  Sn  Sn6  1  0.580845  0.522752  0.194746  1
  Sn  Sn7  1  0.080849  0.522749  0.194743  1
  Rh  Rh8  1  0.326773  0.822417  0.515900  1
  Rh  Rh9  1  0.826783  0.822422  0.515910  1
  O  O10  1  0.229476  0.624667  0.704426  1
  O  O11  1  0.729474  0.624668  0.704424  1
  O  O12  1  0.269755  0.375074  0.294111  1
  O  O13  1  0.769758  0.375081  0.294110  1
  O  O14  1  0.915204  0.285544  0.625919  1
  O  O15  1  0.415207  0.285550  0.625908  1
  O  O16  1  0.580480  0.709801  0.388664  1
  O  O17  1  0.080483  0.709807  0.388670  1
  O  O18  1  0.923967  0.042509  0.349672  1
  O  O19  1  0.423969  0.042512  0.349678  1
  O  O20  1  0.576502  0.947065  0.642181  1
  O  O21  1  0.076495  0.947064  0.642184  1
  O  O22  1  0.397394  0.646849  0.054047  1
  O  O23  1  0.897401  0.646848  0.054053  1
  O  O24  1  0.102777  0.366588  0.952500  1
  O  O25  1  0.602778  0.366593  0.952502  1
