# generated using pymatgen
data_Hf4ZnFe2Si4Pt
_symmetry_space_group_name_H-M   'P 1'
_cell_length_a   3.88844400
_cell_length_b   6.45891918
_cell_length_c   7.36616724
_cell_angle_alpha   88.14375502
_cell_angle_beta   90.00000000
_cell_angle_gamma   90.00000000
_symmetry_Int_Tables_number   1
_chemical_formula_structural   Hf4ZnFe2Si4Pt
_chemical_formula_sum   'Hf4 Zn1 Fe2 Si4 Pt1'
_cell_volume   184.90528127
_cell_formula_units_Z   1
loop_
 _symmetry_equiv_pos_site_id
 _symmetry_equiv_pos_as_xyz
  1  'x, y, z'
loop_
 _atom_site_type_symbol
 _atom_site_label
 _atom_site_symmetry_multiplicity
 _atom_site_fract_x
 _atom_site_fract_y
 _atom_site_fract_z
 _atom_site_occupancy
  Hf  Hf0  1  0.250000  0.020342  0.324627  1
  Hf  Hf1  1  0.250000  0.518531  0.197924  1
  Hf  Hf2  1  0.750000  0.988469  0.672721  1
  Hf  Hf3  1  0.750000  0.482050  0.803761  1
  Zn  Zn4  1  0.750000  0.841098  0.066397  1
  Fe  Fe5  1  0.250000  0.645948  0.561275  1
  Fe  Fe6  1  0.750000  0.353057  0.437435  1
  Si  Si7  1  0.250000  0.285880  0.599661  1
  Si  Si8  1  0.250000  0.761453  0.861750  1
  Si  Si9  1  0.750000  0.715964  0.405443  1
  Si  Si10  1  0.750000  0.243344  0.132229  1
  Pt  Pt11  1  0.250000  0.143866  0.936778  1
