# generated using pymatgen
data_TaTiNb2(CoSi)4
_symmetry_space_group_name_H-M   'P 1'
_cell_length_a   6.23807798
_cell_length_b   3.67378400
_cell_length_c   7.05404715
_cell_angle_alpha   90.00000000
_cell_angle_beta   89.94265893
_cell_angle_gamma   90.00000000
_symmetry_Int_Tables_number   1
_chemical_formula_structural   TaTiNb2(CoSi)4
_chemical_formula_sum   'Ta1 Ti1 Nb2 Co4 Si4'
_cell_volume   161.65999406
_cell_formula_units_Z   1
loop_
 _symmetry_equiv_pos_site_id
 _symmetry_equiv_pos_as_xyz
  1  'x, y, z'
loop_
 _atom_site_type_symbol
 _atom_site_label
 _atom_site_symmetry_multiplicity
 _atom_site_fract_x
 _atom_site_fract_y
 _atom_site_fract_z
 _atom_site_occupancy
  Ta  Ta0  1  0.518805  0.250000  0.681415  1
  Ti  Ti1  1  0.019560  0.250000  0.817068  1
  Nb  Nb2  1  0.980031  0.750000  0.180928  1
  Nb  Nb3  1  0.478217  0.750000  0.320803  1
  Co  Co4  1  0.142440  0.250000  0.439585  1
  Co  Co5  1  0.642470  0.250000  0.059700  1
  Co  Co6  1  0.856915  0.750000  0.566894  1
  Co  Co7  1  0.359260  0.750000  0.934117  1
  Si  Si8  1  0.775919  0.250000  0.382433  1
  Si  Si9  1  0.274776  0.250000  0.114246  1
  Si  Si10  1  0.221939  0.750000  0.620330  1
  Si  Si11  1  0.729668  0.750000  0.882479  1
