# generated using pymatgen
data_Sc4MnAlPt10
_symmetry_space_group_name_H-M   'P 1'
_cell_length_a   4.09399000
_cell_length_b   5.62944641
_cell_length_c   11.18639545
_cell_angle_alpha   88.31136632
_cell_angle_beta   90.00000000
_cell_angle_gamma   90.00000000
_symmetry_Int_Tables_number   1
_chemical_formula_structural   Sc4MnAlPt10
_chemical_formula_sum   'Sc4 Mn1 Al1 Pt10'
_cell_volume   257.69974624
_cell_formula_units_Z   1
loop_
 _symmetry_equiv_pos_site_id
 _symmetry_equiv_pos_as_xyz
  1  'x, y, z'
loop_
 _atom_site_type_symbol
 _atom_site_label
 _atom_site_symmetry_multiplicity
 _atom_site_fract_x
 _atom_site_fract_y
 _atom_site_fract_z
 _atom_site_occupancy
  Sc  Sc0  1  0.500000  0.205088  0.635426  1
  Sc  Sc1  1  0.500000  0.794912  0.364574  1
  Sc  Sc2  1  0.500000  0.694668  0.860785  1
  Sc  Sc3  1  0.500000  0.305332  0.139215  1
  Mn  Mn4  1  0.000000  0.500000  0.500000  1
  Al  Al5  1  0.000000  0.000000  0.000000  1
  Pt  Pt6  1  0.500000  0.288941  0.386286  1
  Pt  Pt7  1  0.500000  0.711059  0.613714  1
  Pt  Pt8  1  0.500000  0.800164  0.106566  1
  Pt  Pt9  1  0.500000  0.199836  0.893434  1
  Pt  Pt10  1  0.000000  0.452930  0.745983  1
  Pt  Pt11  1  0.000000  0.547070  0.254017  1
  Pt  Pt12  1  0.000000  0.955678  0.758296  1
  Pt  Pt13  1  0.000000  0.044322  0.241704  1
  Pt  Pt14  1  0.000000  0.500000  0.000000  1
  Pt  Pt15  1  0.000000  0.000000  0.500000  1
