# generated using pymatgen
data_SrAlNi2(PO4)3
_symmetry_space_group_name_H-M   'P 1'
_cell_length_a   8.96258926
_cell_length_b   8.96258847
_cell_length_c   8.96258908
_cell_angle_alpha   136.88966783
_cell_angle_beta   110.60782249
_cell_angle_gamma   85.29597728
_symmetry_Int_Tables_number   1
_chemical_formula_structural   SrAlNi2(PO4)3
_chemical_formula_sum   'Sr2 Al2 Ni4 P6 O24'
_cell_volume   442.97475994
_cell_formula_units_Z   2
loop_
 _symmetry_equiv_pos_site_id
 _symmetry_equiv_pos_as_xyz
  1  'x, y, z'
loop_
 _atom_site_type_symbol
 _atom_site_label
 _atom_site_symmetry_multiplicity
 _atom_site_fract_x
 _atom_site_fract_y
 _atom_site_fract_z
 _atom_site_occupancy
  Sr  Sr0  1  0.250000  0.343379  0.093379  1
  Sr  Sr1  1  0.750000  0.656621  0.906621  1
  Al  Al2  1  0.000000  0.500000  0.500000  1
  Al  Al3  1  0.500000  0.000000  0.500000  1
  Ni  Ni4  1  0.117412  0.117412  0.500000  1
  Ni  Ni5  1  0.382588  0.882588  0.000000  1
  Ni  Ni6  1  0.617412  0.117412  0.000000  1
  Ni  Ni7  1  0.882588  0.882588  0.500000  1
  P  P8  1  0.250000  0.837754  0.587754  1
  P  P9  1  0.750000  0.162246  0.412246  1
  P  P10  1  0.321153  0.321153  0.500000  1
  P  P11  1  0.178847  0.678847  0.000000  1
  P  P12  1  0.821153  0.321153  0.000000  1
  P  P13  1  0.678847  0.678847  0.500000  1
  O  O14  1  0.346879  0.803230  0.456353  1
  O  O15  1  0.653121  0.196770  0.543647  1
  O  O16  1  0.846879  0.390526  0.543647  1
  O  O17  1  0.153121  0.609474  0.456353  1
  O  O18  1  0.129718  0.983340  0.613057  1
  O  O19  1  0.629718  0.016660  0.146377  1
  O  O20  1  0.870282  0.016660  0.386943  1
  O  O21  1  0.370282  0.983340  0.853623  1
  O  O22  1  0.341793  0.202834  0.274570  1
  O  O23  1  0.071736  0.797166  0.138959  1
  O  O24  1  0.841793  0.567223  0.138959  1
  O  O25  1  0.571736  0.432777  0.274570  1
  O  O26  1  0.658207  0.797166  0.725430  1
  O  O27  1  0.928264  0.202834  0.861041  1
  O  O28  1  0.158207  0.432777  0.861041  1
  O  O29  1  0.428264  0.567223  0.725430  1
  O  O30  1  0.128755  0.296298  0.437136  1
  O  O31  1  0.140839  0.703702  0.832457  1
  O  O32  1  0.628755  0.191618  0.832457  1
  O  O33  1  0.640839  0.808382  0.437136  1
  O  O34  1  0.871245  0.703702  0.562864  1
  O  O35  1  0.859161  0.296298  0.167543  1
  O  O36  1  0.371245  0.808382  0.167543  1
  O  O37  1  0.359161  0.191618  0.562864  1
