# generated using pymatgen
data_PrHo4CoRuO12
_symmetry_space_group_name_H-M   'P 1'
_cell_length_a   6.84189961
_cell_length_b   6.84189931
_cell_length_c   7.31245956
_cell_angle_alpha   74.56101348
_cell_angle_beta   74.56102503
_cell_angle_gamma   50.42976207
_symmetry_Int_Tables_number   1
_chemical_formula_structural   PrHo4CoRuO12
_chemical_formula_sum   'Pr1 Ho4 Co1 Ru1 O12'
_cell_volume   252.18435976
_cell_formula_units_Z   1
loop_
 _symmetry_equiv_pos_site_id
 _symmetry_equiv_pos_as_xyz
  1  'x, y, z'
loop_
 _atom_site_type_symbol
 _atom_site_label
 _atom_site_symmetry_multiplicity
 _atom_site_fract_x
 _atom_site_fract_y
 _atom_site_fract_z
 _atom_site_occupancy
  Pr  Pr0  1  0.004388  0.995612  0.500000  1
  Ho  Ho1  1  0.322001  0.288813  0.356987  1
  Ho  Ho2  1  0.711187  0.677999  0.643013  1
  Ho  Ho3  1  0.696667  0.689546  0.165173  1
  Ho  Ho4  1  0.310454  0.303333  0.834827  1
  Co  Co5  1  0.738908  0.261092  0.000000  1
  Ru  Ru6  1  0.231429  0.768571  0.000000  1
  O  O7  1  0.104572  0.582808  0.577542  1
  O  O8  1  0.982383  0.015482  0.169572  1
  O  O9  1  0.417192  0.895428  0.422458  1
  O  O10  1  0.497682  0.503430  0.183803  1
  O  O11  1  0.104727  0.577896  0.079242  1
  O  O12  1  0.915131  0.409870  0.415100  1
  O  O13  1  0.984518  0.017617  0.830428  1
  O  O14  1  0.590130  0.084868  0.584900  1
  O  O15  1  0.496570  0.502318  0.816197  1
  O  O16  1  0.569799  0.099840  0.080264  1
  O  O17  1  0.422104  0.895273  0.920758  1
  O  O18  1  0.900160  0.430201  0.919736  1
