# generated using pymatgen
data_Y3B6(IrRu)4
_symmetry_space_group_name_H-M   'P 1'
_cell_length_a   9.99614395
_cell_length_b   9.18885574
_cell_length_c   5.56653949
_cell_angle_alpha   81.28609670
_cell_angle_beta   65.31662380
_cell_angle_gamma   33.20699251
_symmetry_Int_Tables_number   1
_chemical_formula_structural   Y3B6(IrRu)4
_chemical_formula_sum   'Y3 B6 Ir4 Ru4'
_cell_volume   233.45005359
_cell_formula_units_Z   1
loop_
 _symmetry_equiv_pos_site_id
 _symmetry_equiv_pos_as_xyz
  1  'x, y, z'
loop_
 _atom_site_type_symbol
 _atom_site_label
 _atom_site_symmetry_multiplicity
 _atom_site_fract_x
 _atom_site_fract_y
 _atom_site_fract_z
 _atom_site_occupancy
  Y  Y0  1  0.999924  0.999924  0.000076  1
  Y  Y1  1  0.821126  0.821126  0.178874  1
  Y  Y2  1  0.179411  0.179411  0.820589  1
  B  B3  1  0.670776  0.329461  0.677034  1
  B  B4  1  0.329461  0.670776  0.322729  1
  B  B5  1  0.169722  0.484206  0.515606  1
  B  B6  1  0.484206  0.169722  0.830466  1
  B  B7  1  0.825972  0.519417  0.489476  1
  B  B8  1  0.519417  0.825972  0.165135  1
  Ir  Ir9  1  0.914068  0.914068  0.585932  1
  Ir  Ir10  1  0.414150  0.414150  0.585850  1
  Ir  Ir11  1  0.585529  0.585529  0.414471  1
  Ir  Ir12  1  0.249715  0.249715  0.250285  1
  Ru  Ru13  1  0.750405  0.750405  0.749595  1
  Ru  Ru14  1  0.086416  0.086416  0.413584  1
  Ru  Ru15  1  0.586067  0.586067  0.913933  1
  Ru  Ru16  1  0.413636  0.413636  0.086364  1
