# generated using pymatgen
data_Tm5Zr3(V3Si4)4
_symmetry_space_group_name_H-M   'P 1'
_cell_length_a   6.72316282
_cell_length_b   6.72552205
_cell_length_c   12.44764490
_cell_angle_alpha   90.09457723
_cell_angle_beta   89.94571749
_cell_angle_gamma   89.96285889
_symmetry_Int_Tables_number   1
_chemical_formula_structural   Tm5Zr3(V3Si4)4
_chemical_formula_sum   'Tm5 Zr3 V12 Si16'
_cell_volume   562.84128033
_cell_formula_units_Z   1
loop_
 _symmetry_equiv_pos_site_id
 _symmetry_equiv_pos_as_xyz
  1  'x, y, z'
loop_
 _atom_site_type_symbol
 _atom_site_label
 _atom_site_symmetry_multiplicity
 _atom_site_fract_x
 _atom_site_fract_y
 _atom_site_fract_z
 _atom_site_occupancy
  Tm  Tm0  1  0.499479  0.836103  0.720963  1
  Tm  Tm1  1  0.501043  0.163368  0.219641  1
  Tm  Tm2  1  0.999893  0.337650  0.529391  1
  Tm  Tm3  1  0.663547  0.998940  0.970156  1
  Tm  Tm4  1  0.337751  0.999804  0.469321  1
  Zr  Zr5  1  0.004826  0.658689  0.030254  1
  Zr  Zr6  1  0.840592  0.505310  0.280434  1
  Zr  Zr7  1  0.158721  0.494812  0.780973  1
  V  V8  1  0.328833  0.335087  0.000249  1
  V  V9  1  0.165200  0.829295  0.249388  1
  V  V10  1  0.834987  0.170175  0.751006  1
  V  V11  1  0.669430  0.667411  0.500299  1
  V  V12  1  0.003750  0.160078  0.125384  1
  V  V13  1  0.340459  0.506121  0.374660  1
  V  V14  1  0.660031  0.495851  0.876495  1
  V  V15  1  0.508017  0.344156  0.624878  1
  V  V16  1  0.491056  0.657569  0.123639  1
  V  V17  1  0.994426  0.840555  0.627034  1
  V  V18  1  0.157553  0.007467  0.874635  1
  V  V19  1  0.841068  0.991028  0.372660  1
  Si  Si20  1  0.286506  0.958743  0.064048  1
  Si  Si21  1  0.540850  0.787346  0.313857  1
  Si  Si22  1  0.459659  0.213277  0.814704  1
  Si  Si23  1  0.792158  0.540089  0.686044  1
  Si  Si24  1  0.207637  0.460176  0.185362  1
  Si  Si25  1  0.711432  0.039732  0.564167  1
  Si  Si26  1  0.959744  0.291792  0.935588  1
  Si  Si27  1  0.039521  0.710388  0.435276  1
  Si  Si28  1  0.705721  0.377832  0.068980  1
  Si  Si29  1  0.122375  0.204082  0.316395  1
  Si  Si30  1  0.877503  0.793822  0.819390  1
  Si  Si31  1  0.202850  0.127643  0.683527  1
  Si  Si32  1  0.798866  0.869735  0.180819  1
  Si  Si33  1  0.297021  0.625113  0.568647  1
  Si  Si34  1  0.370138  0.700663  0.930986  1
  Si  Si35  1  0.627356  0.300096  0.430751  1
