# generated using pymatgen
data_Er2Lu8Si5P
_symmetry_space_group_name_H-M   'P 1'
_cell_length_a   8.21925108
_cell_length_b   8.22338761
_cell_length_c   6.13765300
_cell_angle_alpha   90.00000000
_cell_angle_beta   90.00000000
_cell_angle_gamma   119.92460862
_symmetry_Int_Tables_number   1
_chemical_formula_structural   Er2Lu8Si5P
_chemical_formula_sum   'Er2 Lu8 Si5 P1'
_cell_volume   359.53849940
_cell_formula_units_Z   1
loop_
 _symmetry_equiv_pos_site_id
 _symmetry_equiv_pos_as_xyz
  1  'x, y, z'
loop_
 _atom_site_type_symbol
 _atom_site_label
 _atom_site_symmetry_multiplicity
 _atom_site_fract_x
 _atom_site_fract_y
 _atom_site_fract_z
 _atom_site_occupancy
  Er  Er0  1  0.756457  0.000127  0.750000  1
  Er  Er1  1  0.001029  0.757983  0.750000  1
  Lu  Lu2  1  0.666053  0.332583  0.999692  1
  Lu  Lu3  1  0.333543  0.667126  0.500290  1
  Lu  Lu4  1  0.333543  0.667126  0.999710  1
  Lu  Lu5  1  0.666053  0.332583  0.500308  1
  Lu  Lu6  1  0.757517  0.756771  0.250000  1
  Lu  Lu7  1  0.001009  0.242883  0.250000  1
  Lu  Lu8  1  0.243299  0.242479  0.750000  1
  Lu  Lu9  1  0.242591  0.000266  0.250000  1
  Si  Si10  1  0.395048  0.394319  0.250000  1
  Si  Si11  1  0.000706  0.605831  0.250000  1
  Si  Si12  1  0.000569  0.394733  0.750000  1
  Si  Si13  1  0.604317  0.604366  0.750000  1
  Si  Si14  1  0.606158  0.000035  0.250000  1
  P  P15  1  0.392107  0.000790  0.750000  1
