# generated using pymatgen
data_Hf18Re7As2W
_symmetry_space_group_name_H-M   'P 1'
_cell_length_a   8.63520506
_cell_length_b   8.63520585
_cell_length_c   8.63735603
_cell_angle_alpha   90.00795071
_cell_angle_beta   89.99204895
_cell_angle_gamma   120.01920470
_symmetry_Int_Tables_number   1
_chemical_formula_structural   Hf18Re7As2W
_chemical_formula_sum   'Hf18 Re7 As2 W1'
_cell_volume   557.66414310
_cell_formula_units_Z   1
loop_
 _symmetry_equiv_pos_site_id
 _symmetry_equiv_pos_as_xyz
  1  'x, y, z'
loop_
 _atom_site_type_symbol
 _atom_site_label
 _atom_site_symmetry_multiplicity
 _atom_site_fract_x
 _atom_site_fract_y
 _atom_site_fract_z
 _atom_site_occupancy
  Hf  Hf0  1  0.805615  0.611140  0.545747  1
  Hf  Hf1  1  0.805152  0.194848  0.545411  1
  Hf  Hf2  1  0.388860  0.194385  0.545747  1
  Hf  Hf3  1  0.194385  0.388860  0.454253  1
  Hf  Hf4  1  0.194848  0.805152  0.454589  1
  Hf  Hf5  1  0.611140  0.805615  0.454253  1
  Hf  Hf6  1  0.193465  0.387049  0.045741  1
  Hf  Hf7  1  0.194046  0.805954  0.045407  1
  Hf  Hf8  1  0.612951  0.806535  0.045741  1
  Hf  Hf9  1  0.806535  0.612951  0.954259  1
  Hf  Hf10  1  0.805954  0.194046  0.954593  1
  Hf  Hf11  1  0.387049  0.193465  0.954259  1
  Hf  Hf12  1  0.459346  0.918331  0.750308  1
  Hf  Hf13  1  0.459066  0.540934  0.750306  1
  Hf  Hf14  1  0.081669  0.540654  0.750308  1
  Hf  Hf15  1  0.540654  0.081669  0.249692  1
  Hf  Hf16  1  0.540934  0.459066  0.249694  1
  Hf  Hf17  1  0.918331  0.459346  0.249692  1
  Re  Re18  1  0.109303  0.218904  0.749761  1
  Re  Re19  1  0.109554  0.890446  0.749754  1
  Re  Re20  1  0.781096  0.890697  0.749761  1
  Re  Re21  1  0.890697  0.781096  0.250239  1
  Re  Re22  1  0.890446  0.109554  0.250246  1
  Re  Re23  1  0.218904  0.109303  0.250239  1
  Re  Re24  1  0.000000  0.000000  0.000000  1
  As  As25  1  0.666572  0.333428  0.750702  1
  As  As26  1  0.333428  0.666572  0.249298  1
  W  W27  1  0.000000  0.000000  0.500000  1
