# generated using pymatgen
data_Hf8Fe2Ir2N
_symmetry_space_group_name_H-M   'P 1'
_cell_length_a   8.60013078
_cell_length_b   8.60013213
_cell_length_c   8.60013134
_cell_angle_alpha   120.04728259
_cell_angle_beta   120.10917844
_cell_angle_gamma   89.86456076
_symmetry_Int_Tables_number   1
_chemical_formula_structural   Hf8Fe2Ir2N
_chemical_formula_sum   'Hf16 Fe4 Ir4 N2'
_cell_volume   449.24676785
_cell_formula_units_Z   2
loop_
 _symmetry_equiv_pos_site_id
 _symmetry_equiv_pos_as_xyz
  1  'x, y, z'
loop_
 _atom_site_type_symbol
 _atom_site_label
 _atom_site_symmetry_multiplicity
 _atom_site_fract_x
 _atom_site_fract_y
 _atom_site_fract_z
 _atom_site_occupancy
  Hf  Hf0  1  0.937854  0.187854  0.750000  1
  Hf  Hf1  1  0.320980  0.570980  0.750000  1
  Hf  Hf2  1  0.931702  0.568647  0.758040  1
  Hf  Hf3  1  0.310607  0.173662  0.741960  1
  Hf  Hf4  1  0.931702  0.173662  0.363055  1
  Hf  Hf5  1  0.310607  0.568647  0.136945  1
  Hf  Hf6  1  0.058211  0.808211  0.250000  1
  Hf  Hf7  1  0.685008  0.435008  0.250000  1
  Hf  Hf8  1  0.060196  0.435651  0.246257  1
  Hf  Hf9  1  0.689394  0.813939  0.253743  1
  Hf  Hf10  1  0.060196  0.813939  0.624545  1
  Hf  Hf11  1  0.689394  0.435651  0.875455  1
  Hf  Hf12  1  0.483226  0.014702  0.031476  1
  Hf  Hf13  1  0.483226  0.451749  0.468524  1
  Hf  Hf14  1  0.479978  0.019318  0.460661  1
  Hf  Hf15  1  0.058657  0.019318  0.039339  1
  Fe  Fe16  1  0.271800  0.241170  0.469370  1
  Fe  Fe17  1  0.271800  0.802429  0.030630  1
  Fe  Fe18  1  0.280993  0.233963  0.047030  1
  Fe  Fe19  1  0.686932  0.233963  0.452970  1
  Ir  Ir20  1  0.708582  0.789937  0.581356  1
  Ir  Ir21  1  0.708582  0.127225  0.918644  1
  Ir  Ir22  1  0.708709  0.792396  0.916313  1
  Ir  Ir23  1  0.376083  0.792396  0.583687  1
  N  N24  1  0.997793  0.499120  0.001327  1
  N  N25  1  0.997793  0.996466  0.498673  1
