# generated using pymatgen
data_DyU5P13(PtRh4)4
_symmetry_space_group_name_H-M   'P 1'
_cell_length_a   13.45441249
_cell_length_b   13.42172423
_cell_length_c   3.92673903
_cell_angle_alpha   89.97660844
_cell_angle_beta   90.02406233
_cell_angle_gamma   120.04520940
_symmetry_Int_Tables_number   1
_chemical_formula_structural   DyU5P13(PtRh4)4
_chemical_formula_sum   'Dy1 U5 P13 Pt4 Rh16'
_cell_volume   613.81520555
_cell_formula_units_Z   1
loop_
 _symmetry_equiv_pos_site_id
 _symmetry_equiv_pos_as_xyz
  1  'x, y, z'
loop_
 _atom_site_type_symbol
 _atom_site_label
 _atom_site_symmetry_multiplicity
 _atom_site_fract_x
 _atom_site_fract_y
 _atom_site_fract_z
 _atom_site_occupancy
  Dy  Dy0  1  0.531152  0.720116  0.248209  1
  U  U1  1  0.280023  0.813266  0.248405  1
  U  U2  1  0.187566  0.467453  0.247190  1
  U  U3  1  0.475067  0.285917  0.750930  1
  U  U4  1  0.715359  0.190986  0.751544  1
  U  U5  1  0.808988  0.523125  0.752317  1
  P  P6  1  0.529807  0.137964  0.249055  1
  P  P7  1  0.860722  0.390890  0.251232  1
  P  P8  1  0.606595  0.470866  0.249256  1
  P  P9  1  0.948078  0.712115  0.250337  1
  P  P10  1  0.288367  0.235928  0.250801  1
  P  P11  1  0.765021  0.051392  0.249861  1
  P  P12  1  0.386952  0.526843  0.747578  1
  P  P13  1  0.475001  0.861302  0.750011  1
  P  P14  1  0.136383  0.611880  0.749406  1
  P  P15  1  0.716841  0.777386  0.744139  1
  P  P16  1  0.222568  0.937075  0.744547  1
  P  P17  1  0.063606  0.285239  0.744878  1
  P  P18  1  0.000795  0.000637  0.011988  1
  Pt  Pt19  1  0.331401  0.667338  0.750493  1
  Pt  Pt20  1  0.912922  0.247447  0.255977  1
  Pt  Pt21  1  0.754578  0.664564  0.253798  1
  Pt  Pt22  1  0.335108  0.086214  0.254329  1
  Rh  Rh23  1  0.433386  0.014233  0.750738  1
  Rh  Rh24  1  0.986328  0.417435  0.752691  1
  Rh  Rh25  1  0.582994  0.573254  0.750212  1
  Rh  Rh26  1  0.665997  0.333577  0.255446  1
  Rh  Rh27  1  0.097284  0.188203  0.252201  1
  Rh  Rh28  1  0.810357  0.906739  0.248009  1
  Rh  Rh29  1  0.090792  0.902278  0.252700  1
  Rh  Rh30  1  0.020549  0.578542  0.249413  1
  Rh  Rh31  1  0.419536  0.444224  0.247013  1
  Rh  Rh32  1  0.559582  0.979233  0.248236  1
  Rh  Rh33  1  0.672184  0.926741  0.745736  1
  Rh  Rh34  1  0.068432  0.742057  0.747462  1
  Rh  Rh35  1  0.258369  0.327159  0.745700  1
  Rh  Rh36  1  0.906661  0.821815  0.748849  1
  Rh  Rh37  1  0.179884  0.083926  0.749351  1
  Rh  Rh38  1  0.914767  0.094644  0.749963  1
