# generated using pymatgen
data_DyCo(NiAs)2
_symmetry_space_group_name_H-M   'P 1'
_cell_length_a   3.87425400
_cell_length_b   10.87934100
_cell_length_c   12.75764800
_cell_angle_alpha   90.00000000
_cell_angle_beta   90.00000000
_cell_angle_gamma   90.00000000
_symmetry_Int_Tables_number   1
_chemical_formula_structural   DyCo(NiAs)2
_chemical_formula_sum   'Dy6 Co6 Ni12 As12'
_cell_volume   537.72632051
_cell_formula_units_Z   6
loop_
 _symmetry_equiv_pos_site_id
 _symmetry_equiv_pos_as_xyz
  1  'x, y, z'
loop_
 _atom_site_type_symbol
 _atom_site_label
 _atom_site_symmetry_multiplicity
 _atom_site_fract_x
 _atom_site_fract_y
 _atom_site_fract_z
 _atom_site_occupancy
  Dy  Dy0  1  0.000000  0.500000  0.521381  1
  Dy  Dy1  1  0.500000  0.000000  0.478619  1
  Dy  Dy2  1  0.500000  0.815495  0.206468  1
  Dy  Dy3  1  0.500000  0.184505  0.206468  1
  Dy  Dy4  1  0.000000  0.684505  0.793532  1
  Dy  Dy5  1  0.000000  0.315495  0.793532  1
  Co  Co6  1  0.000000  0.500000  0.981592  1
  Co  Co7  1  0.500000  0.000000  0.018408  1
  Co  Co8  1  0.500000  0.334334  0.996385  1
  Co  Co9  1  0.500000  0.665666  0.996385  1
  Co  Co10  1  0.000000  0.165666  0.003615  1
  Co  Co11  1  0.000000  0.834334  0.003615  1
  Ni  Ni12  1  0.500000  0.500000  0.156798  1
  Ni  Ni13  1  0.000000  0.000000  0.843202  1
  Ni  Ni14  1  0.500000  0.500000  0.701418  1
  Ni  Ni15  1  0.000000  0.000000  0.298582  1
  Ni  Ni16  1  0.500000  0.303205  0.426611  1
  Ni  Ni17  1  0.500000  0.696795  0.426611  1
  Ni  Ni18  1  0.000000  0.196795  0.573389  1
  Ni  Ni19  1  0.000000  0.803205  0.573389  1
  Ni  Ni20  1  0.500000  0.878537  0.709533  1
  Ni  Ni21  1  0.500000  0.121463  0.709533  1
  Ni  Ni22  1  0.000000  0.621463  0.290467  1
  Ni  Ni23  1  0.000000  0.378537  0.290467  1
  As  As24  1  0.500000  0.500000  0.879382  1
  As  As25  1  0.000000  0.000000  0.120618  1
  As  As26  1  0.500000  0.500000  0.344526  1
  As  As27  1  0.000000  0.000000  0.655474  1
  As  As28  1  0.500000  0.314898  0.614013  1
  As  As29  1  0.500000  0.685102  0.614013  1
  As  As30  1  0.000000  0.185102  0.385987  1
  As  As31  1  0.000000  0.814898  0.385987  1
  As  As32  1  0.500000  0.846727  0.894346  1
  As  As33  1  0.500000  0.153273  0.894346  1
  As  As34  1  0.000000  0.653273  0.105654  1
  As  As35  1  0.000000  0.346727  0.105654  1
