# generated using pymatgen
data_DyY3(Sc3Si4)2
_symmetry_space_group_name_H-M   'P 1'
_cell_length_a   7.10325509
_cell_length_b   7.39136107
_cell_length_c   14.01193112
_cell_angle_alpha   90.00799973
_cell_angle_beta   89.98758946
_cell_angle_gamma   90.01356681
_symmetry_Int_Tables_number   1
_chemical_formula_structural   DyY3(Sc3Si4)2
_chemical_formula_sum   'Dy2 Y6 Sc12 Si16'
_cell_volume   735.66449517
_cell_formula_units_Z   2
loop_
 _symmetry_equiv_pos_site_id
 _symmetry_equiv_pos_as_xyz
  1  'x, y, z'
loop_
 _atom_site_type_symbol
 _atom_site_label
 _atom_site_symmetry_multiplicity
 _atom_site_fract_x
 _atom_site_fract_y
 _atom_site_fract_z
 _atom_site_occupancy
  Dy  Dy0  1  0.512123  0.325093  0.402862  1
  Dy  Dy1  1  0.487877  0.674907  0.597138  1
  Y  Y2  1  0.011972  0.174903  0.097050  1
  Y  Y3  1  0.988028  0.825097  0.902950  1
  Y  Y4  1  0.488069  0.674880  0.902909  1
  Y  Y5  1  0.988041  0.825060  0.597038  1
  Y  Y6  1  0.511931  0.325120  0.097091  1
  Y  Y7  1  0.011959  0.174940  0.402962  1
  Sc  Sc8  1  0.160641  0.502243  0.749877  1
  Sc  Sc9  1  0.839359  0.497757  0.250123  1
  Sc  Sc10  1  0.339530  0.002424  0.250074  1
  Sc  Sc11  1  0.660470  0.997576  0.749926  1
  Sc  Sc12  1  0.330501  0.176882  0.625110  1
  Sc  Sc13  1  0.669499  0.823118  0.374890  1
  Sc  Sc14  1  0.169369  0.676723  0.374843  1
  Sc  Sc15  1  0.669437  0.823122  0.125189  1
  Sc  Sc16  1  0.830631  0.323277  0.625157  1
  Sc  Sc17  1  0.330563  0.176878  0.874811  1
  Sc  Sc18  1  0.830568  0.323278  0.874813  1
  Sc  Sc19  1  0.169432  0.676722  0.125187  1
  Si  Si20  1  0.033339  0.118337  0.750005  1
  Si  Si21  1  0.966661  0.881663  0.249995  1
  Si  Si22  1  0.466651  0.618266  0.250059  1
  Si  Si23  1  0.533349  0.381734  0.749941  1
  Si  Si24  1  0.285608  0.874361  0.749881  1
  Si  Si25  1  0.714392  0.125639  0.250119  1
  Si  Si26  1  0.214646  0.374503  0.250032  1
  Si  Si27  1  0.785354  0.625497  0.749968  1
  Si  Si28  1  0.157544  0.464559  0.539504  1
  Si  Si29  1  0.842456  0.535441  0.460496  1
  Si  Si30  1  0.342852  0.964492  0.460574  1
  Si  Si31  1  0.842715  0.535578  0.039496  1
  Si  Si32  1  0.657148  0.035508  0.539426  1
  Si  Si33  1  0.157285  0.464422  0.960504  1
  Si  Si34  1  0.657219  0.035584  0.960518  1
  Si  Si35  1  0.342781  0.964416  0.039482  1
