# generated using pymatgen
data_Eu4Al13Pt9
_symmetry_space_group_name_H-M   'P 1'
_cell_length_a   11.61116400
_cell_length_b   11.61116351
_cell_length_c   4.18526000
_cell_angle_alpha   90.00000000
_cell_angle_beta   90.00000000
_cell_angle_gamma   119.99999571
_symmetry_Int_Tables_number   1
_chemical_formula_structural   Eu4Al13Pt9
_chemical_formula_sum   'Eu4 Al13 Pt9'
_cell_volume   488.65752754
_cell_formula_units_Z   1
loop_
 _symmetry_equiv_pos_site_id
 _symmetry_equiv_pos_as_xyz
  1  'x, y, z'
loop_
 _atom_site_type_symbol
 _atom_site_label
 _atom_site_symmetry_multiplicity
 _atom_site_fract_x
 _atom_site_fract_y
 _atom_site_fract_z
 _atom_site_occupancy
  Eu  Eu0  1  0.202976  0.797024  0.500000  1
  Eu  Eu1  1  0.594048  0.797024  0.500000  1
  Eu  Eu2  1  0.202976  0.405952  0.500000  1
  Eu  Eu3  1  0.666667  0.333333  0.000000  1
  Al  Al4  1  0.947532  0.289594  0.000000  1
  Al  Al5  1  0.710406  0.657939  0.000000  1
  Al  Al6  1  0.947532  0.657939  0.000000  1
  Al  Al7  1  0.342061  0.052468  0.000000  1
  Al  Al8  1  0.164369  0.082184  0.500000  1
  Al  Al9  1  0.917816  0.835631  0.500000  1
  Al  Al10  1  0.710406  0.052468  0.000000  1
  Al  Al11  1  0.531976  0.063951  0.500000  1
  Al  Al12  1  0.917816  0.082184  0.500000  1
  Al  Al13  1  0.342061  0.289594  0.000000  1
  Al  Al14  1  0.531976  0.468024  0.500000  1
  Al  Al15  1  0.936049  0.468024  0.500000  1
  Al  Al16  1  0.333333  0.666667  0.000000  1
  Pt  Pt17  1  0.458284  0.541716  0.000000  1
  Pt  Pt18  1  0.834004  0.917002  0.000000  1
  Pt  Pt19  1  0.458284  0.916566  0.000000  1
  Pt  Pt20  1  0.082998  0.165996  0.000000  1
  Pt  Pt21  1  0.082998  0.917002  0.000000  1
  Pt  Pt22  1  0.792239  0.584477  0.500000  1
  Pt  Pt23  1  0.083434  0.541716  0.000000  1
  Pt  Pt24  1  0.792239  0.207761  0.500000  1
  Pt  Pt25  1  0.415523  0.207761  0.500000  1
