# generated using pymatgen
data_Er2Th(InIr)3
_symmetry_space_group_name_H-M   'P 1'
_cell_length_a   7.55071592
_cell_length_b   7.77204149
_cell_length_c   3.90222700
_cell_angle_alpha   90.00000000
_cell_angle_beta   90.00000000
_cell_angle_gamma   120.97444886
_symmetry_Int_Tables_number   1
_chemical_formula_structural   Er2Th(InIr)3
_chemical_formula_sum   'Er2 Th1 In3 Ir3'
_cell_volume   196.34401993
_cell_formula_units_Z   1
loop_
 _symmetry_equiv_pos_site_id
 _symmetry_equiv_pos_as_xyz
  1  'x, y, z'
loop_
 _atom_site_type_symbol
 _atom_site_label
 _atom_site_symmetry_multiplicity
 _atom_site_fract_x
 _atom_site_fract_y
 _atom_site_fract_z
 _atom_site_occupancy
  Er  Er0  1  0.403735  0.404407  0.500000  1
  Er  Er1  1  0.596265  0.000672  0.500000  1
  Th  Th2  1  0.000000  0.582382  0.500000  1
  In  In3  1  0.268942  0.011077  0.000000  1
  In  In4  1  0.731058  0.742136  0.000000  1
  In  In5  1  0.000000  0.243990  0.000000  1
  Ir  Ir6  1  0.682117  0.350476  0.000000  1
  Ir  Ir7  1  0.317883  0.668359  0.000000  1
  Ir  Ir8  1  0.000000  0.996500  0.500000  1
