# generated using pymatgen
data_V3Co10Si3
_symmetry_space_group_name_H-M   'P 1'
_cell_length_a   3.69648400
_cell_length_b   4.93398053
_cell_length_c   9.67949477
_cell_angle_alpha   88.85093962
_cell_angle_beta   90.00000000
_cell_angle_gamma   90.00000000
_symmetry_Int_Tables_number   1
_chemical_formula_structural   V3Co10Si3
_chemical_formula_sum   'V3 Co10 Si3'
_cell_volume   176.50280421
_cell_formula_units_Z   1
loop_
 _symmetry_equiv_pos_site_id
 _symmetry_equiv_pos_as_xyz
  1  'x, y, z'
loop_
 _atom_site_type_symbol
 _atom_site_label
 _atom_site_symmetry_multiplicity
 _atom_site_fract_x
 _atom_site_fract_y
 _atom_site_fract_z
 _atom_site_occupancy
  V  V0  1  0.500000  0.181532  0.641932  1
  V  V1  1  0.500000  0.825161  0.356724  1
  V  V2  1  0.500000  0.669624  0.860893  1
  Co  Co3  1  0.500000  0.309888  0.391716  1
  Co  Co4  1  0.500000  0.695252  0.610661  1
  Co  Co5  1  0.500000  0.810784  0.108262  1
  Co  Co6  1  0.500000  0.184138  0.891383  1
  Co  Co7  1  0.000000  0.433628  0.749201  1
  Co  Co8  1  0.000000  0.591073  0.261601  1
  Co  Co9  1  0.000000  0.933499  0.749664  1
  Co  Co10  1  0.000000  0.085315  0.232697  1
  Co  Co11  1  0.000000  0.471496  0.008595  1
  Co  Co12  1  0.000000  0.001115  0.495408  1
  Si  Si13  1  0.500000  0.337151  0.146344  1
  Si  Si14  1  0.000000  0.499728  0.501534  1
  Si  Si15  1  0.000000  0.970616  0.993389  1
