# generated using pymatgen
data_Tb6Yb3HfIr6
_symmetry_space_group_name_H-M   'P 1'
_cell_length_a   10.84090000
_cell_length_b   10.97431400
_cell_length_c   6.28899500
_cell_angle_alpha   90.00000000
_cell_angle_beta   90.00000000
_cell_angle_gamma   90.00000000
_symmetry_Int_Tables_number   1
_chemical_formula_structural   Tb6Yb3HfIr6
_chemical_formula_sum   'Tb12 Yb6 Hf2 Ir12'
_cell_volume   748.21079534
_cell_formula_units_Z   2
loop_
 _symmetry_equiv_pos_site_id
 _symmetry_equiv_pos_as_xyz
  1  'x, y, z'
loop_
 _atom_site_type_symbol
 _atom_site_label
 _atom_site_symmetry_multiplicity
 _atom_site_fract_x
 _atom_site_fract_y
 _atom_site_fract_z
 _atom_site_occupancy
  Tb  Tb0  1  0.587177  0.793820  0.877588  1
  Tb  Tb1  1  0.587177  0.206180  0.377588  1
  Tb  Tb2  1  0.412823  0.793820  0.377588  1
  Tb  Tb3  1  0.412823  0.206180  0.877588  1
  Tb  Tb4  1  0.213505  0.413101  0.626194  1
  Tb  Tb5  1  0.213505  0.586899  0.126194  1
  Tb  Tb6  1  0.786495  0.413101  0.126194  1
  Tb  Tb7  1  0.786495  0.586899  0.626194  1
  Tb  Tb8  1  0.913437  0.709966  0.126486  1
  Tb  Tb9  1  0.913437  0.290034  0.626486  1
  Tb  Tb10  1  0.086563  0.709966  0.626486  1
  Tb  Tb11  1  0.086563  0.290034  0.126486  1
  Yb  Yb12  1  0.288667  0.084623  0.376832  1
  Yb  Yb13  1  0.288667  0.915377  0.876832  1
  Yb  Yb14  1  0.711333  0.084623  0.876832  1
  Yb  Yb15  1  0.711333  0.915377  0.376832  1
  Yb  Yb16  1  0.000000  0.000000  0.495859  1
  Yb  Yb17  1  0.000000  0.000000  0.995859  1
  Hf  Hf18  1  0.500000  0.500000  0.991541  1
  Hf  Hf19  1  0.500000  0.500000  0.491541  1
  Ir  Ir20  1  0.849035  0.167024  0.251067  1
  Ir  Ir21  1  0.849035  0.832976  0.751067  1
  Ir  Ir22  1  0.150965  0.167024  0.751067  1
  Ir  Ir23  1  0.150965  0.832976  0.251067  1
  Ir  Ir24  1  0.638725  0.361561  0.743423  1
  Ir  Ir25  1  0.638725  0.638439  0.243423  1
  Ir  Ir26  1  0.361275  0.361561  0.243423  1
  Ir  Ir27  1  0.361275  0.638439  0.743423  1
  Ir  Ir28  1  0.500000  0.000000  0.124327  1
  Ir  Ir29  1  0.500000  0.000000  0.624327  1
  Ir  Ir30  1  0.000000  0.500000  0.885090  1
  Ir  Ir31  1  0.000000  0.500000  0.385090  1
