# generated using pymatgen
data_MnCoSnO4
_symmetry_space_group_name_H-M   'P 1'
_cell_length_a   6.18870550
_cell_length_b   6.31837153
_cell_length_c   6.31910832
_cell_angle_alpha   89.22388174
_cell_angle_beta   119.32211234
_cell_angle_gamma   60.67575049
_symmetry_Int_Tables_number   1
_chemical_formula_structural   MnCoSnO4
_chemical_formula_sum   'Mn2 Co2 Sn2 O8'
_cell_volume   177.08806083
_cell_formula_units_Z   2
loop_
 _symmetry_equiv_pos_site_id
 _symmetry_equiv_pos_as_xyz
  1  'x, y, z'
loop_
 _atom_site_type_symbol
 _atom_site_label
 _atom_site_symmetry_multiplicity
 _atom_site_fract_x
 _atom_site_fract_y
 _atom_site_fract_z
 _atom_site_occupancy
  Mn  Mn0  1  0.999914  0.013762  0.013813  1
  Mn  Mn1  1  0.500011  0.236292  0.236065  1
  Co  Co2  1  0.750018  0.625002  0.624986  1
  Co  Co3  1  0.250033  0.624983  0.625010  1
  Sn  Sn4  1  0.749929  0.624978  0.125097  1
  Sn  Sn5  1  0.249933  0.124953  0.625024  1
  O  O6  1  0.771344  0.378874  0.378959  1
  O  O7  1  0.228723  0.378930  0.378874  1
  O  O8  1  0.271335  0.871120  0.871096  1
  O  O9  1  0.728667  0.871043  0.871081  1
  O  O10  1  0.773023  0.831839  0.377835  1
  O  O11  1  0.226944  0.377913  0.831861  1
  O  O12  1  0.273116  0.872091  0.418183  1
  O  O13  1  0.727011  0.418221  0.872115  1
