# generated using pymatgen
data_Zr5MnPb2
_symmetry_space_group_name_H-M   'P 1'
_cell_length_a   5.55557110
_cell_length_b   8.51301582
_cell_length_c   8.51299772
_cell_angle_alpha   83.87247666
_cell_angle_beta   70.93428875
_cell_angle_gamma   70.93436973
_symmetry_Int_Tables_number   1
_chemical_formula_structural   Zr5MnPb2
_chemical_formula_sum   'Zr10 Mn2 Pb4'
_cell_volume   359.65935745
_cell_formula_units_Z   2
loop_
 _symmetry_equiv_pos_site_id
 _symmetry_equiv_pos_as_xyz
  1  'x, y, z'
loop_
 _atom_site_type_symbol
 _atom_site_label
 _atom_site_symmetry_multiplicity
 _atom_site_fract_x
 _atom_site_fract_y
 _atom_site_fract_z
 _atom_site_occupancy
  Zr  Zr0  1  0.071020  0.125609  0.732320  1
  Zr  Zr1  1  0.928980  0.874391  0.267680  1
  Zr  Zr2  1  0.803374  0.267676  0.125597  1
  Zr  Zr3  1  0.428981  0.267680  0.874391  1
  Zr  Zr4  1  0.196626  0.732324  0.874403  1
  Zr  Zr5  1  0.571019  0.732320  0.125609  1
  Zr  Zr6  1  0.696626  0.874403  0.732324  1
  Zr  Zr7  1  0.303374  0.125597  0.267676  1
  Zr  Zr8  1  0.250000  0.500108  0.499892  1
  Zr  Zr9  1  0.750000  0.499892  0.500108  1
  Mn  Mn10  1  0.250004  0.000005  0.999994  1
  Mn  Mn11  1  0.749996  0.999995  0.000006  1
  Pb  Pb12  1  0.164534  0.500026  0.170906  1
  Pb  Pb13  1  0.835466  0.499974  0.829094  1
  Pb  Pb14  1  0.335467  0.829093  0.499974  1
  Pb  Pb15  1  0.664533  0.170907  0.500026  1
