# generated using pymatgen
data_TbDyLu2(B6Ru)2
_symmetry_space_group_name_H-M   'P 1'
_cell_length_a   3.62636100
_cell_length_b   9.07446401
_cell_length_c   11.46196202
_cell_angle_alpha   90.00642802
_cell_angle_beta   90.00000000
_cell_angle_gamma   90.00000000
_symmetry_Int_Tables_number   1
_chemical_formula_structural   TbDyLu2(B6Ru)2
_chemical_formula_sum   'Tb2 Dy2 Lu4 B24 Ru4'
_cell_volume   377.18201858
_cell_formula_units_Z   2
loop_
 _symmetry_equiv_pos_site_id
 _symmetry_equiv_pos_as_xyz
  1  'x, y, z'
loop_
 _atom_site_type_symbol
 _atom_site_label
 _atom_site_symmetry_multiplicity
 _atom_site_fract_x
 _atom_site_fract_y
 _atom_site_fract_z
 _atom_site_occupancy
  Tb  Tb0  1  0.000000  0.321732  0.414126  1
  Tb  Tb1  1  0.000000  0.678268  0.585874  1
  Dy  Dy2  1  0.000000  0.821687  0.085797  1
  Dy  Dy3  1  0.000000  0.178313  0.914203  1
  Lu  Lu4  1  0.000000  0.943964  0.372464  1
  Lu  Lu5  1  0.000000  0.056036  0.627536  1
  Lu  Lu6  1  0.000000  0.443989  0.127415  1
  Lu  Lu7  1  0.000000  0.556011  0.872585  1
  B  B8  1  0.500000  0.554759  0.432539  1
  B  B9  1  0.500000  0.445241  0.567461  1
  B  B10  1  0.500000  0.054619  0.067226  1
  B  B11  1  0.500000  0.945381  0.932774  1
  B  B12  1  0.500000  0.749899  0.419098  1
  B  B13  1  0.500000  0.250101  0.580902  1
  B  B14  1  0.500000  0.249791  0.080665  1
  B  B15  1  0.500000  0.750209  0.919335  1
  B  B16  1  0.500000  0.791910  0.265816  1
  B  B17  1  0.500000  0.208090  0.734184  1
  B  B18  1  0.500000  0.291784  0.233946  1
  B  B19  1  0.500000  0.708216  0.766054  1
  B  B20  1  0.500000  0.630776  0.184190  1
  B  B21  1  0.500000  0.369224  0.815810  1
  B  B22  1  0.500000  0.130598  0.315641  1
  B  B23  1  0.500000  0.869402  0.684359  1
  B  B24  1  0.500000  0.982939  0.213518  1
  B  B25  1  0.500000  0.017061  0.786482  1
  B  B26  1  0.500000  0.483156  0.286300  1
  B  B27  1  0.500000  0.516844  0.713700  1
  B  B28  1  0.500000  0.604107  0.028558  1
  B  B29  1  0.500000  0.395893  0.971442  1
  B  B30  1  0.500000  0.103784  0.471532  1
  B  B31  1  0.500000  0.896216  0.528468  1
  Ru  Ru32  1  0.000000  0.638822  0.319905  1
  Ru  Ru33  1  0.000000  0.361178  0.680095  1
  Ru  Ru34  1  0.000000  0.138565  0.179808  1
  Ru  Ru35  1  0.000000  0.861435  0.820192  1
