# generated using pymatgen
data_Ta2Nb4CrGa4CuC2
_symmetry_space_group_name_H-M   'P 1'
_cell_length_a   8.30166921
_cell_length_b   8.29275431
_cell_length_c   8.30166900
_cell_angle_alpha   59.91721104
_cell_angle_beta   59.92814244
_cell_angle_gamma   59.91720777
_symmetry_Int_Tables_number   1
_chemical_formula_structural   Ta2Nb4CrGa4CuC2
_chemical_formula_sum   'Ta4 Nb8 Cr2 Ga8 Cu2 C4'
_cell_volume   403.39844815
_cell_formula_units_Z   2
loop_
 _symmetry_equiv_pos_site_id
 _symmetry_equiv_pos_as_xyz
  1  'x, y, z'
loop_
 _atom_site_type_symbol
 _atom_site_label
 _atom_site_symmetry_multiplicity
 _atom_site_fract_x
 _atom_site_fract_y
 _atom_site_fract_z
 _atom_site_occupancy
  Ta  Ta0  1  0.566467  0.933164  0.933675  1
  Ta  Ta1  1  0.941169  0.938974  0.567571  1
  Ta  Ta2  1  0.698047  0.310737  0.683042  1
  Ta  Ta3  1  0.940667  0.567696  0.938578  1
  Nb  Nb4  1  0.553307  0.938707  0.566850  1
  Nb  Nb5  1  0.303704  0.696258  0.696679  1
  Nb  Nb6  1  0.684719  0.315417  0.315208  1
  Nb  Nb7  1  0.308054  0.683854  0.310298  1
  Nb  Nb8  1  0.698597  0.684038  0.310016  1
  Nb  Nb9  1  0.308943  0.310842  0.683369  1
  Nb  Nb10  1  0.552090  0.565949  0.939908  1
  Nb  Nb11  1  0.945967  0.553738  0.554448  1
  Cr  Cr12  1  0.124033  0.625309  0.124047  1
  Cr  Cr13  1  0.121560  0.125309  0.625621  1
  Ga  Ga14  1  0.911006  0.918013  0.918698  1
  Ga  Ga15  1  0.997795  0.331817  0.331199  1
  Ga  Ga16  1  0.337385  0.990076  0.336178  1
  Ga  Ga17  1  0.336982  0.335724  0.989887  1
  Ga  Ga18  1  0.913248  0.259767  0.914998  1
  Ga  Ga19  1  0.912835  0.914779  0.259999  1
  Ga  Ga20  1  0.252109  0.918781  0.917545  1
  Ga  Ga21  1  0.338406  0.331068  0.332386  1
  Cu  Cu22  1  0.125838  0.124882  0.125116  1
  Cu  Cu23  1  0.624804  0.125249  0.122339  1
  C  C24  1  0.625358  0.623372  0.625595  1
  C  C25  1  0.123342  0.626409  0.626384  1
  C  C26  1  0.627030  0.124154  0.626756  1
  C  C27  1  0.626536  0.625918  0.123609  1
