# generated using pymatgen
data_Tb2Er4ReBi2
_symmetry_space_group_name_H-M   'P 1'
_cell_length_a   8.24162700
_cell_length_b   8.24657318
_cell_length_c   4.33569700
_cell_angle_alpha   90.00000000
_cell_angle_beta   90.00000000
_cell_angle_gamma   119.98014919
_symmetry_Int_Tables_number   1
_chemical_formula_structural   Tb2Er4ReBi2
_chemical_formula_sum   'Tb2 Er4 Re1 Bi2'
_cell_volume   255.24830409
_cell_formula_units_Z   1
loop_
 _symmetry_equiv_pos_site_id
 _symmetry_equiv_pos_as_xyz
  1  'x, y, z'
loop_
 _atom_site_type_symbol
 _atom_site_label
 _atom_site_symmetry_multiplicity
 _atom_site_fract_x
 _atom_site_fract_y
 _atom_site_fract_z
 _atom_site_occupancy
  Tb  Tb0  1  0.000156  0.612349  0.500000  1
  Tb  Tb1  1  0.387807  0.387651  0.500000  1
  Er  Er2  1  0.231673  0.000000  0.000000  1
  Er  Er3  1  0.768189  0.768804  0.000000  1
  Er  Er4  1  0.999384  0.231196  0.000000  1
  Er  Er5  1  0.613388  0.000000  0.500000  1
  Re  Re6  1  0.998791  0.000000  0.500000  1
  Bi  Bi7  1  0.333943  0.667275  0.000000  1
  Bi  Bi8  1  0.666669  0.332725  0.000000  1
