# generated using pymatgen
data_Lu2PaMnGa5
_symmetry_space_group_name_H-M   'P 1'
_cell_length_a   6.64648000
_cell_length_b   6.91049135
_cell_length_c   4.29189900
_cell_angle_alpha   90.00000000
_cell_angle_beta   90.00000000
_cell_angle_gamma   118.74406382
_symmetry_Int_Tables_number   1
_chemical_formula_structural   Lu2PaMnGa5
_chemical_formula_sum   'Lu2 Pa1 Mn1 Ga5'
_cell_volume   172.83793381
_cell_formula_units_Z   1
loop_
 _symmetry_equiv_pos_site_id
 _symmetry_equiv_pos_as_xyz
  1  'x, y, z'
loop_
 _atom_site_type_symbol
 _atom_site_label
 _atom_site_symmetry_multiplicity
 _atom_site_fract_x
 _atom_site_fract_y
 _atom_site_fract_z
 _atom_site_occupancy
  Lu  Lu0  1  0.007579  0.605257  0.000000  1
  Lu  Lu1  1  0.402322  0.394743  0.000000  1
  Pa  Pa2  1  0.620804  0.000000  0.000000  1
  Mn  Mn3  1  0.947950  0.000000  0.000000  1
  Ga  Ga4  1  0.234612  0.000000  0.500000  1
  Ga  Ga5  1  0.013440  0.246189  0.500000  1
  Ga  Ga6  1  0.767252  0.753811  0.500000  1
  Ga  Ga7  1  0.335916  0.665794  0.500000  1
  Ga  Ga8  1  0.670123  0.334206  0.500000  1
