# generated using pymatgen
data_Zn4P6N13
_symmetry_space_group_name_H-M   'P 1'
_cell_length_a   7.01771031
_cell_length_b   7.01771078
_cell_length_c   7.01771100
_cell_angle_alpha   109.47121260
_cell_angle_beta   109.47121398
_cell_angle_gamma   109.47123000
_symmetry_Int_Tables_number   1
_chemical_formula_structural   Zn4P6N13
_chemical_formula_sum   'Zn4 P6 N13'
_cell_volume   266.05076949
_cell_formula_units_Z   1
loop_
 _symmetry_equiv_pos_site_id
 _symmetry_equiv_pos_as_xyz
  1  'x, y, z'
loop_
 _atom_site_type_symbol
 _atom_site_label
 _atom_site_symmetry_multiplicity
 _atom_site_fract_x
 _atom_site_fract_y
 _atom_site_fract_z
 _atom_site_occupancy
  Zn  Zn0  1  0.000000  0.716772  0.000000  1
  Zn  Zn1  1  0.716772  0.000000  0.000000  1
  Zn  Zn2  1  0.000000  0.000000  0.716772  1
  Zn  Zn3  1  0.283228  0.283228  0.283228  1
  P  P4  1  0.500000  0.250000  0.750000  1
  P  P5  1  0.500000  0.750000  0.250000  1
  P  P6  1  0.750000  0.500000  0.250000  1
  P  P7  1  0.250000  0.750000  0.500000  1
  P  P8  1  0.750000  0.250000  0.500000  1
  P  P9  1  0.250000  0.500000  0.750000  1
  N  N10  1  0.000000  0.734173  0.459030  1
  N  N11  1  0.275142  0.540970  0.540970  1
  N  N12  1  0.734173  0.459030  0.000000  1
  N  N13  1  0.265827  0.724858  0.265827  1
  N  N14  1  0.459030  0.000000  0.734173  1
  N  N15  1  0.724858  0.265827  0.265827  1
  N  N16  1  0.540970  0.275142  0.540970  1
  N  N17  1  0.734173  0.000000  0.459030  1
  N  N18  1  0.265827  0.265827  0.724858  1
  N  N19  1  0.459030  0.734173  0.000000  1
  N  N20  1  0.540970  0.540970  0.275142  1
  N  N21  1  0.000000  0.459030  0.734173  1
  N  N22  1  0.000000  0.000000  0.000000  1
