# generated using pymatgen
data_RbNa3(Ga2Se3)2
_symmetry_space_group_name_H-M   'P 1'
_cell_length_a   7.13812694
_cell_length_b   7.13812764
_cell_length_c   8.88579907
_cell_angle_alpha   82.23632678
_cell_angle_beta   82.23632875
_cell_angle_gamma   120.09624800
_symmetry_Int_Tables_number   1
_chemical_formula_structural   RbNa3(Ga2Se3)2
_chemical_formula_sum   'Rb1 Na3 Ga4 Se6'
_cell_volume   377.10733429
_cell_formula_units_Z   1
loop_
 _symmetry_equiv_pos_site_id
 _symmetry_equiv_pos_as_xyz
  1  'x, y, z'
loop_
 _atom_site_type_symbol
 _atom_site_label
 _atom_site_symmetry_multiplicity
 _atom_site_fract_x
 _atom_site_fract_y
 _atom_site_fract_z
 _atom_site_occupancy
  Rb  Rb0  1  0.500000  0.500000  0.500000  1
  Na  Na1  1  0.663369  0.336631  0.000000  1
  Na  Na2  1  0.336631  0.663369  0.000000  1
  Na  Na3  1  0.000000  0.000000  0.000000  1
  Ga  Ga4  1  0.881437  0.214617  0.354870  1
  Ga  Ga5  1  0.785383  0.118563  0.645130  1
  Ga  Ga6  1  0.214617  0.881437  0.354870  1
  Ga  Ga7  1  0.118563  0.785383  0.645130  1
  Se  Se8  1  0.411418  0.045233  0.768020  1
  Se  Se9  1  0.045233  0.411418  0.768020  1
  Se  Se10  1  0.954767  0.588582  0.231980  1
  Se  Se11  1  0.775004  0.775004  0.770975  1
  Se  Se12  1  0.588582  0.954767  0.231980  1
  Se  Se13  1  0.224996  0.224996  0.229025  1
