# generated using pymatgen
data_K4Nb8P5O34
_symmetry_space_group_name_H-M   'P 1'
_cell_length_a   10.78115900
_cell_length_b   10.78115900
_cell_length_c   6.52508000
_cell_angle_alpha   90.00000000
_cell_angle_beta   90.00000000
_cell_angle_gamma   90.00000000
_symmetry_Int_Tables_number   1
_chemical_formula_structural   K4Nb8P5O34
_chemical_formula_sum   'K4 Nb8 P5 O34'
_cell_volume   758.43216440
_cell_formula_units_Z   1
loop_
 _symmetry_equiv_pos_site_id
 _symmetry_equiv_pos_as_xyz
  1  'x, y, z'
loop_
 _atom_site_type_symbol
 _atom_site_label
 _atom_site_symmetry_multiplicity
 _atom_site_fract_x
 _atom_site_fract_y
 _atom_site_fract_z
 _atom_site_occupancy
  K  K0  1  0.500000  0.500000  0.500000  1
  K  K1  1  0.000000  0.500000  0.299221  1
  K  K2  1  0.500000  0.000000  0.700779  1
  K  K3  1  0.000000  0.000000  0.500000  1
  Nb  Nb4  1  0.177391  0.177391  0.000000  1
  Nb  Nb5  1  0.822609  0.822609  0.000000  1
  Nb  Nb6  1  0.822609  0.177391  0.000000  1
  Nb  Nb7  1  0.177391  0.822609  0.000000  1
  Nb  Nb8  1  0.500000  0.182421  0.201730  1
  Nb  Nb9  1  0.817579  0.500000  0.798270  1
  Nb  Nb10  1  0.182421  0.500000  0.798270  1
  Nb  Nb11  1  0.500000  0.817579  0.201730  1
  P  P12  1  0.500000  0.500000  0.000000  1
  P  P13  1  0.240542  0.240542  0.500000  1
  P  P14  1  0.240542  0.759458  0.500000  1
  P  P15  1  0.759458  0.759458  0.500000  1
  P  P16  1  0.759458  0.240542  0.500000  1
  O  O17  1  0.161185  0.196913  0.313352  1
  O  O18  1  0.838815  0.803087  0.313352  1
  O  O19  1  0.803087  0.161185  0.686648  1
  O  O20  1  0.196913  0.838815  0.686648  1
  O  O21  1  0.838815  0.196913  0.313352  1
  O  O22  1  0.803087  0.838815  0.686648  1
  O  O23  1  0.196913  0.161185  0.686648  1
  O  O24  1  0.161185  0.803087  0.313352  1
  O  O25  1  0.822756  0.000000  0.028501  1
  O  O26  1  0.000000  0.822756  0.971499  1
  O  O27  1  0.000000  0.177244  0.971499  1
  O  O28  1  0.177244  0.000000  0.028501  1
  O  O29  1  0.500000  0.383455  0.142612  1
  O  O30  1  0.616545  0.500000  0.857388  1
  O  O31  1  0.383455  0.500000  0.857388  1
  O  O32  1  0.500000  0.616545  0.142612  1
  O  O33  1  0.378466  0.215501  0.458271  1
  O  O34  1  0.500000  0.000000  0.256370  1
  O  O35  1  0.000000  0.500000  0.743630  1
  O  O36  1  0.364834  0.826151  0.021736  1
  O  O37  1  0.173849  0.364834  0.978264  1
  O  O38  1  0.826151  0.635166  0.978264  1
  O  O39  1  0.635166  0.173849  0.021736  1
  O  O40  1  0.173849  0.635166  0.978264  1
  O  O41  1  0.826151  0.364834  0.978264  1
  O  O42  1  0.635166  0.826151  0.021736  1
  O  O43  1  0.364834  0.173849  0.021736  1
  O  O44  1  0.378466  0.784499  0.458271  1
  O  O45  1  0.215501  0.378466  0.541729  1
  O  O46  1  0.784499  0.621534  0.541729  1
  O  O47  1  0.621534  0.215501  0.458271  1
  O  O48  1  0.215501  0.621534  0.541729  1
  O  O49  1  0.784499  0.378466  0.541729  1
  O  O50  1  0.621534  0.784499  0.458271  1
