# generated using pymatgen
data_CeDy5FeI10
_symmetry_space_group_name_H-M   'P 1'
_cell_length_a   7.78599134
_cell_length_b   9.82619894
_cell_length_c   9.65905600
_cell_angle_alpha   106.71395569
_cell_angle_beta   95.99449705
_cell_angle_gamma   105.28197435
_symmetry_Int_Tables_number   1
_chemical_formula_structural   CeDy5FeI10
_chemical_formula_sum   'Ce1 Dy5 Fe1 I10'
_cell_volume   669.61862390
_cell_formula_units_Z   1
loop_
 _symmetry_equiv_pos_site_id
 _symmetry_equiv_pos_as_xyz
  1  'x, y, z'
loop_
 _atom_site_type_symbol
 _atom_site_label
 _atom_site_symmetry_multiplicity
 _atom_site_fract_x
 _atom_site_fract_y
 _atom_site_fract_z
 _atom_site_occupancy
  Ce  Ce0  1  0.602997  0.037194  0.287620  1
  Dy  Dy1  1  0.470997  0.286746  0.587758  1
  Dy  Dy2  1  0.530818  0.713776  0.414949  1
  Dy  Dy3  1  0.850384  0.124566  0.666455  1
  Dy  Dy4  1  0.148832  0.873725  0.331398  1
  Dy  Dy5  1  0.393374  0.960513  0.714778  1
  Fe  Fe6  1  0.509909  0.004200  0.481292  1
  I  I7  1  0.412888  0.637079  0.684347  1
  I  I8  1  0.582880  0.377954  0.325536  1
  I  I9  1  0.282901  0.250215  0.845754  1
  I  I10  1  0.723113  0.735704  0.157150  1
  I  I11  1  0.851646  0.447775  0.771504  1
  I  I12  1  0.151310  0.551365  0.231354  1
  I  I13  1  0.050576  0.183684  0.410521  1
  I  I14  1  0.231199  0.911248  0.040762  1
  I  I15  1  0.744652  0.083254  0.952175  1
  I  I16  1  0.961524  0.821003  0.596647  1
