# generated using pymatgen
data_Tm10Tl3Pt
_symmetry_space_group_name_H-M   'P 1'
_cell_length_a   9.66873100
_cell_length_b   9.66873017
_cell_length_c   9.66157700
_cell_angle_alpha   90.00000000
_cell_angle_beta   90.00000000
_cell_angle_gamma   119.99999941
_symmetry_Int_Tables_number   1
_chemical_formula_structural   Tm10Tl3Pt
_chemical_formula_sum   'Tm20 Tl6 Pt2'
_cell_volume   782.19956786
_cell_formula_units_Z   2
loop_
 _symmetry_equiv_pos_site_id
 _symmetry_equiv_pos_as_xyz
  1  'x, y, z'
loop_
 _atom_site_type_symbol
 _atom_site_label
 _atom_site_symmetry_multiplicity
 _atom_site_fract_x
 _atom_site_fract_y
 _atom_site_fract_z
 _atom_site_occupancy
  Tm  Tm0  1  0.209289  0.790711  0.941648  1
  Tm  Tm1  1  0.209289  0.418578  0.941648  1
  Tm  Tm2  1  0.581422  0.790711  0.941648  1
  Tm  Tm3  1  0.790711  0.209289  0.058352  1
  Tm  Tm4  1  0.790711  0.581422  0.058352  1
  Tm  Tm5  1  0.418578  0.209289  0.058352  1
  Tm  Tm6  1  0.790711  0.209289  0.441648  1
  Tm  Tm7  1  0.790711  0.581422  0.441648  1
  Tm  Tm8  1  0.418578  0.209289  0.441648  1
  Tm  Tm9  1  0.209289  0.790711  0.558352  1
  Tm  Tm10  1  0.209289  0.418578  0.558352  1
  Tm  Tm11  1  0.581422  0.790711  0.558352  1
  Tm  Tm12  1  0.540919  0.459081  0.750000  1
  Tm  Tm13  1  0.540919  0.081838  0.750000  1
  Tm  Tm14  1  0.918162  0.459081  0.750000  1
  Tm  Tm15  1  0.459081  0.540919  0.250000  1
  Tm  Tm16  1  0.459081  0.918162  0.250000  1
  Tm  Tm17  1  0.081838  0.540919  0.250000  1
  Tm  Tm18  1  0.000000  0.000000  0.000000  1
  Tm  Tm19  1  0.000000  0.000000  0.500000  1
  Tl  Tl20  1  0.880914  0.119086  0.750000  1
  Tl  Tl21  1  0.880914  0.761829  0.750000  1
  Tl  Tl22  1  0.238171  0.119086  0.750000  1
  Tl  Tl23  1  0.119086  0.880914  0.250000  1
  Tl  Tl24  1  0.119086  0.238171  0.250000  1
  Tl  Tl25  1  0.761829  0.880914  0.250000  1
  Pt  Pt26  1  0.333333  0.666667  0.750000  1
  Pt  Pt27  1  0.666667  0.333333  0.250000  1
