# generated using pymatgen
data_Er12FeCo3SnRh
_symmetry_space_group_name_H-M   'P 1'
_cell_length_a   8.23076514
_cell_length_b   8.23076546
_cell_length_c   8.23076577
_cell_angle_alpha   110.82445730
_cell_angle_beta   110.62416559
_cell_angle_gamma   106.99316634
_symmetry_Int_Tables_number   1
_chemical_formula_structural   Er12FeCo3SnRh
_chemical_formula_sum   'Er12 Fe1 Co3 Sn1 Rh1'
_cell_volume   428.63830952
_cell_formula_units_Z   1
loop_
 _symmetry_equiv_pos_site_id
 _symmetry_equiv_pos_as_xyz
  1  'x, y, z'
loop_
 _atom_site_type_symbol
 _atom_site_label
 _atom_site_symmetry_multiplicity
 _atom_site_fract_x
 _atom_site_fract_y
 _atom_site_fract_z
 _atom_site_occupancy
  Er  Er0  1  0.311380  0.615752  0.304372  1
  Er  Er1  1  0.687270  0.382380  0.695110  1
  Er  Er2  1  0.311380  0.007008  0.695628  1
  Er  Er3  1  0.687270  0.992160  0.304890  1
  Er  Er4  1  0.409793  0.213282  0.196511  1
  Er  Er5  1  0.588946  0.786219  0.802727  1
  Er  Er6  1  0.016771  0.213282  0.803489  1
  Er  Er7  1  0.983492  0.786219  0.197273  1
  Er  Er8  1  0.186853  0.291669  0.476008  1
  Er  Er9  1  0.815661  0.710845  0.523992  1
  Er  Er10  1  0.186853  0.710845  0.895184  1
  Er  Er11  1  0.815661  0.291669  0.104816  1
  Fe  Fe12  1  0.109353  0.609353  0.500000  1
  Co  Co13  1  0.887653  0.387653  0.500000  1
  Co  Co14  1  0.380294  0.000176  0.380118  1
  Co  Co15  1  0.620057  0.000176  0.619882  1
  Sn  Sn16  1  0.500661  0.500661  0.000000  1
  Rh  Rh17  1  0.000655  0.000655  0.000000  1
