# generated using pymatgen
data_Tb8Sc12Sn5Sb11
_symmetry_space_group_name_H-M   'P 1'
_cell_length_a   7.81844200
_cell_length_b   7.84180135
_cell_length_c   14.67259600
_cell_angle_alpha   90.00000000
_cell_angle_beta   90.00000000
_cell_angle_gamma   90.15676752
_symmetry_Int_Tables_number   1
_chemical_formula_structural   Tb8Sc12Sn5Sb11
_chemical_formula_sum   'Tb8 Sc12 Sn5 Sb11'
_cell_volume   899.58331023
_cell_formula_units_Z   1
loop_
 _symmetry_equiv_pos_site_id
 _symmetry_equiv_pos_as_xyz
  1  'x, y, z'
loop_
 _atom_site_type_symbol
 _atom_site_label
 _atom_site_symmetry_multiplicity
 _atom_site_fract_x
 _atom_site_fract_y
 _atom_site_fract_z
 _atom_site_occupancy
  Tb  Tb0  1  0.979019  0.182769  0.094117  1
  Tb  Tb1  1  0.020531  0.816572  0.904878  1
  Tb  Tb2  1  0.519441  0.682452  0.907535  1
  Tb  Tb3  1  0.020531  0.816572  0.595122  1
  Tb  Tb4  1  0.479634  0.317893  0.093765  1
  Tb  Tb5  1  0.979019  0.182769  0.405883  1
  Tb  Tb6  1  0.479634  0.317893  0.406235  1
  Tb  Tb7  1  0.519441  0.682452  0.592465  1
  Sc  Sc8  1  0.178649  0.497544  0.750000  1
  Sc  Sc9  1  0.819991  0.503025  0.250000  1
  Sc  Sc10  1  0.319718  0.997438  0.250000  1
  Sc  Sc11  1  0.680431  0.002389  0.750000  1
  Sc  Sc12  1  0.354563  0.152945  0.626886  1
  Sc  Sc13  1  0.648799  0.849694  0.373685  1
  Sc  Sc14  1  0.150607  0.650650  0.374208  1
  Sc  Sc15  1  0.648799  0.849694  0.126315  1
  Sc  Sc16  1  0.852324  0.347795  0.625393  1
  Sc  Sc17  1  0.354563  0.152945  0.873114  1
  Sc  Sc18  1  0.852324  0.347795  0.874607  1
  Sc  Sc19  1  0.150607  0.650650  0.125792  1
  Sn  Sn20  1  0.544536  0.376325  0.750000  1
  Sn  Sn21  1  0.329111  0.843691  0.750000  1
  Sn  Sn22  1  0.671762  0.155835  0.250000  1
  Sn  Sn23  1  0.171976  0.344601  0.250000  1
  Sn  Sn24  1  0.821499  0.651161  0.750000  1
  Sb  Sb25  1  0.044773  0.127431  0.750000  1
  Sb  Sb26  1  0.954826  0.871081  0.250000  1
  Sb  Sb27  1  0.454658  0.628407  0.250000  1
  Sb  Sb28  1  0.201519  0.452612  0.545017  1
  Sb  Sb29  1  0.797933  0.547087  0.454136  1
  Sb  Sb30  1  0.296508  0.954528  0.455054  1
  Sb  Sb31  1  0.797933  0.547087  0.045864  1
  Sb  Sb32  1  0.703157  0.045539  0.545001  1
  Sb  Sb33  1  0.201519  0.452612  0.954983  1
  Sb  Sb34  1  0.703157  0.045539  0.954999  1
  Sb  Sb35  1  0.296508  0.954528  0.044946  1
