# generated using pymatgen
data_LuZrAgS4
_symmetry_space_group_name_H-M   'P 1'
_cell_length_a   7.74484930
_cell_length_b   7.74484983
_cell_length_c   10.96361577
_cell_angle_alpha   90.73672402
_cell_angle_beta   90.73672690
_cell_angle_gamma   89.55945101
_symmetry_Int_Tables_number   1
_chemical_formula_structural   LuZrAgS4
_chemical_formula_sum   'Lu4 Zr4 Ag4 S16'
_cell_volume   657.49987986
_cell_formula_units_Z   4
loop_
 _symmetry_equiv_pos_site_id
 _symmetry_equiv_pos_as_xyz
  1  'x, y, z'
loop_
 _atom_site_type_symbol
 _atom_site_label
 _atom_site_symmetry_multiplicity
 _atom_site_fract_x
 _atom_site_fract_y
 _atom_site_fract_z
 _atom_site_occupancy
  Lu  Lu0  1  0.002307  0.748680  0.623639  1
  Lu  Lu1  1  0.748680  0.502307  0.873639  1
  Lu  Lu2  1  0.248680  0.002307  0.373639  1
  Lu  Lu3  1  0.502307  0.248680  0.123639  1
  Zr  Zr4  1  0.999716  0.245282  0.624166  1
  Zr  Zr5  1  0.745282  0.999716  0.374166  1
  Zr  Zr6  1  0.499716  0.745282  0.124166  1
  Zr  Zr7  1  0.245282  0.499716  0.874166  1
  Ag  Ag8  1  0.006727  0.997947  0.002807  1
  Ag  Ag9  1  0.506727  0.497947  0.502807  1
  Ag  Ag10  1  0.497947  0.006727  0.752807  1
  Ag  Ag11  1  0.997947  0.506727  0.252807  1
  S  S12  1  0.987359  0.235668  0.386912  1
  S  S13  1  0.764443  0.007722  0.613364  1
  S  S14  1  0.992760  0.775494  0.382010  1
  S  S15  1  0.730081  0.505813  0.117102  1
  S  S16  1  0.507722  0.764443  0.363364  1
  S  S17  1  0.275494  0.992760  0.132010  1
  S  S18  1  0.505813  0.230081  0.367102  1
  S  S19  1  0.735668  0.987359  0.136912  1
  S  S20  1  0.487359  0.735668  0.886912  1
  S  S21  1  0.264443  0.507722  0.113364  1
  S  S22  1  0.492760  0.275494  0.882010  1
  S  S23  1  0.230081  0.005813  0.617102  1
  S  S24  1  0.007722  0.264443  0.863364  1
  S  S25  1  0.775494  0.492760  0.632010  1
  S  S26  1  0.005813  0.730081  0.867102  1
  S  S27  1  0.235668  0.487359  0.636912  1
