# generated using pymatgen
data_Tb5HoNi12(B2Ir)2
_symmetry_space_group_name_H-M   'P 1'
_cell_length_a   5.10100113
_cell_length_b   5.08902888
_cell_length_c   14.59461207
_cell_angle_alpha   90.01082108
_cell_angle_beta   89.99150842
_cell_angle_gamma   119.87789509
_symmetry_Int_Tables_number   1
_chemical_formula_structural   Tb5HoNi12(B2Ir)2
_chemical_formula_sum   'Tb5 Ho1 Ni12 B4 Ir2'
_cell_volume   328.50846172
_cell_formula_units_Z   1
loop_
 _symmetry_equiv_pos_site_id
 _symmetry_equiv_pos_as_xyz
  1  'x, y, z'
loop_
 _atom_site_type_symbol
 _atom_site_label
 _atom_site_symmetry_multiplicity
 _atom_site_fract_x
 _atom_site_fract_y
 _atom_site_fract_z
 _atom_site_occupancy
  Tb  Tb0  1  0.333536  0.666832  0.968711  1
  Tb  Tb1  1  0.333594  0.666852  0.531538  1
  Tb  Tb2  1  0.666409  0.333134  0.468451  1
  Tb  Tb3  1  0.666729  0.333386  0.249649  1
  Tb  Tb4  1  0.333304  0.666641  0.750023  1
  Ho  Ho5  1  0.666311  0.333076  0.031463  1
  Ni  Ni6  1  0.834688  0.669253  0.652696  1
  Ni  Ni7  1  0.834606  0.165549  0.652634  1
  Ni  Ni8  1  0.331011  0.165527  0.652688  1
  Ni  Ni9  1  0.165341  0.330726  0.347421  1
  Ni  Ni10  1  0.165404  0.834520  0.347450  1
  Ni  Ni11  1  0.669121  0.834549  0.347336  1
  Ni  Ni12  1  0.165232  0.330614  0.152215  1
  Ni  Ni13  1  0.165328  0.834544  0.152177  1
  Ni  Ni14  1  0.669138  0.834540  0.152276  1
  Ni  Ni15  1  0.834664  0.669226  0.847663  1
  Ni  Ni16  1  0.834586  0.165524  0.847700  1
  Ni  Ni17  1  0.330969  0.165481  0.847626  1
  B  B18  1  0.667117  0.333592  0.750025  1
  B  B19  1  0.332846  0.666364  0.249945  1
  B  B20  1  0.999732  0.999823  0.750259  1
  B  B21  1  0.000296  0.000218  0.249903  1
  Ir  Ir22  1  0.000007  0.999995  0.500078  1
  Ir  Ir23  1  0.000030  0.000035  0.000073  1
