# generated using pymatgen
data_Y20Zn3Cd3Ir2
_symmetry_space_group_name_H-M   'P 1'
_cell_length_a   9.65047700
_cell_length_b   9.65047791
_cell_length_c   9.67542000
_cell_angle_alpha   90.00000000
_cell_angle_beta   90.00000000
_cell_angle_gamma   120.00000032
_symmetry_Int_Tables_number   1
_chemical_formula_structural   Y20Zn3Cd3Ir2
_chemical_formula_sum   'Y20 Zn3 Cd3 Ir2'
_cell_volume   780.36549387
_cell_formula_units_Z   1
loop_
 _symmetry_equiv_pos_site_id
 _symmetry_equiv_pos_as_xyz
  1  'x, y, z'
loop_
 _atom_site_type_symbol
 _atom_site_label
 _atom_site_symmetry_multiplicity
 _atom_site_fract_x
 _atom_site_fract_y
 _atom_site_fract_z
 _atom_site_occupancy
  Y  Y0  1  0.000000  0.000000  0.473779  1
  Y  Y1  1  0.000000  0.000000  0.026221  1
  Y  Y2  1  0.207407  0.792593  0.438859  1
  Y  Y3  1  0.207407  0.414814  0.438859  1
  Y  Y4  1  0.585186  0.792593  0.438859  1
  Y  Y5  1  0.791759  0.208241  0.558212  1
  Y  Y6  1  0.791759  0.583518  0.558212  1
  Y  Y7  1  0.416482  0.208241  0.558212  1
  Y  Y8  1  0.791759  0.208241  0.941788  1
  Y  Y9  1  0.791759  0.583518  0.941788  1
  Y  Y10  1  0.416482  0.208241  0.941788  1
  Y  Y11  1  0.207407  0.792593  0.061141  1
  Y  Y12  1  0.207407  0.414814  0.061141  1
  Y  Y13  1  0.585186  0.792593  0.061141  1
  Y  Y14  1  0.541571  0.458429  0.250000  1
  Y  Y15  1  0.541571  0.083144  0.250000  1
  Y  Y16  1  0.916856  0.458429  0.250000  1
  Y  Y17  1  0.458683  0.541317  0.750000  1
  Y  Y18  1  0.458683  0.917364  0.750000  1
  Y  Y19  1  0.082636  0.541317  0.750000  1
  Zn  Zn20  1  0.877173  0.122827  0.250000  1
  Zn  Zn21  1  0.877173  0.754346  0.250000  1
  Zn  Zn22  1  0.245654  0.122827  0.250000  1
  Cd  Cd23  1  0.110331  0.889669  0.750000  1
  Cd  Cd24  1  0.110331  0.220662  0.750000  1
  Cd  Cd25  1  0.779338  0.889669  0.750000  1
  Ir  Ir26  1  0.333333  0.666667  0.250000  1
  Ir  Ir27  1  0.666667  0.333333  0.750000  1
