# generated using pymatgen
data_Ta11TiGa8(CuC)4
_symmetry_space_group_name_H-M   'P 1'
_cell_length_a   8.27442278
_cell_length_b   8.26070567
_cell_length_c   8.27442778
_cell_angle_alpha   60.05554744
_cell_angle_beta   59.91858819
_cell_angle_gamma   60.05549750
_symmetry_Int_Tables_number   1
_chemical_formula_structural   Ta11TiGa8(CuC)4
_chemical_formula_sum   'Ta11 Ti1 Ga8 Cu4 C4'
_cell_volume   400.01236870
_cell_formula_units_Z   1
loop_
 _symmetry_equiv_pos_site_id
 _symmetry_equiv_pos_as_xyz
  1  'x, y, z'
loop_
 _atom_site_type_symbol
 _atom_site_label
 _atom_site_symmetry_multiplicity
 _atom_site_fract_x
 _atom_site_fract_y
 _atom_site_fract_z
 _atom_site_occupancy
  Ta  Ta0  1  0.317002  0.684037  0.683384  1
  Ta  Ta1  1  0.683397  0.315527  0.317013  1
  Ta  Ta2  1  0.316057  0.683946  0.316057  1
  Ta  Ta3  1  0.683384  0.684037  0.317001  1
  Ta  Ta4  1  0.317013  0.315527  0.683397  1
  Ta  Ta5  1  0.566995  0.564816  0.933249  1
  Ta  Ta6  1  0.933248  0.564816  0.566995  1
  Ta  Ta7  1  0.567003  0.934892  0.933259  1
  Ta  Ta8  1  0.933259  0.934892  0.567003  1
  Ta  Ta9  1  0.683820  0.316148  0.683820  1
  Ta  Ta10  1  0.932783  0.567214  0.932783  1
  Ti  Ti11  1  0.567589  0.932383  0.567589  1
  Ga  Ga12  1  0.915693  0.914962  0.915692  1
  Ga  Ga13  1  0.994712  0.335138  0.334900  1
  Ga  Ga14  1  0.334688  0.995895  0.334689  1
  Ga  Ga15  1  0.334899  0.335138  0.994712  1
  Ga  Ga16  1  0.915674  0.253693  0.915673  1
  Ga  Ga17  1  0.911111  0.914788  0.259212  1
  Ga  Ga18  1  0.259212  0.914788  0.911110  1
  Ga  Ga19  1  0.334711  0.334726  0.334712  1
  Cu  Cu20  1  0.125018  0.123657  0.125018  1
  Cu  Cu21  1  0.624873  0.125257  0.125163  1
  Cu  Cu22  1  0.125204  0.626091  0.125204  1
  Cu  Cu23  1  0.125163  0.125257  0.624873  1
  C  C24  1  0.624059  0.629369  0.624059  1
  C  C25  1  0.125470  0.625277  0.623907  1
  C  C26  1  0.624054  0.122455  0.624054  1
  C  C27  1  0.623907  0.625277  0.125470  1
