# generated using pymatgen
data_PaRuF10
_symmetry_space_group_name_H-M   'P 1'
_cell_length_a   9.23400660
_cell_length_b   9.23400730
_cell_length_c   5.43040331
_cell_angle_alpha   86.20700041
_cell_angle_beta   86.20700030
_cell_angle_gamma   112.44263728
_symmetry_Int_Tables_number   1
_chemical_formula_structural   PaRuF10
_chemical_formula_sum   'Pa2 Ru2 F20'
_cell_volume   424.92437876
_cell_formula_units_Z   2
loop_
 _symmetry_equiv_pos_site_id
 _symmetry_equiv_pos_as_xyz
  1  'x, y, z'
loop_
 _atom_site_type_symbol
 _atom_site_label
 _atom_site_symmetry_multiplicity
 _atom_site_fract_x
 _atom_site_fract_y
 _atom_site_fract_z
 _atom_site_occupancy
  Pa  Pa0  1  0.745078  0.745078  0.750744  1
  Pa  Pa1  1  0.254922  0.254922  0.249256  1
  Ru  Ru2  1  0.197659  0.802341  0.000000  1
  Ru  Ru3  1  0.802341  0.197659  0.000000  1
  F  F4  1  0.389655  0.830839  0.113420  1
  F  F5  1  0.169161  0.610345  0.886580  1
  F  F6  1  0.610345  0.169161  0.886580  1
  F  F7  1  0.830839  0.389655  0.113420  1
  F  F8  1  0.136359  0.136359  0.582527  1
  F  F9  1  0.863641  0.863641  0.417473  1
  F  F10  1  0.352341  0.352341  0.896739  1
  F  F11  1  0.647659  0.647659  0.103261  1
  F  F12  1  0.269466  0.468300  0.353053  1
  F  F13  1  0.531700  0.730534  0.646947  1
  F  F14  1  0.730534  0.531700  0.646947  1
  F  F15  1  0.468300  0.269466  0.353053  1
  F  F16  1  0.011559  0.214941  0.115085  1
  F  F17  1  0.785059  0.988441  0.884915  1
  F  F18  1  0.988441  0.785059  0.884915  1
  F  F19  1  0.214941  0.011559  0.115085  1
  F  F20  1  0.911377  0.292569  0.690989  1
  F  F21  1  0.707431  0.088623  0.309011  1
  F  F22  1  0.088623  0.707431  0.309011  1
  F  F23  1  0.292569  0.911377  0.690989  1
