# generated using pymatgen
data_Tm4AlZn4In3
_symmetry_space_group_name_H-M   'P 1'
_cell_length_a   4.58699200
_cell_length_b   4.58699098
_cell_length_c   14.41156900
_cell_angle_alpha   90.00000000
_cell_angle_beta   90.00000000
_cell_angle_gamma   119.99999292
_symmetry_Int_Tables_number   1
_chemical_formula_structural   Tm4AlZn4In3
_chemical_formula_sum   'Tm4 Al1 Zn4 In3'
_cell_volume   262.60185949
_cell_formula_units_Z   1
loop_
 _symmetry_equiv_pos_site_id
 _symmetry_equiv_pos_as_xyz
  1  'x, y, z'
loop_
 _atom_site_type_symbol
 _atom_site_label
 _atom_site_symmetry_multiplicity
 _atom_site_fract_x
 _atom_site_fract_y
 _atom_site_fract_z
 _atom_site_occupancy
  Tm  Tm0  1  0.000000  0.000000  0.504195  1
  Tm  Tm1  1  0.000000  0.000000  0.999962  1
  Tm  Tm2  1  0.000000  0.000000  0.251624  1
  Tm  Tm3  1  0.000000  0.000000  0.745812  1
  Al  Al4  1  0.333333  0.666667  0.611651  1
  Zn  Zn5  1  0.333333  0.666667  0.408891  1
  Zn  Zn6  1  0.666667  0.333333  0.645348  1
  Zn  Zn7  1  0.666667  0.333333  0.844709  1
  Zn  Zn8  1  0.333333  0.666667  0.097797  1
  In  In9  1  0.333333  0.666667  0.886792  1
  In  In10  1  0.666667  0.333333  0.138287  1
  In  In11  1  0.666667  0.333333  0.364934  1
