# generated using pymatgen
data_TmLu5Si2Os
_symmetry_space_group_name_H-M   'P 1'
_cell_length_a   7.55191100
_cell_length_b   7.54894327
_cell_length_c   4.28084200
_cell_angle_alpha   90.00000000
_cell_angle_beta   90.00000000
_cell_angle_gamma   120.01300116
_symmetry_Int_Tables_number   1
_chemical_formula_structural   TmLu5Si2Os
_chemical_formula_sum   'Tm1 Lu5 Si2 Os1'
_cell_volume   211.32259954
_cell_formula_units_Z   1
loop_
 _symmetry_equiv_pos_site_id
 _symmetry_equiv_pos_as_xyz
  1  'x, y, z'
loop_
 _atom_site_type_symbol
 _atom_site_label
 _atom_site_symmetry_multiplicity
 _atom_site_fract_x
 _atom_site_fract_y
 _atom_site_fract_z
 _atom_site_occupancy
  Tm  Tm0  1  0.401480  0.000000  0.000000  1
  Lu  Lu1  1  0.000095  0.401044  0.000000  1
  Lu  Lu2  1  0.599051  0.598956  0.000000  1
  Lu  Lu3  1  0.747982  0.000000  0.499999  1
  Lu  Lu4  1  0.252095  0.252513  0.499999  1
  Lu  Lu5  1  0.999582  0.747487  0.499999  1
  Si  Si6  1  0.666958  0.333816  0.499999  1
  Si  Si7  1  0.333143  0.666185  0.499999  1
  Os  Os8  1  0.999615  0.000000  0.000000  1
