# generated using pymatgen
data_Er4Si10Pt5Rh
_symmetry_space_group_name_H-M   'P 1'
_cell_length_a   8.13668546
_cell_length_b   8.13668562
_cell_length_c   8.13668452
_cell_angle_alpha   136.87339194
_cell_angle_beta   104.06778717
_cell_angle_gamma   91.55207054
_symmetry_Int_Tables_number   1
_chemical_formula_structural   Er4Si10Pt5Rh
_chemical_formula_sum   'Er4 Si10 Pt5 Rh1'
_cell_volume   339.80474357
_cell_formula_units_Z   1
loop_
 _symmetry_equiv_pos_site_id
 _symmetry_equiv_pos_as_xyz
  1  'x, y, z'
loop_
 _atom_site_type_symbol
 _atom_site_label
 _atom_site_symmetry_multiplicity
 _atom_site_fract_x
 _atom_site_fract_y
 _atom_site_fract_z
 _atom_site_occupancy
  Er  Er0  1  0.640302  0.869765  0.771720  1
  Er  Er1  1  0.359698  0.131419  0.229464  1
  Er  Er2  1  0.098045  0.368581  0.728280  1
  Er  Er3  1  0.901955  0.630234  0.270536  1
  Si  Si4  1  0.275349  0.025349  0.750000  1
  Si  Si5  1  0.727136  0.977136  0.250000  1
  Si  Si6  1  0.724651  0.474651  0.750000  1
  Si  Si7  1  0.272864  0.522864  0.250000  1
  Si  Si8  1  0.457092  0.603796  0.843875  1
  Si  Si9  1  0.542908  0.386782  0.146703  1
  Si  Si10  1  0.759921  0.113218  0.656125  1
  Si  Si11  1  0.240079  0.896204  0.353297  1
  Si  Si12  1  0.000000  0.750000  0.750000  1
  Si  Si13  1  0.000000  0.250000  0.250000  1
  Pt  Pt14  1  0.252755  0.639691  0.615480  1
  Pt  Pt15  1  0.747245  0.362724  0.386935  1
  Pt  Pt16  1  0.024211  0.137276  0.884520  1
  Pt  Pt17  1  0.975789  0.860309  0.113065  1
  Pt  Pt18  1  0.500000  0.750000  0.250000  1
  Rh  Rh19  1  0.500000  0.250000  0.750000  1
