# generated using pymatgen
data_Dy2LuFe8Co
_symmetry_space_group_name_H-M   'P 1'
_cell_length_a   5.04465113
_cell_length_b   5.04465159
_cell_length_c   8.56214300
_cell_angle_alpha   72.86703345
_cell_angle_beta   72.86703184
_cell_angle_gamma   60.00000427
_symmetry_Int_Tables_number   1
_chemical_formula_structural   Dy2LuFe8Co
_chemical_formula_sum   'Dy2 Lu1 Fe8 Co1'
_cell_volume   177.44856894
_cell_formula_units_Z   1
loop_
 _symmetry_equiv_pos_site_id
 _symmetry_equiv_pos_as_xyz
  1  'x, y, z'
loop_
 _atom_site_type_symbol
 _atom_site_label
 _atom_site_symmetry_multiplicity
 _atom_site_fract_x
 _atom_site_fract_y
 _atom_site_fract_z
 _atom_site_occupancy
  Dy  Dy0  1  0.857766  0.857766  0.426832  1
  Dy  Dy1  1  0.000150  0.000150  0.999527  1
  Lu  Lu2  1  0.141859  0.141859  0.574339  1
  Fe  Fe3  1  0.417540  0.417540  0.247065  1
  Fe  Fe4  1  0.917843  0.417703  0.246896  1
  Fe  Fe5  1  0.417703  0.917843  0.246896  1
  Fe  Fe6  1  0.582385  0.582385  0.752715  1
  Fe  Fe7  1  0.082525  0.582199  0.752858  1
  Fe  Fe8  1  0.582199  0.082525  0.752858  1
  Fe  Fe9  1  0.667238  0.667238  0.998254  1
  Fe  Fe10  1  0.332911  0.332911  0.001380  1
  Co  Co11  1  0.499880  0.499880  0.500382  1
