# generated using pymatgen
data_Yb2Th(SnPt)3
_symmetry_space_group_name_H-M   'P 1'
_cell_length_a   7.51228449
_cell_length_b   7.51228325
_cell_length_c   4.12786700
_cell_angle_alpha   90.00000000
_cell_angle_beta   90.00000000
_cell_angle_gamma   119.40434415
_symmetry_Int_Tables_number   1
_chemical_formula_structural   Yb2Th(SnPt)3
_chemical_formula_sum   'Yb2 Th1 Sn3 Pt3'
_cell_volume   202.94383950
_cell_formula_units_Z   1
loop_
 _symmetry_equiv_pos_site_id
 _symmetry_equiv_pos_as_xyz
  1  'x, y, z'
loop_
 _atom_site_type_symbol
 _atom_site_label
 _atom_site_symmetry_multiplicity
 _atom_site_fract_x
 _atom_site_fract_y
 _atom_site_fract_z
 _atom_site_occupancy
  Yb  Yb0  1  0.592199  0.000033  0.000000  1
  Yb  Yb1  1  0.000033  0.592199  0.000000  1
  Th  Th2  1  0.416024  0.416024  0.000000  1
  Sn  Sn3  1  0.986643  0.254521  0.500000  1
  Sn  Sn4  1  0.756268  0.756268  0.500000  1
  Sn  Sn5  1  0.254521  0.986643  0.500000  1
  Pt  Pt6  1  0.651995  0.331838  0.500000  1
  Pt  Pt7  1  0.010479  0.010479  0.000000  1
  Pt  Pt8  1  0.331838  0.651995  0.500000  1
