# generated using pymatgen
data_Sm4Cd2Si3Ge
_symmetry_space_group_name_H-M   'P 1'
_cell_length_a   7.32686054
_cell_length_b   7.32686054
_cell_length_c   4.30953800
_cell_angle_alpha   90.00000000
_cell_angle_beta   90.00000000
_cell_angle_gamma   90.07436785
_symmetry_Int_Tables_number   1
_chemical_formula_structural   Sm4Cd2Si3Ge
_chemical_formula_sum   'Sm4 Cd2 Si3 Ge1'
_cell_volume   231.34823977
_cell_formula_units_Z   1
loop_
 _symmetry_equiv_pos_site_id
 _symmetry_equiv_pos_as_xyz
  1  'x, y, z'
loop_
 _atom_site_type_symbol
 _atom_site_label
 _atom_site_symmetry_multiplicity
 _atom_site_fract_x
 _atom_site_fract_y
 _atom_site_fract_z
 _atom_site_occupancy
  Sm  Sm0  1  0.680880  0.178633  0.500000  1
  Sm  Sm1  1  0.321367  0.819120  0.500000  1
  Sm  Sm2  1  0.177166  0.322834  0.500000  1
  Sm  Sm3  1  0.821683  0.678317  0.500000  1
  Cd  Cd4  1  0.501082  0.502653  0.000000  1
  Cd  Cd5  1  0.997347  0.998918  0.000000  1
  Si  Si6  1  0.115718  0.615871  0.000000  1
  Si  Si7  1  0.884129  0.384282  0.000000  1
  Si  Si8  1  0.618793  0.881207  0.000000  1
  Ge  Ge9  1  0.381835  0.118165  0.000000  1
