# generated using pymatgen
data_Dy2Si3(AsRh3)4
_symmetry_space_group_name_H-M   'P 1'
_cell_length_a   9.88567900
_cell_length_b   9.88567999
_cell_length_c   3.89436800
_cell_angle_alpha   90.00000000
_cell_angle_beta   90.00000000
_cell_angle_gamma   120.00000004
_symmetry_Int_Tables_number   1
_chemical_formula_structural   Dy2Si3(AsRh3)4
_chemical_formula_sum   'Dy2 Si3 As4 Rh12'
_cell_volume   329.59504303
_cell_formula_units_Z   1
loop_
 _symmetry_equiv_pos_site_id
 _symmetry_equiv_pos_as_xyz
  1  'x, y, z'
loop_
 _atom_site_type_symbol
 _atom_site_label
 _atom_site_symmetry_multiplicity
 _atom_site_fract_x
 _atom_site_fract_y
 _atom_site_fract_z
 _atom_site_occupancy
  Dy  Dy0  1  0.333333  0.666667  0.244541  1
  Dy  Dy1  1  0.666667  0.333333  0.743664  1
  Si  Si2  1  0.403822  0.112888  0.242647  1
  Si  Si3  1  0.709066  0.596178  0.242647  1
  Si  Si4  1  0.887112  0.290934  0.242647  1
  As  As5  1  0.000000  0.000000  0.628601  1
  As  As6  1  0.595639  0.882742  0.745579  1
  As  As7  1  0.287102  0.404361  0.745579  1
  As  As8  1  0.117258  0.712898  0.745579  1
  Rh  Rh9  1  0.449531  0.379488  0.242288  1
  Rh  Rh10  1  0.929956  0.550469  0.242288  1
  Rh  Rh11  1  0.620512  0.070044  0.242288  1
  Rh  Rh12  1  0.558179  0.615732  0.744535  1
  Rh  Rh13  1  0.057552  0.441821  0.744535  1
  Rh  Rh14  1  0.384268  0.942448  0.744535  1
  Rh  Rh15  1  0.146013  0.888238  0.244727  1
  Rh  Rh16  1  0.742225  0.853987  0.244727  1
  Rh  Rh17  1  0.111762  0.257775  0.244727  1
  Rh  Rh18  1  0.848268  0.124948  0.741289  1
  Rh  Rh19  1  0.276680  0.151732  0.741289  1
  Rh  Rh20  1  0.875052  0.723320  0.741289  1
