# generated using pymatgen
data_Ba5Ca5Bi8
_symmetry_space_group_name_H-M   'P 1'
_cell_length_a   9.16350387
_cell_length_b   8.78642554
_cell_length_c   9.05951424
_cell_angle_alpha   69.47613978
_cell_angle_beta   89.79956468
_cell_angle_gamma   88.02943712
_symmetry_Int_Tables_number   1
_chemical_formula_structural   Ba5Ca5Bi8
_chemical_formula_sum   'Ba5 Ca5 Bi8'
_cell_volume   682.69011869
_cell_formula_units_Z   1
loop_
 _symmetry_equiv_pos_site_id
 _symmetry_equiv_pos_as_xyz
  1  'x, y, z'
loop_
 _atom_site_type_symbol
 _atom_site_label
 _atom_site_symmetry_multiplicity
 _atom_site_fract_x
 _atom_site_fract_y
 _atom_site_fract_z
 _atom_site_occupancy
  Ba  Ba0  1  0.323188  0.054120  0.306418  1
  Ba  Ba1  1  0.186558  0.555430  0.317252  1
  Ba  Ba2  1  0.811832  0.444838  0.680913  1
  Ba  Ba3  1  0.348444  0.254479  0.741033  1
  Ba  Ba4  1  0.679727  0.947918  0.689406  1
  Ca  Ca5  1  0.998652  0.996500  0.004483  1
  Ca  Ca6  1  0.842244  0.246886  0.251655  1
  Ca  Ca7  1  0.160328  0.752779  0.750093  1
  Ca  Ca8  1  0.642689  0.746596  0.256767  1
  Ca  Ca9  1  0.505451  0.502291  0.000726  1
  Bi  Bi10  1  0.875069  0.635401  0.010144  1
  Bi  Bi11  1  0.953335  0.853722  0.416006  1
  Bi  Bi12  1  0.117561  0.371698  0.995198  1
  Bi  Bi13  1  0.549765  0.344248  0.391282  1
  Bi  Bi14  1  0.355211  0.847005  0.008069  1
  Bi  Bi15  1  0.457600  0.673300  0.593978  1
  Bi  Bi16  1  0.038600  0.135023  0.582186  1
  Bi  Bi17  1  0.653748  0.137769  0.004391  1
