# generated using pymatgen
data_Dy3Y2Ni16(MoAs4)3
_symmetry_space_group_name_H-M   'P 1'
_cell_length_a   12.64578200
_cell_length_b   12.64578210
_cell_length_c   3.86039200
_cell_angle_alpha   90.00000000
_cell_angle_beta   90.00000000
_cell_angle_gamma   120.00000497
_symmetry_Int_Tables_number   1
_chemical_formula_structural   Dy3Y2Ni16(MoAs4)3
_chemical_formula_sum   'Dy3 Y2 Ni16 Mo3 As12'
_cell_volume   534.63009466
_cell_formula_units_Z   1
loop_
 _symmetry_equiv_pos_site_id
 _symmetry_equiv_pos_as_xyz
  1  'x, y, z'
loop_
 _atom_site_type_symbol
 _atom_site_label
 _atom_site_symmetry_multiplicity
 _atom_site_fract_x
 _atom_site_fract_y
 _atom_site_fract_z
 _atom_site_occupancy
  Dy  Dy0  1  0.185635  0.185635  0.500000  1
  Dy  Dy1  1  0.814365  0.000000  0.500000  1
  Dy  Dy2  1  0.000000  0.814365  0.500000  1
  Y  Y3  1  0.333333  0.666667  0.000000  1
  Y  Y4  1  0.666667  0.333333  0.000000  1
  Ni  Ni5  1  0.718266  0.718266  0.500000  1
  Ni  Ni6  1  0.281734  0.000000  0.500000  1
  Ni  Ni7  1  0.000000  0.281734  0.500000  1
  Ni  Ni8  1  0.182775  0.376190  0.000000  1
  Ni  Ni9  1  0.623810  0.806585  0.000000  1
  Ni  Ni10  1  0.193415  0.817225  0.000000  1
  Ni  Ni11  1  0.806585  0.623810  0.000000  1
  Ni  Ni12  1  0.817225  0.193415  0.000000  1
  Ni  Ni13  1  0.376190  0.182775  0.000000  1
  Ni  Ni14  1  0.359063  0.482363  0.500000  1
  Ni  Ni15  1  0.517637  0.876701  0.500000  1
  Ni  Ni16  1  0.123299  0.640937  0.500000  1
  Ni  Ni17  1  0.876701  0.517637  0.500000  1
  Ni  Ni18  1  0.640937  0.123299  0.500000  1
  Ni  Ni19  1  0.482363  0.359063  0.500000  1
  Ni  Ni20  1  0.000000  0.000000  0.000000  1
  Mo  Mo21  1  0.561773  0.561773  0.000000  1
  Mo  Mo22  1  0.438227  0.000000  0.000000  1
  Mo  Mo23  1  0.000000  0.438227  0.000000  1
  As  As24  1  0.821653  0.821653  0.000000  1
  As  As25  1  0.178347  0.000000  0.000000  1
  As  As26  1  0.000000  0.178347  0.000000  1
  As  As27  1  0.167316  0.481183  0.500000  1
  As  As28  1  0.518817  0.686132  0.500000  1
  As  As29  1  0.313868  0.832684  0.500000  1
  As  As30  1  0.686132  0.518817  0.500000  1
  As  As31  1  0.832684  0.313868  0.500000  1
  As  As32  1  0.481183  0.167316  0.500000  1
  As  As33  1  0.364563  0.364563  0.000000  1
  As  As34  1  0.635437  0.000000  0.000000  1
  As  As35  1  0.000000  0.635437  0.000000  1
