# generated using pymatgen
data_Sc2Ta4Re5Si6W
_symmetry_space_group_name_H-M   'P 1'
_cell_length_a   7.66303113
_cell_length_b   7.66163881
_cell_length_c   7.66163733
_cell_angle_alpha   126.27989867
_cell_angle_beta   128.09328880
_cell_angle_gamma   77.95099148
_symmetry_Int_Tables_number   1
_chemical_formula_structural   Sc2Ta4Re5Si6W
_chemical_formula_sum   'Sc2 Ta4 Re5 Si6 W1'
_cell_volume   276.58690555
_cell_formula_units_Z   1
loop_
 _symmetry_equiv_pos_site_id
 _symmetry_equiv_pos_as_xyz
  1  'x, y, z'
loop_
 _atom_site_type_symbol
 _atom_site_label
 _atom_site_symmetry_multiplicity
 _atom_site_fract_x
 _atom_site_fract_y
 _atom_site_fract_z
 _atom_site_occupancy
  Sc  Sc0  1  0.547876  0.089123  0.041223  1
  Sc  Sc1  1  0.452124  0.493347  0.541246  1
  Ta  Ta2  1  0.947096  0.491424  0.042625  1
  Ta  Ta3  1  0.052904  0.095529  0.544328  1
  Ta  Ta4  1  0.748132  0.903346  0.653322  1
  Ta  Ta5  1  0.251868  0.905191  0.155215  1
  Re  Re6  1  0.000000  0.239217  0.239217  1
  Re  Re7  1  0.116039  0.754246  0.615562  1
  Re  Re8  1  0.883961  0.499522  0.638206  1
  Re  Re9  1  0.638669  0.755427  0.138417  1
  Re  Re10  1  0.361331  0.499748  0.116758  1
  Si  Si11  1  0.745530  0.495310  0.250365  1
  Si  Si12  1  0.254470  0.504835  0.749779  1
  Si  Si13  1  0.329350  0.825996  0.491297  1
  Si  Si14  1  0.670650  0.161948  0.496647  1
  Si  Si15  1  0.835364  0.828067  0.997662  1
  Si  Si16  1  0.164636  0.162298  0.992702  1
  W  W17  1  0.500000  0.237628  0.737628  1
