# generated using pymatgen
data_Ba2CuAgSn4
_symmetry_space_group_name_H-M   'P 1'
_cell_length_a   10.28278824
_cell_length_b   10.28278827
_cell_length_c   4.80150500
_cell_angle_alpha   90.00000000
_cell_angle_beta   90.00000000
_cell_angle_gamma   152.32853016
_symmetry_Int_Tables_number   1
_chemical_formula_structural   Ba2CuAgSn4
_chemical_formula_sum   'Ba2 Cu1 Ag1 Sn4'
_cell_volume   235.77210495
_cell_formula_units_Z   1
loop_
 _symmetry_equiv_pos_site_id
 _symmetry_equiv_pos_as_xyz
  1  'x, y, z'
loop_
 _atom_site_type_symbol
 _atom_site_label
 _atom_site_symmetry_multiplicity
 _atom_site_fract_x
 _atom_site_fract_y
 _atom_site_fract_z
 _atom_site_occupancy
  Ba  Ba0  1  0.391012  0.608988  0.250000  1
  Ba  Ba1  1  0.608613  0.391387  0.750000  1
  Cu  Cu2  1  0.178209  0.821791  0.250000  1
  Ag  Ag3  1  0.823783  0.176217  0.750000  1
  Sn  Sn4  1  0.045523  0.954477  0.250000  1
  Sn  Sn5  1  0.962999  0.037001  0.750000  1
  Sn  Sn6  1  0.243491  0.756509  0.750000  1
  Sn  Sn7  1  0.746369  0.253631  0.250000  1
