# generated using pymatgen
data_Y6Ta(Al3Co8)2
_symmetry_space_group_name_H-M   'P 1'
_cell_length_a   8.46787700
_cell_length_b   8.46175959
_cell_length_c   8.46265700
_cell_angle_alpha   120.00351223
_cell_angle_beta   90.00000000
_cell_angle_gamma   119.96880230
_symmetry_Int_Tables_number   1
_chemical_formula_structural   Y6Ta(Al3Co8)2
_chemical_formula_sum   'Y6 Ta1 Al6 Co16'
_cell_volume   428.95186518
_cell_formula_units_Z   1
loop_
 _symmetry_equiv_pos_site_id
 _symmetry_equiv_pos_as_xyz
  1  'x, y, z'
loop_
 _atom_site_type_symbol
 _atom_site_label
 _atom_site_symmetry_multiplicity
 _atom_site_fract_x
 _atom_site_fract_y
 _atom_site_fract_z
 _atom_site_occupancy
  Y  Y0  1  0.285064  0.999978  0.285031  1
  Y  Y1  1  0.285027  0.570100  0.285050  1
  Y  Y2  1  0.714937  0.000022  0.285053  1
  Y  Y3  1  0.714936  0.000022  0.714969  1
  Y  Y4  1  0.285064  0.999978  0.714948  1
  Y  Y5  1  0.714974  0.429901  0.714951  1
  Ta  Ta6  1  0.000000  0.000000  0.000000  1
  Al  Al7  1  0.500000  0.000000  0.000000  1
  Al  Al8  1  0.000000  0.500000  0.000000  1
  Al  Al9  1  0.500000  0.500000  0.000000  1
  Al  Al10  1  0.000000  0.000000  0.500000  1
  Al  Al11  1  0.000000  0.500000  0.500000  1
  Al  Al12  1  0.500000  0.500000  0.500000  1
  Co  Co13  1  0.678884  0.357625  0.036433  1
  Co  Co14  1  0.376211  0.250792  0.125397  1
  Co  Co15  1  0.874631  0.250665  0.125332  1
  Co  Co16  1  0.874623  0.749254  0.125340  1
  Co  Co17  1  0.678884  0.357625  0.321193  1
  Co  Co18  1  0.678878  0.642400  0.321200  1
  Co  Co19  1  0.963504  0.642294  0.321148  1
  Co  Co20  1  0.125377  0.250745  0.376086  1
  Co  Co21  1  0.874623  0.749254  0.623913  1
  Co  Co22  1  0.036497  0.357705  0.678852  1
  Co  Co23  1  0.321122  0.357599  0.678800  1
  Co  Co24  1  0.321116  0.642374  0.678807  1
  Co  Co25  1  0.125377  0.250745  0.874660  1
  Co  Co26  1  0.125369  0.749334  0.874668  1
  Co  Co27  1  0.623788  0.749207  0.874603  1
  Co  Co28  1  0.321116  0.642374  0.963568  1
