# generated using pymatgen
data_Y12Ho4Cd4Co3Ir
_symmetry_space_group_name_H-M   'P 1'
_cell_length_a   9.57547989
_cell_length_b   9.53944145
_cell_length_c   9.53944200
_cell_angle_alpha   59.99999810
_cell_angle_beta   60.12441965
_cell_angle_gamma   60.12441264
_symmetry_Int_Tables_number   1
_chemical_formula_structural   Y12Ho4Cd4Co3Ir
_chemical_formula_sum   'Y12 Ho4 Cd4 Co3 Ir1'
_cell_volume   617.31328102
_cell_formula_units_Z   1
loop_
 _symmetry_equiv_pos_site_id
 _symmetry_equiv_pos_as_xyz
  1  'x, y, z'
loop_
 _atom_site_type_symbol
 _atom_site_label
 _atom_site_symmetry_multiplicity
 _atom_site_fract_x
 _atom_site_fract_y
 _atom_site_fract_z
 _atom_site_occupancy
  Y  Y0  1  0.816311  0.188663  0.188663  1
  Y  Y1  1  0.188621  0.811845  0.811845  1
  Y  Y2  1  0.188621  0.811845  0.187690  1
  Y  Y3  1  0.816311  0.188663  0.806363  1
  Y  Y4  1  0.188621  0.187690  0.811845  1
  Y  Y5  1  0.816311  0.806363  0.188663  1
  Y  Y6  1  0.937125  0.562546  0.562546  1
  Y  Y7  1  0.562279  0.938405  0.938405  1
  Y  Y8  1  0.562279  0.938405  0.560910  1
  Y  Y9  1  0.937125  0.562546  0.937783  1
  Y  Y10  1  0.562279  0.560910  0.938405  1
  Y  Y11  1  0.937125  0.937783  0.562546  1
  Ho  Ho12  1  0.342084  0.349985  0.349985  1
  Ho  Ho13  1  0.342084  0.349985  0.957945  1
  Ho  Ho14  1  0.342084  0.957945  0.349985  1
  Ho  Ho15  1  0.961514  0.346162  0.346162  1
  Cd  Cd16  1  0.580315  0.579820  0.579820  1
  Cd  Cd17  1  0.580315  0.579820  0.260044  1
  Cd  Cd18  1  0.580315  0.260044  0.579820  1
  Cd  Cd19  1  0.259637  0.580121  0.580121  1
  Co  Co20  1  0.142132  0.142400  0.142400  1
  Co  Co21  1  0.142132  0.142400  0.573067  1
  Co  Co22  1  0.142132  0.573067  0.142400  1
  Ir  Ir23  1  0.572247  0.142584  0.142584  1
