# generated using pymatgen
data_Tm8Sc12Ga3Sn13
_symmetry_space_group_name_H-M   'P 1'
_cell_length_a   7.52736659
_cell_length_b   7.87002192
_cell_length_c   14.71649000
_cell_angle_alpha   90.00000000
_cell_angle_beta   90.00000000
_cell_angle_gamma   89.65815074
_symmetry_Int_Tables_number   1
_chemical_formula_structural   Tm8Sc12Ga3Sn13
_chemical_formula_sum   'Tm8 Sc12 Ga3 Sn13'
_cell_volume   871.79729814
_cell_formula_units_Z   1
loop_
 _symmetry_equiv_pos_site_id
 _symmetry_equiv_pos_as_xyz
  1  'x, y, z'
loop_
 _atom_site_type_symbol
 _atom_site_label
 _atom_site_symmetry_multiplicity
 _atom_site_fract_x
 _atom_site_fract_y
 _atom_site_fract_z
 _atom_site_occupancy
  Tm  Tm0  1  0.996484  0.176721  0.094876  1
  Tm  Tm1  1  0.004905  0.825487  0.906449  1
  Tm  Tm2  1  0.505178  0.679958  0.905398  1
  Tm  Tm3  1  0.004905  0.825487  0.593551  1
  Tm  Tm4  1  0.497340  0.323547  0.094752  1
  Tm  Tm5  1  0.996484  0.176721  0.405124  1
  Tm  Tm6  1  0.497340  0.323547  0.405248  1
  Tm  Tm7  1  0.505178  0.679958  0.594602  1
  Sc  Sc8  1  0.168556  0.494055  0.750000  1
  Sc  Sc9  1  0.820387  0.509358  0.250000  1
  Sc  Sc10  1  0.320674  0.989561  0.250000  1
  Sc  Sc11  1  0.676665  0.006681  0.750000  1
  Sc  Sc12  1  0.326577  0.160569  0.628397  1
  Sc  Sc13  1  0.663797  0.832173  0.368094  1
  Sc  Sc14  1  0.162471  0.667715  0.367952  1
  Sc  Sc15  1  0.663797  0.832173  0.131906  1
  Sc  Sc16  1  0.846686  0.330815  0.630577  1
  Sc  Sc17  1  0.326577  0.160569  0.871603  1
  Sc  Sc18  1  0.846686  0.330815  0.869423  1
  Sc  Sc19  1  0.162471  0.667715  0.132048  1
  Ga  Ga20  1  0.030637  0.120588  0.750000  1
  Ga  Ga21  1  0.967043  0.878946  0.250000  1
  Ga  Ga22  1  0.467345  0.622220  0.250000  1
  Sn  Sn23  1  0.530596  0.376567  0.750000  1
  Sn  Sn24  1  0.301531  0.854606  0.750000  1
  Sn  Sn25  1  0.698561  0.143230  0.250000  1
  Sn  Sn26  1  0.198708  0.356679  0.250000  1
  Sn  Sn27  1  0.809924  0.651684  0.750000  1
  Sn  Sn28  1  0.182301  0.459984  0.539873  1
  Sn  Sn29  1  0.819238  0.540794  0.459363  1
  Sn  Sn30  1  0.319915  0.958109  0.458150  1
  Sn  Sn31  1  0.819238  0.540794  0.040637  1
  Sn  Sn32  1  0.679795  0.042040  0.540321  1
  Sn  Sn33  1  0.182301  0.459984  0.960127  1
  Sn  Sn34  1  0.679795  0.042040  0.959679  1
  Sn  Sn35  1  0.319915  0.958109  0.041850  1
