# generated using pymatgen
data_YbErTcH6
_symmetry_space_group_name_H-M   'P 1'
_cell_length_a   4.99651172
_cell_length_b   4.99651262
_cell_length_c   4.99651200
_cell_angle_alpha   60.00000412
_cell_angle_beta   59.99999815
_cell_angle_gamma   60.00001238
_symmetry_Int_Tables_number   1
_chemical_formula_structural   YbErTcH6
_chemical_formula_sum   'Yb1 Er1 Tc1 H6'
_cell_volume   88.20351334
_cell_formula_units_Z   1
loop_
 _symmetry_equiv_pos_site_id
 _symmetry_equiv_pos_as_xyz
  1  'x, y, z'
loop_
 _atom_site_type_symbol
 _atom_site_label
 _atom_site_symmetry_multiplicity
 _atom_site_fract_x
 _atom_site_fract_y
 _atom_site_fract_z
 _atom_site_occupancy
  Yb  Yb0  1  0.750000  0.750000  0.750000  1
  Er  Er1  1  0.250000  0.250000  0.250000  1
  Tc  Tc2  1  0.000000  0.000000  0.000000  1
  H  H3  1  0.749569  0.250431  0.250431  1
  H  H4  1  0.749569  0.749569  0.250431  1
  H  H5  1  0.250431  0.749569  0.250431  1
  H  H6  1  0.749569  0.250431  0.749569  1
  H  H7  1  0.250431  0.250431  0.749569  1
  H  H8  1  0.250431  0.749569  0.749569  1
