# generated using pymatgen
data_Cs6Tl2Bi3
_symmetry_space_group_name_H-M   'P 1'
_cell_length_a   10.81263940
_cell_length_b   10.81264012
_cell_length_c   21.55656100
_cell_angle_alpha   96.99841785
_cell_angle_beta   96.99841832
_cell_angle_gamma   119.50182266
_symmetry_Int_Tables_number   1
_chemical_formula_structural   Cs6Tl2Bi3
_chemical_formula_sum   'Cs24 Tl8 Bi12'
_cell_volume   2128.34672019
_cell_formula_units_Z   4
loop_
 _symmetry_equiv_pos_site_id
 _symmetry_equiv_pos_as_xyz
  1  'x, y, z'
loop_
 _atom_site_type_symbol
 _atom_site_label
 _atom_site_symmetry_multiplicity
 _atom_site_fract_x
 _atom_site_fract_y
 _atom_site_fract_z
 _atom_site_occupancy
  Cs  Cs0  1  0.664861  0.514804  0.947050  1
  Cs  Cs1  1  0.485196  0.335139  0.552950  1
  Cs  Cs2  1  0.335139  0.485196  0.052950  1
  Cs  Cs3  1  0.514804  0.664861  0.447050  1
  Cs  Cs4  1  0.328170  0.782455  0.945607  1
  Cs  Cs5  1  0.217545  0.671830  0.554393  1
  Cs  Cs6  1  0.671830  0.217545  0.054393  1
  Cs  Cs7  1  0.782455  0.328170  0.445607  1
  Cs  Cs8  1  0.922089  0.412939  0.821768  1
  Cs  Cs9  1  0.587061  0.077911  0.678232  1
  Cs  Cs10  1  0.077911  0.587061  0.178232  1
  Cs  Cs11  1  0.412939  0.922089  0.321768  1
  Cs  Cs12  1  0.587397  0.753789  0.821787  1
  Cs  Cs13  1  0.246211  0.412603  0.678213  1
  Cs  Cs14  1  0.412603  0.246211  0.178213  1
  Cs  Cs15  1  0.753789  0.587397  0.321787  1
  Cs  Cs16  1  0.060450  0.871476  0.054753  1
  Cs  Cs17  1  0.128524  0.939550  0.445247  1
  Cs  Cs18  1  0.939550  0.128524  0.945247  1
  Cs  Cs19  1  0.871476  0.060450  0.554753  1
  Cs  Cs20  1  0.973692  0.026308  0.750000  1
  Cs  Cs21  1  0.026308  0.973692  0.250000  1
  Cs  Cs22  1  0.203070  0.796930  0.750000  1
  Cs  Cs23  1  0.796930  0.203070  0.250000  1
  Tl  Tl24  1  0.291330  0.121096  0.921916  1
  Tl  Tl25  1  0.878904  0.708670  0.578084  1
  Tl  Tl26  1  0.708670  0.878904  0.078084  1
  Tl  Tl27  1  0.121096  0.291330  0.421916  1
  Tl  Tl28  1  0.435386  0.264690  0.774522  1
  Tl  Tl29  1  0.735310  0.564614  0.725478  1
  Tl  Tl30  1  0.564614  0.735310  0.225478  1
  Tl  Tl31  1  0.264690  0.435386  0.274522  1
  Bi  Bi32  1  0.277354  0.384003  0.861736  1
  Bi  Bi33  1  0.615997  0.722646  0.638264  1
  Bi  Bi34  1  0.722646  0.615997  0.138264  1
  Bi  Bi35  1  0.384003  0.277354  0.361736  1
  Bi  Bi36  1  0.204633  0.027654  0.630853  1
  Bi  Bi37  1  0.972346  0.795367  0.869147  1
  Bi  Bi38  1  0.795367  0.972346  0.369147  1
  Bi  Bi39  1  0.027654  0.204633  0.130853  1
  Bi  Bi40  1  0.560141  0.117476  0.864802  1
  Bi  Bi41  1  0.882524  0.439859  0.635198  1
  Bi  Bi42  1  0.439859  0.882524  0.135198  1
  Bi  Bi43  1  0.117476  0.560141  0.364802  1
