# generated using pymatgen
data_Tc5MoSe8
_symmetry_space_group_name_H-M   'P 1'
_cell_length_a   6.73163126
_cell_length_b   6.70800194
_cell_length_c   6.74418964
_cell_angle_alpha   92.81561220
_cell_angle_beta   92.83095261
_cell_angle_gamma   93.33920668
_symmetry_Int_Tables_number   1
_chemical_formula_structural   Tc5MoSe8
_chemical_formula_sum   'Tc5 Mo1 Se8'
_cell_volume   303.23796958
_cell_formula_units_Z   1
loop_
 _symmetry_equiv_pos_site_id
 _symmetry_equiv_pos_as_xyz
  1  'x, y, z'
loop_
 _atom_site_type_symbol
 _atom_site_label
 _atom_site_symmetry_multiplicity
 _atom_site_fract_x
 _atom_site_fract_y
 _atom_site_fract_z
 _atom_site_occupancy
  Tc  Tc0  1  0.450659  0.585414  0.764934  1
  Tc  Tc1  1  0.765013  0.451306  0.585512  1
  Tc  Tc2  1  0.585209  0.763278  0.451647  1
  Tc  Tc3  1  0.549182  0.415129  0.236458  1
  Tc  Tc4  1  0.235177  0.548409  0.414567  1
  Mo  Mo5  1  0.413978  0.235288  0.548519  1
  Se  Se6  1  0.780315  0.780350  0.779086  1
  Se  Se7  1  0.218077  0.220386  0.216084  1
  Se  Se8  1  0.270293  0.870861  0.625844  1
  Se  Se9  1  0.625914  0.272474  0.876578  1
  Se  Se10  1  0.873887  0.626654  0.270210  1
  Se  Se11  1  0.733910  0.126716  0.372167  1
  Se  Se12  1  0.374656  0.729142  0.126777  1
  Se  Se13  1  0.123730  0.374593  0.731620  1
