# generated using pymatgen
data_YbTm(FeB4)2
_symmetry_space_group_name_H-M   'P 1'
_cell_length_a   3.33697300
_cell_length_b   5.86689287
_cell_length_c   11.34272989
_cell_angle_alpha   89.86984213
_cell_angle_beta   90.00000000
_cell_angle_gamma   90.00000000
_symmetry_Int_Tables_number   1
_chemical_formula_structural   YbTm(FeB4)2
_chemical_formula_sum   'Yb2 Tm2 Fe4 B16'
_cell_volume   222.06357120
_cell_formula_units_Z   2
loop_
 _symmetry_equiv_pos_site_id
 _symmetry_equiv_pos_as_xyz
  1  'x, y, z'
loop_
 _atom_site_type_symbol
 _atom_site_label
 _atom_site_symmetry_multiplicity
 _atom_site_fract_x
 _atom_site_fract_y
 _atom_site_fract_z
 _atom_site_occupancy
  Yb  Yb0  1  0.000000  0.627006  0.349617  1
  Yb  Yb1  1  0.000000  0.372994  0.650383  1
  Tm  Tm2  1  0.000000  0.127833  0.150544  1
  Tm  Tm3  1  0.000000  0.872167  0.849456  1
  Fe  Fe4  1  0.000000  0.634198  0.086976  1
  Fe  Fe5  1  0.000000  0.365802  0.913024  1
  Fe  Fe6  1  0.000000  0.128333  0.414768  1
  Fe  Fe7  1  0.000000  0.871667  0.585232  1
  B  B8  1  0.500000  0.782487  0.183542  1
  B  B9  1  0.500000  0.217513  0.816458  1
  B  B10  1  0.500000  0.282440  0.316998  1
  B  B11  1  0.500000  0.717560  0.683002  1
  B  B12  1  0.500000  0.861649  0.031554  1
  B  B13  1  0.500000  0.138351  0.968446  1
  B  B14  1  0.500000  0.361170  0.467632  1
  B  B15  1  0.500000  0.638830  0.532368  1
  B  B16  1  0.500000  0.887591  0.453730  1
  B  B17  1  0.500000  0.112409  0.546270  1
  B  B18  1  0.500000  0.388460  0.046605  1
  B  B19  1  0.500000  0.611540  0.953395  1
  B  B20  1  0.500000  0.977629  0.309282  1
  B  B21  1  0.500000  0.022371  0.690718  1
  B  B22  1  0.500000  0.476032  0.190495  1
  B  B23  1  0.500000  0.523968  0.809505  1
