# generated using pymatgen
data_Rb2SmI5
_symmetry_space_group_name_H-M   'P 1'
_cell_length_a   9.46871300
_cell_length_b   9.91457900
_cell_length_c   15.21548100
_cell_angle_alpha   90.00000000
_cell_angle_beta   90.00000000
_cell_angle_gamma   90.00000000
_symmetry_Int_Tables_number   1
_chemical_formula_structural   Rb2SmI5
_chemical_formula_sum   'Rb8 Sm4 I20'
_cell_volume   1428.40353663
_cell_formula_units_Z   4
loop_
 _symmetry_equiv_pos_site_id
 _symmetry_equiv_pos_as_xyz
  1  'x, y, z'
loop_
 _atom_site_type_symbol
 _atom_site_label
 _atom_site_symmetry_multiplicity
 _atom_site_fract_x
 _atom_site_fract_y
 _atom_site_fract_z
 _atom_site_occupancy
  Rb  Rb0  1  0.541755  0.501795  0.824797  1
  Rb  Rb1  1  0.458245  0.498205  0.175203  1
  Rb  Rb2  1  0.041755  0.498205  0.675203  1
  Rb  Rb3  1  0.458245  0.001795  0.175203  1
  Rb  Rb4  1  0.958245  0.501795  0.324797  1
  Rb  Rb5  1  0.541755  0.998205  0.824797  1
  Rb  Rb6  1  0.958245  0.998205  0.324797  1
  Rb  Rb7  1  0.041755  0.001795  0.675203  1
  Sm  Sm8  1  0.576063  0.750000  0.503292  1
  Sm  Sm9  1  0.423937  0.250000  0.496708  1
  Sm  Sm10  1  0.076063  0.250000  0.996708  1
  Sm  Sm11  1  0.923937  0.750000  0.003292  1
  I  I12  1  0.835649  0.750000  0.803395  1
  I  I13  1  0.164351  0.250000  0.196605  1
  I  I14  1  0.335649  0.250000  0.696605  1
  I  I15  1  0.664351  0.750000  0.303395  1
  I  I16  1  0.368569  0.750000  0.666488  1
  I  I17  1  0.631431  0.250000  0.333512  1
  I  I18  1  0.868569  0.250000  0.833512  1
  I  I19  1  0.131431  0.750000  0.166488  1
  I  I20  1  0.913320  0.750000  0.513376  1
  I  I21  1  0.086680  0.250000  0.486624  1
  I  I22  1  0.413320  0.250000  0.986624  1
  I  I23  1  0.586680  0.750000  0.013376  1
  I  I24  1  0.656808  0.043445  0.576838  1
  I  I25  1  0.343192  0.956555  0.423162  1
  I  I26  1  0.156808  0.956555  0.923162  1
  I  I27  1  0.343192  0.543445  0.423162  1
  I  I28  1  0.843192  0.043445  0.076838  1
  I  I29  1  0.656808  0.456555  0.576838  1
  I  I30  1  0.843192  0.456555  0.076838  1
  I  I31  1  0.156808  0.543445  0.923162  1
