# generated using pymatgen
data_YbDyY2(Pt2O7)2
_symmetry_space_group_name_H-M   'P 1'
_cell_length_a   7.27344463
_cell_length_b   7.26996967
_cell_length_c   7.27574915
_cell_angle_alpha   59.99068652
_cell_angle_beta   60.01047660
_cell_angle_gamma   59.98419072
_symmetry_Int_Tables_number   1
_chemical_formula_structural   YbDyY2(Pt2O7)2
_chemical_formula_sum   'Yb1 Dy1 Y2 Pt4 O14'
_cell_volume   272.01154071
_cell_formula_units_Z   1
loop_
 _symmetry_equiv_pos_site_id
 _symmetry_equiv_pos_as_xyz
  1  'x, y, z'
loop_
 _atom_site_type_symbol
 _atom_site_label
 _atom_site_symmetry_multiplicity
 _atom_site_fract_x
 _atom_site_fract_y
 _atom_site_fract_z
 _atom_site_occupancy
  Yb  Yb0  1  0.125000  0.625000  0.125000  1
  Dy  Dy1  1  0.125000  0.125000  0.625000  1
  Y  Y2  1  0.625000  0.125000  0.125000  1
  Y  Y3  1  0.125000  0.125000  0.125000  1
  Pt  Pt4  1  0.625000  0.625000  0.625000  1
  Pt  Pt5  1  0.125000  0.625000  0.625000  1
  Pt  Pt6  1  0.625000  0.125000  0.625000  1
  Pt  Pt7  1  0.625000  0.625000  0.125000  1
  O  O8  1  0.288409  0.716057  0.707126  1
  O  O9  1  0.535638  0.964853  0.963871  1
  O  O10  1  0.714587  0.285071  0.714291  1
  O  O11  1  0.286051  0.285071  0.714291  1
  O  O12  1  0.707165  0.715834  0.288492  1
  O  O13  1  0.998052  0.006063  0.997834  1
  O  O14  1  0.288508  0.715834  0.288492  1
  O  O15  1  0.961492  0.534166  0.961508  1
  O  O16  1  0.963949  0.964929  0.535709  1
  O  O17  1  0.542835  0.534166  0.961508  1
  O  O18  1  0.251948  0.243937  0.252166  1
  O  O19  1  0.535413  0.964929  0.535709  1
  O  O20  1  0.714362  0.285147  0.286129  1
  O  O21  1  0.961591  0.533943  0.542874  1
