# generated using pymatgen
data_Pr4Y9Th3(CdIr)4
_symmetry_space_group_name_H-M   'P 1'
_cell_length_a   9.81343571
_cell_length_b   9.83468289
_cell_length_c   9.83468502
_cell_angle_alpha   60.14524494
_cell_angle_beta   60.10664446
_cell_angle_gamma   60.10664422
_symmetry_Int_Tables_number   1
_chemical_formula_structural   Pr4Y9Th3(CdIr)4
_chemical_formula_sum   'Pr4 Y9 Th3 Cd4 Ir4'
_cell_volume   672.97830241
_cell_formula_units_Z   1
loop_
 _symmetry_equiv_pos_site_id
 _symmetry_equiv_pos_as_xyz
  1  'x, y, z'
loop_
 _atom_site_type_symbol
 _atom_site_label
 _atom_site_symmetry_multiplicity
 _atom_site_fract_x
 _atom_site_fract_y
 _atom_site_fract_z
 _atom_site_occupancy
  Pr  Pr0  1  0.564185  0.936732  0.565180  1
  Pr  Pr1  1  0.939927  0.562068  0.934995  1
  Pr  Pr2  1  0.564185  0.565180  0.936732  1
  Pr  Pr3  1  0.939927  0.934995  0.562068  1
  Y  Y4  1  0.947812  0.350391  0.350391  1
  Y  Y5  1  0.813114  0.187937  0.187937  1
  Y  Y6  1  0.187200  0.814460  0.814460  1
  Y  Y7  1  0.187728  0.812779  0.187320  1
  Y  Y8  1  0.812451  0.185717  0.811941  1
  Y  Y9  1  0.187728  0.187320  0.812779  1
  Y  Y10  1  0.812451  0.811941  0.185717  1
  Y  Y11  1  0.945115  0.556657  0.556657  1
  Y  Y12  1  0.555270  0.943574  0.943574  1
  Th  Th13  1  0.346877  0.347385  0.347385  1
  Th  Th14  1  0.345537  0.350679  0.956111  1
  Th  Th15  1  0.345537  0.956111  0.350679  1
  Cd  Cd16  1  0.585605  0.577085  0.577085  1
  Cd  Cd17  1  0.579122  0.583643  0.258314  1
  Cd  Cd18  1  0.579122  0.258314  0.583643  1
  Cd  Cd19  1  0.257447  0.578587  0.578587  1
  Ir  Ir20  1  0.149167  0.139923  0.139923  1
  Ir  Ir21  1  0.143020  0.143914  0.571691  1
  Ir  Ir22  1  0.143020  0.571691  0.143914  1
  Ir  Ir23  1  0.568448  0.142914  0.142914  1
