# generated using pymatgen
data_Dy3Tm17(GaBi3)3
_symmetry_space_group_name_H-M   'P 1'
_cell_length_a   8.08595666
_cell_length_b   9.34869400
_cell_length_c   11.90289000
_cell_angle_alpha   90.00000000
_cell_angle_beta   90.22556407
_cell_angle_gamma   90.00000000
_symmetry_Int_Tables_number   1
_chemical_formula_structural   Dy3Tm17(GaBi3)3
_chemical_formula_sum   'Dy3 Tm17 Ga3 Bi9'
_cell_volume   899.76979226
_cell_formula_units_Z   1
loop_
 _symmetry_equiv_pos_site_id
 _symmetry_equiv_pos_as_xyz
  1  'x, y, z'
loop_
 _atom_site_type_symbol
 _atom_site_label
 _atom_site_symmetry_multiplicity
 _atom_site_fract_x
 _atom_site_fract_y
 _atom_site_fract_z
 _atom_site_occupancy
  Dy  Dy0  1  0.820812  0.250000  0.286818  1
  Dy  Dy1  1  0.675647  0.750000  0.789302  1
  Dy  Dy2  1  0.193158  0.750000  0.722597  1
  Tm  Tm3  1  0.349221  0.750000  0.205335  1
  Tm  Tm4  1  0.846118  0.750000  0.283719  1
  Tm  Tm5  1  0.651782  0.250000  0.794731  1
  Tm  Tm6  1  0.146741  0.250000  0.706995  1
  Tm  Tm7  1  0.683367  0.556614  0.055209  1
  Tm  Tm8  1  0.191272  0.950860  0.438301  1
  Tm  Tm9  1  0.317543  0.057205  0.944134  1
  Tm  Tm10  1  0.813768  0.429022  0.556734  1
  Tm  Tm11  1  0.317543  0.442795  0.944134  1
  Tm  Tm12  1  0.813768  0.070978  0.556734  1
  Tm  Tm13  1  0.683367  0.943386  0.055209  1
  Tm  Tm14  1  0.191272  0.549140  0.438301  1
  Tm  Tm15  1  0.462213  0.250000  0.490508  1
  Tm  Tm16  1  0.964666  0.250000  0.009119  1
  Tm  Tm17  1  0.521188  0.750000  0.509418  1
  Tm  Tm18  1  0.035247  0.750000  0.992210  1
  Tm  Tm19  1  0.322688  0.250000  0.212554  1
  Ga  Ga20  1  0.405777  0.750000  0.962801  1
  Ga  Ga21  1  0.590205  0.250000  0.039730  1
  Ga  Ga22  1  0.091411  0.250000  0.461761  1
  Bi  Bi23  1  0.907842  0.750000  0.542840  1
  Bi  Bi24  1  0.559928  0.997673  0.322866  1
  Bi  Bi25  1  0.059564  0.501098  0.176905  1
  Bi  Bi26  1  0.441379  0.495440  0.676197  1
  Bi  Bi27  1  0.940819  0.002250  0.824433  1
  Bi  Bi28  1  0.441379  0.004560  0.676197  1
  Bi  Bi29  1  0.940819  0.497750  0.824433  1
  Bi  Bi30  1  0.559928  0.502327  0.322866  1
  Bi  Bi31  1  0.059564  0.998902  0.176905  1
