# generated using pymatgen
data_Tb20Al3Ru2Au3
_symmetry_space_group_name_H-M   'P 1'
_cell_length_a   9.59433000
_cell_length_b   9.59432869
_cell_length_c   9.57212900
_cell_angle_alpha   90.00000000
_cell_angle_beta   90.00000000
_cell_angle_gamma   120.00000452
_symmetry_Int_Tables_number   1
_chemical_formula_structural   Tb20Al3Ru2Au3
_chemical_formula_sum   'Tb20 Al3 Ru2 Au3'
_cell_volume   763.07706324
_cell_formula_units_Z   1
loop_
 _symmetry_equiv_pos_site_id
 _symmetry_equiv_pos_as_xyz
  1  'x, y, z'
loop_
 _atom_site_type_symbol
 _atom_site_label
 _atom_site_symmetry_multiplicity
 _atom_site_fract_x
 _atom_site_fract_y
 _atom_site_fract_z
 _atom_site_occupancy
  Tb  Tb0  1  0.000000  0.000000  0.464259  1
  Tb  Tb1  1  0.000000  0.000000  0.035741  1
  Tb  Tb2  1  0.209129  0.790871  0.442628  1
  Tb  Tb3  1  0.209129  0.418260  0.442628  1
  Tb  Tb4  1  0.581740  0.790871  0.442628  1
  Tb  Tb5  1  0.794471  0.205529  0.562054  1
  Tb  Tb6  1  0.794471  0.588941  0.562054  1
  Tb  Tb7  1  0.411059  0.205529  0.562054  1
  Tb  Tb8  1  0.794471  0.205529  0.937946  1
  Tb  Tb9  1  0.794471  0.588941  0.937946  1
  Tb  Tb10  1  0.411059  0.205529  0.937946  1
  Tb  Tb11  1  0.209129  0.790871  0.057372  1
  Tb  Tb12  1  0.209129  0.418260  0.057372  1
  Tb  Tb13  1  0.581740  0.790871  0.057372  1
  Tb  Tb14  1  0.539213  0.460787  0.250000  1
  Tb  Tb15  1  0.539213  0.078426  0.250000  1
  Tb  Tb16  1  0.921574  0.460787  0.250000  1
  Tb  Tb17  1  0.458919  0.541081  0.750000  1
  Tb  Tb18  1  0.458919  0.917837  0.750000  1
  Tb  Tb19  1  0.082163  0.541081  0.750000  1
  Al  Al20  1  0.103612  0.896388  0.750000  1
  Al  Al21  1  0.103612  0.207223  0.750000  1
  Al  Al22  1  0.792777  0.896388  0.750000  1
  Ru  Ru23  1  0.333333  0.666667  0.250000  1
  Ru  Ru24  1  0.666667  0.333333  0.750000  1
  Au  Au25  1  0.869387  0.130613  0.250000  1
  Au  Au26  1  0.869387  0.738775  0.250000  1
  Au  Au27  1  0.261225  0.130613  0.250000  1
