# generated using pymatgen
data_CeDy8ErAl3GaRu6
_symmetry_space_group_name_H-M   'P 1'
_cell_length_a   8.41381156
_cell_length_b   8.41198338
_cell_length_c   8.29299500
_cell_angle_alpha   110.11937646
_cell_angle_beta   109.20136289
_cell_angle_gamma   109.66399419
_symmetry_Int_Tables_number   1
_chemical_formula_structural   CeDy8ErAl3GaRu6
_chemical_formula_sum   'Ce1 Dy8 Er1 Al3 Ga1 Ru6'
_cell_volume   448.60162693
_cell_formula_units_Z   1
loop_
 _symmetry_equiv_pos_site_id
 _symmetry_equiv_pos_as_xyz
  1  'x, y, z'
loop_
 _atom_site_type_symbol
 _atom_site_label
 _atom_site_symmetry_multiplicity
 _atom_site_fract_x
 _atom_site_fract_y
 _atom_site_fract_z
 _atom_site_occupancy
  Ce  Ce0  1  0.194188  0.945070  0.250856  1
  Dy  Dy1  1  0.779992  0.786528  0.784116  1
  Dy  Dy2  1  0.316461  0.565750  0.748553  1
  Dy  Dy3  1  0.753637  0.320215  0.568584  1
  Dy  Dy4  1  0.568379  0.747307  0.316439  1
  Dy  Dy5  1  0.716034  0.499149  0.998027  1
  Dy  Dy6  1  0.002862  0.717914  0.501878  1
  Dy  Dy7  1  0.502165  0.996271  0.715131  1
  Dy  Dy8  1  0.251168  0.185241  0.931775  1
  Er  Er9  1  0.930426  0.252539  0.182703  1
  Al  Al10  1  0.092115  0.498119  0.005289  1
  Al  Al11  1  0.991869  0.087558  0.494626  1
  Al  Al12  1  0.506622  0.004623  0.091903  1
  Ga  Ga13  1  0.414872  0.415867  0.409830  1
  Ru  Ru14  1  0.876469  0.126570  0.751018  1
  Ru  Ru15  1  0.739999  0.870804  0.117742  1
  Ru  Ru16  1  0.130006  0.763598  0.908135  1
  Ru  Ru17  1  0.251399  0.622030  0.381137  1
  Ru  Ru18  1  0.354350  0.220219  0.593002  1
  Ru  Ru19  1  0.626986  0.374627  0.249262  1
