# generated using pymatgen
data_CaY3Al18(NiIr2)2
_symmetry_space_group_name_H-M   'P 1'
_cell_length_a   7.54716277
_cell_length_b   7.54311547
_cell_length_c   9.45205900
_cell_angle_alpha   90.00000000
_cell_angle_beta   90.00000000
_cell_angle_gamma   119.95322650
_symmetry_Int_Tables_number   1
_chemical_formula_structural   CaY3Al18(NiIr2)2
_chemical_formula_sum   'Ca1 Y3 Al18 Ni2 Ir4'
_cell_volume   466.22550387
_cell_formula_units_Z   1
loop_
 _symmetry_equiv_pos_site_id
 _symmetry_equiv_pos_as_xyz
  1  'x, y, z'
loop_
 _atom_site_type_symbol
 _atom_site_label
 _atom_site_symmetry_multiplicity
 _atom_site_fract_x
 _atom_site_fract_y
 _atom_site_fract_z
 _atom_site_occupancy
  Ca  Ca0  1  0.993831  0.665458  0.250000  1
  Y  Y1  1  0.005396  0.334696  0.750000  1
  Y  Y2  1  0.665456  0.994483  0.250000  1
  Y  Y3  1  0.332986  0.004096  0.750000  1
  Al  Al4  1  0.119790  0.121058  0.250000  1
  Al  Al5  1  0.880637  0.880321  0.750000  1
  Al  Al6  1  0.999966  0.331943  0.073731  1
  Al  Al7  1  0.999800  0.668774  0.927119  1
  Al  Al8  1  0.999800  0.668774  0.572881  1
  Al  Al9  1  0.330460  0.999383  0.425973  1
  Al  Al10  1  0.999966  0.331943  0.426269  1
  Al  Al11  1  0.669318  0.000052  0.574422  1
  Al  Al12  1  0.669318  0.000052  0.925578  1
  Al  Al13  1  0.330460  0.999383  0.074027  1
  Al  Al14  1  0.330470  0.330395  0.549938  1
  Al  Al15  1  0.669603  0.668980  0.450512  1
  Al  Al16  1  0.669603  0.668980  0.049488  1
  Al  Al17  1  0.330470  0.330395  0.950062  1
  Al  Al18  1  0.339398  0.546207  0.250000  1
  Al  Al19  1  0.662596  0.455071  0.750000  1
  Al  Al20  1  0.545347  0.336814  0.250000  1
  Al  Al21  1  0.455362  0.662372  0.750000  1
  Ni  Ni22  1  0.000195  0.001448  0.998890  1
  Ni  Ni23  1  0.000195  0.001448  0.501110  1
  Ir  Ir24  1  0.670694  0.326922  0.999101  1
  Ir  Ir25  1  0.329095  0.671815  0.998923  1
  Ir  Ir26  1  0.329095  0.671815  0.501077  1
  Ir  Ir27  1  0.670694  0.326922  0.500899  1
