# generated using pymatgen
data_Er5ReBWC6
_symmetry_space_group_name_H-M   'P 1'
_cell_length_a   8.30976154
_cell_length_b   8.30976147
_cell_length_c   3.39719900
_cell_angle_alpha   90.00000000
_cell_angle_beta   90.00000000
_cell_angle_gamma   122.15699433
_symmetry_Int_Tables_number   1
_chemical_formula_structural   Er5ReBWC6
_chemical_formula_sum   'Er5 Re1 B1 W1 C6'
_cell_volume   198.59702018
_cell_formula_units_Z   1
loop_
 _symmetry_equiv_pos_site_id
 _symmetry_equiv_pos_as_xyz
  1  'x, y, z'
loop_
 _atom_site_type_symbol
 _atom_site_label
 _atom_site_symmetry_multiplicity
 _atom_site_fract_x
 _atom_site_fract_y
 _atom_site_fract_z
 _atom_site_occupancy
  Er  Er0  1  0.498823  0.501177  0.000000  1
  Er  Er1  1  0.079899  0.329764  0.500000  1
  Er  Er2  1  0.922557  0.672247  0.500000  1
  Er  Er3  1  0.670236  0.920101  0.500000  1
  Er  Er4  1  0.327753  0.077443  0.500000  1
  Re  Re5  1  0.286653  0.713347  0.000000  1
  B  B6  1  0.999837  0.000163  0.000000  1
  W  W7  1  0.714001  0.285999  0.000000  1
  C  C8  1  0.625794  0.374206  0.500000  1
  C  C9  1  0.372376  0.627624  0.500000  1
  C  C10  1  0.183506  0.182629  0.000000  1
  C  C11  1  0.817371  0.816494  0.000000  1
  C  C12  1  0.001318  0.500124  0.000000  1
  C  C13  1  0.499876  0.998682  0.000000  1
