# generated using pymatgen
data_TmZr3(Ta3Ge4)2
_symmetry_space_group_name_H-M   'P 1'
_cell_length_a   6.89109500
_cell_length_b   7.00326670
_cell_length_c   13.36259285
_cell_angle_alpha   90.15867157
_cell_angle_beta   90.00000000
_cell_angle_gamma   90.00000000
_symmetry_Int_Tables_number   1
_chemical_formula_structural   TmZr3(Ta3Ge4)2
_chemical_formula_sum   'Tm2 Zr6 Ta12 Ge16'
_cell_volume   644.87861109
_cell_formula_units_Z   2
loop_
 _symmetry_equiv_pos_site_id
 _symmetry_equiv_pos_as_xyz
  1  'x, y, z'
loop_
 _atom_site_type_symbol
 _atom_site_label
 _atom_site_symmetry_multiplicity
 _atom_site_fract_x
 _atom_site_fract_y
 _atom_site_fract_z
 _atom_site_occupancy
  Tm  Tm0  1  0.490665  0.673491  0.590818  1
  Tm  Tm1  1  0.990665  0.826509  0.909182  1
  Zr  Zr2  1  0.511719  0.324863  0.091431  1
  Zr  Zr3  1  0.011719  0.175137  0.408569  1
  Zr  Zr4  1  0.512776  0.323911  0.408009  1
  Zr  Zr5  1  0.012776  0.176089  0.091991  1
  Zr  Zr6  1  0.489069  0.673425  0.908327  1
  Zr  Zr7  1  0.989069  0.826575  0.591673  1
  Ta  Ta8  1  0.659242  0.166983  0.624990  1
  Ta  Ta9  1  0.159242  0.333017  0.875010  1
  Ta  Ta10  1  0.339649  0.835229  0.124629  1
  Ta  Ta11  1  0.839649  0.664771  0.375371  1
  Ta  Ta12  1  0.338698  0.836021  0.374247  1
  Ta  Ta13  1  0.838698  0.663979  0.125753  1
  Ta  Ta14  1  0.657555  0.167892  0.875465  1
  Ta  Ta15  1  0.157555  0.332108  0.624535  1
  Ta  Ta16  1  0.836658  0.488969  0.749361  1
  Ta  Ta17  1  0.336658  0.011031  0.750639  1
  Ta  Ta18  1  0.163423  0.509424  0.249836  1
  Ta  Ta19  1  0.663423  0.990576  0.250164  1
  Ge  Ge20  1  0.682938  0.962035  0.458980  1
  Ge  Ge21  1  0.182938  0.537965  0.041020  1
  Ge  Ge22  1  0.321105  0.040917  0.960259  1
  Ge  Ge23  1  0.821105  0.459083  0.539741  1
  Ge  Ge24  1  0.316996  0.040031  0.539854  1
  Ge  Ge25  1  0.816996  0.459969  0.960146  1
  Ge  Ge26  1  0.680370  0.960679  0.041098  1
  Ge  Ge27  1  0.180370  0.539321  0.458902  1
  Ge  Ge28  1  0.460862  0.386200  0.750319  1
  Ge  Ge29  1  0.960862  0.113800  0.749681  1
  Ge  Ge30  1  0.537933  0.612888  0.250243  1
  Ge  Ge31  1  0.037933  0.887112  0.249757  1
  Ge  Ge32  1  0.692967  0.850418  0.750537  1
  Ge  Ge33  1  0.192967  0.649582  0.749463  1
  Ge  Ge34  1  0.307377  0.150490  0.249894  1
  Ge  Ge35  1  0.807377  0.349510  0.250106  1
