# generated using pymatgen
data_K3Rb6GaAs4
_symmetry_space_group_name_H-M   'P 1'
_cell_length_a   10.37236500
_cell_length_b   10.37236511
_cell_length_c   10.94592700
_cell_angle_alpha   90.00000000
_cell_angle_beta   90.00000000
_cell_angle_gamma   119.99999647
_symmetry_Int_Tables_number   1
_chemical_formula_structural   K3Rb6GaAs4
_chemical_formula_sum   'K6 Rb12 Ga2 As8'
_cell_volume   1019.85582599
_cell_formula_units_Z   2
loop_
 _symmetry_equiv_pos_site_id
 _symmetry_equiv_pos_as_xyz
  1  'x, y, z'
loop_
 _atom_site_type_symbol
 _atom_site_label
 _atom_site_symmetry_multiplicity
 _atom_site_fract_x
 _atom_site_fract_y
 _atom_site_fract_z
 _atom_site_occupancy
  K  K0  1  0.118955  0.237908  0.250000  1
  K  K1  1  0.881045  0.118955  0.750000  1
  K  K2  1  0.237908  0.118955  0.750000  1
  K  K3  1  0.762092  0.881045  0.250000  1
  K  K4  1  0.118955  0.881045  0.250000  1
  K  K5  1  0.881045  0.762092  0.750000  1
  Rb  Rb6  1  0.209023  0.418044  0.542472  1
  Rb  Rb7  1  0.790977  0.209023  0.042472  1
  Rb  Rb8  1  0.418044  0.209023  0.042472  1
  Rb  Rb9  1  0.581956  0.790977  0.542472  1
  Rb  Rb10  1  0.209023  0.790977  0.542472  1
  Rb  Rb11  1  0.790977  0.581956  0.457528  1
  Rb  Rb12  1  0.790977  0.209023  0.457528  1
  Rb  Rb13  1  0.790977  0.581956  0.042472  1
  Rb  Rb14  1  0.418044  0.209023  0.457528  1
  Rb  Rb15  1  0.581956  0.790977  0.957528  1
  Rb  Rb16  1  0.209023  0.418044  0.957528  1
  Rb  Rb17  1  0.209023  0.790977  0.957528  1
  Ga  Ga18  1  0.333333  0.666667  0.250000  1
  Ga  Ga19  1  0.666667  0.333333  0.750000  1
  As  As20  1  0.473263  0.526737  0.250000  1
  As  As21  1  0.946524  0.473263  0.750000  1
  As  As22  1  0.526737  0.053476  0.750000  1
  As  As23  1  0.473263  0.946524  0.250000  1
  As  As24  1  0.053476  0.526737  0.250000  1
  As  As25  1  0.526737  0.473263  0.750000  1
  As  As26  1  0.000000  0.000000  0.000000  1
  As  As27  1  0.000000  0.000000  0.500000  1
