# generated using pymatgen
data_Ba2Li2Zn19Ni
_symmetry_space_group_name_H-M   'P 1'
_cell_length_a   8.54297498
_cell_length_b   8.53916431
_cell_length_c   8.53916400
_cell_angle_alpha   99.03810212
_cell_angle_beta   99.71269281
_cell_angle_gamma   132.36298107
_symmetry_Int_Tables_number   1
_chemical_formula_structural   Ba2Li2Zn19Ni
_chemical_formula_sum   'Ba2 Li2 Zn19 Ni1'
_cell_volume   421.16006991
_cell_formula_units_Z   1
loop_
 _symmetry_equiv_pos_site_id
 _symmetry_equiv_pos_as_xyz
  1  'x, y, z'
loop_
 _atom_site_type_symbol
 _atom_site_label
 _atom_site_symmetry_multiplicity
 _atom_site_fract_x
 _atom_site_fract_y
 _atom_site_fract_z
 _atom_site_occupancy
  Ba  Ba0  1  0.000114  0.998680  0.001433  1
  Ba  Ba1  1  0.249886  0.751320  0.498567  1
  Li  Li2  1  0.761106  0.255170  0.505937  1
  Li  Li3  1  0.488894  0.494830  0.994063  1
  Zn  Zn4  1  0.625000  0.875000  0.250000  1
  Zn  Zn5  1  0.625000  0.375000  0.750000  1
  Zn  Zn6  1  0.625000  0.375000  0.250000  1
  Zn  Zn7  1  0.190923  0.515806  0.071466  1
  Zn  Zn8  1  0.190923  0.119457  0.675118  1
  Zn  Zn9  1  0.778156  0.949150  0.589990  1
  Zn  Zn10  1  0.778156  0.188166  0.829008  1
  Zn  Zn11  1  0.434264  0.520539  0.333331  1
  Zn  Zn12  1  0.434264  0.100931  0.913725  1
  Zn  Zn13  1  0.355291  0.939040  0.170062  1
  Zn  Zn14  1  0.355291  0.185230  0.416251  1
  Zn  Zn15  1  0.059077  0.234194  0.428534  1
  Zn  Zn16  1  0.059077  0.630543  0.824882  1
  Zn  Zn17  1  0.471844  0.800850  0.910010  1
  Zn  Zn18  1  0.471844  0.561834  0.670992  1
  Zn  Zn19  1  0.815736  0.229461  0.166669  1
  Zn  Zn20  1  0.815736  0.649069  0.586275  1
  Zn  Zn21  1  0.894709  0.810960  0.329938  1
  Zn  Zn22  1  0.894709  0.564770  0.083749  1
  Ni  Ni23  1  0.125000  0.375000  0.750000  1
