# generated using pymatgen
data_Tb4Nd2TcSb2
_symmetry_space_group_name_H-M   'P 1'
_cell_length_a   8.28940670
_cell_length_b   8.38191274
_cell_length_c   4.29780100
_cell_angle_alpha   90.00000000
_cell_angle_beta   90.00000000
_cell_angle_gamma   120.36985788
_symmetry_Int_Tables_number   1
_chemical_formula_structural   Tb4Nd2TcSb2
_chemical_formula_sum   'Tb4 Nd2 Tc1 Sb2'
_cell_volume   257.63973046
_cell_formula_units_Z   1
loop_
 _symmetry_equiv_pos_site_id
 _symmetry_equiv_pos_as_xyz
  1  'x, y, z'
loop_
 _atom_site_type_symbol
 _atom_site_label
 _atom_site_symmetry_multiplicity
 _atom_site_fract_x
 _atom_site_fract_y
 _atom_site_fract_z
 _atom_site_occupancy
  Tb  Tb0  1  0.240541  0.003472  0.000000  1
  Tb  Tb1  1  0.759459  0.762931  0.000000  1
  Tb  Tb2  1  0.000000  0.228817  0.000000  1
  Tb  Tb3  1  0.000000  0.603257  0.500000  1
  Nd  Nd4  1  0.597909  0.003004  0.500000  1
  Nd  Nd5  1  0.402091  0.405095  0.500000  1
  Tc  Tc6  1  0.000000  0.987982  0.500000  1
  Sb  Sb7  1  0.324179  0.664811  0.000000  1
  Sb  Sb8  1  0.675821  0.340631  0.000000  1
