# generated using pymatgen
data_Ho10TlPb5
_symmetry_space_group_name_H-M   'P 1'
_cell_length_a   9.01181500
_cell_length_b   9.01401095
_cell_length_c   6.64803000
_cell_angle_alpha   90.00000000
_cell_angle_beta   90.00000000
_cell_angle_gamma   119.99194526
_symmetry_Int_Tables_number   1
_chemical_formula_structural   Ho10TlPb5
_chemical_formula_sum   'Ho10 Tl1 Pb5'
_cell_volume   467.72350457
_cell_formula_units_Z   1
loop_
 _symmetry_equiv_pos_site_id
 _symmetry_equiv_pos_as_xyz
  1  'x, y, z'
loop_
 _atom_site_type_symbol
 _atom_site_label
 _atom_site_symmetry_multiplicity
 _atom_site_fract_x
 _atom_site_fract_y
 _atom_site_fract_z
 _atom_site_occupancy
  Ho  Ho0  1  0.336016  0.669826  0.001570  1
  Ho  Ho1  1  0.666191  0.330174  0.498430  1
  Ho  Ho2  1  0.666191  0.330174  0.001570  1
  Ho  Ho3  1  0.336016  0.669826  0.498430  1
  Ho  Ho4  1  0.238729  0.000000  0.250000  1
  Ho  Ho5  1  0.237318  0.236921  0.750000  1
  Ho  Ho6  1  0.000397  0.763079  0.750000  1
  Ho  Ho7  1  0.995768  0.234264  0.250000  1
  Ho  Ho8  1  0.761504  0.765736  0.250000  1
  Ho  Ho9  1  0.762950  0.000000  0.750000  1
  Tl  Tl10  1  0.603973  0.000000  0.250000  1
  Pb  Pb11  1  0.605232  0.603312  0.750000  1
  Pb  Pb12  1  0.001920  0.396688  0.750000  1
  Pb  Pb13  1  0.999141  0.604994  0.250000  1
  Pb  Pb14  1  0.394147  0.395006  0.250000  1
  Pb  Pb15  1  0.394509  0.000000  0.750000  1
