# generated using pymatgen
data_Y6IrO12
_symmetry_space_group_name_H-M   'P 1'
_cell_length_a   6.50038477
_cell_length_b   6.50037054
_cell_length_c   6.50036800
_cell_angle_alpha   98.65990180
_cell_angle_beta   98.65996327
_cell_angle_gamma   98.65976156
_symmetry_Int_Tables_number   1
_chemical_formula_structural   Y6IrO12
_chemical_formula_sum   'Y6 Ir1 O12'
_cell_volume   264.19440493
_cell_formula_units_Z   1
loop_
 _symmetry_equiv_pos_site_id
 _symmetry_equiv_pos_as_xyz
  1  'x, y, z'
loop_
 _atom_site_type_symbol
 _atom_site_label
 _atom_site_symmetry_multiplicity
 _atom_site_fract_x
 _atom_site_fract_y
 _atom_site_fract_z
 _atom_site_occupancy
  Y  Y0  1  0.611385  0.314114  0.144096  1
  Y  Y1  1  0.144096  0.611385  0.314114  1
  Y  Y2  1  0.685886  0.855904  0.388617  1
  Y  Y3  1  0.314114  0.144096  0.611384  1
  Y  Y4  1  0.855904  0.388616  0.685887  1
  Y  Y5  1  0.388615  0.685886  0.855906  1
  Ir  Ir6  1  0.000000  0.000000  0.000000  1
  O  O7  1  0.702181  0.928889  0.034180  1
  O  O8  1  0.965818  0.297819  0.071110  1
  O  O9  1  0.433055  0.591711  0.176935  1
  O  O10  1  0.071111  0.965819  0.297820  1
  O  O11  1  0.823065  0.566945  0.408288  1
  O  O12  1  0.591713  0.176936  0.433055  1
  O  O13  1  0.408288  0.823064  0.566944  1
  O  O14  1  0.176935  0.433055  0.591713  1
  O  O15  1  0.928889  0.034181  0.702179  1
  O  O16  1  0.566945  0.408288  0.823064  1
  O  O17  1  0.034182  0.702181  0.928889  1
  O  O18  1  0.297819  0.071110  0.965819  1
