# generated using pymatgen
data_ErLu(ScAu)2
_symmetry_space_group_name_H-M   'P 1'
_cell_length_a   4.75631600
_cell_length_b   6.97026100
_cell_length_c   8.56056800
_cell_angle_alpha   90.00000000
_cell_angle_beta   90.00000000
_cell_angle_gamma   90.00000000
_symmetry_Int_Tables_number   1
_chemical_formula_structural   ErLu(ScAu)2
_chemical_formula_sum   'Er2 Lu2 Sc4 Au4'
_cell_volume   283.80648991
_cell_formula_units_Z   2
loop_
 _symmetry_equiv_pos_site_id
 _symmetry_equiv_pos_as_xyz
  1  'x, y, z'
loop_
 _atom_site_type_symbol
 _atom_site_label
 _atom_site_symmetry_multiplicity
 _atom_site_fract_x
 _atom_site_fract_y
 _atom_site_fract_z
 _atom_site_occupancy
  Er  Er0  1  0.750000  0.517183  0.821378  1
  Er  Er1  1  0.750000  0.017183  0.678622  1
  Lu  Lu2  1  0.250000  0.482379  0.180018  1
  Lu  Lu3  1  0.250000  0.982379  0.319982  1
  Sc  Sc4  1  0.250000  0.854049  0.925144  1
  Sc  Sc5  1  0.250000  0.354049  0.574856  1
  Sc  Sc6  1  0.750000  0.145978  0.078826  1
  Sc  Sc7  1  0.750000  0.645978  0.421174  1
  Au  Au8  1  0.250000  0.247444  0.899395  1
  Au  Au9  1  0.250000  0.747444  0.600605  1
  Au  Au10  1  0.750000  0.752967  0.104158  1
  Au  Au11  1  0.750000  0.252967  0.395842  1
