# generated using pymatgen
data_Er4InPt11
_symmetry_space_group_name_H-M   'P 1'
_cell_length_a   4.17352800
_cell_length_b   5.83782660
_cell_length_c   11.61577404
_cell_angle_alpha   87.83546143
_cell_angle_beta   90.00000000
_cell_angle_gamma   90.00000000
_symmetry_Int_Tables_number   1
_chemical_formula_structural   Er4InPt11
_chemical_formula_sum   'Er4 In1 Pt11'
_cell_volume   282.80865150
_cell_formula_units_Z   1
loop_
 _symmetry_equiv_pos_site_id
 _symmetry_equiv_pos_as_xyz
  1  'x, y, z'
loop_
 _atom_site_type_symbol
 _atom_site_label
 _atom_site_symmetry_multiplicity
 _atom_site_fract_x
 _atom_site_fract_y
 _atom_site_fract_z
 _atom_site_occupancy
  Er  Er0  1  0.500000  0.752174  0.375852  1
  Er  Er1  1  0.500000  0.721483  0.862145  1
  Er  Er2  1  0.500000  0.278517  0.137855  1
  Er  Er3  1  0.500000  0.247826  0.624148  1
  In  In4  1  0.000000  0.000000  0.000000  1
  Pt  Pt5  1  0.000000  0.010212  0.249408  1
  Pt  Pt6  1  0.000000  0.989788  0.750592  1
  Pt  Pt7  1  0.000000  0.500000  0.000000  1
  Pt  Pt8  1  0.000000  0.500000  0.500000  1
  Pt  Pt9  1  0.000000  0.512160  0.250108  1
  Pt  Pt10  1  0.000000  0.487840  0.749892  1
  Pt  Pt11  1  0.500000  0.249400  0.377877  1
  Pt  Pt12  1  0.500000  0.233191  0.880406  1
  Pt  Pt13  1  0.500000  0.766809  0.119594  1
  Pt  Pt14  1  0.500000  0.750600  0.622123  1
  Pt  Pt15  1  0.000000  0.000000  0.500000  1
