# generated using pymatgen
data_Cs12Na4Li4Hf4As11P
_symmetry_space_group_name_H-M   'P 1'
_cell_length_a   10.95288516
_cell_length_b   10.95288496
_cell_length_c   16.88658963
_cell_angle_alpha   90.04913516
_cell_angle_beta   90.04913298
_cell_angle_gamma   143.83266237
_symmetry_Int_Tables_number   1
_chemical_formula_structural   Cs12Na4Li4Hf4As11P
_chemical_formula_sum   'Cs12 Na4 Li4 Hf4 As11 P1'
_cell_volume   1195.51902025
_cell_formula_units_Z   1
loop_
 _symmetry_equiv_pos_site_id
 _symmetry_equiv_pos_as_xyz
  1  'x, y, z'
loop_
 _atom_site_type_symbol
 _atom_site_label
 _atom_site_symmetry_multiplicity
 _atom_site_fract_x
 _atom_site_fract_y
 _atom_site_fract_z
 _atom_site_occupancy
  Cs  Cs0  1  0.947285  0.608386  0.825621  1
  Cs  Cs1  1  0.552151  0.890377  0.326297  1
  Cs  Cs2  1  0.391605  0.052497  0.174180  1
  Cs  Cs3  1  0.052497  0.391605  0.174180  1
  Cs  Cs4  1  0.890377  0.552151  0.326297  1
  Cs  Cs5  1  0.446438  0.108180  0.673176  1
  Cs  Cs6  1  0.608386  0.947285  0.825621  1
  Cs  Cs7  1  0.293545  0.293545  0.317752  1
  Cs  Cs8  1  0.791528  0.791528  0.184268  1
  Cs  Cs9  1  0.208572  0.208572  0.816833  1
  Cs  Cs10  1  0.709028  0.709028  0.682890  1
  Cs  Cs11  1  0.108180  0.446438  0.673176  1
  Na  Na12  1  0.755036  0.245122  0.000035  1
  Na  Na13  1  0.744685  0.254138  0.499588  1
  Na  Na14  1  0.245122  0.755036  0.000035  1
  Na  Na15  1  0.254138  0.744685  0.499588  1
  Li  Li16  1  0.920645  0.079094  0.000171  1
  Li  Li17  1  0.580678  0.423722  0.499694  1
  Li  Li18  1  0.079094  0.920645  0.000171  1
  Li  Li19  1  0.423722  0.580678  0.499694  1
  Hf  Hf20  1  0.583949  0.415974  0.000174  1
  Hf  Hf21  1  0.914243  0.080420  0.498824  1
  Hf  Hf22  1  0.415974  0.583949  0.000174  1
  Hf  Hf23  1  0.080420  0.914243  0.498824  1
  As  As24  1  0.881603  0.575225  0.088992  1
  As  As25  1  0.425232  0.118487  0.911343  1
  As  As26  1  0.617720  0.923983  0.587745  1
  As  As27  1  0.923983  0.617720  0.587745  1
  As  As28  1  0.118487  0.425232  0.911343  1
  As  As29  1  0.575225  0.881603  0.088992  1
  As  As30  1  0.379897  0.074096  0.410463  1
  As  As31  1  0.223321  0.223321  0.578278  1
  As  As32  1  0.722345  0.722345  0.921413  1
  As  As33  1  0.277662  0.277662  0.079126  1
  As  As34  1  0.074096  0.379897  0.410463  1
  P  P35  1  0.783132  0.783132  0.426837  1
