# generated using pymatgen
data_Er10In8CuIrPd2
_symmetry_space_group_name_H-M   'P 1'
_cell_length_a   3.60193100
_cell_length_b   8.08299303
_cell_length_c   18.12061621
_cell_angle_alpha   90.03338937
_cell_angle_beta   90.00000000
_cell_angle_gamma   90.00000000
_symmetry_Int_Tables_number   1
_chemical_formula_structural   Er10In8CuIrPd2
_chemical_formula_sum   'Er10 In8 Cu1 Ir1 Pd2'
_cell_volume   527.57047410
_cell_formula_units_Z   1
loop_
 _symmetry_equiv_pos_site_id
 _symmetry_equiv_pos_as_xyz
  1  'x, y, z'
loop_
 _atom_site_type_symbol
 _atom_site_label
 _atom_site_symmetry_multiplicity
 _atom_site_fract_x
 _atom_site_fract_y
 _atom_site_fract_z
 _atom_site_occupancy
  Er  Er0  1  0.000000  0.501136  0.499784  1
  Er  Er1  1  0.000000  0.001641  0.000459  1
  Er  Er2  1  0.000000  0.729854  0.277629  1
  Er  Er3  1  0.000000  0.259466  0.719885  1
  Er  Er4  1  0.000000  0.759450  0.779878  1
  Er  Er5  1  0.000000  0.254573  0.220183  1
  Er  Er6  1  0.000000  0.615670  0.086552  1
  Er  Er7  1  0.000000  0.381723  0.915713  1
  Er  Er8  1  0.000000  0.882266  0.583197  1
  Er  Er9  1  0.000000  0.117152  0.415680  1
  In  In10  1  0.500000  0.707815  0.932181  1
  In  In11  1  0.500000  0.292363  0.067859  1
  In  In12  1  0.500000  0.791637  0.431978  1
  In  In13  1  0.500000  0.207997  0.567109  1
  In  In14  1  0.500000  0.577603  0.650459  1
  In  In15  1  0.500000  0.421991  0.351815  1
  In  In16  1  0.500000  0.924456  0.149918  1
  In  In17  1  0.500000  0.077887  0.850762  1
  Cu  Cu18  1  0.500000  0.476458  0.803120  1
  Ir  Ir19  1  0.500000  0.521439  0.195504  1
  Pd  Pd20  1  0.500000  0.976073  0.696326  1
  Pd  Pd21  1  0.500000  0.021348  0.304010  1
