# generated using pymatgen
data_YTm4(In2Ir)2
_symmetry_space_group_name_H-M   'P 1'
_cell_length_a   3.61218200
_cell_length_b   7.94662700
_cell_length_c   18.16230000
_cell_angle_alpha   90.00000000
_cell_angle_beta   90.00000000
_cell_angle_gamma   90.00000000
_symmetry_Int_Tables_number   1
_chemical_formula_structural   YTm4(In2Ir)2
_chemical_formula_sum   'Y2 Tm8 In8 Ir4'
_cell_volume   521.34270099
_cell_formula_units_Z   2
loop_
 _symmetry_equiv_pos_site_id
 _symmetry_equiv_pos_as_xyz
  1  'x, y, z'
loop_
 _atom_site_type_symbol
 _atom_site_label
 _atom_site_symmetry_multiplicity
 _atom_site_fract_x
 _atom_site_fract_y
 _atom_site_fract_z
 _atom_site_occupancy
  Y  Y0  1  0.000000  0.000000  0.000000  1
  Y  Y1  1  0.000000  0.500000  0.500000  1
  Tm  Tm2  1  0.000000  0.115790  0.410694  1
  Tm  Tm3  1  0.000000  0.884210  0.589306  1
  Tm  Tm4  1  0.000000  0.384210  0.910694  1
  Tm  Tm5  1  0.000000  0.615790  0.089306  1
  Tm  Tm6  1  0.000000  0.244831  0.221774  1
  Tm  Tm7  1  0.000000  0.755169  0.778226  1
  Tm  Tm8  1  0.000000  0.255169  0.721774  1
  Tm  Tm9  1  0.000000  0.744831  0.278226  1
  In  In10  1  0.500000  0.426907  0.350205  1
  In  In11  1  0.500000  0.573093  0.649795  1
  In  In12  1  0.500000  0.073093  0.850205  1
  In  In13  1  0.500000  0.926907  0.149795  1
  In  In14  1  0.500000  0.294789  0.067423  1
  In  In15  1  0.500000  0.705211  0.932577  1
  In  In16  1  0.500000  0.205211  0.567423  1
  In  In17  1  0.500000  0.794789  0.432577  1
  Ir  Ir18  1  0.500000  0.021851  0.304095  1
  Ir  Ir19  1  0.500000  0.978149  0.695905  1
  Ir  Ir20  1  0.500000  0.478149  0.804095  1
  Ir  Ir21  1  0.500000  0.521851  0.195905  1
