# generated using pymatgen
data_Ho4ZnAs5Ir7
_symmetry_space_group_name_H-M   'P 1'
_cell_length_a   7.27265348
_cell_length_b   7.27265410
_cell_length_c   7.27265339
_cell_angle_alpha   108.30311896
_cell_angle_beta   110.05841795
_cell_angle_gamma   110.05841161
_symmetry_Int_Tables_number   1
_chemical_formula_structural   Ho4ZnAs5Ir7
_chemical_formula_sum   'Ho4 Zn1 As5 Ir7'
_cell_volume   296.02044427
_cell_formula_units_Z   1
loop_
 _symmetry_equiv_pos_site_id
 _symmetry_equiv_pos_as_xyz
  1  'x, y, z'
loop_
 _atom_site_type_symbol
 _atom_site_label
 _atom_site_symmetry_multiplicity
 _atom_site_fract_x
 _atom_site_fract_y
 _atom_site_fract_z
 _atom_site_occupancy
  Ho  Ho0  1  0.000000  0.995749  0.494811  1
  Ho  Ho1  1  0.000000  0.494811  0.995749  1
  Ho  Ho2  1  0.500938  0.995749  0.995749  1
  Ho  Ho3  1  0.499062  0.494811  0.494811  1
  Zn  Zn4  1  0.000000  0.695111  0.695111  1
  As  As5  1  0.684015  0.680108  0.996093  1
  As  As6  1  0.315985  0.996093  0.312078  1
  As  As7  1  0.000000  0.331068  0.331068  1
  As  As8  1  0.315985  0.312078  0.996093  1
  As  As9  1  0.684015  0.996093  0.680108  1
  Ir  Ir10  1  0.748615  0.247843  0.499228  1
  Ir  Ir11  1  0.748615  0.499228  0.247843  1
  Ir  Ir12  1  0.500000  0.247002  0.747002  1
  Ir  Ir13  1  0.251385  0.499228  0.750613  1
  Ir  Ir14  1  0.251385  0.750613  0.499228  1
  Ir  Ir15  1  0.500000  0.747002  0.247002  1
  Ir  Ir16  1  0.000000  0.017412  0.017412  1
