# generated using pymatgen
data_Cd3CoBiIr3O14
_symmetry_space_group_name_H-M   'P 1'
_cell_length_a   7.17785371
_cell_length_b   7.27922238
_cell_length_c   7.14469134
_cell_angle_alpha   59.91992852
_cell_angle_beta   59.84633171
_cell_angle_gamma   60.45959776
_symmetry_Int_Tables_number   1
_chemical_formula_structural   Cd3CoBiIr3O14
_chemical_formula_sum   'Cd3 Co1 Bi1 Ir3 O14'
_cell_volume   264.39831088
_cell_formula_units_Z   1
loop_
 _symmetry_equiv_pos_site_id
 _symmetry_equiv_pos_as_xyz
  1  'x, y, z'
loop_
 _atom_site_type_symbol
 _atom_site_label
 _atom_site_symmetry_multiplicity
 _atom_site_fract_x
 _atom_site_fract_y
 _atom_site_fract_z
 _atom_site_occupancy
  Cd  Cd0  1  0.625000  0.125000  0.125000  1
  Cd  Cd1  1  0.125000  0.125000  0.625000  1
  Cd  Cd2  1  0.125000  0.125000  0.125000  1
  Co  Co3  1  0.625000  0.625000  0.125000  1
  Bi  Bi4  1  0.125000  0.625000  0.125000  1
  Ir  Ir5  1  0.125000  0.625000  0.625000  1
  Ir  Ir6  1  0.625000  0.125000  0.625000  1
  Ir  Ir7  1  0.625000  0.625000  0.625000  1
  O  O8  1  0.707743  0.695834  0.294565  1
  O  O9  1  0.298928  0.303190  0.696191  1
  O  O10  1  0.701692  0.303190  0.696191  1
  O  O11  1  0.301858  0.695834  0.294565  1
  O  O12  1  0.294657  0.698751  0.711934  1
  O  O13  1  0.696456  0.306674  0.300414  1
  O  O14  1  0.542257  0.554166  0.955435  1
  O  O15  1  0.951072  0.946810  0.553809  1
  O  O16  1  0.548308  0.946810  0.553809  1
  O  O17  1  0.948142  0.554166  0.955435  1
  O  O18  1  0.955343  0.551249  0.538066  1
  O  O19  1  0.553544  0.943326  0.949586  1
  O  O20  1  0.251392  0.247410  0.249806  1
  O  O21  1  0.998608  0.002590  0.000194  1
