# generated using pymatgen
data_Tb4YErTa2O14
_symmetry_space_group_name_H-M   'P 1'
_cell_length_a   6.51908509
_cell_length_b   6.50525143
_cell_length_c   7.49568633
_cell_angle_alpha   89.96575459
_cell_angle_beta   89.95590493
_cell_angle_gamma   108.61567850
_symmetry_Int_Tables_number   1
_chemical_formula_structural   Tb4YErTa2O14
_chemical_formula_sum   'Tb4 Y1 Er1 Ta2 O14'
_cell_volume   301.24792035
_cell_formula_units_Z   1
loop_
 _symmetry_equiv_pos_site_id
 _symmetry_equiv_pos_as_xyz
  1  'x, y, z'
loop_
 _atom_site_type_symbol
 _atom_site_label
 _atom_site_symmetry_multiplicity
 _atom_site_fract_x
 _atom_site_fract_y
 _atom_site_fract_z
 _atom_site_occupancy
  Tb  Tb0  1  0.000296  0.465186  0.741896  1
  Tb  Tb1  1  0.535169  0.999986  0.758274  1
  Tb  Tb2  1  0.538649  0.536337  0.499725  1
  Tb  Tb3  1  0.463472  0.463955  0.000953  1
  Y  Y4  1  0.465266  0.000148  0.258473  1
  Er  Er5  1  0.000741  0.534990  0.241601  1
  Ta  Ta6  1  0.002360  0.002719  0.499012  1
  Ta  Ta7  1  0.997581  0.997493  0.001092  1
  O  O8  1  0.067284  0.930896  0.249985  1
  O  O9  1  0.044221  0.305407  0.452363  1
  O  O10  1  0.080194  0.327103  0.027695  1
  O  O11  1  0.356751  0.639524  0.250729  1
  O  O12  1  0.370593  0.628621  0.749962  1
  O  O13  1  0.327362  0.083155  0.975976  1
  O  O14  1  0.307900  0.052790  0.542522  1
  O  O15  1  0.692499  0.949605  0.043413  1
  O  O16  1  0.672419  0.917001  0.475870  1
  O  O17  1  0.632757  0.372327  0.249234  1
  O  O18  1  0.639692  0.361549  0.750092  1
  O  O19  1  0.919030  0.671931  0.522311  1
  O  O20  1  0.950848  0.691882  0.958754  1
  O  O21  1  0.934918  0.067393  0.750067  1
