# generated using pymatgen
data_U2Co20NiB6
_symmetry_space_group_name_H-M   'P 1'
_cell_length_a   7.50241986
_cell_length_b   7.49206477
_cell_length_c   7.49991079
_cell_angle_alpha   60.05974125
_cell_angle_beta   59.94196890
_cell_angle_gamma   60.00884130
_symmetry_Int_Tables_number   1
_chemical_formula_structural   U2Co20NiB6
_chemical_formula_sum   'U2 Co20 Ni1 B6'
_cell_volume   298.11078950
_cell_formula_units_Z   1
loop_
 _symmetry_equiv_pos_site_id
 _symmetry_equiv_pos_as_xyz
  1  'x, y, z'
loop_
 _atom_site_type_symbol
 _atom_site_label
 _atom_site_symmetry_multiplicity
 _atom_site_fract_x
 _atom_site_fract_y
 _atom_site_fract_z
 _atom_site_occupancy
  U  U0  1  0.250028  0.250239  0.249940  1
  U  U1  1  0.749972  0.749761  0.750060  1
  Co  Co2  1  0.383017  0.382981  0.383066  1
  Co  Co3  1  0.149082  0.616908  0.617007  1
  Co  Co4  1  0.616933  0.149054  0.616946  1
  Co  Co5  1  0.617017  0.616933  0.149088  1
  Co  Co6  1  0.383067  0.850946  0.383054  1
  Co  Co7  1  0.382983  0.383067  0.850912  1
  Co  Co8  1  0.850918  0.383092  0.382993  1
  Co  Co9  1  0.616983  0.617019  0.616934  1
  Co  Co10  1  0.999990  0.336985  0.999945  1
  Co  Co11  1  0.336971  0.000040  0.999902  1
  Co  Co12  1  0.000053  0.337014  0.663022  1
  Co  Co13  1  0.663024  0.999991  0.336953  1
  Co  Co14  1  0.336976  0.000009  0.663047  1
  Co  Co15  1  0.999936  0.000032  0.336894  1
  Co  Co16  1  0.663050  0.336962  0.000045  1
  Co  Co17  1  0.999947  0.662986  0.336978  1
  Co  Co18  1  0.000064  0.999968  0.663106  1
  Co  Co19  1  0.336950  0.663038  0.999955  1
  Co  Co20  1  0.663029  0.999960  0.000098  1
  Co  Co21  1  0.000010  0.663015  0.000055  1
  Ni  Ni22  1  0.000000  0.000000  0.000000  1
  B  B23  1  0.274150  0.725776  0.274124  1
  B  B24  1  0.274218  0.725780  0.725891  1
  B  B25  1  0.725782  0.274220  0.274109  1
  B  B26  1  0.725908  0.725823  0.274171  1
  B  B27  1  0.274092  0.274177  0.725829  1
  B  B28  1  0.725850  0.274224  0.725876  1
