# generated using pymatgen
data_Eu2Ga5CuNi4
_symmetry_space_group_name_H-M   'P 1'
_cell_length_a   6.35541159
_cell_length_b   6.35370842
_cell_length_c   5.13704200
_cell_angle_alpha   90.00275874
_cell_angle_beta   90.00007266
_cell_angle_gamma   104.34362136
_symmetry_Int_Tables_number   1
_chemical_formula_structural   Eu2Ga5CuNi4
_chemical_formula_sum   'Eu2 Ga5 Cu1 Ni4'
_cell_volume   200.96965729
_cell_formula_units_Z   1
loop_
 _symmetry_equiv_pos_site_id
 _symmetry_equiv_pos_as_xyz
  1  'x, y, z'
loop_
 _atom_site_type_symbol
 _atom_site_label
 _atom_site_symmetry_multiplicity
 _atom_site_fract_x
 _atom_site_fract_y
 _atom_site_fract_z
 _atom_site_occupancy
  Eu  Eu0  1  0.671291  0.671313  0.249997  1
  Eu  Eu1  1  0.346042  0.346075  0.750002  1
  Ga  Ga2  1  0.952917  0.952985  0.750005  1
  Ga  Ga3  1  0.084673  0.459485  0.249939  1
  Ga  Ga4  1  0.529280  0.907982  0.749983  1
  Ga  Ga5  1  0.907917  0.529193  0.750009  1
  Ga  Ga6  1  0.459291  0.084590  0.250053  1
  Cu  Cu7  1  0.068288  0.068216  0.250001  1
  Ni  Ni8  1  0.203485  0.786520  0.498520  1
  Ni  Ni9  1  0.203569  0.786567  0.001452  1
  Ni  Ni10  1  0.786631  0.203546  0.498295  1
  Ni  Ni11  1  0.786615  0.203528  0.001744  1
