# generated using pymatgen
data_Y6Al24Fe3Ni5
_symmetry_space_group_name_H-M   'P 1'
_cell_length_a   8.62020200
_cell_length_b   8.64359569
_cell_length_c   9.20899100
_cell_angle_alpha   89.87687848
_cell_angle_beta   90.00000000
_cell_angle_gamma   119.91050315
_symmetry_Int_Tables_number   1
_chemical_formula_structural   Y6Al24Fe3Ni5
_chemical_formula_sum   'Y6 Al24 Fe3 Ni5'
_cell_volume   594.76333281
_cell_formula_units_Z   1
loop_
 _symmetry_equiv_pos_site_id
 _symmetry_equiv_pos_as_xyz
  1  'x, y, z'
loop_
 _atom_site_type_symbol
 _atom_site_label
 _atom_site_symmetry_multiplicity
 _atom_site_fract_x
 _atom_site_fract_y
 _atom_site_fract_z
 _atom_site_occupancy
  Y  Y0  1  0.192556  0.385111  0.248380  1
  Y  Y1  1  0.807444  0.614889  0.751620  1
  Y  Y2  1  0.613653  0.807667  0.250023  1
  Y  Y3  1  0.386347  0.192333  0.749977  1
  Y  Y4  1  0.194013  0.807667  0.250023  1
  Y  Y5  1  0.805987  0.192333  0.749977  1
  Al  Al6  1  0.335568  0.671139  0.020385  1
  Al  Al7  1  0.664432  0.328861  0.979615  1
  Al  Al8  1  0.666923  0.333843  0.520419  1
  Al  Al9  1  0.333077  0.666157  0.479581  1
  Al  Al10  1  0.160537  0.321075  0.575768  1
  Al  Al11  1  0.839463  0.678925  0.424232  1
  Al  Al12  1  0.678616  0.839056  0.576626  1
  Al  Al13  1  0.839212  0.678423  0.074820  1
  Al  Al14  1  0.321384  0.160944  0.423374  1
  Al  Al15  1  0.160788  0.321577  0.925180  1
  Al  Al16  1  0.160440  0.839056  0.576626  1
  Al  Al17  1  0.322782  0.157327  0.074463  1
  Al  Al18  1  0.839560  0.160944  0.423374  1
  Al  Al19  1  0.677218  0.842673  0.925537  1
  Al  Al20  1  0.834545  0.157327  0.074463  1
  Al  Al21  1  0.165455  0.842673  0.925537  1
  Al  Al22  1  0.560169  0.120339  0.247041  1
  Al  Al23  1  0.439831  0.879661  0.752959  1
  Al  Al24  1  0.878142  0.439102  0.249887  1
  Al  Al25  1  0.121858  0.560898  0.750113  1
  Al  Al26  1  0.560960  0.439102  0.249887  1
  Al  Al27  1  0.439040  0.560898  0.750113  1
  Al  Al28  1  0.000322  0.000642  0.249495  1
  Al  Al29  1  0.999678  0.999358  0.750505  1
  Fe  Fe30  1  0.500000  0.000000  0.000000  1
  Fe  Fe31  1  0.000000  0.000000  0.000000  1
  Fe  Fe32  1  0.000000  0.000000  0.500000  1
  Ni  Ni33  1  0.000000  0.500000  0.000000  1
  Ni  Ni34  1  0.500000  0.000000  0.500000  1
  Ni  Ni35  1  0.500000  0.500000  0.000000  1
  Ni  Ni36  1  0.000000  0.500000  0.500000  1
  Ni  Ni37  1  0.500000  0.500000  0.500000  1
