# generated using pymatgen
data_Ho12Tc3Au2
_symmetry_space_group_name_H-M   'P 1'
_cell_length_a   8.28222714
_cell_length_b   8.28222780
_cell_length_c   8.28222752
_cell_angle_alpha   110.29005427
_cell_angle_beta   110.29006643
_cell_angle_gamma   107.84566522
_symmetry_Int_Tables_number   1
_chemical_formula_structural   Ho12Tc3Au2
_chemical_formula_sum   'Ho12 Tc3 Au2'
_cell_volume   437.07729318
_cell_formula_units_Z   1
loop_
 _symmetry_equiv_pos_site_id
 _symmetry_equiv_pos_as_xyz
  1  'x, y, z'
loop_
 _atom_site_type_symbol
 _atom_site_label
 _atom_site_symmetry_multiplicity
 _atom_site_fract_x
 _atom_site_fract_y
 _atom_site_fract_z
 _atom_site_occupancy
  Ho  Ho0  1  0.318799  0.318799  0.637600  1
  Ho  Ho1  1  0.681201  0.681201  0.362400  1
  Ho  Ho2  1  0.681201  0.318799  0.000000  1
  Ho  Ho3  1  0.318799  0.681201  0.000000  1
  Ho  Ho4  1  0.183234  0.434027  0.250793  1
  Ho  Ho5  1  0.816766  0.565973  0.749207  1
  Ho  Ho6  1  0.183234  0.932439  0.749207  1
  Ho  Ho7  1  0.932439  0.183234  0.749207  1
  Ho  Ho8  1  0.816766  0.067561  0.250793  1
  Ho  Ho9  1  0.067561  0.816766  0.250793  1
  Ho  Ho10  1  0.434027  0.183234  0.250793  1
  Ho  Ho11  1  0.565973  0.816766  0.749207  1
  Tc  Tc12  1  0.337633  0.337633  0.000000  1
  Tc  Tc13  1  0.662367  0.662367  0.000000  1
  Tc  Tc14  1  0.000000  0.000000  0.000000  1
  Au  Au15  1  0.000000  0.500000  0.500000  1
  Au  Au16  1  0.500000  0.000000  0.500000  1
