# generated using pymatgen
data_Ba2Sr2Li4Si7Sn
_symmetry_space_group_name_H-M   'P 1'
_cell_length_a   4.56548000
_cell_length_b   7.30726514
_cell_length_c   11.71769302
_cell_angle_alpha   89.31337915
_cell_angle_beta   90.00000000
_cell_angle_gamma   90.00000000
_symmetry_Int_Tables_number   1
_chemical_formula_structural   Ba2Sr2Li4Si7Sn
_chemical_formula_sum   'Ba2 Sr2 Li4 Si7 Sn1'
_cell_volume   390.88791290
_cell_formula_units_Z   1
loop_
 _symmetry_equiv_pos_site_id
 _symmetry_equiv_pos_as_xyz
  1  'x, y, z'
loop_
 _atom_site_type_symbol
 _atom_site_label
 _atom_site_symmetry_multiplicity
 _atom_site_fract_x
 _atom_site_fract_y
 _atom_site_fract_z
 _atom_site_occupancy
  Ba  Ba0  1  0.250000  0.632237  0.359089  1
  Ba  Ba1  1  0.750000  0.365428  0.637130  1
  Sr  Sr2  1  0.250000  0.133136  0.146733  1
  Sr  Sr3  1  0.750000  0.853507  0.860805  1
  Li  Li4  1  0.250000  0.114981  0.434635  1
  Li  Li5  1  0.750000  0.885446  0.560121  1
  Li  Li6  1  0.250000  0.623642  0.060814  1
  Li  Li7  1  0.750000  0.395524  0.943866  1
  Si  Si8  1  0.750000  0.469432  0.162372  1
  Si  Si9  1  0.250000  0.551198  0.838458  1
  Si  Si10  1  0.750000  0.967972  0.329341  1
  Si  Si11  1  0.250000  0.022338  0.659409  1
  Si  Si12  1  0.750000  0.291951  0.336931  1
  Si  Si13  1  0.250000  0.702507  0.658033  1
  Si  Si14  1  0.750000  0.797454  0.153311  1
  Sn  Sn15  1  0.250000  0.193244  0.858954  1
