# generated using pymatgen
data_CeZrP7Ru12
_symmetry_space_group_name_H-M   'P 1'
_cell_length_a   9.43712300
_cell_length_b   9.43712253
_cell_length_c   3.92382100
_cell_angle_alpha   90.00000000
_cell_angle_beta   90.00000000
_cell_angle_gamma   119.99999815
_symmetry_Int_Tables_number   1
_chemical_formula_structural   CeZrP7Ru12
_chemical_formula_sum   'Ce1 Zr1 P7 Ru12'
_cell_volume   302.63491857
_cell_formula_units_Z   1
loop_
 _symmetry_equiv_pos_site_id
 _symmetry_equiv_pos_as_xyz
  1  'x, y, z'
loop_
 _atom_site_type_symbol
 _atom_site_label
 _atom_site_symmetry_multiplicity
 _atom_site_fract_x
 _atom_site_fract_y
 _atom_site_fract_z
 _atom_site_occupancy
  Ce  Ce0  1  0.333333  0.666667  0.000000  1
  Zr  Zr1  1  0.666667  0.333333  0.500000  1
  P  P2  1  0.602606  0.717674  0.500000  1
  P  P3  1  0.000000  0.000000  0.000000  1
  P  P4  1  0.282326  0.884931  0.500000  1
  P  P5  1  0.115069  0.397394  0.500000  1
  P  P6  1  0.885646  0.572466  0.000000  1
  P  P7  1  0.427534  0.313179  0.000000  1
  P  P8  1  0.686821  0.114354  0.000000  1
  Ru  Ru9  1  0.557841  0.952743  0.500000  1
  Ru  Ru10  1  0.394902  0.442159  0.500000  1
  Ru  Ru11  1  0.912979  0.121671  0.500000  1
  Ru  Ru12  1  0.208692  0.087021  0.500000  1
  Ru  Ru13  1  0.878329  0.791308  0.500000  1
  Ru  Ru14  1  0.726329  0.890016  0.000000  1
  Ru  Ru15  1  0.109984  0.836312  0.000000  1
  Ru  Ru16  1  0.163688  0.273671  0.000000  1
  Ru  Ru17  1  0.427915  0.074419  0.000000  1
  Ru  Ru18  1  0.925581  0.353498  0.000000  1
  Ru  Ru19  1  0.646502  0.572085  0.000000  1
  Ru  Ru20  1  0.047257  0.605098  0.500000  1
