# generated using pymatgen
data_NdEuTmGa8Ag3
_symmetry_space_group_name_H-M   'P 1'
_cell_length_a   4.41245655
_cell_length_b   8.43810028
_cell_length_c   8.43810083
_cell_angle_alpha   69.44010245
_cell_angle_beta   74.84328537
_cell_angle_gamma   74.84328110
_symmetry_Int_Tables_number   1
_chemical_formula_structural   NdEuTmGa8Ag3
_chemical_formula_sum   'Nd1 Eu1 Tm1 Ga8 Ag3'
_cell_volume   278.88301503
_cell_formula_units_Z   1
loop_
 _symmetry_equiv_pos_site_id
 _symmetry_equiv_pos_as_xyz
  1  'x, y, z'
loop_
 _atom_site_type_symbol
 _atom_site_label
 _atom_site_symmetry_multiplicity
 _atom_site_fract_x
 _atom_site_fract_y
 _atom_site_fract_z
 _atom_site_occupancy
  Nd  Nd0  1  0.201105  0.798895  0.798895  1
  Eu  Eu1  1  0.501046  0.498954  0.498954  1
  Tm  Tm2  1  0.799730  0.200270  0.200270  1
  Ga  Ga3  1  0.354972  0.359738  0.930318  1
  Ga  Ga4  1  0.644798  0.635185  0.075219  1
  Ga  Ga5  1  0.354972  0.930318  0.359738  1
  Ga  Ga6  1  0.644798  0.075219  0.635185  1
  Ga  Ga7  1  0.161500  0.470992  0.206008  1
  Ga  Ga8  1  0.840211  0.525551  0.794028  1
  Ga  Ga9  1  0.161500  0.206008  0.470992  1
  Ga  Ga10  1  0.840211  0.794028  0.525551  1
  Ag  Ag11  1  0.498666  0.001334  0.001334  1
  Ag  Ag12  1  0.998246  0.810049  0.193460  1
  Ag  Ag13  1  0.998246  0.193460  0.810049  1
