# generated using pymatgen
data_Tm2LuTh(Ga8Pt3)3
_symmetry_space_group_name_H-M   'P 1'
_cell_length_a   7.60068004
_cell_length_b   7.61416935
_cell_length_c   13.26716577
_cell_angle_alpha   84.50293991
_cell_angle_beta   78.89270500
_cell_angle_gamma   60.11293040
_symmetry_Int_Tables_number   1
_chemical_formula_structural   Tm2LuTh(Ga8Pt3)3
_chemical_formula_sum   'Tm2 Lu1 Th1 Ga24 Pt9'
_cell_volume   653.22762811
_cell_formula_units_Z   1
loop_
 _symmetry_equiv_pos_site_id
 _symmetry_equiv_pos_as_xyz
  1  'x, y, z'
loop_
 _atom_site_type_symbol
 _atom_site_label
 _atom_site_symmetry_multiplicity
 _atom_site_fract_x
 _atom_site_fract_y
 _atom_site_fract_z
 _atom_site_occupancy
  Tm  Tm0  1  0.604302  0.832409  0.193234  1
  Tm  Tm1  1  0.732336  0.499238  0.808172  1
  Lu  Lu2  1  0.266917  0.501114  0.194270  1
  Th  Th3  1  0.394705  0.167531  0.808995  1
  Ga  Ga4  1  0.687028  0.828486  0.942263  1
  Ga  Ga5  1  0.316941  0.167319  0.065360  1
  Ga  Ga6  1  0.147600  0.833374  0.559099  1
  Ga  Ga7  1  0.853184  0.166753  0.438393  1
  Ga  Ga8  1  0.480889  0.167020  0.555056  1
  Ga  Ga9  1  0.520340  0.832216  0.441837  1
  Ga  Ga10  1  0.219850  0.166089  0.324396  1
  Ga  Ga11  1  0.786005  0.829359  0.671241  1
  Ga  Ga12  1  0.439363  0.508939  0.671813  1
  Ga  Ga13  1  0.562427  0.495373  0.323627  1
  Ga  Ga14  1  0.105058  0.162226  0.670904  1
  Ga  Ga15  1  0.892135  0.837645  0.324059  1
  Ga  Ga16  1  0.357098  0.500853  0.942566  1
  Ga  Ga17  1  0.638933  0.506241  0.062925  1
  Ga  Ga18  1  0.012405  0.171007  0.946904  1
  Ga  Ga19  1  0.981157  0.826438  0.059895  1
  Ga  Ga20  1  0.185602  0.499874  0.441781  1
  Ga  Ga21  1  0.814620  0.500231  0.556791  1
  Ga  Ga22  1  0.734380  0.165026  0.182062  1
  Ga  Ga23  1  0.265519  0.830117  0.817605  1
  Ga  Ga24  1  0.055759  0.635001  0.816898  1
  Ga  Ga25  1  0.938411  0.370504  0.183184  1
  Ga  Ga26  1  0.860069  0.041323  0.817211  1
  Ga  Ga27  1  0.144542  0.958552  0.182994  1
  Pt  Pt28  1  0.122205  0.491564  0.639549  1
  Pt  Pt29  1  0.880400  0.507476  0.359467  1
  Pt  Pt30  1  0.659824  0.169115  0.000152  1
  Pt  Pt31  1  0.338424  0.833439  0.000086  1
  Pt  Pt32  1  0.537713  0.166433  0.358710  1
  Pt  Pt33  1  0.461904  0.835047  0.639653  1
  Pt  Pt34  1  0.778255  0.173789  0.638095  1
  Pt  Pt35  1  0.221440  0.825044  0.360685  1
  Pt  Pt36  1  0.002262  0.497846  0.000069  1
