# generated using pymatgen
data_Pr4Er4Re3B24Ru
_symmetry_space_group_name_H-M   'P 1'
_cell_length_a   3.72633700
_cell_length_b   9.23962457
_cell_length_c   11.71237026
_cell_angle_alpha   90.08549414
_cell_angle_beta   90.00000000
_cell_angle_gamma   90.00000000
_symmetry_Int_Tables_number   1
_chemical_formula_structural   Pr4Er4Re3B24Ru
_chemical_formula_sum   'Pr4 Er4 Re3 B24 Ru1'
_cell_volume   403.25593097
_cell_formula_units_Z   1
loop_
 _symmetry_equiv_pos_site_id
 _symmetry_equiv_pos_as_xyz
  1  'x, y, z'
loop_
 _atom_site_type_symbol
 _atom_site_label
 _atom_site_symmetry_multiplicity
 _atom_site_fract_x
 _atom_site_fract_y
 _atom_site_fract_z
 _atom_site_occupancy
  Pr  Pr0  1  0.000000  0.321994  0.415052  1
  Pr  Pr1  1  0.000000  0.677451  0.586536  1
  Pr  Pr2  1  0.000000  0.823688  0.084177  1
  Pr  Pr3  1  0.000000  0.177535  0.914260  1
  Er  Er4  1  0.000000  0.942215  0.368866  1
  Er  Er5  1  0.000000  0.056606  0.630590  1
  Er  Er6  1  0.000000  0.442771  0.131187  1
  Er  Er7  1  0.000000  0.556911  0.869668  1
  Re  Re8  1  0.000000  0.360976  0.680367  1
  Re  Re9  1  0.000000  0.139683  0.181738  1
  Re  Re10  1  0.000000  0.860074  0.818804  1
  B  B11  1  0.500000  0.556404  0.429365  1
  B  B12  1  0.500000  0.444405  0.570165  1
  B  B13  1  0.500000  0.055557  0.069989  1
  B  B14  1  0.500000  0.944465  0.929773  1
  B  B15  1  0.500000  0.749883  0.414804  1
  B  B16  1  0.500000  0.249152  0.584692  1
  B  B17  1  0.500000  0.250814  0.084812  1
  B  B18  1  0.500000  0.749712  0.915343  1
  B  B19  1  0.500000  0.790450  0.265891  1
  B  B20  1  0.500000  0.208592  0.733957  1
  B  B21  1  0.500000  0.291291  0.234358  1
  B  B22  1  0.500000  0.708392  0.766096  1
  B  B23  1  0.500000  0.629598  0.186463  1
  B  B24  1  0.500000  0.370832  0.813626  1
  B  B25  1  0.500000  0.129437  0.314405  1
  B  B26  1  0.500000  0.870511  0.686007  1
  B  B27  1  0.500000  0.984514  0.213440  1
  B  B28  1  0.500000  0.015491  0.786151  1
  B  B29  1  0.500000  0.485638  0.286803  1
  B  B30  1  0.500000  0.516095  0.713601  1
  B  B31  1  0.500000  0.596058  0.026790  1
  B  B32  1  0.500000  0.404016  0.974134  1
  B  B33  1  0.500000  0.095454  0.473453  1
  B  B34  1  0.500000  0.903325  0.526216  1
  Ru  Ru35  1  0.000000  0.640011  0.318418  1
