# generated using pymatgen
data_Pr2Zn19Cu3
_symmetry_space_group_name_H-M   'P 1'
_cell_length_a   6.78855203
_cell_length_b   8.22014952
_cell_length_c   8.22014662
_cell_angle_alpha   99.90034113
_cell_angle_beta   65.58398870
_cell_angle_gamma   114.41616670
_symmetry_Int_Tables_number   1
_chemical_formula_structural   Pr2Zn19Cu3
_chemical_formula_sum   'Pr2 Zn19 Cu3'
_cell_volume   380.32990898
_cell_formula_units_Z   1
loop_
 _symmetry_equiv_pos_site_id
 _symmetry_equiv_pos_as_xyz
  1  'x, y, z'
loop_
 _atom_site_type_symbol
 _atom_site_label
 _atom_site_symmetry_multiplicity
 _atom_site_fract_x
 _atom_site_fract_y
 _atom_site_fract_z
 _atom_site_occupancy
  Pr  Pr0  1  0.998586  0.998870  0.001132  1
  Pr  Pr1  1  0.751414  0.501130  0.498868  1
  Zn  Zn2  1  0.501057  0.003416  0.996583  1
  Zn  Zn3  1  0.101432  0.674078  0.080108  1
  Zn  Zn4  1  0.814438  0.325023  0.081463  1
  Zn  Zn5  1  0.648566  0.580108  0.174077  1
  Zn  Zn6  1  0.177039  0.412135  0.171589  1
  Zn  Zn7  1  0.375001  0.750000  0.249999  1
  Zn  Zn8  1  0.572961  0.087864  0.328410  1
  Zn  Zn9  1  0.101433  0.919892  0.325923  1
  Zn  Zn10  1  0.935563  0.174976  0.418536  1
  Zn  Zn11  1  0.648567  0.825922  0.419892  1
  Zn  Zn12  1  0.248943  0.496584  0.503417  1
  Zn  Zn13  1  0.237670  0.173919  0.583149  1
  Zn  Zn14  1  0.177038  0.828410  0.587865  1
  Zn  Zn15  1  0.512330  0.083149  0.673921  1
  Zn  Zn16  1  0.814438  0.918536  0.674976  1
  Zn  Zn17  1  0.237672  0.416851  0.826079  1
  Zn  Zn18  1  0.935563  0.581464  0.825024  1
  Zn  Zn19  1  0.572962  0.671590  0.912135  1
  Zn  Zn20  1  0.512332  0.326081  0.916851  1
  Cu  Cu21  1  0.375001  0.250000  0.250000  1
  Cu  Cu22  1  0.375001  0.750000  0.750000  1
  Cu  Cu23  1  0.875000  0.249999  0.750000  1
