# generated using pymatgen
data_PrNd2Th5(Si3Pd)4
_symmetry_space_group_name_H-M   'P 1'
_cell_length_a   8.26655200
_cell_length_b   8.26368299
_cell_length_c   8.51955500
_cell_angle_alpha   90.00000000
_cell_angle_beta   90.00000000
_cell_angle_gamma   120.01148537
_symmetry_Int_Tables_number   1
_chemical_formula_structural   PrNd2Th5(Si3Pd)4
_chemical_formula_sum   'Pr1 Nd2 Th5 Si12 Pd4'
_cell_volume   503.95913175
_cell_formula_units_Z   1
loop_
 _symmetry_equiv_pos_site_id
 _symmetry_equiv_pos_as_xyz
  1  'x, y, z'
loop_
 _atom_site_type_symbol
 _atom_site_label
 _atom_site_symmetry_multiplicity
 _atom_site_fract_x
 _atom_site_fract_y
 _atom_site_fract_z
 _atom_site_occupancy
  Pr  Pr0  1  0.000002  0.000004  0.250000  1
  Nd  Nd1  1  0.500344  0.499605  0.250000  1
  Nd  Nd2  1  0.999260  0.499605  0.250000  1
  Th  Th3  1  0.499675  0.500314  0.750000  1
  Th  Th4  1  0.000638  0.500314  0.750000  1
  Th  Th5  1  0.499683  0.999367  0.750000  1
  Th  Th6  1  0.500295  0.000591  0.250000  1
  Th  Th7  1  0.999992  0.999983  0.750000  1
  Si  Si8  1  0.834144  0.165673  0.999204  1
  Si  Si9  1  0.165842  0.834308  0.999658  1
  Si  Si10  1  0.331530  0.165673  0.999204  1
  Si  Si11  1  0.165842  0.834308  0.500342  1
  Si  Si12  1  0.668465  0.834308  0.999658  1
  Si  Si13  1  0.834144  0.165673  0.500796  1
  Si  Si14  1  0.834110  0.668218  0.998934  1
  Si  Si15  1  0.668465  0.834308  0.500342  1
  Si  Si16  1  0.165920  0.331842  0.999431  1
  Si  Si17  1  0.331530  0.165673  0.500796  1
  Si  Si18  1  0.165920  0.331842  0.500569  1
  Si  Si19  1  0.834110  0.668218  0.501066  1
  Pd  Pd20  1  0.666184  0.332367  0.996466  1
  Pd  Pd21  1  0.333860  0.667721  0.998967  1
  Pd  Pd22  1  0.333860  0.667721  0.501033  1
  Pd  Pd23  1  0.666184  0.332367  0.503534  1
