# generated using pymatgen
data_Dy4Er4Re3B24Ru
_symmetry_space_group_name_H-M   'P 1'
_cell_length_a   3.66309400
_cell_length_b   9.13833909
_cell_length_c   11.52890088
_cell_angle_alpha   89.90587835
_cell_angle_beta   90.00000000
_cell_angle_gamma   90.00000000
_symmetry_Int_Tables_number   1
_chemical_formula_structural   Dy4Er4Re3B24Ru
_chemical_formula_sum   'Dy4 Er4 Re3 B24 Ru1'
_cell_volume   385.92476806
_cell_formula_units_Z   1
loop_
 _symmetry_equiv_pos_site_id
 _symmetry_equiv_pos_as_xyz
  1  'x, y, z'
loop_
 _atom_site_type_symbol
 _atom_site_label
 _atom_site_symmetry_multiplicity
 _atom_site_fract_x
 _atom_site_fract_y
 _atom_site_fract_z
 _atom_site_occupancy
  Dy  Dy0  1  0.000000  0.323214  0.413693  1
  Dy  Dy1  1  0.000000  0.675355  0.584378  1
  Dy  Dy2  1  0.000000  0.822743  0.087580  1
  Dy  Dy3  1  0.000000  0.177976  0.914159  1
  Er  Er4  1  0.000000  0.943312  0.371122  1
  Er  Er5  1  0.000000  0.056653  0.630297  1
  Er  Er6  1  0.000000  0.443811  0.129166  1
  Er  Er7  1  0.000000  0.557953  0.869904  1
  Re  Re8  1  0.000000  0.638792  0.320439  1
  Re  Re9  1  0.000000  0.361211  0.680009  1
  Re  Re10  1  0.000000  0.138340  0.178597  1
  B  B11  1  0.500000  0.553129  0.432665  1
  B  B12  1  0.500000  0.446592  0.567074  1
  B  B13  1  0.500000  0.053025  0.066941  1
  B  B14  1  0.500000  0.945857  0.932413  1
  B  B15  1  0.500000  0.749216  0.418752  1
  B  B16  1  0.500000  0.250125  0.581485  1
  B  B17  1  0.500000  0.249850  0.081166  1
  B  B18  1  0.500000  0.751085  0.918326  1
  B  B19  1  0.500000  0.792480  0.265844  1
  B  B20  1  0.500000  0.207712  0.734940  1
  B  B21  1  0.500000  0.292380  0.234204  1
  B  B22  1  0.500000  0.708739  0.765513  1
  B  B23  1  0.500000  0.631239  0.185268  1
  B  B24  1  0.500000  0.369112  0.815207  1
  B  B25  1  0.500000  0.130559  0.314332  1
  B  B26  1  0.500000  0.868642  0.685498  1
  B  B27  1  0.500000  0.981886  0.212412  1
  B  B28  1  0.500000  0.016320  0.787819  1
  B  B29  1  0.500000  0.482389  0.287285  1
  B  B30  1  0.500000  0.517605  0.712249  1
  B  B31  1  0.500000  0.601936  0.027809  1
  B  B32  1  0.500000  0.400113  0.971744  1
  B  B33  1  0.500000  0.100754  0.472473  1
  B  B34  1  0.500000  0.898733  0.528652  1
  Ru  Ru35  1  0.000000  0.861163  0.820584  1
