# generated using pymatgen
data_Ca3Nd16ErPb16
_symmetry_space_group_name_H-M   'P 1'
_cell_length_a   8.34808900
_cell_length_b   8.58510661
_cell_length_c   16.38208000
_cell_angle_alpha   90.00000000
_cell_angle_beta   90.00000000
_cell_angle_gamma   89.91885921
_symmetry_Int_Tables_number   1
_chemical_formula_structural   Ca3Nd16ErPb16
_chemical_formula_sum   'Ca3 Nd16 Er1 Pb16'
_cell_volume   1174.08994833
_cell_formula_units_Z   1
loop_
 _symmetry_equiv_pos_site_id
 _symmetry_equiv_pos_as_xyz
  1  'x, y, z'
loop_
 _atom_site_type_symbol
 _atom_site_label
 _atom_site_symmetry_multiplicity
 _atom_site_fract_x
 _atom_site_fract_y
 _atom_site_fract_z
 _atom_site_occupancy
  Ca  Ca0  1  0.308130  0.001006  0.750000  1
  Ca  Ca1  1  0.191802  0.501573  0.250000  1
  Ca  Ca2  1  0.691752  0.998401  0.250000  1
  Nd  Nd3  1  0.640422  0.162010  0.622281  1
  Nd  Nd4  1  0.140588  0.338524  0.877809  1
  Nd  Nd5  1  0.360645  0.837322  0.121830  1
  Nd  Nd6  1  0.860419  0.661026  0.379199  1
  Nd  Nd7  1  0.360645  0.837322  0.378170  1
  Nd  Nd8  1  0.860419  0.661026  0.120801  1
  Nd  Nd9  1  0.640422  0.162010  0.877719  1
  Nd  Nd10  1  0.140588  0.338524  0.622191  1
  Nd  Nd11  1  0.487433  0.682204  0.596020  1
  Nd  Nd12  1  0.988798  0.816744  0.904464  1
  Nd  Nd13  1  0.511060  0.316953  0.094902  1
  Nd  Nd14  1  0.010971  0.184155  0.405397  1
  Nd  Nd15  1  0.511060  0.316953  0.405098  1
  Nd  Nd16  1  0.010971  0.184155  0.094603  1
  Nd  Nd17  1  0.487433  0.682204  0.903980  1
  Nd  Nd18  1  0.988798  0.816744  0.595536  1
  Er  Er19  1  0.807705  0.498939  0.750000  1
  Pb  Pb20  1  0.702430  0.959873  0.459921  1
  Pb  Pb21  1  0.204849  0.539809  0.040223  1
  Pb  Pb22  1  0.296999  0.040282  0.959699  1
  Pb  Pb23  1  0.796100  0.461824  0.543303  1
  Pb  Pb24  1  0.296999  0.040282  0.540301  1
  Pb  Pb25  1  0.796100  0.461824  0.956697  1
  Pb  Pb26  1  0.702430  0.959873  0.040079  1
  Pb  Pb27  1  0.204849  0.539809  0.459777  1
  Pb  Pb28  1  0.446254  0.388456  0.750000  1
  Pb  Pb29  1  0.943265  0.117752  0.750000  1
  Pb  Pb30  1  0.557555  0.611256  0.250000  1
  Pb  Pb31  1  0.056800  0.887590  0.250000  1
  Pb  Pb32  1  0.681732  0.845027  0.750000  1
  Pb  Pb33  1  0.171563  0.648577  0.750000  1
  Pb  Pb34  1  0.320138  0.148119  0.250000  1
  Pb  Pb35  1  0.821874  0.351854  0.250000  1
