# generated using pymatgen
data_Nb4RhS8
_symmetry_space_group_name_H-M   'P 1'
_cell_length_a   6.71076200
_cell_length_b   6.71076138
_cell_length_c   12.10205100
_cell_angle_alpha   90.00000000
_cell_angle_beta   90.00000000
_cell_angle_gamma   120.00022775
_symmetry_Int_Tables_number   1
_chemical_formula_structural   Nb4RhS8
_chemical_formula_sum   'Nb8 Rh2 S16'
_cell_volume   471.98940212
_cell_formula_units_Z   2
loop_
 _symmetry_equiv_pos_site_id
 _symmetry_equiv_pos_as_xyz
  1  'x, y, z'
loop_
 _atom_site_type_symbol
 _atom_site_label
 _atom_site_symmetry_multiplicity
 _atom_site_fract_x
 _atom_site_fract_y
 _atom_site_fract_z
 _atom_site_occupancy
  Nb  Nb0  1  0.999993  0.999998  0.250000  1
  Nb  Nb1  1  0.507321  0.014600  0.250000  1
  Nb  Nb2  1  0.507269  0.492678  0.250000  1
  Nb  Nb3  1  0.985385  0.492714  0.250000  1
  Nb  Nb4  1  0.000007  0.000002  0.750000  1
  Nb  Nb5  1  0.014614  0.507286  0.750000  1
  Nb  Nb6  1  0.492730  0.507322  0.750000  1
  Nb  Nb7  1  0.492679  0.985400  0.750000  1
  Rh  Rh8  1  0.000000  0.000000  0.000000  1
  Rh  Rh9  1  0.000000  0.000000  0.500000  1
  S  S10  1  0.666657  0.333328  0.115614  1
  S  S11  1  0.666187  0.833069  0.121344  1
  S  S12  1  0.166866  0.333802  0.121346  1
  S  S13  1  0.166924  0.833119  0.121346  1
  S  S14  1  0.166866  0.333802  0.378654  1
  S  S15  1  0.666187  0.833069  0.378655  1
  S  S16  1  0.166924  0.833119  0.378655  1
  S  S17  1  0.666657  0.333328  0.384386  1
  S  S18  1  0.333342  0.666672  0.615614  1
  S  S19  1  0.333813  0.166931  0.621344  1
  S  S20  1  0.833078  0.166882  0.621346  1
  S  S21  1  0.833135  0.666198  0.621346  1
  S  S22  1  0.833135  0.666198  0.878654  1
  S  S23  1  0.833078  0.166882  0.878655  1
  S  S24  1  0.333813  0.166931  0.878656  1
  S  S25  1  0.333342  0.666672  0.884386  1
