# generated using pymatgen
data_Zr10SnGeSb5
_symmetry_space_group_name_H-M   'P 1'
_cell_length_a   5.86647637
_cell_length_b   8.60206606
_cell_length_c   8.59327927
_cell_angle_alpha   119.96576926
_cell_angle_beta   89.82067032
_cell_angle_gamma   90.08863391
_symmetry_Int_Tables_number   1
_chemical_formula_structural   Zr10SnGeSb5
_chemical_formula_sum   'Zr10 Sn1 Ge1 Sb5'
_cell_volume   375.67926684
_cell_formula_units_Z   1
loop_
 _symmetry_equiv_pos_site_id
 _symmetry_equiv_pos_as_xyz
  1  'x, y, z'
loop_
 _atom_site_type_symbol
 _atom_site_label
 _atom_site_symmetry_multiplicity
 _atom_site_fract_x
 _atom_site_fract_y
 _atom_site_fract_z
 _atom_site_occupancy
  Zr  Zr0  1  0.499830  0.334286  0.667388  1
  Zr  Zr1  1  0.499827  0.665711  0.333099  1
  Zr  Zr2  1  0.000555  0.665702  0.333022  1
  Zr  Zr3  1  0.000555  0.334298  0.667332  1
  Zr  Zr4  1  0.761882  0.258637  0.999736  1
  Zr  Zr5  1  0.761867  0.741359  0.741090  1
  Zr  Zr6  1  0.763085  0.000006  0.256951  1
  Zr  Zr7  1  0.237496  0.740797  0.999960  1
  Zr  Zr8  1  0.237511  0.259209  0.259169  1
  Zr  Zr9  1  0.237475  0.999995  0.742799  1
  Sn  Sn10  1  0.252520  0.000000  0.388921  1
  Ge  Ge11  1  0.499384  0.000001  0.000515  1
  Sb  Sb12  1  0.748534  0.611798  0.000728  1
  Sb  Sb13  1  0.748554  0.388210  0.388938  1
  Sb  Sb14  1  0.748939  0.999995  0.609241  1
  Sb  Sb15  1  0.251003  0.388399  0.999756  1
  Sb  Sb16  1  0.250981  0.611598  0.611354  1
