# generated using pymatgen
data_Na4Tb2(IrO4)3
_symmetry_space_group_name_H-M   'P 1'
_cell_length_a   9.49233000
_cell_length_b   9.49233093
_cell_length_c   3.21121900
_cell_angle_alpha   90.00000000
_cell_angle_beta   90.00000000
_cell_angle_gamma   119.99999674
_symmetry_Int_Tables_number   1
_chemical_formula_structural   Na4Tb2(IrO4)3
_chemical_formula_sum   'Na4 Tb2 Ir3 O12'
_cell_volume   250.57992187
_cell_formula_units_Z   1
loop_
 _symmetry_equiv_pos_site_id
 _symmetry_equiv_pos_as_xyz
  1  'x, y, z'
loop_
 _atom_site_type_symbol
 _atom_site_label
 _atom_site_symmetry_multiplicity
 _atom_site_fract_x
 _atom_site_fract_y
 _atom_site_fract_z
 _atom_site_occupancy
  Na  Na0  1  0.000000  0.000000  0.000000  1
  Na  Na1  1  0.698276  0.000000  0.500000  1
  Na  Na2  1  0.000000  0.698276  0.500000  1
  Na  Na3  1  0.301724  0.301724  0.500000  1
  Tb  Tb4  1  0.333333  0.666667  0.500000  1
  Tb  Tb5  1  0.666667  0.333333  0.500000  1
  Ir  Ir6  1  0.330570  0.000000  0.000000  1
  Ir  Ir7  1  0.000000  0.330570  0.000000  1
  Ir  Ir8  1  0.669430  0.669430  0.000000  1
  O  O9  1  0.197610  0.000000  0.500000  1
  O  O10  1  0.000000  0.197610  0.500000  1
  O  O11  1  0.802390  0.802390  0.500000  1
  O  O12  1  0.457515  0.000000  0.500000  1
  O  O13  1  0.000000  0.457515  0.500000  1
  O  O14  1  0.542485  0.542485  0.500000  1
  O  O15  1  0.242515  0.459920  0.000000  1
  O  O16  1  0.540080  0.782595  0.000000  1
  O  O17  1  0.459920  0.242515  0.000000  1
  O  O18  1  0.217405  0.757485  0.000000  1
  O  O19  1  0.782595  0.540080  0.000000  1
  O  O20  1  0.757485  0.217405  0.000000  1
