# generated using pymatgen
data_Tm2AsSe
_symmetry_space_group_name_H-M   'P 1'
_cell_length_a   7.01273318
_cell_length_b   7.01273312
_cell_length_c   7.01273226
_cell_angle_alpha   33.51622564
_cell_angle_beta   33.51623100
_cell_angle_gamma   33.51623095
_symmetry_Int_Tables_number   1
_chemical_formula_structural   Tm2AsSe
_chemical_formula_sum   'Tm2 As1 Se1'
_cell_volume   93.65394682
_cell_formula_units_Z   1
loop_
 _symmetry_equiv_pos_site_id
 _symmetry_equiv_pos_as_xyz
  1  'x, y, z'
loop_
 _atom_site_type_symbol
 _atom_site_label
 _atom_site_symmetry_multiplicity
 _atom_site_fract_x
 _atom_site_fract_y
 _atom_site_fract_z
 _atom_site_occupancy
  Tm  Tm0  1  0.254177  0.254177  0.254177  1
  Tm  Tm1  1  0.745823  0.745823  0.745823  1
  As  As2  1  0.000000  0.000000  0.000000  1
  Se  Se3  1  0.500000  0.500000  0.500000  1
