# generated using pymatgen
data_Hf2Zr6Co16(Si3P)3
_symmetry_space_group_name_H-M   'P 1'
_cell_length_a   12.28642906
_cell_length_b   12.28618104
_cell_length_c   3.69768600
_cell_angle_alpha   90.00000000
_cell_angle_beta   90.00000000
_cell_angle_gamma   119.99931744
_symmetry_Int_Tables_number   1
_chemical_formula_structural   Hf2Zr6Co16(Si3P)3
_chemical_formula_sum   'Hf2 Zr6 Co16 Si9 P3'
_cell_volume   483.39954318
_cell_formula_units_Z   1
loop_
 _symmetry_equiv_pos_site_id
 _symmetry_equiv_pos_as_xyz
  1  'x, y, z'
loop_
 _atom_site_type_symbol
 _atom_site_label
 _atom_site_symmetry_multiplicity
 _atom_site_fract_x
 _atom_site_fract_y
 _atom_site_fract_z
 _atom_site_occupancy
  Hf  Hf0  1  0.440274  0.440089  0.000000  1
  Hf  Hf1  1  0.559726  0.999814  0.000000  1
  Zr  Zr2  1  0.000000  0.559231  0.000000  1
  Zr  Zr3  1  0.666386  0.333057  0.000000  1
  Zr  Zr4  1  0.333614  0.666672  0.000000  1
  Zr  Zr5  1  0.818814  0.818986  0.500000  1
  Zr  Zr6  1  0.181186  0.000172  0.500000  1
  Zr  Zr7  1  0.000000  0.180355  0.500000  1
  Co  Co8  1  0.194010  0.367890  0.000000  1
  Co  Co9  1  0.175180  0.807665  0.000000  1
  Co  Co10  1  0.824820  0.632486  0.000000  1
  Co  Co11  1  0.805990  0.173881  0.000000  1
  Co  Co12  1  0.368234  0.193948  0.000000  1
  Co  Co13  1  0.121268  0.478422  0.500000  1
  Co  Co14  1  0.359051  0.879680  0.500000  1
  Co  Co15  1  0.520614  0.641735  0.500000  1
  Co  Co16  1  0.640949  0.520629  0.500000  1
  Co  Co17  1  0.878732  0.357154  0.500000  1
  Co  Co18  1  0.479386  0.121120  0.500000  1
  Co  Co19  1  0.000000  0.999917  0.000000  1
  Co  Co20  1  0.726323  0.999908  0.500000  1
  Co  Co21  1  0.000000  0.727611  0.500000  1
  Co  Co22  1  0.631766  0.825713  0.000000  1
  Co  Co23  1  0.273677  0.273585  0.500000  1
  Si  Si24  1  0.651229  0.651959  0.000000  1
  Si  Si25  1  0.348771  0.000731  0.000000  1
  Si  Si26  1  0.000000  0.346945  0.000000  1
  Si  Si27  1  0.481021  0.304832  0.500000  1
  Si  Si28  1  0.694720  0.175840  0.500000  1
  Si  Si29  1  0.822968  0.519213  0.500000  1
  Si  Si30  1  0.518979  0.823811  0.500000  1
  Si  Si31  1  0.177032  0.696244  0.500000  1
  Si  Si32  1  0.305280  0.481120  0.500000  1
  P  P33  1  0.823392  0.999714  0.000000  1
  P  P34  1  0.000000  0.823551  0.000000  1
  P  P35  1  0.176608  0.176321  0.000000  1
