# generated using pymatgen
data_KTb(PS3)2
_symmetry_space_group_name_H-M   'P 1'
_cell_length_a   7.40033000
_cell_length_b   6.55622358
_cell_length_c   10.21225726
_cell_angle_alpha   86.82661006
_cell_angle_beta   90.00000000
_cell_angle_gamma   90.00000000
_symmetry_Int_Tables_number   1
_chemical_formula_structural   KTb(PS3)2
_chemical_formula_sum   'K2 Tb2 P4 S12'
_cell_volume   494.72074586
_cell_formula_units_Z   2
loop_
 _symmetry_equiv_pos_site_id
 _symmetry_equiv_pos_as_xyz
  1  'x, y, z'
loop_
 _atom_site_type_symbol
 _atom_site_label
 _atom_site_symmetry_multiplicity
 _atom_site_fract_x
 _atom_site_fract_y
 _atom_site_fract_z
 _atom_site_occupancy
  K  K0  1  0.474065  0.693331  0.501100  1
  K  K1  1  0.974065  0.306669  0.498900  1
  Tb  Tb2  1  0.201467  0.216411  0.997742  1
  Tb  Tb3  1  0.701467  0.783589  0.002258  1
  P  P4  1  0.686539  0.329373  0.833434  1
  P  P5  1  0.962456  0.799606  0.285214  1
  P  P6  1  0.186539  0.670627  0.166566  1
  P  P7  1  0.462456  0.200394  0.714786  1
  S  S8  1  0.773284  0.599987  0.754261  1
  S  S9  1  0.548075  0.168880  0.532764  1
  S  S10  1  0.758729  0.599492  0.262903  1
  S  S11  1  0.568136  0.372533  0.012778  1
  S  S12  1  0.396722  0.947095  0.834940  1
  S  S13  1  0.258729  0.400508  0.737097  1
  S  S14  1  0.068136  0.627467  0.987222  1
  S  S15  1  0.896722  0.052905  0.165060  1
  S  S16  1  0.048075  0.831120  0.467236  1
  S  S17  1  0.379418  0.898709  0.158834  1
  S  S18  1  0.879418  0.101291  0.841166  1
  S  S19  1  0.273284  0.400013  0.245739  1
