# generated using pymatgen
data_Pu8Zn2CuSi12Rh
_symmetry_space_group_name_H-M   'P 1'
_cell_length_a   8.17800900
_cell_length_b   8.17800914
_cell_length_c   7.95079700
_cell_angle_alpha   90.00000000
_cell_angle_beta   90.00000000
_cell_angle_gamma   119.99999538
_symmetry_Int_Tables_number   1
_chemical_formula_structural   Pu8Zn2CuSi12Rh
_chemical_formula_sum   'Pu8 Zn2 Cu1 Si12 Rh1'
_cell_volume   460.50727239
_cell_formula_units_Z   1
loop_
 _symmetry_equiv_pos_site_id
 _symmetry_equiv_pos_as_xyz
  1  'x, y, z'
loop_
 _atom_site_type_symbol
 _atom_site_label
 _atom_site_symmetry_multiplicity
 _atom_site_fract_x
 _atom_site_fract_y
 _atom_site_fract_z
 _atom_site_occupancy
  Pu  Pu0  1  0.000000  0.000000  0.748632  1
  Pu  Pu1  1  0.000000  0.000000  0.251337  1
  Pu  Pu2  1  0.495561  0.504439  0.753522  1
  Pu  Pu3  1  0.495561  0.991122  0.753522  1
  Pu  Pu4  1  0.008878  0.504439  0.753522  1
  Pu  Pu5  1  0.495614  0.504386  0.246527  1
  Pu  Pu6  1  0.008775  0.504386  0.246527  1
  Pu  Pu7  1  0.495614  0.991225  0.246527  1
  Zn  Zn8  1  0.666667  0.333333  0.000153  1
  Zn  Zn9  1  0.666667  0.333333  0.499714  1
  Cu  Cu10  1  0.333333  0.666667  0.499569  1
  Si  Si11  1  0.835315  0.164685  0.001079  1
  Si  Si12  1  0.835315  0.670630  0.001079  1
  Si  Si13  1  0.329370  0.164685  0.001079  1
  Si  Si14  1  0.834983  0.165017  0.499389  1
  Si  Si15  1  0.834983  0.669965  0.499389  1
  Si  Si16  1  0.330035  0.165017  0.499389  1
  Si  Si17  1  0.168588  0.831412  0.499437  1
  Si  Si18  1  0.662824  0.831412  0.499437  1
  Si  Si19  1  0.168588  0.337176  0.499437  1
  Si  Si20  1  0.164601  0.835399  0.999861  1
  Si  Si21  1  0.670800  0.835399  0.999861  1
  Si  Si22  1  0.164601  0.329200  0.999861  1
  Rh  Rh23  1  0.333333  0.666667  0.001143  1
