# generated using pymatgen
data_FeS27
_symmetry_space_group_name_H-M   'P 1'
_cell_length_a   15.12664971
_cell_length_b   15.12664862
_cell_length_c   15.12664821
_cell_angle_alpha   118.67919026
_cell_angle_beta   118.67918876
_cell_angle_gamma   118.67919402
_symmetry_Int_Tables_number   1
_chemical_formula_structural   FeS27
_chemical_formula_sum   'Fe1 S27'
_cell_volume   1026.88563006
_cell_formula_units_Z   1
loop_
 _symmetry_equiv_pos_site_id
 _symmetry_equiv_pos_as_xyz
  1  'x, y, z'
loop_
 _atom_site_type_symbol
 _atom_site_label
 _atom_site_symmetry_multiplicity
 _atom_site_fract_x
 _atom_site_fract_y
 _atom_site_fract_z
 _atom_site_occupancy
  Fe  Fe0  1  0.931893  0.931893  0.931893  1
  S  S1  1  0.801885  0.519940  0.519940  1
  S  S2  1  0.519940  0.519940  0.801885  1
  S  S3  1  0.519940  0.801885  0.519940  1
  S  S4  1  0.247795  0.376886  0.636722  1
  S  S5  1  0.351964  0.950781  0.351964  1
  S  S6  1  0.351964  0.351964  0.950781  1
  S  S7  1  0.950781  0.351964  0.351964  1
  S  S8  1  0.129688  0.741638  0.258730  1
  S  S9  1  0.258730  0.129688  0.741638  1
  S  S10  1  0.741638  0.258730  0.129688  1
  S  S11  1  0.741638  0.129688  0.258730  1
  S  S12  1  0.258730  0.741638  0.129688  1
  S  S13  1  0.129688  0.258730  0.741638  1
  S  S14  1  0.347207  0.878742  0.529351  1
  S  S15  1  0.529351  0.347207  0.878742  1
  S  S16  1  0.878742  0.529351  0.347207  1
  S  S17  1  0.878742  0.347207  0.529351  1
  S  S18  1  0.529351  0.878742  0.347207  1
  S  S19  1  0.347207  0.529351  0.878742  1
  S  S20  1  0.247795  0.636722  0.376886  1
  S  S21  1  0.376886  0.247795  0.636722  1
  S  S22  1  0.636722  0.376886  0.247795  1
  S  S23  1  0.636722  0.247795  0.376886  1
  S  S24  1  0.376886  0.636722  0.247795  1
  S  S25  1  0.847581  0.977916  0.977916  1
  S  S26  1  0.977916  0.977916  0.847581  1
  S  S27  1  0.977916  0.847581  0.977916  1
