# generated using pymatgen
data_LaAl10IrRu
_symmetry_space_group_name_H-M   'P 1'
_cell_length_a   6.91756318
_cell_length_b   6.92031104
_cell_length_c   9.20712000
_cell_angle_alpha   90.00000000
_cell_angle_beta   90.00000000
_cell_angle_gamma   97.07680507
_symmetry_Int_Tables_number   1
_chemical_formula_structural   LaAl10IrRu
_chemical_formula_sum   'La2 Al20 Ir2 Ru2'
_cell_volume   437.40262437
_cell_formula_units_Z   2
loop_
 _symmetry_equiv_pos_site_id
 _symmetry_equiv_pos_as_xyz
  1  'x, y, z'
loop_
 _atom_site_type_symbol
 _atom_site_label
 _atom_site_symmetry_multiplicity
 _atom_site_fract_x
 _atom_site_fract_y
 _atom_site_fract_z
 _atom_site_occupancy
  La  La0  1  0.874425  0.122284  0.750000  1
  La  La1  1  0.125575  0.877716  0.250000  1
  Al  Al2  1  0.619751  0.376549  0.550752  1
  Al  Al3  1  0.380249  0.623451  0.449248  1
  Al  Al4  1  0.380249  0.623451  0.050752  1
  Al  Al5  1  0.619751  0.376549  0.949248  1
  Al  Al6  1  0.228859  0.225723  0.499413  1
  Al  Al7  1  0.771141  0.774277  0.500587  1
  Al  Al8  1  0.771141  0.774277  0.999413  1
  Al  Al9  1  0.228859  0.225723  0.000587  1
  Al  Al10  1  0.838365  0.159312  0.103126  1
  Al  Al11  1  0.161635  0.840688  0.896874  1
  Al  Al12  1  0.161635  0.840688  0.603126  1
  Al  Al13  1  0.838365  0.159312  0.396874  1
  Al  Al14  1  0.857291  0.590059  0.750000  1
  Al  Al15  1  0.142709  0.409941  0.250000  1
  Al  Al16  1  0.411570  0.140960  0.750000  1
  Al  Al17  1  0.588430  0.859040  0.250000  1
  Al  Al18  1  0.225111  0.482053  0.750000  1
  Al  Al19  1  0.774889  0.517947  0.250000  1
  Al  Al20  1  0.517387  0.777125  0.750000  1
  Al  Al21  1  0.482613  0.222875  0.250000  1
  Ir  Ir22  1  0.000000  0.500000  0.500000  1
  Ir  Ir23  1  0.000000  0.500000  0.000000  1
  Ru  Ru24  1  0.500000  0.000000  0.000000  1
  Ru  Ru25  1  0.500000  0.000000  0.500000  1
