# generated using pymatgen
data_KCe2NpF12
_symmetry_space_group_name_H-M   'P 1'
_cell_length_a   6.96964461
_cell_length_b   6.96964567
_cell_length_c   6.96964479
_cell_angle_alpha   108.50111083
_cell_angle_beta   108.50110365
_cell_angle_gamma   111.42937702
_symmetry_Int_Tables_number   1
_chemical_formula_structural   KCe2NpF12
_chemical_formula_sum   'K1 Ce2 Np1 F12'
_cell_volume   260.39221291
_cell_formula_units_Z   1
loop_
 _symmetry_equiv_pos_site_id
 _symmetry_equiv_pos_as_xyz
  1  'x, y, z'
loop_
 _atom_site_type_symbol
 _atom_site_label
 _atom_site_symmetry_multiplicity
 _atom_site_fract_x
 _atom_site_fract_y
 _atom_site_fract_z
 _atom_site_occupancy
  K  K0  1  0.000000  0.000000  0.000000  1
  Ce  Ce1  1  0.250000  0.750000  0.500000  1
  Ce  Ce2  1  0.750000  0.250000  0.500000  1
  Np  Np3  1  0.500000  0.500000  0.000000  1
  F  F4  1  0.553289  0.347442  0.243623  1
  F  F5  1  0.309665  0.553289  0.205847  1
  F  F6  1  0.347442  0.103819  0.794153  1
  F  F7  1  0.103819  0.309665  0.756377  1
  F  F8  1  0.340397  0.012532  0.352929  1
  F  F9  1  0.987468  0.340397  0.327865  1
  F  F10  1  0.012532  0.659603  0.672135  1
  F  F11  1  0.659603  0.987468  0.647071  1
  F  F12  1  0.896181  0.690335  0.243623  1
  F  F13  1  0.652558  0.896181  0.205847  1
  F  F14  1  0.690335  0.446711  0.794153  1
  F  F15  1  0.446711  0.652558  0.756377  1
