# generated using pymatgen
data_Er8In2PdPt
_symmetry_space_group_name_H-M   'P 1'
_cell_length_a   9.67967412
_cell_length_b   9.65528898
_cell_length_c   9.65528787
_cell_angle_alpha   59.87866462
_cell_angle_beta   59.91642124
_cell_angle_gamma   59.91642076
_symmetry_Int_Tables_number   1
_chemical_formula_structural   Er8In2PdPt
_chemical_formula_sum   'Er16 In4 Pd2 Pt2'
_cell_volume   636.68940380
_cell_formula_units_Z   2
loop_
 _symmetry_equiv_pos_site_id
 _symmetry_equiv_pos_as_xyz
  1  'x, y, z'
loop_
 _atom_site_type_symbol
 _atom_site_label
 _atom_site_symmetry_multiplicity
 _atom_site_fract_x
 _atom_site_fract_y
 _atom_site_fract_z
 _atom_site_occupancy
  Er  Er0  1  0.191437  0.187523  0.810248  1
  Er  Er1  1  0.437907  0.062093  0.062093  1
  Er  Er2  1  0.436213  0.063472  0.437990  1
  Er  Er3  1  0.062326  0.437990  0.063472  1
  Er  Er4  1  0.647555  0.054214  0.650677  1
  Er  Er5  1  0.189087  0.810913  0.810913  1
  Er  Er6  1  0.062326  0.063472  0.437990  1
  Er  Er7  1  0.810139  0.189861  0.189861  1
  Er  Er8  1  0.810792  0.810248  0.187523  1
  Er  Er9  1  0.647555  0.650677  0.054214  1
  Er  Er10  1  0.645691  0.649524  0.649524  1
  Er  Er11  1  0.063474  0.436526  0.436526  1
  Er  Er12  1  0.055260  0.649524  0.649524  1
  Er  Er13  1  0.810792  0.187523  0.810248  1
  Er  Er14  1  0.436213  0.437990  0.063472  1
  Er  Er15  1  0.191437  0.810248  0.187523  1
  In  In16  1  0.416797  0.749860  0.416544  1
  In  In17  1  0.416797  0.416544  0.749860  1
  In  In18  1  0.750376  0.416438  0.416438  1
  In  In19  1  0.416749  0.416438  0.416438  1
  Pd  Pd20  1  0.856947  0.429927  0.856180  1
  Pd  Pd21  1  0.856947  0.856180  0.429927  1
  Pt  Pt22  1  0.430151  0.856409  0.856409  1
  Pt  Pt23  1  0.857030  0.856409  0.856409  1
