# generated using pymatgen
data_Pa4Fe2Re5Ge6
_symmetry_space_group_name_H-M   'P 1'
_cell_length_a   7.26186237
_cell_length_b   7.26186231
_cell_length_c   7.25444000
_cell_angle_alpha   109.23239171
_cell_angle_beta   109.23239152
_cell_angle_gamma   109.99098941
_symmetry_Int_Tables_number   1
_chemical_formula_structural   Pa4Fe2Re5Ge6
_chemical_formula_sum   'Pa4 Fe2 Re5 Ge6'
_cell_volume   294.32899469
_cell_formula_units_Z   1
loop_
 _symmetry_equiv_pos_site_id
 _symmetry_equiv_pos_as_xyz
  1  'x, y, z'
loop_
 _atom_site_type_symbol
 _atom_site_label
 _atom_site_symmetry_multiplicity
 _atom_site_fract_x
 _atom_site_fract_y
 _atom_site_fract_z
 _atom_site_occupancy
  Pa  Pa0  1  0.498390  0.501610  0.500000  1
  Pa  Pa1  1  0.003854  0.501816  0.000000  1
  Pa  Pa2  1  0.498184  0.996146  0.000000  1
  Pa  Pa3  1  0.998390  0.001610  0.500000  1
  Fe  Fe4  1  0.750008  0.498049  0.248056  1
  Fe  Fe5  1  0.501951  0.249992  0.751944  1
  Re  Re6  1  0.748565  0.251435  0.500000  1
  Re  Re7  1  0.248565  0.751435  0.500000  1
  Re  Re8  1  0.249997  0.498352  0.748349  1
  Re  Re9  1  0.501648  0.750003  0.251651  1
  Re  Re10  1  0.000251  0.999749  0.000000  1
  Ge  Ge11  1  0.687998  0.006364  0.694362  1
  Ge  Ge12  1  0.689515  0.677066  0.000000  1
  Ge  Ge13  1  0.322934  0.310485  0.000000  1
  Ge  Ge14  1  0.994362  0.688247  0.682609  1
  Ge  Ge15  1  0.993636  0.312002  0.305638  1
  Ge  Ge16  1  0.311753  0.005638  0.317391  1
