# generated using pymatgen
data_YbTm3(B4Os)4
_symmetry_space_group_name_H-M   'P 1'
_cell_length_a   3.54406400
_cell_length_b   5.94794467
_cell_length_c   11.49145125
_cell_angle_alpha   89.91393387
_cell_angle_beta   90.00000000
_cell_angle_gamma   90.00000000
_symmetry_Int_Tables_number   1
_chemical_formula_structural   YbTm3(B4Os)4
_chemical_formula_sum   'Yb1 Tm3 B16 Os4'
_cell_volume   242.23833072
_cell_formula_units_Z   1
loop_
 _symmetry_equiv_pos_site_id
 _symmetry_equiv_pos_as_xyz
  1  'x, y, z'
loop_
 _atom_site_type_symbol
 _atom_site_label
 _atom_site_symmetry_multiplicity
 _atom_site_fract_x
 _atom_site_fract_y
 _atom_site_fract_z
 _atom_site_occupancy
  Yb  Yb0  1  0.000000  0.370330  0.149374  1
  Tm  Tm1  1  0.000000  0.127804  0.649987  1
  Tm  Tm2  1  0.000000  0.871579  0.348823  1
  Tm  Tm3  1  0.000000  0.628021  0.850886  1
  B  B4  1  0.500000  0.475098  0.692189  1
  B  B5  1  0.500000  0.525858  0.308349  1
  B  B6  1  0.500000  0.974445  0.808065  1
  B  B7  1  0.500000  0.024904  0.191505  1
  B  B8  1  0.500000  0.290098  0.814243  1
  B  B9  1  0.500000  0.710960  0.185679  1
  B  B10  1  0.500000  0.789884  0.686397  1
  B  B11  1  0.500000  0.211267  0.313860  1
  B  B12  1  0.500000  0.364025  0.969897  1
  B  B13  1  0.500000  0.635676  0.029827  1
  B  B14  1  0.500000  0.864274  0.530100  1
  B  B15  1  0.500000  0.135446  0.470396  1
  B  B16  1  0.500000  0.386667  0.547515  1
  B  B17  1  0.500000  0.612718  0.452806  1
  B  B18  1  0.500000  0.887172  0.953245  1
  B  B19  1  0.500000  0.113844  0.047102  1
  Os  Os20  1  0.000000  0.140865  0.905948  1
  Os  Os21  1  0.000000  0.859606  0.091896  1
  Os  Os22  1  0.000000  0.641879  0.593543  1
  Os  Os23  1  0.000000  0.357580  0.408368  1
