# generated using pymatgen
data_Er3Zn2Cd3Rh
_symmetry_space_group_name_H-M   'P 1'
_cell_length_a   7.77003500
_cell_length_b   7.77003465
_cell_length_c   3.74576300
_cell_angle_alpha   90.00000000
_cell_angle_beta   90.00000000
_cell_angle_gamma   120.00000577
_symmetry_Int_Tables_number   1
_chemical_formula_structural   Er3Zn2Cd3Rh
_chemical_formula_sum   'Er3 Zn2 Cd3 Rh1'
_cell_volume   195.84695890
_cell_formula_units_Z   1
loop_
 _symmetry_equiv_pos_site_id
 _symmetry_equiv_pos_as_xyz
  1  'x, y, z'
loop_
 _atom_site_type_symbol
 _atom_site_label
 _atom_site_symmetry_multiplicity
 _atom_site_fract_x
 _atom_site_fract_y
 _atom_site_fract_z
 _atom_site_occupancy
  Er  Er0  1  0.607460  0.028069  0.500000  1
  Er  Er1  1  0.420609  0.392540  0.500000  1
  Er  Er2  1  0.971931  0.579391  0.500000  1
  Zn  Zn3  1  0.333333  0.666667  0.000000  1
  Zn  Zn4  1  0.000000  0.000000  0.500000  1
  Cd  Cd5  1  0.728526  0.741665  0.000000  1
  Cd  Cd6  1  0.013139  0.271474  0.000000  1
  Cd  Cd7  1  0.258335  0.986861  0.000000  1
  Rh  Rh8  1  0.666667  0.333333  0.000000  1
