# generated using pymatgen
data_Dy3Y7Si5Ge
_symmetry_space_group_name_H-M   'P 1'
_cell_length_a   8.46856500
_cell_length_b   8.47049990
_cell_length_c   6.39328300
_cell_angle_alpha   90.00085966
_cell_angle_beta   89.99957518
_cell_angle_gamma   119.99281694
_symmetry_Int_Tables_number   1
_chemical_formula_structural   Dy3Y7Si5Ge
_chemical_formula_sum   'Dy3 Y7 Si5 Ge1'
_cell_volume   397.19599213
_cell_formula_units_Z   1
loop_
 _symmetry_equiv_pos_site_id
 _symmetry_equiv_pos_as_xyz
  1  'x, y, z'
loop_
 _atom_site_type_symbol
 _atom_site_label
 _atom_site_symmetry_multiplicity
 _atom_site_fract_x
 _atom_site_fract_y
 _atom_site_fract_z
 _atom_site_occupancy
  Dy  Dy0  1  0.333207  0.665896  0.499401  1
  Dy  Dy1  1  0.667312  0.334104  0.000601  1
  Dy  Dy2  1  0.667311  0.334104  0.499400  1
  Y  Y3  1  0.998982  0.755840  0.749996  1
  Y  Y4  1  0.999944  0.243402  0.250005  1
  Y  Y5  1  0.756538  0.756601  0.250004  1
  Y  Y6  1  0.757359  0.999996  0.749996  1
  Y  Y7  1  0.243139  0.244164  0.749995  1
  Y  Y8  1  0.243100  0.999996  0.250003  1
  Y  Y9  1  0.333207  0.665895  0.000603  1
  Si  Si10  1  0.394295  0.394231  0.250021  1
  Si  Si11  1  0.000029  0.605752  0.250021  1
  Si  Si12  1  0.999945  0.394267  0.749979  1
  Si  Si13  1  0.605694  0.605717  0.749980  1
  Si  Si14  1  0.605834  0.000017  0.250020  1
  Ge  Ge15  1  0.394103  0.000018  0.749975  1
