# generated using pymatgen
data_LaPr(SnRh)4
_symmetry_space_group_name_H-M   'P 1'
_cell_length_a   4.52934000
_cell_length_b   4.52934000
_cell_length_c   10.78417700
_cell_angle_alpha   90.00000000
_cell_angle_beta   90.00000000
_cell_angle_gamma   90.00000000
_symmetry_Int_Tables_number   1
_chemical_formula_structural   LaPr(SnRh)4
_chemical_formula_sum   'La1 Pr1 Sn4 Rh4'
_cell_volume   221.23653743
_cell_formula_units_Z   1
loop_
 _symmetry_equiv_pos_site_id
 _symmetry_equiv_pos_as_xyz
  1  'x, y, z'
loop_
 _atom_site_type_symbol
 _atom_site_label
 _atom_site_symmetry_multiplicity
 _atom_site_fract_x
 _atom_site_fract_y
 _atom_site_fract_z
 _atom_site_occupancy
  La  La0  1  0.000000  0.499999  0.249618  1
  Pr  Pr1  1  0.499999  0.000000  0.749683  1
  Sn  Sn2  1  0.499999  0.000000  0.127060  1
  Sn  Sn3  1  0.000000  0.000000  0.501070  1
  Sn  Sn4  1  0.499999  0.499999  0.501070  1
  Sn  Sn5  1  0.000000  0.499999  0.871709  1
  Rh  Rh6  1  0.000000  0.000000  0.999587  1
  Rh  Rh7  1  0.499999  0.499999  0.999587  1
  Rh  Rh8  1  0.499999  0.000000  0.368467  1
  Rh  Rh9  1  0.000000  0.499999  0.632149  1
