# generated using pymatgen
data_Nd10InSi4Ge
_symmetry_space_group_name_H-M   'P 1'
_cell_length_a   7.78789600
_cell_length_b   9.20853824
_cell_length_c   7.78789600
_cell_angle_alpha   115.01545859
_cell_angle_beta   90.00000000
_cell_angle_gamma   115.01545859
_symmetry_Int_Tables_number   1
_chemical_formula_structural   Nd10InSi4Ge
_chemical_formula_sum   'Nd10 In1 Si4 Ge1'
_cell_volume   447.63600585
_cell_formula_units_Z   1
loop_
 _symmetry_equiv_pos_site_id
 _symmetry_equiv_pos_as_xyz
  1  'x, y, z'
loop_
 _atom_site_type_symbol
 _atom_site_label
 _atom_site_symmetry_multiplicity
 _atom_site_fract_x
 _atom_site_fract_y
 _atom_site_fract_z
 _atom_site_occupancy
  Nd  Nd0  1  0.975246  0.950491  0.975246  1
  Nd  Nd1  1  0.524754  0.049509  0.524754  1
  Nd  Nd2  1  0.524135  0.721699  0.672942  1
  Nd  Nd3  1  0.197567  0.721699  0.048759  1
  Nd  Nd4  1  0.672942  0.721699  0.197567  1
  Nd  Nd5  1  0.048759  0.721699  0.524135  1
  Nd  Nd6  1  0.451241  0.278301  0.302433  1
  Nd  Nd7  1  0.827058  0.278301  0.975865  1
  Nd  Nd8  1  0.302433  0.278301  0.827058  1
  Nd  Nd9  1  0.975865  0.278301  0.451241  1
  In  In10  1  0.750000  0.500000  0.750000  1
  Si  Si11  1  0.883585  0.000000  0.616415  1
  Si  Si12  1  0.116415  0.000000  0.383585  1
  Si  Si13  1  0.616415  0.000000  0.116415  1
  Si  Si14  1  0.383585  0.000000  0.883585  1
  Ge  Ge15  1  0.250000  0.500000  0.250000  1
