# generated using pymatgen
data_Dy3Pa(ReB6)2
_symmetry_space_group_name_H-M   'P 1'
_cell_length_a   3.70163700
_cell_length_b   9.18332984
_cell_length_c   11.54989304
_cell_angle_alpha   90.36620549
_cell_angle_beta   90.00000000
_cell_angle_gamma   90.00000000
_symmetry_Int_Tables_number   1
_chemical_formula_structural   Dy3Pa(ReB6)2
_chemical_formula_sum   'Dy6 Pa2 Re4 B24'
_cell_volume   392.61157796
_cell_formula_units_Z   2
loop_
 _symmetry_equiv_pos_site_id
 _symmetry_equiv_pos_as_xyz
  1  'x, y, z'
loop_
 _atom_site_type_symbol
 _atom_site_label
 _atom_site_symmetry_multiplicity
 _atom_site_fract_x
 _atom_site_fract_y
 _atom_site_fract_z
 _atom_site_occupancy
  Dy  Dy0  1  0.000000  0.824192  0.085902  1
  Dy  Dy1  1  0.000000  0.175808  0.914098  1
  Dy  Dy2  1  0.000000  0.944842  0.372732  1
  Dy  Dy3  1  0.000000  0.055158  0.627268  1
  Dy  Dy4  1  0.000000  0.443735  0.126551  1
  Dy  Dy5  1  0.000000  0.556265  0.873449  1
  Pa  Pa6  1  0.000000  0.321925  0.413137  1
  Pa  Pa7  1  0.000000  0.678075  0.586863  1
  Re  Re8  1  0.000000  0.635061  0.325116  1
  Re  Re9  1  0.000000  0.364939  0.674884  1
  Re  Re10  1  0.000000  0.140449  0.181594  1
  Re  Re11  1  0.000000  0.859551  0.818406  1
  B  B12  1  0.500000  0.553175  0.433015  1
  B  B13  1  0.500000  0.446825  0.566985  1
  B  B14  1  0.500000  0.052999  0.067622  1
  B  B15  1  0.500000  0.947001  0.932378  1
  B  B16  1  0.500000  0.747324  0.419883  1
  B  B17  1  0.500000  0.252676  0.580117  1
  B  B18  1  0.500000  0.247341  0.080598  1
  B  B19  1  0.500000  0.752659  0.919402  1
  B  B20  1  0.500000  0.791191  0.266088  1
  B  B21  1  0.500000  0.208809  0.733912  1
  B  B22  1  0.500000  0.292070  0.233821  1
  B  B23  1  0.500000  0.707930  0.766179  1
  B  B24  1  0.500000  0.631672  0.185849  1
  B  B25  1  0.500000  0.368328  0.814151  1
  B  B26  1  0.500000  0.132739  0.313895  1
  B  B27  1  0.500000  0.867261  0.686105  1
  B  B28  1  0.500000  0.982379  0.212461  1
  B  B29  1  0.500000  0.017621  0.787539  1
  B  B30  1  0.500000  0.483030  0.286840  1
  B  B31  1  0.500000  0.516970  0.713160  1
  B  B32  1  0.500000  0.606008  0.029728  1
  B  B33  1  0.500000  0.393992  0.970272  1
  B  B34  1  0.500000  0.113064  0.468706  1
  B  B35  1  0.500000  0.886936  0.531294  1
