# generated using pymatgen
data_Th5Sc3(SiI6)2
_symmetry_space_group_name_H-M   'P 1'
_cell_length_a   4.15980000
_cell_length_b   14.35183402
_cell_length_c   15.07230542
_cell_angle_alpha   89.93717824
_cell_angle_beta   90.00000000
_cell_angle_gamma   90.00000000
_symmetry_Int_Tables_number   1
_chemical_formula_structural   Th5Sc3(SiI6)2
_chemical_formula_sum   'Th5 Sc3 Si2 I12'
_cell_volume   899.82753454
_cell_formula_units_Z   1
loop_
 _symmetry_equiv_pos_site_id
 _symmetry_equiv_pos_as_xyz
  1  'x, y, z'
loop_
 _atom_site_type_symbol
 _atom_site_label
 _atom_site_symmetry_multiplicity
 _atom_site_fract_x
 _atom_site_fract_y
 _atom_site_fract_z
 _atom_site_occupancy
  Th  Th0  1  0.500000  0.111613  0.352850  1
  Th  Th1  1  0.000000  0.111191  0.576535  1
  Th  Th2  1  0.000000  0.887521  0.425003  1
  Th  Th3  1  0.000000  0.611342  0.923663  1
  Th  Th4  1  0.000000  0.391889  0.073445  1
  Sc  Sc5  1  0.500000  0.892520  0.643152  1
  Sc  Sc6  1  0.500000  0.604390  0.137976  1
  Sc  Sc7  1  0.500000  0.395807  0.860886  1
  Si  Si8  1  0.500000  0.996094  0.505045  1
  Si  Si9  1  0.500000  0.501373  0.998649  1
  I  I10  1  0.500000  0.241573  0.166710  1
  I  I11  1  0.500000  0.757464  0.830570  1
  I  I12  1  0.500000  0.742332  0.332646  1
  I  I13  1  0.500000  0.255171  0.670682  1
  I  I14  1  0.000000  0.267010  0.420889  1
  I  I15  1  0.000000  0.751952  0.593520  1
  I  I16  1  0.000000  0.746395  0.092384  1
  I  I17  1  0.000000  0.253586  0.907359  1
  I  I18  1  0.000000  0.992959  0.235317  1
  I  I19  1  0.000000  0.988002  0.753849  1
  I  I20  1  0.000000  0.512433  0.252223  1
  I  I21  1  0.000000  0.487385  0.746647  1
