# generated using pymatgen
data_Er16In6IrRh
_symmetry_space_group_name_H-M   'P 1'
_cell_length_a   10.34905600
_cell_length_b   10.34905515
_cell_length_c   6.97862800
_cell_angle_alpha   90.00000000
_cell_angle_beta   90.00000000
_cell_angle_gamma   119.99999632
_symmetry_Int_Tables_number   1
_chemical_formula_structural   Er16In6IrRh
_chemical_formula_sum   'Er16 In6 Ir1 Rh1'
_cell_volume   647.29482483
_cell_formula_units_Z   1
loop_
 _symmetry_equiv_pos_site_id
 _symmetry_equiv_pos_as_xyz
  1  'x, y, z'
loop_
 _atom_site_type_symbol
 _atom_site_label
 _atom_site_symmetry_multiplicity
 _atom_site_fract_x
 _atom_site_fract_y
 _atom_site_fract_z
 _atom_site_occupancy
  Er  Er0  1  0.532838  0.065676  0.793477  1
  Er  Er1  1  0.934324  0.467162  0.793477  1
  Er  Er2  1  0.532838  0.467162  0.793477  1
  Er  Er3  1  0.467298  0.934595  0.293853  1
  Er  Er4  1  0.065405  0.532702  0.293853  1
  Er  Er5  1  0.467298  0.532702  0.293853  1
  Er  Er6  1  0.823443  0.646887  0.499962  1
  Er  Er7  1  0.353113  0.176557  0.499962  1
  Er  Er8  1  0.823443  0.176557  0.499962  1
  Er  Er9  1  0.176414  0.352827  0.999729  1
  Er  Er10  1  0.647173  0.823586  0.999729  1
  Er  Er11  1  0.176414  0.823586  0.999729  1
  Er  Er12  1  0.666667  0.333333  0.173583  1
  Er  Er13  1  0.333333  0.666667  0.673662  1
  Er  Er14  1  0.000000  0.000000  0.778877  1
  Er  Er15  1  0.000000  0.000000  0.278815  1
  In  In16  1  0.837264  0.674528  0.038677  1
  In  In17  1  0.325472  0.162736  0.038677  1
  In  In18  1  0.837264  0.162736  0.038677  1
  In  In19  1  0.162789  0.325577  0.538541  1
  In  In20  1  0.674423  0.837211  0.538541  1
  In  In21  1  0.162789  0.837211  0.538541  1
  Ir  Ir22  1  0.666667  0.333333  0.569515  1
  Rh  Rh23  1  0.333333  0.666667  0.068734  1
