# generated using pymatgen
data_ThZr(IO3)8
_symmetry_space_group_name_H-M   'P 1'
_cell_length_a   8.79438700
_cell_length_b   8.79438700
_cell_length_c   7.68076600
_cell_angle_alpha   90.00000000
_cell_angle_beta   90.00000000
_cell_angle_gamma   90.00000000
_symmetry_Int_Tables_number   1
_chemical_formula_structural   ThZr(IO3)8
_chemical_formula_sum   'Th1 Zr1 I8 O24'
_cell_volume   594.03998737
_cell_formula_units_Z   1
loop_
 _symmetry_equiv_pos_site_id
 _symmetry_equiv_pos_as_xyz
  1  'x, y, z'
loop_
 _atom_site_type_symbol
 _atom_site_label
 _atom_site_symmetry_multiplicity
 _atom_site_fract_x
 _atom_site_fract_y
 _atom_site_fract_z
 _atom_site_occupancy
  Th  Th0  1  0.000000  0.500000  0.058595  1
  Zr  Zr1  1  0.500000  0.000000  0.949598  1
  I  I2  1  0.748706  0.733720  0.723528  1
  I  I3  1  0.766280  0.248706  0.723528  1
  I  I4  1  0.286402  0.766271  0.276074  1
  I  I5  1  0.266271  0.213598  0.276074  1
  I  I6  1  0.733729  0.786402  0.276074  1
  I  I7  1  0.713598  0.233729  0.276074  1
  I  I8  1  0.251294  0.266280  0.723528  1
  I  I9  1  0.233720  0.751294  0.723528  1
  O  O10  1  0.207949  0.601137  0.890998  1
  O  O11  1  0.101137  0.292051  0.890998  1
  O  O12  1  0.898863  0.707949  0.890998  1
  O  O13  1  0.792051  0.398863  0.890998  1
  O  O14  1  0.301989  0.914832  0.100697  1
  O  O15  1  0.414832  0.198011  0.100697  1
  O  O16  1  0.585168  0.801989  0.100697  1
  O  O17  1  0.698011  0.085168  0.100697  1
  O  O18  1  0.431144  0.799089  0.785813  1
  O  O19  1  0.299089  0.068856  0.785813  1
  O  O20  1  0.732994  0.386622  0.549834  1
  O  O21  1  0.886622  0.767006  0.549834  1
  O  O22  1  0.113378  0.232994  0.549834  1
  O  O23  1  0.267006  0.613378  0.549834  1
  O  O24  1  0.744161  0.090757  0.445088  1
  O  O25  1  0.590757  0.755839  0.445088  1
  O  O26  1  0.409243  0.244161  0.445088  1
  O  O27  1  0.255839  0.909243  0.445088  1
  O  O28  1  0.912306  0.283798  0.225921  1
  O  O29  1  0.783798  0.587694  0.225921  1
  O  O30  1  0.216202  0.412306  0.225921  1
  O  O31  1  0.087694  0.716202  0.225921  1
  O  O32  1  0.568856  0.200911  0.785813  1
  O  O33  1  0.700911  0.931144  0.785813  1
