# generated using pymatgen
data_YbCdNi2F10
_symmetry_space_group_name_H-M   'P 1'
_cell_length_a   5.49559070
_cell_length_b   5.49558984
_cell_length_c   7.62042000
_cell_angle_alpha   70.01737832
_cell_angle_beta   70.01738160
_cell_angle_gamma   71.23170442
_symmetry_Int_Tables_number   1
_chemical_formula_structural   YbCdNi2F10
_chemical_formula_sum   'Yb1 Cd1 Ni2 F10'
_cell_volume   197.72186973
_cell_formula_units_Z   1
loop_
 _symmetry_equiv_pos_site_id
 _symmetry_equiv_pos_as_xyz
  1  'x, y, z'
loop_
 _atom_site_type_symbol
 _atom_site_label
 _atom_site_symmetry_multiplicity
 _atom_site_fract_x
 _atom_site_fract_y
 _atom_site_fract_z
 _atom_site_occupancy
  Yb  Yb0  1  0.550980  0.449020  0.250000  1
  Cd  Cd1  1  0.452765  0.547235  0.750000  1
  Ni  Ni2  1  0.002016  0.000698  0.498358  1
  Ni  Ni3  1  0.999302  0.997984  0.001642  1
  F  F4  1  0.084883  0.915117  0.750000  1
  F  F5  1  0.912327  0.087673  0.250000  1
  F  F6  1  0.213142  0.242804  0.885765  1
  F  F7  1  0.757196  0.786858  0.614235  1
  F  F8  1  0.713484  0.306435  0.527043  1
  F  F9  1  0.693565  0.286516  0.972957  1
  F  F10  1  0.287291  0.696994  0.463047  1
  F  F11  1  0.303006  0.712709  0.036953  1
  F  F12  1  0.244849  0.214806  0.384253  1
  F  F13  1  0.785194  0.755151  0.115747  1
