# generated using pymatgen
data_PrTh3(Ga3Ir)6
_symmetry_space_group_name_H-M   'P 1'
_cell_length_a   7.71635178
_cell_length_b   7.71789263
_cell_length_c   9.51810100
_cell_angle_alpha   90.00000000
_cell_angle_beta   90.00000000
_cell_angle_gamma   119.66168627
_symmetry_Int_Tables_number   1
_chemical_formula_structural   PrTh3(Ga3Ir)6
_chemical_formula_sum   'Pr1 Th3 Ga18 Ir6'
_cell_volume   492.56342603
_cell_formula_units_Z   1
loop_
 _symmetry_equiv_pos_site_id
 _symmetry_equiv_pos_as_xyz
  1  'x, y, z'
loop_
 _atom_site_type_symbol
 _atom_site_label
 _atom_site_symmetry_multiplicity
 _atom_site_fract_x
 _atom_site_fract_y
 _atom_site_fract_z
 _atom_site_occupancy
  Pr  Pr0  1  0.329566  0.004402  0.750000  1
  Th  Th1  1  0.996501  0.670499  0.250000  1
  Th  Th2  1  0.002972  0.329971  0.750000  1
  Th  Th3  1  0.670380  0.996323  0.250000  1
  Ga  Ga4  1  0.135596  0.134191  0.250000  1
  Ga  Ga5  1  0.868143  0.867757  0.750000  1
  Ga  Ga6  1  0.004017  0.335416  0.079645  1
  Ga  Ga7  1  0.999545  0.667870  0.919915  1
  Ga  Ga8  1  0.999545  0.667870  0.580085  1
  Ga  Ga9  1  0.335310  0.003220  0.423232  1
  Ga  Ga10  1  0.004017  0.335416  0.420355  1
  Ga  Ga11  1  0.661907  0.996736  0.580132  1
  Ga  Ga12  1  0.661907  0.996736  0.919868  1
  Ga  Ga13  1  0.335310  0.003220  0.076768  1
  Ga  Ga14  1  0.335365  0.333036  0.559642  1
  Ga  Ga15  1  0.663671  0.663667  0.441553  1
  Ga  Ga16  1  0.663671  0.663667  0.058447  1
  Ga  Ga17  1  0.335365  0.333036  0.940358  1
  Ga  Ga18  1  0.342272  0.543390  0.250000  1
  Ga  Ga19  1  0.657969  0.453411  0.750000  1
  Ga  Ga20  1  0.543668  0.340723  0.250000  1
  Ga  Ga21  1  0.454661  0.659591  0.750000  1
  Ir  Ir22  1  0.675162  0.329906  0.001772  1
  Ir  Ir23  1  0.327436  0.670605  0.001721  1
  Ir  Ir24  1  0.327436  0.670605  0.498279  1
  Ir  Ir25  1  0.675162  0.329906  0.498228  1
  Ir  Ir26  1  0.996724  0.999413  0.002399  1
  Ir  Ir27  1  0.996724  0.999413  0.497601  1
