# generated using pymatgen
data_Nd2MgPtO6
_symmetry_space_group_name_H-M   'P 1'
_cell_length_a   5.52157535
_cell_length_b   5.75290900
_cell_length_c   7.90607209
_cell_angle_alpha   90.00000000
_cell_angle_beta   89.79728438
_cell_angle_gamma   90.00000000
_symmetry_Int_Tables_number   1
_chemical_formula_structural   Nd2MgPtO6
_chemical_formula_sum   'Nd4 Mg2 Pt2 O12'
_cell_volume   251.13576088
_cell_formula_units_Z   2
loop_
 _symmetry_equiv_pos_site_id
 _symmetry_equiv_pos_as_xyz
  1  'x, y, z'
loop_
 _atom_site_type_symbol
 _atom_site_label
 _atom_site_symmetry_multiplicity
 _atom_site_fract_x
 _atom_site_fract_y
 _atom_site_fract_z
 _atom_site_occupancy
  Nd  Nd0  1  0.016086  0.561883  0.249633  1
  Nd  Nd1  1  0.483914  0.061883  0.250366  1
  Nd  Nd2  1  0.516086  0.938117  0.749633  1
  Nd  Nd3  1  0.983913  0.438116  0.750367  1
  Mg  Mg4  1  0.000000  0.000000  0.000000  1
  Mg  Mg5  1  0.500000  0.500001  0.500001  1
  Pt  Pt6  1  0.499999  0.500001  0.000001  1
  Pt  Pt7  1  0.000000  0.000000  0.500000  1
  O  O8  1  0.200468  0.299884  0.052145  1
  O  O9  1  0.304379  0.796312  0.052579  1
  O  O10  1  0.599436  0.469299  0.248291  1
  O  O11  1  0.900562  0.969298  0.251708  1
  O  O12  1  0.195621  0.296312  0.447421  1
  O  O13  1  0.299532  0.799885  0.447855  1
  O  O14  1  0.700467  0.200116  0.552146  1
  O  O15  1  0.804378  0.703689  0.552579  1
  O  O16  1  0.099437  0.030701  0.748291  1
  O  O17  1  0.400563  0.530702  0.751709  1
  O  O18  1  0.695622  0.203689  0.947421  1
  O  O19  1  0.799533  0.700117  0.947855  1
