# generated using pymatgen
data_Hf4Al4V3Cu
_symmetry_space_group_name_H-M   'P 1'
_cell_length_a   5.17759930
_cell_length_b   5.17759927
_cell_length_c   8.61740200
_cell_angle_alpha   90.00000000
_cell_angle_beta   90.00000000
_cell_angle_gamma   119.22292903
_symmetry_Int_Tables_number   1
_chemical_formula_structural   Hf4Al4V3Cu
_chemical_formula_sum   'Hf4 Al4 V3 Cu1'
_cell_volume   201.60974648
_cell_formula_units_Z   1
loop_
 _symmetry_equiv_pos_site_id
 _symmetry_equiv_pos_as_xyz
  1  'x, y, z'
loop_
 _atom_site_type_symbol
 _atom_site_label
 _atom_site_symmetry_multiplicity
 _atom_site_fract_x
 _atom_site_fract_y
 _atom_site_fract_z
 _atom_site_occupancy
  Hf  Hf0  1  0.666106  0.333894  0.307445  1
  Hf  Hf1  1  0.333648  0.666352  0.177788  1
  Hf  Hf2  1  0.333648  0.666352  0.822212  1
  Hf  Hf3  1  0.666106  0.333894  0.692555  1
  Al  Al4  1  0.004481  0.995519  0.248304  1
  Al  Al5  1  0.004481  0.995519  0.751696  1
  Al  Al6  1  0.651874  0.833051  0.500000  1
  Al  Al7  1  0.166949  0.348126  0.500000  1
  V  V8  1  0.359458  0.176977  0.000000  1
  V  V9  1  0.823023  0.640542  0.000000  1
  V  V10  1  0.824403  0.175597  0.000000  1
  Cu  Cu11  1  0.165676  0.834324  0.500000  1
