# generated using pymatgen
data_Y3Zn2In3Ni
_symmetry_space_group_name_H-M   'P 1'
_cell_length_a   7.50222100
_cell_length_b   7.50222128
_cell_length_c   4.00926200
_cell_angle_alpha   90.00000000
_cell_angle_beta   90.00000000
_cell_angle_gamma   120.00000320
_symmetry_Int_Tables_number   1
_chemical_formula_structural   Y3Zn2In3Ni
_chemical_formula_sum   'Y3 Zn2 In3 Ni1'
_cell_volume   195.42259604
_cell_formula_units_Z   1
loop_
 _symmetry_equiv_pos_site_id
 _symmetry_equiv_pos_as_xyz
  1  'x, y, z'
loop_
 _atom_site_type_symbol
 _atom_site_label
 _atom_site_symmetry_multiplicity
 _atom_site_fract_x
 _atom_site_fract_y
 _atom_site_fract_z
 _atom_site_occupancy
  Y  Y0  1  0.000000  0.600805  0.500000  1
  Y  Y1  1  0.600805  0.000000  0.500000  1
  Y  Y2  1  0.399195  0.399195  0.500000  1
  Zn  Zn3  1  0.666667  0.333333  0.000000  1
  Zn  Zn4  1  0.333333  0.666667  0.000000  1
  In  In5  1  0.000000  0.247616  0.000000  1
  In  In6  1  0.247616  0.000000  0.000000  1
  In  In7  1  0.752384  0.752384  0.000000  1
  Ni  Ni8  1  0.000000  0.000000  0.500000  1
