# generated using pymatgen
data_Er5(In2Cu)2
_symmetry_space_group_name_H-M   'P 1'
_cell_length_a   3.62336000
_cell_length_b   7.99192200
_cell_length_c   17.84244900
_cell_angle_alpha   90.00000000
_cell_angle_beta   90.00000000
_cell_angle_gamma   90.00000000
_symmetry_Int_Tables_number   1
_chemical_formula_structural   Er5(In2Cu)2
_chemical_formula_sum   'Er10 In8 Cu4'
_cell_volume   516.67468847
_cell_formula_units_Z   2
loop_
 _symmetry_equiv_pos_site_id
 _symmetry_equiv_pos_as_xyz
  1  'x, y, z'
loop_
 _atom_site_type_symbol
 _atom_site_label
 _atom_site_symmetry_multiplicity
 _atom_site_fract_x
 _atom_site_fract_y
 _atom_site_fract_z
 _atom_site_occupancy
  Er  Er0  1  0.000000  0.500000  0.500000  1
  Er  Er1  1  0.000000  0.000000  0.000000  1
  Er  Er2  1  0.000000  0.738702  0.280248  1
  Er  Er3  1  0.000000  0.261298  0.719752  1
  Er  Er4  1  0.000000  0.761298  0.780248  1
  Er  Er5  1  0.000000  0.238702  0.219752  1
  Er  Er6  1  0.000000  0.618099  0.083137  1
  Er  Er7  1  0.000000  0.381901  0.916863  1
  Er  Er8  1  0.000000  0.881901  0.583137  1
  Er  Er9  1  0.000000  0.118099  0.416863  1
  In  In10  1  0.500000  0.707300  0.931116  1
  In  In11  1  0.500000  0.292700  0.068884  1
  In  In12  1  0.500000  0.792700  0.431116  1
  In  In13  1  0.500000  0.207300  0.568884  1
  In  In14  1  0.500000  0.578501  0.650110  1
  In  In15  1  0.500000  0.421499  0.349890  1
  In  In16  1  0.500000  0.921499  0.150110  1
  In  In17  1  0.500000  0.078501  0.849890  1
  Cu  Cu18  1  0.500000  0.524359  0.197278  1
  Cu  Cu19  1  0.500000  0.475641  0.802722  1
  Cu  Cu20  1  0.500000  0.975641  0.697278  1
  Cu  Cu21  1  0.500000  0.024359  0.302722  1
