# generated using pymatgen
data_Tb6Er10Cd4Ir3Pd
_symmetry_space_group_name_H-M   'P 1'
_cell_length_a   9.60476924
_cell_length_b   9.60517823
_cell_length_c   9.60514709
_cell_angle_alpha   60.17426309
_cell_angle_beta   60.15906894
_cell_angle_gamma   60.16042334
_symmetry_Int_Tables_number   1
_chemical_formula_structural   Tb6Er10Cd4Ir3Pd
_chemical_formula_sum   'Tb6 Er10 Cd4 Ir3 Pd1'
_cell_volume   628.92268737
_cell_formula_units_Z   1
loop_
 _symmetry_equiv_pos_site_id
 _symmetry_equiv_pos_as_xyz
  1  'x, y, z'
loop_
 _atom_site_type_symbol
 _atom_site_label
 _atom_site_symmetry_multiplicity
 _atom_site_fract_x
 _atom_site_fract_y
 _atom_site_fract_z
 _atom_site_occupancy
  Tb  Tb0  1  0.189129  0.812277  0.812367  1
  Tb  Tb1  1  0.813495  0.188115  0.188013  1
  Tb  Tb2  1  0.812336  0.189130  0.812342  1
  Tb  Tb3  1  0.188137  0.813320  0.188115  1
  Tb  Tb4  1  0.812397  0.812301  0.189093  1
  Tb  Tb5  1  0.188032  0.188100  0.813490  1
  Er  Er6  1  0.597380  0.597258  0.597384  1
  Er  Er7  1  0.603321  0.603440  0.198783  1
  Er  Er8  1  0.603468  0.198629  0.603496  1
  Er  Er9  1  0.198761  0.603490  0.603282  1
  Er  Er10  1  0.055107  0.440124  0.439979  1
  Er  Er11  1  0.436930  0.061089  0.060957  1
  Er  Er12  1  0.440091  0.055098  0.440078  1
  Er  Er13  1  0.060992  0.437039  0.060980  1
  Er  Er14  1  0.439943  0.440120  0.055147  1
  Er  Er15  1  0.061033  0.061056  0.436947  1
  Cd  Cd16  1  0.830496  0.830545  0.830490  1
  Cd  Cd17  1  0.830478  0.830499  0.507051  1
  Cd  Cd18  1  0.830512  0.506990  0.830543  1
  Cd  Cd19  1  0.507053  0.830509  0.830483  1
  Ir  Ir20  1  0.391691  0.391655  0.824384  1
  Ir  Ir21  1  0.391684  0.824395  0.391727  1
  Ir  Ir22  1  0.824387  0.391664  0.391724  1
  Pd  Pd23  1  0.393147  0.393161  0.393151  1
