# generated using pymatgen
data_TbNd7(SiI6)2
_symmetry_space_group_name_H-M   'P 1'
_cell_length_a   4.33425400
_cell_length_b   14.42997983
_cell_length_c   15.23044253
_cell_angle_alpha   89.75253169
_cell_angle_beta   90.00000000
_cell_angle_gamma   90.00000000
_symmetry_Int_Tables_number   1
_chemical_formula_structural   TbNd7(SiI6)2
_chemical_formula_sum   'Tb1 Nd7 Si2 I12'
_cell_volume   952.55169456
_cell_formula_units_Z   1
loop_
 _symmetry_equiv_pos_site_id
 _symmetry_equiv_pos_as_xyz
  1  'x, y, z'
loop_
 _atom_site_type_symbol
 _atom_site_label
 _atom_site_symmetry_multiplicity
 _atom_site_fract_x
 _atom_site_fract_y
 _atom_site_fract_z
 _atom_site_occupancy
  Tb  Tb0  1  0.000000  0.388828  0.074166  1
  Nd  Nd1  1  0.500000  0.115727  0.345459  1
  Nd  Nd2  1  0.500000  0.884892  0.653909  1
  Nd  Nd3  1  0.500000  0.613736  0.153584  1
  Nd  Nd4  1  0.500000  0.384726  0.847338  1
  Nd  Nd5  1  0.000000  0.113631  0.575570  1
  Nd  Nd6  1  0.000000  0.886613  0.423924  1
  Nd  Nd7  1  0.000000  0.611619  0.925371  1
  Si  Si8  1  0.500000  0.000273  0.499554  1
  Si  Si9  1  0.500000  0.497253  0.001762  1
  I  I10  1  0.500000  0.251209  0.159372  1
  I  I11  1  0.500000  0.754900  0.838435  1
  I  I12  1  0.500000  0.743560  0.337796  1
  I  I13  1  0.500000  0.255716  0.662684  1
  I  I14  1  0.000000  0.259696  0.413453  1
  I  I15  1  0.000000  0.740736  0.586140  1
  I  I16  1  0.000000  0.758449  0.085806  1
  I  I17  1  0.000000  0.242420  0.919217  1
  I  I18  1  0.000000  0.999609  0.239364  1
  I  I19  1  0.000000  0.001276  0.760039  1
  I  I20  1  0.000000  0.493824  0.256286  1
  I  I21  1  0.000000  0.501305  0.740770  1
