# generated using pymatgen
data_Tb8Co(Si4Pd)3
_symmetry_space_group_name_H-M   'P 1'
_cell_length_a   8.17604800
_cell_length_b   8.17604740
_cell_length_c   7.96555800
_cell_angle_alpha   90.00000000
_cell_angle_beta   90.00000000
_cell_angle_gamma   120.00001052
_symmetry_Int_Tables_number   1
_chemical_formula_structural   Tb8Co(Si4Pd)3
_chemical_formula_sum   'Tb8 Co1 Si12 Pd3'
_cell_volume   461.14087883
_cell_formula_units_Z   1
loop_
 _symmetry_equiv_pos_site_id
 _symmetry_equiv_pos_as_xyz
  1  'x, y, z'
loop_
 _atom_site_type_symbol
 _atom_site_label
 _atom_site_symmetry_multiplicity
 _atom_site_fract_x
 _atom_site_fract_y
 _atom_site_fract_z
 _atom_site_occupancy
  Tb  Tb0  1  0.507507  0.015012  0.245796  1
  Tb  Tb1  1  0.487923  0.975846  0.751977  1
  Tb  Tb2  1  0.984988  0.492493  0.245796  1
  Tb  Tb3  1  0.024154  0.512077  0.751977  1
  Tb  Tb4  1  0.507507  0.492493  0.245796  1
  Tb  Tb5  1  0.487923  0.512077  0.751977  1
  Tb  Tb6  1  0.000000  0.000000  0.249760  1
  Tb  Tb7  1  0.000000  0.000000  0.751580  1
  Co  Co8  1  0.333333  0.666667  0.038059  1
  Si  Si9  1  0.172933  0.345865  0.003962  1
  Si  Si10  1  0.835940  0.671881  0.997891  1
  Si  Si11  1  0.654135  0.827067  0.003962  1
  Si  Si12  1  0.834202  0.668405  0.500415  1
  Si  Si13  1  0.328119  0.164060  0.997891  1
  Si  Si14  1  0.164917  0.329834  0.500443  1
  Si  Si15  1  0.172933  0.827067  0.003962  1
  Si  Si16  1  0.331595  0.165798  0.500415  1
  Si  Si17  1  0.835940  0.164060  0.997891  1
  Si  Si18  1  0.670166  0.835083  0.500443  1
  Si  Si19  1  0.834202  0.165798  0.500415  1
  Si  Si20  1  0.164917  0.835083  0.500443  1
  Pd  Pd21  1  0.666667  0.333333  0.964707  1
  Pd  Pd22  1  0.666667  0.333333  0.537217  1
  Pd  Pd23  1  0.333333  0.666667  0.457225  1
