# generated using pymatgen
data_CeDySi2IrRh3
_symmetry_space_group_name_H-M   'P 1'
_cell_length_a   9.16212312
_cell_length_b   9.16212267
_cell_length_c   4.08809900
_cell_angle_alpha   90.00000000
_cell_angle_beta   90.00000000
_cell_angle_gamma   154.96565548
_symmetry_Int_Tables_number   1
_chemical_formula_structural   CeDySi2IrRh3
_chemical_formula_sum   'Ce1 Dy1 Si2 Ir1 Rh3'
_cell_volume   145.21775750
_cell_formula_units_Z   1
loop_
 _symmetry_equiv_pos_site_id
 _symmetry_equiv_pos_as_xyz
  1  'x, y, z'
loop_
 _atom_site_type_symbol
 _atom_site_label
 _atom_site_symmetry_multiplicity
 _atom_site_fract_x
 _atom_site_fract_y
 _atom_site_fract_z
 _atom_site_occupancy
  Ce  Ce0  1  0.904524  0.095476  0.250000  1
  Dy  Dy1  1  0.101180  0.898820  0.750000  1
  Si  Si2  1  0.320706  0.679294  0.750000  1
  Si  Si3  1  0.676606  0.323394  0.250000  1
  Ir  Ir4  1  0.453170  0.546830  0.750000  1
  Rh  Rh5  1  0.546453  0.453547  0.250000  1
  Rh  Rh6  1  0.249096  0.750904  0.250000  1
  Rh  Rh7  1  0.748267  0.251733  0.750000  1
