# generated using pymatgen
data_La11Er5In4(NiIr)2
_symmetry_space_group_name_H-M   'P 1'
_cell_length_a   9.89366073
_cell_length_b   9.90892036
_cell_length_c   9.93403640
_cell_angle_alpha   60.80270156
_cell_angle_beta   60.16573332
_cell_angle_gamma   60.64288473
_symmetry_Int_Tables_number   1
_chemical_formula_structural   La11Er5In4(NiIr)2
_chemical_formula_sum   'La11 Er5 In4 Ni2 Ir2'
_cell_volume   696.95428138
_cell_formula_units_Z   1
loop_
 _symmetry_equiv_pos_site_id
 _symmetry_equiv_pos_as_xyz
  1  'x, y, z'
loop_
 _atom_site_type_symbol
 _atom_site_label
 _atom_site_symmetry_multiplicity
 _atom_site_fract_x
 _atom_site_fract_y
 _atom_site_fract_z
 _atom_site_occupancy
  La  La0  1  0.065707  0.067386  0.427452  1
  La  La1  1  0.652959  0.047692  0.646161  1
  La  La2  1  0.189594  0.807792  0.186298  1
  La  La3  1  0.442721  0.067422  0.423622  1
  La  La4  1  0.187566  0.194816  0.806835  1
  La  La5  1  0.649397  0.656455  0.652622  1
  La  La6  1  0.044118  0.654235  0.654095  1
  La  La7  1  0.441954  0.060818  0.061239  1
  La  La8  1  0.652644  0.646859  0.051567  1
  La  La9  1  0.187855  0.799756  0.814771  1
  La  La10  1  0.808950  0.187854  0.814911  1
  Er  Er11  1  0.806808  0.192385  0.191029  1
  Er  Er12  1  0.811061  0.801287  0.195482  1
  Er  Er13  1  0.057334  0.451589  0.427378  1
  Er  Er14  1  0.441134  0.437550  0.060599  1
  Er  Er15  1  0.059311  0.440253  0.065688  1
  In  In16  1  0.750542  0.419911  0.415525  1
  In  In17  1  0.416469  0.419044  0.749117  1
  In  In18  1  0.422814  0.736437  0.421207  1
  In  In19  1  0.417563  0.416575  0.416730  1
  Ni  Ni20  1  0.852432  0.857165  0.869375  1
  Ni  Ni21  1  0.424124  0.854431  0.864303  1
  Ir  Ir22  1  0.861598  0.858758  0.417098  1
  Ir  Ir23  1  0.855350  0.423532  0.866899  1
