# generated using pymatgen
data_Ca4V5Fe3(P2O9)4
_symmetry_space_group_name_H-M   'P 1'
_cell_length_a   6.51788600
_cell_length_b   7.48353661
_cell_length_c   14.37408100
_cell_angle_alpha   89.90437903
_cell_angle_beta   90.00000000
_cell_angle_gamma   90.00000000
_symmetry_Int_Tables_number   1
_chemical_formula_structural   Ca4V5Fe3(P2O9)4
_chemical_formula_sum   'Ca4 V5 Fe3 P8 O36'
_cell_volume   701.12125093
_cell_formula_units_Z   1
loop_
 _symmetry_equiv_pos_site_id
 _symmetry_equiv_pos_as_xyz
  1  'x, y, z'
loop_
 _atom_site_type_symbol
 _atom_site_label
 _atom_site_symmetry_multiplicity
 _atom_site_fract_x
 _atom_site_fract_y
 _atom_site_fract_z
 _atom_site_occupancy
  Ca  Ca0  1  0.250000  0.893140  0.778324  1
  Ca  Ca1  1  0.250000  0.607026  0.278809  1
  Ca  Ca2  1  0.750000  0.392265  0.722538  1
  Ca  Ca3  1  0.750000  0.106923  0.221276  1
  V  V4  1  0.250000  0.352435  0.881258  1
  V  V5  1  0.999539  0.000543  0.999927  1
  V  V6  1  0.999771  0.500081  0.499828  1
  V  V7  1  0.500229  0.500081  0.499828  1
  V  V8  1  0.500461  0.000543  0.999927  1
  Fe  Fe9  1  0.750000  0.647408  0.118426  1
  Fe  Fe10  1  0.750000  0.851805  0.618405  1
  Fe  Fe11  1  0.250000  0.148294  0.381572  1
  P  P12  1  0.750000  0.361599  0.933317  1
  P  P13  1  0.250000  0.639250  0.067542  1
  P  P14  1  0.250000  0.861831  0.566898  1
  P  P15  1  0.750000  0.138096  0.432962  1
  P  P16  1  0.250000  0.389465  0.691568  1
  P  P17  1  0.250000  0.109629  0.192029  1
  P  P18  1  0.750000  0.890547  0.807802  1
  P  P19  1  0.750000  0.609656  0.307806  1
  O  O20  1  0.553731  0.604365  0.369631  1
  O  O21  1  0.053680  0.395572  0.630093  1
  O  O22  1  0.446173  0.104622  0.130069  1
  O  O23  1  0.946347  0.896096  0.869625  1
  O  O24  1  0.446320  0.395572  0.630093  1
  O  O25  1  0.946269  0.604365  0.369631  1
  O  O26  1  0.553653  0.896096  0.869625  1
  O  O27  1  0.053827  0.104622  0.130069  1
  O  O28  1  0.750000  0.325170  0.481213  1
  O  O29  1  0.250000  0.674863  0.518553  1
  O  O30  1  0.250000  0.826173  0.019005  1
  O  O31  1  0.750000  0.174558  0.982465  1
  O  O32  1  0.250000  0.124337  0.945092  1
  O  O33  1  0.750000  0.875066  0.054264  1
  O  O34  1  0.750000  0.624273  0.554143  1
  O  O35  1  0.250000  0.375961  0.445520  1
  O  O36  1  0.250000  0.216255  0.751839  1
  O  O37  1  0.750000  0.783213  0.247783  1
  O  O38  1  0.750000  0.717004  0.747972  1
  O  O39  1  0.250000  0.283021  0.251964  1
  O  O40  1  0.937673  0.127126  0.366782  1
  O  O41  1  0.437538  0.872581  0.633153  1
  O  O42  1  0.062529  0.627320  0.133661  1
  O  O43  1  0.564237  0.371929  0.866944  1
  O  O44  1  0.062462  0.872581  0.633153  1
  O  O45  1  0.562327  0.127126  0.366782  1
  O  O46  1  0.935763  0.371929  0.866944  1
  O  O47  1  0.437471  0.627320  0.133661  1
  O  O48  1  0.250000  0.497847  0.992506  1
  O  O49  1  0.750000  0.043412  0.734213  1
  O  O50  1  0.750000  0.456483  0.234661  1
  O  O51  1  0.250000  0.541300  0.765605  1
  O  O52  1  0.250000  0.005632  0.492717  1
  O  O53  1  0.750000  0.994450  0.507239  1
  O  O54  1  0.750000  0.504668  0.007890  1
  O  O55  1  0.250000  0.956477  0.265396  1
