# generated using pymatgen
data_Eu2Ga6CuAg
_symmetry_space_group_name_H-M   'P 1'
_cell_length_a   6.14474163
_cell_length_b   6.14474149
_cell_length_c   5.92222400
_cell_angle_alpha   90.00000000
_cell_angle_beta   90.00000000
_cell_angle_gamma   117.03306719
_symmetry_Int_Tables_number   1
_chemical_formula_structural   Eu2Ga6CuAg
_chemical_formula_sum   'Eu2 Ga6 Cu1 Ag1'
_cell_volume   199.17973789
_cell_formula_units_Z   1
loop_
 _symmetry_equiv_pos_site_id
 _symmetry_equiv_pos_as_xyz
  1  'x, y, z'
loop_
 _atom_site_type_symbol
 _atom_site_label
 _atom_site_symmetry_multiplicity
 _atom_site_fract_x
 _atom_site_fract_y
 _atom_site_fract_z
 _atom_site_occupancy
  Eu  Eu0  1  0.232819  0.767181  0.750000  1
  Eu  Eu1  1  0.766438  0.233562  0.250000  1
  Ga  Ga2  1  0.657299  0.342701  0.750000  1
  Ga  Ga3  1  0.331477  0.668523  0.250000  1
  Ga  Ga4  1  0.718718  0.712631  0.012909  1
  Ga  Ga5  1  0.718718  0.712631  0.487091  1
  Ga  Ga6  1  0.287369  0.281282  0.012909  1
  Ga  Ga7  1  0.287369  0.281282  0.487091  1
  Cu  Cu8  1  0.099221  0.900779  0.250000  1
  Ag  Ag9  1  0.900571  0.099429  0.750000  1
