# generated using pymatgen
data_Sc12CoNiIrBr16
_symmetry_space_group_name_H-M   'P 1'
_cell_length_a   8.81156923
_cell_length_b   10.97179435
_cell_length_c   11.59150543
_cell_angle_alpha   117.15440384
_cell_angle_beta   101.63127055
_cell_angle_gamma   101.28814138
_symmetry_Int_Tables_number   1
_chemical_formula_structural   Sc12CoNiIrBr16
_chemical_formula_sum   'Sc12 Co1 Ni1 Ir1 Br16'
_cell_volume   921.88388509
_cell_formula_units_Z   1
loop_
 _symmetry_equiv_pos_site_id
 _symmetry_equiv_pos_as_xyz
  1  'x, y, z'
loop_
 _atom_site_type_symbol
 _atom_site_label
 _atom_site_symmetry_multiplicity
 _atom_site_fract_x
 _atom_site_fract_y
 _atom_site_fract_z
 _atom_site_occupancy
  Sc  Sc0  1  0.081320  0.254414  0.349099  1
  Sc  Sc1  1  0.915334  0.742333  0.648919  1
  Sc  Sc2  1  0.776845  0.537104  0.321230  1
  Sc  Sc3  1  0.221746  0.462419  0.681133  1
  Sc  Sc4  1  0.282124  0.746037  0.650814  1
  Sc  Sc5  1  0.717174  0.257176  0.351133  1
  Sc  Sc6  1  0.141591  0.537505  0.319035  1
  Sc  Sc7  1  0.855872  0.462995  0.678603  1
  Sc  Sc8  1  0.403954  0.351836  0.263835  1
  Sc  Sc9  1  0.601156  0.648223  0.736265  1
  Sc  Sc10  1  0.459119  0.300762  0.521270  1
  Sc  Sc11  1  0.545682  0.699209  0.478696  1
  Co  Co12  1  0.656172  0.499833  0.500582  1
  Ni  Ni13  1  0.343093  0.500175  0.499398  1
  Ir  Ir14  1  0.002006  0.499985  0.499958  1
  Br  Br15  1  0.398460  0.745181  0.890016  1
  Br  Br16  1  0.601457  0.253849  0.108435  1
  Br  Br17  1  0.192620  0.976647  0.788823  1
  Br  Br18  1  0.806848  0.023328  0.211172  1
  Br  Br19  1  0.333582  0.087332  0.246597  1
  Br  Br20  1  0.664248  0.912561  0.753308  1
  Br  Br21  1  0.556062  0.437033  0.803814  1
  Br  Br22  1  0.441791  0.563025  0.196103  1
  Br  Br23  1  0.310826  0.831758  0.462439  1
  Br  Br24  1  0.689425  0.167038  0.537765  1
  Br  Br25  1  0.166501  0.167253  0.533929  1
  Br  Br26  1  0.834424  0.834026  0.465998  1
  Br  Br27  1  0.925558  0.579853  0.155092  1
  Br  Br28  1  0.073756  0.420095  0.844892  1
  Br  Br29  1  0.927464  0.744844  0.891839  1
  Br  Br30  1  0.073790  0.256170  0.109809  1
