# generated using pymatgen
data_Hf8AlTc4Os3
_symmetry_space_group_name_H-M   'P 1'
_cell_length_a   6.55642300
_cell_length_b   4.61706600
_cell_length_c   9.25414000
_cell_angle_alpha   90.00000000
_cell_angle_beta   90.00125453
_cell_angle_gamma   90.00000000
_symmetry_Int_Tables_number   1
_chemical_formula_structural   Hf8AlTc4Os3
_chemical_formula_sum   'Hf8 Al1 Tc4 Os3'
_cell_volume   280.13612258
_cell_formula_units_Z   1
loop_
 _symmetry_equiv_pos_site_id
 _symmetry_equiv_pos_as_xyz
  1  'x, y, z'
loop_
 _atom_site_type_symbol
 _atom_site_label
 _atom_site_symmetry_multiplicity
 _atom_site_fract_x
 _atom_site_fract_y
 _atom_site_fract_z
 _atom_site_occupancy
  Hf  Hf0  1  0.990115  0.750001  0.124988  1
  Hf  Hf1  1  0.509997  0.750001  0.124988  1
  Hf  Hf2  1  0.995964  0.250001  0.380140  1
  Hf  Hf3  1  0.504098  0.250001  0.380146  1
  Hf  Hf4  1  0.499290  0.750001  0.625005  1
  Hf  Hf5  1  0.000584  0.750001  0.625012  1
  Hf  Hf6  1  0.504003  0.250001  0.869842  1
  Hf  Hf7  1  0.995889  0.250001  0.869863  1
  Al  Al8  1  0.250044  0.250001  0.125020  1
  Tc  Tc9  1  0.750034  0.250001  0.125003  1
  Tc  Tc10  1  0.250028  0.750001  0.369063  1
  Tc  Tc11  1  0.749954  0.250001  0.625004  1
  Tc  Tc12  1  0.249965  0.750001  0.880932  1
  Os  Os13  1  0.750027  0.750001  0.376017  1
  Os  Os14  1  0.249949  0.250001  0.624993  1
  Os  Os15  1  0.749957  0.750001  0.873982  1
