# generated using pymatgen
data_KBa(AcI4)2
_symmetry_space_group_name_H-M   'P 1'
_cell_length_a   9.42272904
_cell_length_b   9.42272912
_cell_length_c   7.84291502
_cell_angle_alpha   71.80096768
_cell_angle_beta   71.80096732
_cell_angle_gamma   110.61694366
_symmetry_Int_Tables_number   1
_chemical_formula_structural   KBa(AcI4)2
_chemical_formula_sum   'K1 Ba1 Ac2 I8'
_cell_volume   544.86546982
_cell_formula_units_Z   1
loop_
 _symmetry_equiv_pos_site_id
 _symmetry_equiv_pos_as_xyz
  1  'x, y, z'
loop_
 _atom_site_type_symbol
 _atom_site_label
 _atom_site_symmetry_multiplicity
 _atom_site_fract_x
 _atom_site_fract_y
 _atom_site_fract_z
 _atom_site_occupancy
  K  K0  1  0.637406  0.362594  0.250000  1
  Ba  Ba1  1  0.366852  0.633148  0.750000  1
  Ac  Ac2  1  0.998998  0.001002  0.750000  1
  Ac  Ac3  1  0.001437  0.998563  0.250000  1
  I  I4  1  0.640911  0.771373  0.224452  1
  I  I5  1  0.228627  0.359089  0.275548  1
  I  I6  1  0.358567  0.235543  0.779641  1
  I  I7  1  0.764457  0.641433  0.720359  1
  I  I8  1  0.710039  0.052605  0.585910  1
  I  I9  1  0.947395  0.289961  0.914090  1
  I  I10  1  0.282627  0.937316  0.425672  1
  I  I11  1  0.062684  0.717373  0.074328  1
