# generated using pymatgen
data_Sr2Er2As7Ir8
_symmetry_space_group_name_H-M   'P 1'
_cell_length_a   4.08967900
_cell_length_b   13.27880817
_cell_length_c   13.70020657
_cell_angle_alpha   81.56839847
_cell_angle_beta   90.00000000
_cell_angle_gamma   90.00000000
_symmetry_Int_Tables_number   1
_chemical_formula_structural   Sr2Er2As7Ir8
_chemical_formula_sum   'Sr4 Er4 As14 Ir16'
_cell_volume   735.96279140
_cell_formula_units_Z   2
loop_
 _symmetry_equiv_pos_site_id
 _symmetry_equiv_pos_as_xyz
  1  'x, y, z'
loop_
 _atom_site_type_symbol
 _atom_site_label
 _atom_site_symmetry_multiplicity
 _atom_site_fract_x
 _atom_site_fract_y
 _atom_site_fract_z
 _atom_site_occupancy
  Sr  Sr0  1  0.250000  0.105670  0.788086  1
  Sr  Sr1  1  0.750000  0.894330  0.211914  1
  Sr  Sr2  1  0.250000  0.284748  0.103524  1
  Sr  Sr3  1  0.750000  0.715252  0.896476  1
  Er  Er4  1  0.250000  0.519607  0.292143  1
  Er  Er5  1  0.750000  0.480393  0.707857  1
  Er  Er6  1  0.250000  0.205757  0.443526  1
  Er  Er7  1  0.750000  0.794243  0.556474  1
  As  As8  1  0.250000  0.056732  0.102429  1
  As  As9  1  0.750000  0.943268  0.897571  1
  As  As10  1  0.250000  0.316936  0.684423  1
  As  As11  1  0.750000  0.683064  0.315577  1
  As  As12  1  0.250000  0.607246  0.567947  1
  As  As13  1  0.750000  0.392754  0.432053  1
  As  As14  1  0.250000  0.840598  0.717895  1
  As  As15  1  0.750000  0.159402  0.282105  1
  As  As16  1  0.750000  0.257051  0.916265  1
  As  As17  1  0.250000  0.742949  0.083735  1
  As  As18  1  0.750000  0.095229  0.585796  1
  As  As19  1  0.250000  0.904771  0.414204  1
  As  As20  1  0.750000  0.469866  0.129856  1
  As  As21  1  0.250000  0.530134  0.870144  1
  Ir  Ir22  1  0.250000  0.984300  0.573691  1
  Ir  Ir23  1  0.750000  0.015700  0.426309  1
  Ir  Ir24  1  0.250000  0.659094  0.727082  1
  Ir  Ir25  1  0.750000  0.340906  0.272918  1
  Ir  Ir26  1  0.250000  0.550438  0.051037  1
  Ir  Ir27  1  0.750000  0.449562  0.948963  1
  Ir  Ir28  1  0.250000  0.061880  0.281060  1
  Ir  Ir29  1  0.750000  0.938120  0.718940  1
  Ir  Ir30  1  0.250000  0.425507  0.520676  1
  Ir  Ir31  1  0.750000  0.574493  0.479324  1
  Ir  Ir32  1  0.250000  0.919686  0.998995  1
  Ir  Ir33  1  0.750000  0.080314  0.001005  1
  Ir  Ir34  1  0.250000  0.721947  0.406377  1
  Ir  Ir35  1  0.750000  0.278053  0.593623  1
  Ir  Ir36  1  0.250000  0.348024  0.855155  1
  Ir  Ir37  1  0.750000  0.651976  0.144845  1
