# generated using pymatgen
data_La12Pd3PtI12
_symmetry_space_group_name_H-M   'P 1'
_cell_length_a   11.02211135
_cell_length_b   11.02211152
_cell_length_c   11.02211200
_cell_angle_alpha   109.57176358
_cell_angle_beta   109.57176389
_cell_angle_gamma   109.57176363
_symmetry_Int_Tables_number   1
_chemical_formula_structural   La12Pd3PtI12
_chemical_formula_sum   'La12 Pd3 Pt1 I12'
_cell_volume   1026.94045792
_cell_formula_units_Z   1
loop_
 _symmetry_equiv_pos_site_id
 _symmetry_equiv_pos_as_xyz
  1  'x, y, z'
loop_
 _atom_site_type_symbol
 _atom_site_label
 _atom_site_symmetry_multiplicity
 _atom_site_fract_x
 _atom_site_fract_y
 _atom_site_fract_z
 _atom_site_occupancy
  La  La0  1  0.463256  0.480540  0.233150  1
  La  La1  1  0.750000  0.232823  0.267177  1
  La  La2  1  0.750000  0.017593  0.482407  1
  La  La3  1  0.233150  0.463256  0.480540  1
  La  La4  1  0.267177  0.750000  0.232823  1
  La  La5  1  0.036744  0.266850  0.019460  1
  La  La6  1  0.019460  0.036744  0.266850  1
  La  La7  1  0.482407  0.750000  0.017593  1
  La  La8  1  0.480540  0.233150  0.463256  1
  La  La9  1  0.017593  0.482407  0.750000  1
  La  La10  1  0.266850  0.019460  0.036744  1
  La  La11  1  0.232823  0.267177  0.750000  1
  Pd  Pd12  1  0.500905  0.999095  0.250000  1
  Pd  Pd13  1  0.999095  0.250000  0.500905  1
  Pd  Pd14  1  0.250000  0.500905  0.999095  1
  Pt  Pt15  1  0.250000  0.250000  0.250000  1
  I  I16  1  0.250000  0.759895  0.740105  1
  I  I17  1  0.519839  0.509856  0.760269  1
  I  I18  1  0.980161  0.739731  0.990144  1
  I  I19  1  0.740105  0.250000  0.759895  1
  I  I20  1  0.990144  0.980161  0.739731  1
  I  I21  1  0.250000  0.990311  0.509689  1
  I  I22  1  0.760269  0.519839  0.509856  1
  I  I23  1  0.509689  0.250000  0.990311  1
  I  I24  1  0.759895  0.740105  0.250000  1
  I  I25  1  0.739731  0.990144  0.980161  1
  I  I26  1  0.990311  0.509689  0.250000  1
  I  I27  1  0.509856  0.760269  0.519839  1
