# generated using pymatgen
data_YbY3Tm2(Si3Ru)8
_symmetry_space_group_name_H-M   'P 1'
_cell_length_a   10.12201432
_cell_length_b   10.12432835
_cell_length_c   8.13236149
_cell_angle_alpha   89.92427220
_cell_angle_beta   90.05111999
_cell_angle_gamma   132.62392770
_symmetry_Int_Tables_number   1
_chemical_formula_structural   YbY3Tm2(Si3Ru)8
_chemical_formula_sum   'Yb1 Y3 Tm2 Si24 Ru8'
_cell_volume   613.22198531
_cell_formula_units_Z   1
loop_
 _symmetry_equiv_pos_site_id
 _symmetry_equiv_pos_as_xyz
  1  'x, y, z'
loop_
 _atom_site_type_symbol
 _atom_site_label
 _atom_site_symmetry_multiplicity
 _atom_site_fract_x
 _atom_site_fract_y
 _atom_site_fract_z
 _atom_site_occupancy
  Yb  Yb0  1  0.000032  0.000013  0.000096  1
  Y  Y1  1  0.497269  0.997539  0.750087  1
  Y  Y2  1  0.997675  0.497527  0.750066  1
  Y  Y3  1  0.502417  0.002111  0.249891  1
  Tm  Tm4  1  0.499996  0.500023  0.499940  1
  Tm  Tm5  1  0.002166  0.502380  0.249894  1
  Si  Si6  1  0.294891  0.704529  0.000488  1
  Si  Si7  1  0.794817  0.204987  0.499645  1
  Si  Si8  1  0.704825  0.295166  0.000598  1
  Si  Si9  1  0.204819  0.794673  0.499356  1
  Si  Si10  1  0.832821  0.833306  0.332077  1
  Si  Si11  1  0.167033  0.166963  0.668065  1
  Si  Si12  1  0.669050  0.669112  0.833826  1
  Si  Si13  1  0.331275  0.330737  0.165991  1
  Si  Si14  1  0.622845  0.389404  0.228475  1
  Si  Si15  1  0.610272  0.376343  0.771042  1
  Si  Si16  1  0.112438  0.879196  0.730173  1
  Si  Si17  1  0.121546  0.888495  0.270952  1
  Si  Si18  1  0.378236  0.611965  0.770858  1
  Si  Si19  1  0.388961  0.622337  0.227982  1
  Si  Si20  1  0.888903  0.121836  0.270513  1
  Si  Si21  1  0.877039  0.110648  0.730013  1
  Si  Si22  1  0.844826  0.613138  0.005904  1
  Si  Si23  1  0.385515  0.152849  0.994165  1
  Si  Si24  1  0.888814  0.656572  0.504145  1
  Si  Si25  1  0.346185  0.112733  0.495157  1
  Si  Si26  1  0.155509  0.387052  0.995711  1
  Si  Si27  1  0.614351  0.847061  0.005199  1
  Si  Si28  1  0.111357  0.343722  0.494236  1
  Si  Si29  1  0.653703  0.887119  0.505453  1
  Ru  Ru30  1  0.167832  0.827119  0.001622  1
  Ru  Ru31  1  0.671762  0.333584  0.498874  1
  Ru  Ru32  1  0.832206  0.172889  0.001248  1
  Ru  Ru33  1  0.328134  0.666349  0.498341  1
  Ru  Ru34  1  0.624262  0.624562  0.128192  1
  Ru  Ru35  1  0.375881  0.375820  0.871473  1
  Ru  Ru36  1  0.873147  0.873360  0.625321  1
  Ru  Ru37  1  0.127190  0.126782  0.374936  1
