# generated using pymatgen
data_SmCrClO4
_symmetry_space_group_name_H-M   'P 1'
_cell_length_a   6.26272000
_cell_length_b   6.26272050
_cell_length_c   6.76850609
_cell_angle_alpha   102.11041195
_cell_angle_beta   102.11041153
_cell_angle_gamma   71.73297512
_symmetry_Int_Tables_number   1
_chemical_formula_structural   SmCrClO4
_chemical_formula_sum   'Sm2 Cr2 Cl2 O8'
_cell_volume   243.49955143
_cell_formula_units_Z   2
loop_
 _symmetry_equiv_pos_site_id
 _symmetry_equiv_pos_as_xyz
  1  'x, y, z'
loop_
 _atom_site_type_symbol
 _atom_site_label
 _atom_site_symmetry_multiplicity
 _atom_site_fract_x
 _atom_site_fract_y
 _atom_site_fract_z
 _atom_site_occupancy
  Sm  Sm0  1  0.775958  0.775958  0.383544  1
  Sm  Sm1  1  0.224042  0.224042  0.616457  1
  Cr  Cr2  1  0.360638  0.360638  0.232354  1
  Cr  Cr3  1  0.639361  0.639361  0.767645  1
  Cl  Cl4  1  0.014920  0.014920  0.262085  1
  Cl  Cl5  1  0.985079  0.985079  0.737914  1
  O  O6  1  0.713132  0.713132  0.013611  1
  O  O7  1  0.526812  0.526812  0.269768  1
  O  O8  1  0.489466  0.130452  0.352574  1
  O  O9  1  0.130452  0.489466  0.352574  1
  O  O10  1  0.869548  0.510534  0.647426  1
  O  O11  1  0.510534  0.869548  0.647426  1
  O  O12  1  0.473188  0.473188  0.730231  1
  O  O13  1  0.286867  0.286867  0.986389  1
