# generated using pymatgen
data_Dy3Al6Ga2(SiOs)4
_symmetry_space_group_name_H-M   'P 1'
_cell_length_a   8.69519997
_cell_length_b   8.69520055
_cell_length_c   9.49713300
_cell_angle_alpha   90.00000000
_cell_angle_beta   90.00000000
_cell_angle_gamma   120.28350980
_symmetry_Int_Tables_number   1
_chemical_formula_structural   Dy3Al6Ga2(SiOs)4
_chemical_formula_sum   'Dy6 Al12 Ga4 Si8 Os8'
_cell_volume   620.06114784
_cell_formula_units_Z   2
loop_
 _symmetry_equiv_pos_site_id
 _symmetry_equiv_pos_as_xyz
  1  'x, y, z'
loop_
 _atom_site_type_symbol
 _atom_site_label
 _atom_site_symmetry_multiplicity
 _atom_site_fract_x
 _atom_site_fract_y
 _atom_site_fract_z
 _atom_site_occupancy
  Dy  Dy0  1  0.192091  0.385024  0.250000  1
  Dy  Dy1  1  0.807909  0.614976  0.750000  1
  Dy  Dy2  1  0.614976  0.807909  0.250000  1
  Dy  Dy3  1  0.385024  0.192091  0.750000  1
  Dy  Dy4  1  0.192810  0.807190  0.250000  1
  Dy  Dy5  1  0.807190  0.192810  0.750000  1
  Al  Al6  1  0.165247  0.330780  0.576919  1
  Al  Al7  1  0.834753  0.669220  0.423081  1
  Al  Al8  1  0.669220  0.834753  0.576919  1
  Al  Al9  1  0.834753  0.669220  0.076919  1
  Al  Al10  1  0.330780  0.165247  0.423081  1
  Al  Al11  1  0.165247  0.330780  0.923081  1
  Al  Al12  1  0.165060  0.834940  0.576710  1
  Al  Al13  1  0.330780  0.165247  0.076919  1
  Al  Al14  1  0.834940  0.165060  0.423290  1
  Al  Al15  1  0.669220  0.834753  0.923081  1
  Al  Al16  1  0.834940  0.165060  0.076710  1
  Al  Al17  1  0.165060  0.834940  0.923290  1
  Ga  Ga18  1  0.563208  0.436792  0.250000  1
  Ga  Ga19  1  0.436792  0.563208  0.750000  1
  Ga  Ga20  1  0.000565  0.999435  0.250000  1
  Ga  Ga21  1  0.999435  0.000565  0.750000  1
  Si  Si22  1  0.334505  0.665495  0.042594  1
  Si  Si23  1  0.665495  0.334505  0.957406  1
  Si  Si24  1  0.665495  0.334505  0.542594  1
  Si  Si25  1  0.334505  0.665495  0.457406  1
  Si  Si26  1  0.564140  0.123881  0.250000  1
  Si  Si27  1  0.435860  0.876119  0.750000  1
  Si  Si28  1  0.876119  0.435860  0.250000  1
  Si  Si29  1  0.123881  0.564140  0.750000  1
  Os  Os30  1  0.500000  0.000000  0.000000  1
  Os  Os31  1  0.000000  0.500000  0.000000  1
  Os  Os32  1  0.500000  0.000000  0.500000  1
  Os  Os33  1  0.500000  0.500000  0.000000  1
  Os  Os34  1  0.000000  0.500000  0.500000  1
  Os  Os35  1  0.500000  0.500000  0.500000  1
  Os  Os36  1  0.000000  0.000000  0.000000  1
  Os  Os37  1  0.000000  0.000000  0.500000  1
