# generated using pymatgen
data_La5AlInRu3
_symmetry_space_group_name_H-M   'P 1'
_cell_length_a   8.76601647
_cell_length_b   8.76601691
_cell_length_c   8.65015700
_cell_angle_alpha   109.62280634
_cell_angle_beta   109.42842098
_cell_angle_gamma   109.89999927
_symmetry_Int_Tables_number   1
_chemical_formula_structural   La5AlInRu3
_chemical_formula_sum   'La10 Al2 In2 Ru6'
_cell_volume   508.26017898
_cell_formula_units_Z   2
loop_
 _symmetry_equiv_pos_site_id
 _symmetry_equiv_pos_as_xyz
  1  'x, y, z'
loop_
 _atom_site_type_symbol
 _atom_site_label
 _atom_site_symmetry_multiplicity
 _atom_site_fract_x
 _atom_site_fract_y
 _atom_site_fract_z
 _atom_site_occupancy
  La  La0  1  0.242802  0.685474  0.435731  1
  La  La1  1  0.749744  0.807072  0.064270  1
  La  La2  1  0.434544  0.246521  0.688398  1
  La  La3  1  0.695730  0.445731  0.250000  1
  La  La4  1  0.058123  0.746144  0.811602  1
  La  La5  1  0.816363  0.066363  0.750000  1
  La  La6  1  0.203150  0.204011  0.201622  1
  La  La7  1  0.502390  0.001529  0.298378  1
  La  La8  1  0.286361  0.500651  0.998963  1
  La  La9  1  0.001688  0.287398  0.501038  1
  Al  Al10  1  0.913695  0.500512  0.000140  1
  Al  Al11  1  0.000371  0.913556  0.499861  1
  In  In12  1  0.501889  0.999889  0.913692  1
  In  In13  1  0.586197  0.588196  0.586308  1
  Ru  Ru14  1  0.239842  0.123067  0.865110  1
  Ru  Ru15  1  0.757957  0.374730  0.634889  1
  Ru  Ru16  1  0.890779  0.265319  0.125273  1
  Ru  Ru17  1  0.116262  0.866262  0.250001  1
  Ru  Ru18  1  0.640044  0.765505  0.374726  1
  Ru  Ru19  1  0.362073  0.612073  0.750000  1
