# generated using pymatgen
data_La4PBr6
_symmetry_space_group_name_H-M   'P 1'
_cell_length_a   4.29889500
_cell_length_b   13.75678800
_cell_length_c   14.70512000
_cell_angle_alpha   90.00000000
_cell_angle_beta   90.00000000
_cell_angle_gamma   90.00000000
_symmetry_Int_Tables_number   1
_chemical_formula_structural   La4PBr6
_chemical_formula_sum   'La8 P2 Br12'
_cell_volume   869.64590271
_cell_formula_units_Z   2
loop_
 _symmetry_equiv_pos_site_id
 _symmetry_equiv_pos_as_xyz
  1  'x, y, z'
loop_
 _atom_site_type_symbol
 _atom_site_label
 _atom_site_symmetry_multiplicity
 _atom_site_fract_x
 _atom_site_fract_y
 _atom_site_fract_z
 _atom_site_occupancy
  La  La0  1  0.500000  0.118711  0.340926  1
  La  La1  1  0.500000  0.881289  0.659074  1
  La  La2  1  0.500000  0.618711  0.159074  1
  La  La3  1  0.500000  0.381289  0.840926  1
  La  La4  1  0.000000  0.116029  0.577034  1
  La  La5  1  0.000000  0.883971  0.422966  1
  La  La6  1  0.000000  0.616029  0.922966  1
  La  La7  1  0.000000  0.383971  0.077034  1
  P  P8  1  0.500000  0.000000  0.500000  1
  P  P9  1  0.500000  0.500000  0.000000  1
  Br  Br10  1  0.500000  0.244109  0.162145  1
  Br  Br11  1  0.500000  0.755891  0.837855  1
  Br  Br12  1  0.500000  0.744109  0.337855  1
  Br  Br13  1  0.500000  0.255891  0.662145  1
  Br  Br14  1  0.000000  0.255688  0.412096  1
  Br  Br15  1  0.000000  0.744312  0.587904  1
  Br  Br16  1  0.000000  0.755688  0.087904  1
  Br  Br17  1  0.000000  0.244312  0.912096  1
  Br  Br18  1  0.000000  0.001358  0.243505  1
  Br  Br19  1  0.000000  0.998642  0.756495  1
  Br  Br20  1  0.000000  0.501358  0.256495  1
  Br  Br21  1  0.000000  0.498642  0.743505  1
