# generated using pymatgen
data_Mg3SiPd2
_symmetry_space_group_name_H-M   'P 1'
_cell_length_a   8.34388579
_cell_length_b   8.34388667
_cell_length_c   8.34388600
_cell_angle_alpha   60.00000264
_cell_angle_beta   59.99999917
_cell_angle_gamma   59.99999834
_symmetry_Int_Tables_number   1
_chemical_formula_structural   Mg3SiPd2
_chemical_formula_sum   'Mg12 Si4 Pd8'
_cell_volume   410.76186016
_cell_formula_units_Z   4
loop_
 _symmetry_equiv_pos_site_id
 _symmetry_equiv_pos_as_xyz
  1  'x, y, z'
loop_
 _atom_site_type_symbol
 _atom_site_label
 _atom_site_symmetry_multiplicity
 _atom_site_fract_x
 _atom_site_fract_y
 _atom_site_fract_z
 _atom_site_occupancy
  Mg  Mg0  1  0.194798  0.805202  0.194798  1
  Mg  Mg1  1  0.194798  0.194798  0.805202  1
  Mg  Mg2  1  0.194798  0.805202  0.805202  1
  Mg  Mg3  1  0.055202  0.444798  0.055202  1
  Mg  Mg4  1  0.805202  0.194798  0.194798  1
  Mg  Mg5  1  0.055202  0.444798  0.444798  1
  Mg  Mg6  1  0.444798  0.055202  0.444798  1
  Mg  Mg7  1  0.444798  0.444798  0.055202  1
  Mg  Mg8  1  0.805202  0.805202  0.194798  1
  Mg  Mg9  1  0.444798  0.055202  0.055202  1
  Mg  Mg10  1  0.805202  0.194798  0.805202  1
  Mg  Mg11  1  0.055202  0.055202  0.444798  1
  Si  Si12  1  0.625000  0.625000  0.625000  1
  Si  Si13  1  0.125000  0.625000  0.625000  1
  Si  Si14  1  0.625000  0.625000  0.125000  1
  Si  Si15  1  0.625000  0.125000  0.625000  1
  Pd  Pd16  1  0.837563  0.487312  0.837563  1
  Pd  Pd17  1  0.837563  0.837563  0.837563  1
  Pd  Pd18  1  0.487312  0.837563  0.837563  1
  Pd  Pd19  1  0.412437  0.762688  0.412437  1
  Pd  Pd20  1  0.837563  0.837563  0.487312  1
  Pd  Pd21  1  0.762688  0.412437  0.412437  1
  Pd  Pd22  1  0.412437  0.412437  0.412437  1
  Pd  Pd23  1  0.412437  0.412437  0.762688  1
