# generated using pymatgen
data_TbDyLu4(Al3Ru)8
_symmetry_space_group_name_H-M   'P 1'
_cell_length_a   8.75892921
_cell_length_b   8.75623768
_cell_length_c   9.57746600
_cell_angle_alpha   89.99999392
_cell_angle_beta   90.00025008
_cell_angle_gamma   120.03495352
_symmetry_Int_Tables_number   1
_chemical_formula_structural   TbDyLu4(Al3Ru)8
_chemical_formula_sum   'Tb1 Dy1 Lu4 Al24 Ru8'
_cell_volume   635.91158263
_cell_formula_units_Z   1
loop_
 _symmetry_equiv_pos_site_id
 _symmetry_equiv_pos_as_xyz
  1  'x, y, z'
loop_
 _atom_site_type_symbol
 _atom_site_label
 _atom_site_symmetry_multiplicity
 _atom_site_fract_x
 _atom_site_fract_y
 _atom_site_fract_z
 _atom_site_occupancy
  Tb  Tb0  1  0.192472  0.385084  0.749930  1
  Dy  Dy1  1  0.611567  0.805785  0.749985  1
  Lu  Lu2  1  0.389607  0.195021  0.249995  1
  Lu  Lu3  1  0.805430  0.195083  0.249995  1
  Lu  Lu4  1  0.805706  0.611353  0.249999  1
  Lu  Lu5  1  0.195373  0.804458  0.749979  1
  Al  Al6  1  0.439191  0.878400  0.249999  1
  Al  Al7  1  0.122024  0.561490  0.250041  1
  Al  Al8  1  0.439433  0.561517  0.250035  1
  Al  Al9  1  0.560990  0.123442  0.750000  1
  Al  Al10  1  0.876252  0.438989  0.750050  1
  Al  Al11  1  0.562642  0.437647  0.750051  1
  Al  Al12  1  0.162632  0.837724  0.421979  1
  Al  Al13  1  0.162608  0.325240  0.420372  1
  Al  Al14  1  0.675064  0.837732  0.421150  1
  Al  Al15  1  0.836674  0.162998  0.576678  1
  Al  Al16  1  0.837539  0.674409  0.576498  1
  Al  Al17  1  0.326016  0.162515  0.576597  1
  Al  Al18  1  0.836669  0.162946  0.923302  1
  Al  Al19  1  0.837527  0.674384  0.923550  1
  Al  Al20  1  0.325968  0.162455  0.923386  1
  Al  Al21  1  0.162625  0.837662  0.078007  1
  Al  Al22  1  0.162605  0.325230  0.079620  1
  Al  Al23  1  0.675005  0.837668  0.078838  1
  Al  Al24  1  0.332916  0.666741  0.517694  1
  Al  Al25  1  0.666743  0.333647  0.478583  1
  Al  Al26  1  0.666691  0.333550  0.021405  1
  Al  Al27  1  0.332857  0.666625  0.982220  1
  Al  Al28  1  0.000175  0.000887  0.249967  1
  Al  Al29  1  0.999279  0.996209  0.749966  1
  Ru  Ru30  1  0.000179  0.000407  0.500136  1
  Ru  Ru31  1  0.000161  0.000376  0.999789  1
  Ru  Ru32  1  0.499943  0.001012  0.499161  1
  Ru  Ru33  1  0.999047  0.500424  0.498967  1
  Ru  Ru34  1  0.500767  0.499885  0.498636  1
  Ru  Ru35  1  0.499876  0.000890  0.000810  1
  Ru  Ru36  1  0.998997  0.500316  0.001153  1
  Ru  Ru37  1  0.500746  0.499800  0.001474  1
