# generated using pymatgen
data_Dy3Lu2Sn2Sb
_symmetry_space_group_name_H-M   'P 1'
_cell_length_a   6.41396300
_cell_length_b   8.90056734
_cell_length_c   8.87776137
_cell_angle_alpha   119.76234160
_cell_angle_beta   90.00016139
_cell_angle_gamma   89.99951000
_symmetry_Int_Tables_number   1
_chemical_formula_structural   Dy3Lu2Sn2Sb
_chemical_formula_sum   'Dy6 Lu4 Sn4 Sb2'
_cell_volume   439.96012438
_cell_formula_units_Z   2
loop_
 _symmetry_equiv_pos_site_id
 _symmetry_equiv_pos_as_xyz
  1  'x, y, z'
loop_
 _atom_site_type_symbol
 _atom_site_label
 _atom_site_symmetry_multiplicity
 _atom_site_fract_x
 _atom_site_fract_y
 _atom_site_fract_z
 _atom_site_occupancy
  Dy  Dy0  1  0.749995  0.241179  0.000056  1
  Dy  Dy1  1  0.750024  0.757116  0.757725  1
  Dy  Dy2  1  0.749998  0.999555  0.241552  1
  Dy  Dy3  1  0.250011  0.758127  0.999822  1
  Dy  Dy4  1  0.249987  0.243692  0.241743  1
  Dy  Dy5  1  0.249997  0.001788  0.759414  1
  Lu  Lu6  1  0.500173  0.332421  0.667676  1
  Lu  Lu7  1  0.500310  0.666436  0.331883  1
  Lu  Lu8  1  0.999701  0.666415  0.331861  1
  Lu  Lu9  1  0.999820  0.332427  0.667718  1
  Sn  Sn10  1  0.750001  0.605178  0.000396  1
  Sn  Sn11  1  0.750004  0.392957  0.393492  1
  Sn  Sn12  1  0.749977  0.999353  0.605289  1
  Sn  Sn13  1  0.250012  0.395854  0.999621  1
  Sb  Sb14  1  0.250014  0.607692  0.607736  1
  Sb  Sb15  1  0.249981  0.999808  0.394015  1
