# generated using pymatgen
data_DyEr11TlFe4Au
_symmetry_space_group_name_H-M   'P 1'
_cell_length_a   8.28816384
_cell_length_b   8.28816548
_cell_length_c   8.28748516
_cell_angle_alpha   111.02698114
_cell_angle_beta   110.67979101
_cell_angle_gamma   106.74459406
_symmetry_Int_Tables_number   1
_chemical_formula_structural   DyEr11TlFe4Au
_chemical_formula_sum   'Dy1 Er11 Tl1 Fe4 Au1'
_cell_volume   437.48171526
_cell_formula_units_Z   1
loop_
 _symmetry_equiv_pos_site_id
 _symmetry_equiv_pos_as_xyz
  1  'x, y, z'
loop_
 _atom_site_type_symbol
 _atom_site_label
 _atom_site_symmetry_multiplicity
 _atom_site_fract_x
 _atom_site_fract_y
 _atom_site_fract_z
 _atom_site_occupancy
  Dy  Dy0  1  0.187349  0.289879  0.477229  1
  Er  Er1  1  0.812965  0.710090  0.523056  1
  Er  Er2  1  0.187019  0.710522  0.897541  1
  Er  Er3  1  0.812431  0.290053  0.102482  1
  Er  Er4  1  0.313599  0.615455  0.301379  1
  Er  Er5  1  0.686901  0.384892  0.698430  1
  Er  Er6  1  0.313539  0.011528  0.698430  1
  Er  Er7  1  0.685923  0.987780  0.301379  1
  Er  Er8  1  0.427145  0.221496  0.204942  1
  Er  Er9  1  0.574076  0.779341  0.795547  1
  Er  Er10  1  0.016206  0.221472  0.795547  1
  Er  Er11  1  0.983446  0.777798  0.204942  1
  Tl  Tl12  1  0.500044  0.500012  0.000055  1
  Fe  Fe13  1  0.108059  0.609179  0.499815  1
  Fe  Fe14  1  0.890637  0.391756  0.499815  1
  Fe  Fe15  1  0.384923  0.999373  0.384296  1
  Fe  Fe16  1  0.615434  0.000193  0.615628  1
  Au  Au17  1  0.000302  0.999181  0.999483  1
