# generated using pymatgen
data_Rb2USe3
_symmetry_space_group_name_H-M   'P 1'
_cell_length_a   7.71389949
_cell_length_b   7.71390022
_cell_length_c   8.47215358
_cell_angle_alpha   81.15638212
_cell_angle_beta   81.15638629
_cell_angle_gamma   120.02111306
_symmetry_Int_Tables_number   1
_chemical_formula_structural   Rb2USe3
_chemical_formula_sum   'Rb4 U2 Se6'
_cell_volume   415.33620162
_cell_formula_units_Z   2
loop_
 _symmetry_equiv_pos_site_id
 _symmetry_equiv_pos_as_xyz
  1  'x, y, z'
loop_
 _atom_site_type_symbol
 _atom_site_label
 _atom_site_symmetry_multiplicity
 _atom_site_fract_x
 _atom_site_fract_y
 _atom_site_fract_z
 _atom_site_occupancy
  Rb  Rb0  1  0.500000  0.500000  0.000000  1
  Rb  Rb1  1  0.655025  0.344975  0.500000  1
  Rb  Rb2  1  0.344975  0.655025  0.500000  1
  Rb  Rb3  1  0.000000  0.000000  0.500000  1
  U  U4  1  0.832356  0.167644  0.000000  1
  U  U5  1  0.167644  0.832356  0.000000  1
  Se  Se6  1  0.815766  0.815766  0.197481  1
  Se  Se7  1  0.184234  0.184234  0.802519  1
  Se  Se8  1  0.431790  0.047600  0.200339  1
  Se  Se9  1  0.568210  0.952400  0.799661  1
  Se  Se10  1  0.952400  0.568210  0.799661  1
  Se  Se11  1  0.047600  0.431790  0.200339  1
