# generated using pymatgen
data_Nd4Mg4Ir3Au
_symmetry_space_group_name_H-M   'P 1'
_cell_length_a   4.22007800
_cell_length_b   7.31215601
_cell_length_c   8.82879407
_cell_angle_alpha   91.08029964
_cell_angle_beta   90.00000000
_cell_angle_gamma   90.00000000
_symmetry_Int_Tables_number   1
_chemical_formula_structural   Nd4Mg4Ir3Au
_chemical_formula_sum   'Nd4 Mg4 Ir3 Au1'
_cell_volume   272.38934343
_cell_formula_units_Z   1
loop_
 _symmetry_equiv_pos_site_id
 _symmetry_equiv_pos_as_xyz
  1  'x, y, z'
loop_
 _atom_site_type_symbol
 _atom_site_label
 _atom_site_symmetry_multiplicity
 _atom_site_fract_x
 _atom_site_fract_y
 _atom_site_fract_z
 _atom_site_occupancy
  Nd  Nd0  1  0.750000  0.470551  0.809710  1
  Nd  Nd1  1  0.250000  0.027700  0.335006  1
  Nd  Nd2  1  0.750000  0.960603  0.681320  1
  Nd  Nd3  1  0.250000  0.554459  0.181558  1
  Mg  Mg4  1  0.250000  0.132569  0.930964  1
  Mg  Mg5  1  0.250000  0.634799  0.559102  1
  Mg  Mg6  1  0.750000  0.859944  0.060448  1
  Mg  Mg7  1  0.750000  0.365908  0.443360  1
  Ir  Ir8  1  0.250000  0.753391  0.878569  1
  Ir  Ir9  1  0.250000  0.252087  0.624437  1
  Ir  Ir10  1  0.750000  0.745485  0.374252  1
  Au  Au11  1  0.750000  0.242506  0.121272  1
