# generated using pymatgen
data_Pr2InSn7(IrRh)2
_symmetry_space_group_name_H-M   'P 1'
_cell_length_a   4.55989100
_cell_length_b   7.21568900
_cell_length_c   18.71661500
_cell_angle_alpha   89.99775626
_cell_angle_beta   90.00000000
_cell_angle_gamma   90.00000000
_symmetry_Int_Tables_number   1
_chemical_formula_structural   Pr2InSn7(IrRh)2
_chemical_formula_sum   'Pr4 In2 Sn14 Ir4 Rh4'
_cell_volume   615.82820371
_cell_formula_units_Z   2
loop_
 _symmetry_equiv_pos_site_id
 _symmetry_equiv_pos_as_xyz
  1  'x, y, z'
loop_
 _atom_site_type_symbol
 _atom_site_label
 _atom_site_symmetry_multiplicity
 _atom_site_fract_x
 _atom_site_fract_y
 _atom_site_fract_z
 _atom_site_occupancy
  Pr  Pr0  1  0.250000  0.999697  0.858395  1
  Pr  Pr1  1  0.250000  0.500188  0.358775  1
  Pr  Pr2  1  0.750000  0.998878  0.140696  1
  Pr  Pr3  1  0.750000  0.501779  0.641095  1
  In  In4  1  0.250000  0.303235  0.181843  1
  In  In5  1  0.250000  0.198174  0.681570  1
  Sn  Sn6  1  0.750000  0.694713  0.818793  1
  Sn  Sn7  1  0.750000  0.804499  0.318627  1
  Sn  Sn8  1  0.250000  0.720540  0.194697  1
  Sn  Sn9  1  0.250000  0.777928  0.694622  1
  Sn  Sn10  1  0.750000  0.277633  0.802415  1
  Sn  Sn11  1  0.750000  0.222420  0.301963  1
  Sn  Sn12  1  0.250000  0.864564  0.031976  1
  Sn  Sn13  1  0.250000  0.634412  0.531872  1
  Sn  Sn14  1  0.750000  0.134858  0.967516  1
  Sn  Sn15  1  0.750000  0.364504  0.468047  1
  Sn  Sn16  1  0.250000  0.519232  0.931858  1
  Sn  Sn17  1  0.250000  0.981588  0.431638  1
  Sn  Sn18  1  0.750000  0.478349  0.070261  1
  Sn  Sn19  1  0.750000  0.022506  0.570116  1
  Ir  Ir20  1  0.250000  0.250179  0.033778  1
  Ir  Ir21  1  0.750000  0.746884  0.965421  1
  Ir  Ir22  1  0.750000  0.753844  0.465767  1
  Ir  Ir23  1  0.750000  0.972524  0.715958  1
  Rh  Rh24  1  0.250000  0.249276  0.533274  1
  Rh  Rh25  1  0.250000  0.013900  0.286556  1
  Rh  Rh26  1  0.250000  0.486978  0.787235  1
  Rh  Rh27  1  0.750000  0.526715  0.215233  1
