# generated using pymatgen
data_Mg4SiNi2(PIr)5
_symmetry_space_group_name_H-M   'P 1'
_cell_length_a   6.81515772
_cell_length_b   6.78414084
_cell_length_c   6.78413957
_cell_angle_alpha   109.44425932
_cell_angle_beta   109.74319800
_cell_angle_gamma   109.04248765
_symmetry_Int_Tables_number   1
_chemical_formula_structural   Mg4SiNi2(PIr)5
_chemical_formula_sum   'Mg4 Si1 Ni2 P5 Ir5'
_cell_volume   241.99821795
_cell_formula_units_Z   1
loop_
 _symmetry_equiv_pos_site_id
 _symmetry_equiv_pos_as_xyz
  1  'x, y, z'
loop_
 _atom_site_type_symbol
 _atom_site_label
 _atom_site_symmetry_multiplicity
 _atom_site_fract_x
 _atom_site_fract_y
 _atom_site_fract_z
 _atom_site_occupancy
  Mg  Mg0  1  0.001156  0.999750  0.507436  1
  Mg  Mg1  1  0.496170  0.003334  0.000352  1
  Mg  Mg2  1  0.001156  0.493720  0.001406  1
  Mg  Mg3  1  0.496170  0.495818  0.492836  1
  Si  Si4  1  0.685771  0.688896  0.996874  1
  Ni  Ni5  1  0.243051  0.494283  0.748768  1
  Ni  Ni6  1  0.770392  0.256252  0.514139  1
  P  P7  1  0.325064  0.329313  0.995751  1
  P  P8  1  0.996611  0.672434  0.683032  1
  P  P9  1  0.996611  0.313580  0.324176  1
  P  P10  1  0.681089  0.000048  0.681041  1
  P  P11  1  0.305521  0.993768  0.311754  1
  Ir  Ir12  1  0.997637  0.001288  0.996348  1
  Ir  Ir13  1  0.503443  0.256030  0.738614  1
  Ir  Ir14  1  0.503443  0.764829  0.247413  1
  Ir  Ir15  1  0.744218  0.492138  0.252082  1
  Ir  Ir16  1  0.252498  0.744519  0.507979  1
