# generated using pymatgen
data_BaLa5P17Pd6
_symmetry_space_group_name_H-M   'P 1'
_cell_length_a   9.10617970
_cell_length_b   9.10618025
_cell_length_c   9.15408864
_cell_angle_alpha   109.22815045
_cell_angle_beta   109.22814167
_cell_angle_gamma   109.74738101
_symmetry_Int_Tables_number   1
_chemical_formula_structural   BaLa5P17Pd6
_chemical_formula_sum   'Ba1 La5 P17 Pd6'
_cell_volume   585.83748146
_cell_formula_units_Z   1
loop_
 _symmetry_equiv_pos_site_id
 _symmetry_equiv_pos_as_xyz
  1  'x, y, z'
loop_
 _atom_site_type_symbol
 _atom_site_label
 _atom_site_symmetry_multiplicity
 _atom_site_fract_x
 _atom_site_fract_y
 _atom_site_fract_z
 _atom_site_occupancy
  Ba  Ba0  1  0.290407  0.290407  0.000000  1
  La  La1  1  0.999978  0.716734  0.717479  1
  La  La2  1  0.999256  0.282500  0.282521  1
  La  La3  1  0.282500  0.999256  0.282521  1
  La  La4  1  0.716734  0.999978  0.717479  1
  La  La5  1  0.712909  0.712909  0.000000  1
  P  P6  1  0.640221  0.421973  0.639367  1
  P  P7  1  0.782606  0.000854  0.360633  1
  P  P8  1  0.363338  0.995590  0.778367  1
  P  P9  1  0.779376  0.360578  0.000000  1
  P  P10  1  0.218246  0.218246  0.576182  1
  P  P11  1  0.584971  0.217224  0.221633  1
  P  P12  1  0.995590  0.363338  0.778367  1
  P  P13  1  0.000854  0.782606  0.360633  1
  P  P14  1  0.360578  0.779376  0.000000  1
  P  P15  1  0.642065  0.642065  0.423818  1
  P  P16  1  0.421973  0.640221  0.639367  1
  P  P17  1  0.217224  0.584971  0.221633  1
  P  P18  1  0.437181  0.437181  0.438817  1
  P  P19  1  0.998363  0.998363  0.561183  1
  P  P20  1  0.565362  0.999319  0.000000  1
  P  P21  1  0.999319  0.565362  0.000000  1
  P  P22  1  0.988635  0.988635  0.000000  1
  Pd  Pd23  1  0.249615  0.749615  0.500000  1
  Pd  Pd24  1  0.500554  0.246205  0.745219  1
  Pd  Pd25  1  0.500987  0.755335  0.254781  1
  Pd  Pd26  1  0.246205  0.500554  0.745219  1
  Pd  Pd27  1  0.755335  0.500987  0.254781  1
  Pd  Pd28  1  0.749615  0.249615  0.500000  1
