# generated using pymatgen
data_Ga10NiPt
_symmetry_space_group_name_H-M   'P 1'
_cell_length_a   6.74155180
_cell_length_b   6.74155012
_cell_length_c   6.74154989
_cell_angle_alpha   123.18297877
_cell_angle_beta   123.18298571
_cell_angle_gamma   84.57001432
_symmetry_Int_Tables_number   1
_chemical_formula_structural   Ga10NiPt
_chemical_formula_sum   'Ga10 Ni1 Pt1'
_cell_volume   205.22220871
_cell_formula_units_Z   1
loop_
 _symmetry_equiv_pos_site_id
 _symmetry_equiv_pos_as_xyz
  1  'x, y, z'
loop_
 _atom_site_type_symbol
 _atom_site_label
 _atom_site_symmetry_multiplicity
 _atom_site_fract_x
 _atom_site_fract_y
 _atom_site_fract_z
 _atom_site_occupancy
  Ga  Ga0  1  0.005500  0.005500  0.000000  1
  Ga  Ga1  1  0.494500  0.494500  0.000000  1
  Ga  Ga2  1  0.010734  0.501127  0.795021  1
  Ga  Ga3  1  0.706106  0.215713  0.204979  1
  Ga  Ga4  1  0.501127  0.706106  0.490393  1
  Ga  Ga5  1  0.215713  0.010734  0.509607  1
  Ga  Ga6  1  0.998873  0.489266  0.204979  1
  Ga  Ga7  1  0.284287  0.793894  0.795021  1
  Ga  Ga8  1  0.489266  0.284287  0.490393  1
  Ga  Ga9  1  0.793894  0.998873  0.509607  1
  Ni  Ni10  1  0.250000  0.250000  0.000000  1
  Pt  Pt11  1  0.750000  0.750000  0.000000  1
