# generated using pymatgen
data_Mn3Nb4VOs4
_symmetry_space_group_name_H-M   'P 1'
_cell_length_a   4.93418874
_cell_length_b   4.99211671
_cell_length_c   8.34076100
_cell_angle_alpha   90.00000000
_cell_angle_beta   90.00000000
_cell_angle_gamma   118.71844425
_symmetry_Int_Tables_number   1
_chemical_formula_structural   Mn3Nb4VOs4
_chemical_formula_sum   'Mn3 Nb4 V1 Os4'
_cell_volume   180.17791755
_cell_formula_units_Z   1
loop_
 _symmetry_equiv_pos_site_id
 _symmetry_equiv_pos_as_xyz
  1  'x, y, z'
loop_
 _atom_site_type_symbol
 _atom_site_label
 _atom_site_symmetry_multiplicity
 _atom_site_fract_x
 _atom_site_fract_y
 _atom_site_fract_z
 _atom_site_occupancy
  Mn  Mn0  1  0.648146  0.835003  0.750000  1
  Mn  Mn1  1  0.832841  0.655935  0.250000  1
  Mn  Mn2  1  0.181080  0.836636  0.750000  1
  Nb  Nb3  1  0.335356  0.669503  0.437823  1
  Nb  Nb4  1  0.669580  0.338300  0.935498  1
  Nb  Nb5  1  0.669580  0.338300  0.564502  1
  Nb  Nb6  1  0.335356  0.669503  0.062177  1
  V  V7  1  0.835687  0.173902  0.250000  1
  Os  Os8  1  0.173754  0.348068  0.750000  1
  Os  Os9  1  0.350092  0.173364  0.250000  1
  Os  Os10  1  0.984264  0.980743  0.996163  1
  Os  Os11  1  0.984264  0.980743  0.503837  1
