# generated using pymatgen
data_Ho5LuTh2MgCdIr2
_symmetry_space_group_name_H-M   'P 1'
_cell_length_a   9.69866993
_cell_length_b   9.70834833
_cell_length_c   9.70834700
_cell_angle_alpha   59.93406061
_cell_angle_beta   60.03296259
_cell_angle_gamma   60.03296428
_symmetry_Int_Tables_number   1
_chemical_formula_structural   Ho5LuTh2MgCdIr2
_chemical_formula_sum   'Ho10 Lu2 Th4 Mg2 Cd2 Ir4'
_cell_volume   646.37852474
_cell_formula_units_Z   2
loop_
 _symmetry_equiv_pos_site_id
 _symmetry_equiv_pos_as_xyz
  1  'x, y, z'
loop_
 _atom_site_type_symbol
 _atom_site_label
 _atom_site_symmetry_multiplicity
 _atom_site_fract_x
 _atom_site_fract_y
 _atom_site_fract_z
 _atom_site_occupancy
  Ho  Ho0  1  0.436810  0.063269  0.436546  1
  Ho  Ho1  1  0.063269  0.436810  0.063375  1
  Ho  Ho2  1  0.437077  0.437077  0.062923  1
  Ho  Ho3  1  0.063636  0.063636  0.436364  1
  Ho  Ho4  1  0.185991  0.814923  0.815055  1
  Ho  Ho5  1  0.814923  0.185991  0.184031  1
  Ho  Ho6  1  0.814937  0.186019  0.815074  1
  Ho  Ho7  1  0.186019  0.814937  0.183970  1
  Ho  Ho8  1  0.815340  0.815340  0.184660  1
  Ho  Ho9  1  0.185234  0.185234  0.814766  1
  Lu  Lu10  1  0.062503  0.437622  0.437341  1
  Lu  Lu11  1  0.437622  0.062503  0.062534  1
  Th  Th12  1  0.600662  0.599236  0.599650  1
  Th  Th13  1  0.599236  0.600662  0.200452  1
  Th  Th14  1  0.598974  0.201107  0.600659  1
  Th  Th15  1  0.201107  0.598974  0.599260  1
  Mg  Mg16  1  0.830998  0.831234  0.832039  1
  Mg  Mg17  1  0.831234  0.830998  0.505727  1
  Cd  Cd18  1  0.833099  0.501439  0.832666  1
  Cd  Cd19  1  0.501439  0.833099  0.832795  1
  Ir  Ir20  1  0.390960  0.393509  0.393812  1
  Ir  Ir21  1  0.393509  0.390960  0.821720  1
  Ir  Ir22  1  0.393256  0.822166  0.390955  1
  Ir  Ir23  1  0.822166  0.393256  0.393624  1
