# generated using pymatgen
data_Tm2LuAl3SiAu2
_symmetry_space_group_name_H-M   'P 1'
_cell_length_a   6.92993157
_cell_length_b   6.94246363
_cell_length_c   4.26707100
_cell_angle_alpha   90.00000000
_cell_angle_beta   90.00000000
_cell_angle_gamma   119.98661669
_symmetry_Int_Tables_number   1
_chemical_formula_structural   Tm2LuAl3SiAu2
_chemical_formula_sum   'Tm2 Lu1 Al3 Si1 Au2'
_cell_volume   177.81222358
_cell_formula_units_Z   1
loop_
 _symmetry_equiv_pos_site_id
 _symmetry_equiv_pos_as_xyz
  1  'x, y, z'
loop_
 _atom_site_type_symbol
 _atom_site_label
 _atom_site_symmetry_multiplicity
 _atom_site_fract_x
 _atom_site_fract_y
 _atom_site_fract_z
 _atom_site_occupancy
  Tm  Tm0  1  0.423887  0.421977  0.500000  1
  Tm  Tm1  1  0.578177  0.002297  0.500000  1
  Lu  Lu2  1  0.998418  0.576600  0.500000  1
  Al  Al3  1  0.751853  0.756465  0.000000  1
  Al  Al4  1  0.243400  0.995062  0.000000  1
  Al  Al5  1  0.004629  0.248539  0.000000  1
  Si  Si6  1  0.667448  0.333747  0.000000  1
  Au  Au7  1  0.332162  0.666277  0.000000  1
  Au  Au8  1  0.000027  0.999037  0.500000  1
