# generated using pymatgen
data_MgMn3AlZn3NiO12
_symmetry_space_group_name_H-M   'P 1'
_cell_length_a   5.96433205
_cell_length_b   5.98204342
_cell_length_c   13.14515200
_cell_angle_alpha   76.82562459
_cell_angle_beta   76.52314293
_cell_angle_gamma   88.85458165
_symmetry_Int_Tables_number   1
_chemical_formula_structural   MgMn3AlZn3NiO12
_chemical_formula_sum   'Mg2 Mn6 Al2 Zn6 Ni2 O24'
_cell_volume   443.81431282
_cell_formula_units_Z   2
loop_
 _symmetry_equiv_pos_site_id
 _symmetry_equiv_pos_as_xyz
  1  'x, y, z'
loop_
 _atom_site_type_symbol
 _atom_site_label
 _atom_site_symmetry_multiplicity
 _atom_site_fract_x
 _atom_site_fract_y
 _atom_site_fract_z
 _atom_site_occupancy
  Mg  Mg0  1  0.161699  0.661141  0.672829  1
  Mg  Mg1  1  0.838301  0.338859  0.327171  1
  Mn  Mn2  1  0.500000  0.000000  0.000000  1
  Mn  Mn3  1  0.000000  0.500000  0.500000  1
  Mn  Mn4  1  0.500000  0.500000  0.500000  1
  Mn  Mn5  1  0.160232  0.158713  0.667279  1
  Mn  Mn6  1  0.839768  0.841287  0.332721  1
  Mn  Mn7  1  0.500000  0.500000  0.000000  1
  Al  Al8  1  0.163490  0.167589  0.163550  1
  Al  Al9  1  0.836510  0.832411  0.836450  1
  Zn  Zn10  1  0.291053  0.023262  0.412707  1
  Zn  Zn11  1  0.964718  0.701796  0.086312  1
  Zn  Zn12  1  0.620519  0.368089  0.756065  1
  Zn  Zn13  1  0.035282  0.298204  0.913688  1
  Zn  Zn14  1  0.708947  0.976738  0.587293  1
  Zn  Zn15  1  0.379481  0.631911  0.243935  1
  Ni  Ni16  1  0.666378  0.167040  0.167325  1
  Ni  Ni17  1  0.333622  0.832960  0.832675  1
  O  O18  1  0.073594  0.070972  0.820401  1
  O  O19  1  0.779472  0.745450  0.492133  1
  O  O20  1  0.399930  0.393417  0.159264  1
  O  O21  1  0.928118  0.924050  0.680659  1
  O  O22  1  0.606654  0.601507  0.341152  1
  O  O23  1  0.255350  0.218998  0.009592  1
  O  O24  1  0.384604  0.926392  0.665148  1
  O  O25  1  0.060373  0.589255  0.344280  1
  O  O26  1  0.708821  0.242866  0.001831  1
  O  O27  1  0.069801  0.617114  0.834087  1
  O  O28  1  0.759148  0.294411  0.494479  1
  O  O29  1  0.410212  0.948200  0.155438  1
  O  O30  1  0.220528  0.254550  0.507867  1
  O  O31  1  0.926406  0.929028  0.179599  1
  O  O32  1  0.600070  0.606583  0.840736  1
  O  O33  1  0.393346  0.398493  0.658848  1
  O  O34  1  0.071882  0.075951  0.319341  1
  O  O35  1  0.744650  0.781002  0.990408  1
  O  O36  1  0.939627  0.410745  0.655720  1
  O  O37  1  0.615396  0.073608  0.334852  1
  O  O38  1  0.291179  0.757134  0.998169  1
  O  O39  1  0.240852  0.705589  0.505521  1
  O  O40  1  0.930199  0.382886  0.165913  1
  O  O41  1  0.589788  0.051800  0.844562  1
