# generated using pymatgen
data_CaCe(Si2Rh3)2
_symmetry_space_group_name_H-M   'P 1'
_cell_length_a   6.67115035
_cell_length_b   6.67114974
_cell_length_c   6.67114998
_cell_angle_alpha   130.22616235
_cell_angle_beta   115.01461052
_cell_angle_gamma   86.06322586
_symmetry_Int_Tables_number   1
_chemical_formula_structural   CaCe(Si2Rh3)2
_chemical_formula_sum   'Ca1 Ce1 Si4 Rh6'
_cell_volume   196.24606761
_cell_formula_units_Z   1
loop_
 _symmetry_equiv_pos_site_id
 _symmetry_equiv_pos_as_xyz
  1  'x, y, z'
loop_
 _atom_site_type_symbol
 _atom_site_label
 _atom_site_symmetry_multiplicity
 _atom_site_fract_x
 _atom_site_fract_y
 _atom_site_fract_z
 _atom_site_occupancy
  Ca  Ca0  1  0.250000  0.534235  0.284235  1
  Ce  Ce1  1  0.750000  0.454500  0.704500  1
  Si  Si2  1  0.081269  0.884754  0.803486  1
  Si  Si3  1  0.924825  0.119282  0.194458  1
  Si  Si4  1  0.575175  0.769633  0.194458  1
  Si  Si5  1  0.418731  0.222217  0.803486  1
  Rh  Rh6  1  0.714945  0.001548  0.716132  1
  Rh  Rh7  1  0.214584  0.501188  0.716132  1
  Rh  Rh8  1  0.285416  0.001548  0.286603  1
  Rh  Rh9  1  0.785055  0.501188  0.286603  1
  Rh  Rh10  1  0.995833  0.004954  0.500787  1
  Rh  Rh11  1  0.504167  0.004954  0.009120  1
