# generated using pymatgen
data_ZrSc3(Si3Ni5)4
_symmetry_space_group_name_H-M   'P 1'
_cell_length_a   18.44311615
_cell_length_b   3.71335500
_cell_length_c   6.63203700
_cell_angle_alpha   90.00000000
_cell_angle_beta   90.03843823
_cell_angle_gamma   90.00000000
_symmetry_Int_Tables_number   1
_chemical_formula_structural   ZrSc3(Si3Ni5)4
_chemical_formula_sum   'Zr1 Sc3 Si12 Ni20'
_cell_volume   454.20050655
_cell_formula_units_Z   1
loop_
 _symmetry_equiv_pos_site_id
 _symmetry_equiv_pos_as_xyz
  1  'x, y, z'
loop_
 _atom_site_type_symbol
 _atom_site_label
 _atom_site_symmetry_multiplicity
 _atom_site_fract_x
 _atom_site_fract_y
 _atom_site_fract_z
 _atom_site_occupancy
  Zr  Zr0  1  0.857268  0.750000  0.124332  1
  Sc  Sc1  1  0.643563  0.250000  0.622776  1
  Sc  Sc2  1  0.143461  0.250000  0.878451  1
  Sc  Sc3  1  0.356462  0.750000  0.376247  1
  Si  Si4  1  0.914147  0.250000  0.408845  1
  Si  Si5  1  0.414065  0.250000  0.091998  1
  Si  Si6  1  0.086096  0.750000  0.593890  1
  Si  Si7  1  0.585904  0.750000  0.906822  1
  Si  Si8  1  0.739950  0.250000  0.125862  1
  Si  Si9  1  0.240860  0.250000  0.372007  1
  Si  Si10  1  0.259122  0.750000  0.871514  1
  Si  Si11  1  0.759764  0.750000  0.625815  1
  Si  Si12  1  0.923095  0.250000  0.853028  1
  Si  Si13  1  0.423141  0.250000  0.648008  1
  Si  Si14  1  0.076613  0.750000  0.150282  1
  Si  Si15  1  0.576782  0.750000  0.351059  1
  Ni  Ni16  1  0.799563  0.250000  0.821417  1
  Ni  Ni17  1  0.299634  0.250000  0.678227  1
  Ni  Ni18  1  0.200249  0.750000  0.177482  1
  Ni  Ni19  1  0.700379  0.750000  0.321036  1
  Ni  Ni20  1  0.994696  0.250000  0.132403  1
  Ni  Ni21  1  0.494807  0.250000  0.368888  1
  Ni  Ni22  1  0.005142  0.750000  0.870851  1
  Ni  Ni23  1  0.505385  0.750000  0.630616  1
  Ni  Ni24  1  0.513258  0.250000  0.880023  1
  Ni  Ni25  1  0.013872  0.250000  0.622075  1
  Ni  Ni26  1  0.486275  0.750000  0.119446  1
  Ni  Ni27  1  0.986875  0.750000  0.383003  1
  Ni  Ni28  1  0.615124  0.250000  0.142092  1
  Ni  Ni29  1  0.115970  0.250000  0.358237  1
  Ni  Ni30  1  0.384117  0.750000  0.856621  1
  Ni  Ni31  1  0.884566  0.750000  0.642905  1
  Ni  Ni32  1  0.793526  0.250000  0.433017  1
  Ni  Ni33  1  0.294085  0.250000  0.064068  1
  Ni  Ni34  1  0.206023  0.750000  0.563356  1
  Ni  Ni35  1  0.706162  0.750000  0.933300  1
