# generated using pymatgen
data_HoEr19Bi12
_symmetry_space_group_name_H-M   'P 1'
_cell_length_a   8.19994001
_cell_length_b   9.48053900
_cell_length_c   11.95177601
_cell_angle_alpha   90.00000000
_cell_angle_beta   90.00431635
_cell_angle_gamma   90.00000000
_symmetry_Int_Tables_number   1
_chemical_formula_structural   HoEr19Bi12
_chemical_formula_sum   'Ho1 Er19 Bi12'
_cell_volume   929.12928372
_cell_formula_units_Z   1
loop_
 _symmetry_equiv_pos_site_id
 _symmetry_equiv_pos_as_xyz
  1  'x, y, z'
loop_
 _atom_site_type_symbol
 _atom_site_label
 _atom_site_symmetry_multiplicity
 _atom_site_fract_x
 _atom_site_fract_y
 _atom_site_fract_z
 _atom_site_occupancy
  Ho  Ho0  1  0.185614  0.750000  0.718100  1
  Er  Er1  1  0.353691  0.750000  0.216488  1
  Er  Er2  1  0.853738  0.750000  0.283634  1
  Er  Er3  1  0.646319  0.250000  0.783502  1
  Er  Er4  1  0.146272  0.250000  0.716346  1
  Er  Er5  1  0.692113  0.564524  0.059115  1
  Er  Er6  1  0.192104  0.935438  0.440919  1
  Er  Er7  1  0.307890  0.064527  0.940903  1
  Er  Er8  1  0.807906  0.435449  0.559043  1
  Er  Er9  1  0.307890  0.435473  0.940903  1
  Er  Er10  1  0.807906  0.064551  0.559043  1
  Er  Er11  1  0.692113  0.935476  0.059115  1
  Er  Er12  1  0.192104  0.564562  0.440919  1
  Er  Er13  1  0.476821  0.250000  0.489011  1
  Er  Er14  1  0.976754  0.250000  0.011001  1
  Er  Er15  1  0.523254  0.750000  0.510928  1
  Er  Er16  1  0.023205  0.750000  0.989054  1
  Er  Er17  1  0.314341  0.250000  0.218053  1
  Er  Er18  1  0.814360  0.250000  0.282103  1
  Er  Er19  1  0.685614  0.750000  0.781931  1
  Bi  Bi20  1  0.405409  0.750000  0.957524  1
  Bi  Bi21  1  0.905157  0.750000  0.542378  1
  Bi  Bi22  1  0.594667  0.250000  0.042525  1
  Bi  Bi23  1  0.094684  0.250000  0.457470  1
  Bi  Bi24  1  0.566021  0.996262  0.325681  1
  Bi  Bi25  1  0.066045  0.503744  0.174294  1
  Bi  Bi26  1  0.434101  0.496134  0.674283  1
  Bi  Bi27  1  0.933870  0.003826  0.825736  1
  Bi  Bi28  1  0.434101  0.003866  0.674283  1
  Bi  Bi29  1  0.933870  0.496174  0.825736  1
  Bi  Bi30  1  0.566021  0.503738  0.325681  1
  Bi  Bi31  1  0.066045  0.996256  0.174294  1
