# generated using pymatgen
data_NaHo(ThIr4)2
_symmetry_space_group_name_H-M   'P 1'
_cell_length_a   9.33089454
_cell_length_b   9.33089472
_cell_length_c   9.33089621
_cell_angle_alpha   33.61749529
_cell_angle_beta   33.61749214
_cell_angle_gamma   33.61749490
_symmetry_Int_Tables_number   1
_chemical_formula_structural   NaHo(ThIr4)2
_chemical_formula_sum   'Na1 Ho1 Th2 Ir8'
_cell_volume   221.82983660
_cell_formula_units_Z   1
loop_
 _symmetry_equiv_pos_site_id
 _symmetry_equiv_pos_as_xyz
  1  'x, y, z'
loop_
 _atom_site_type_symbol
 _atom_site_label
 _atom_site_symmetry_multiplicity
 _atom_site_fract_x
 _atom_site_fract_y
 _atom_site_fract_z
 _atom_site_occupancy
  Na  Na0  1  0.127354  0.127354  0.127354  1
  Ho  Ho1  1  0.623006  0.623006  0.623006  1
  Th  Th2  1  0.004640  0.004640  0.004640  1
  Th  Th3  1  0.495590  0.495590  0.495590  1
  Ir  Ir4  1  0.563437  0.563437  0.058278  1
  Ir  Ir5  1  0.063357  0.063357  0.563154  1
  Ir  Ir6  1  0.563437  0.058278  0.563437  1
  Ir  Ir7  1  0.063357  0.563154  0.063357  1
  Ir  Ir8  1  0.812266  0.812266  0.812266  1
  Ir  Ir9  1  0.312123  0.312123  0.312123  1
  Ir  Ir10  1  0.058278  0.563437  0.563437  1
  Ir  Ir11  1  0.563154  0.063357  0.063357  1
