# generated using pymatgen
data_PaHCl2
_symmetry_space_group_name_H-M   'P 1'
_cell_length_a   3.80951400
_cell_length_b   3.80951359
_cell_length_c   14.69804100
_cell_angle_alpha   90.00000000
_cell_angle_beta   90.00000000
_cell_angle_gamma   119.99998622
_symmetry_Int_Tables_number   1
_chemical_formula_structural   PaHCl2
_chemical_formula_sum   'Pa2 H2 Cl4'
_cell_volume   184.72651935
_cell_formula_units_Z   2
loop_
 _symmetry_equiv_pos_site_id
 _symmetry_equiv_pos_as_xyz
  1  'x, y, z'
loop_
 _atom_site_type_symbol
 _atom_site_label
 _atom_site_symmetry_multiplicity
 _atom_site_fract_x
 _atom_site_fract_y
 _atom_site_fract_z
 _atom_site_occupancy
  Pa  Pa0  1  0.000000  0.000000  0.250000  1
  Pa  Pa1  1  0.000000  0.000000  0.750000  1
  H  H2  1  0.666668  0.333335  0.250000  1
  H  H3  1  0.333333  0.666667  0.750000  1
  Cl  Cl4  1  0.333333  0.666667  0.121663  1
  Cl  Cl5  1  0.333333  0.666667  0.378337  1
  Cl  Cl6  1  0.666668  0.333335  0.621663  1
  Cl  Cl7  1  0.666668  0.333335  0.878337  1
