# generated using pymatgen
data_CeEr4(FeB3)2
_symmetry_space_group_name_H-M   'P 1'
_cell_length_a   5.41496190
_cell_length_b   5.41496155
_cell_length_c   7.95356686
_cell_angle_alpha   70.09807941
_cell_angle_beta   70.09809265
_cell_angle_gamma   59.99998533
_symmetry_Int_Tables_number   1
_chemical_formula_structural   CeEr4(FeB3)2
_chemical_formula_sum   'Ce1 Er4 Fe2 B6'
_cell_volume   185.71137912
_cell_formula_units_Z   1
loop_
 _symmetry_equiv_pos_site_id
 _symmetry_equiv_pos_as_xyz
  1  'x, y, z'
loop_
 _atom_site_type_symbol
 _atom_site_label
 _atom_site_symmetry_multiplicity
 _atom_site_fract_x
 _atom_site_fract_y
 _atom_site_fract_z
 _atom_site_occupancy
  Ce  Ce0  1  0.000000  0.000000  0.000000  1
  Er  Er1  1  0.252649  0.252649  0.242054  1
  Er  Er2  1  0.747351  0.747351  0.757946  1
  Er  Er3  1  0.414521  0.414521  0.756438  1
  Er  Er4  1  0.585479  0.585479  0.243562  1
  Fe  Fe5  1  0.110091  0.110091  0.669726  1
  Fe  Fe6  1  0.889909  0.889909  0.330274  1
  B  B7  1  0.167453  0.832547  0.500000  1
  B  B8  1  0.832547  0.500000  0.500000  1
  B  B9  1  0.500000  0.167453  0.500000  1
  B  B10  1  0.167453  0.500000  0.500000  1
  B  B11  1  0.500000  0.832547  0.500000  1
  B  B12  1  0.832547  0.167453  0.500000  1
