# generated using pymatgen
data_LiHo2Er3(Si3Ru)8
_symmetry_space_group_name_H-M   'P 1'
_cell_length_a   10.09972704
_cell_length_b   10.09972647
_cell_length_c   8.07759101
_cell_angle_alpha   89.99572513
_cell_angle_beta   89.99573560
_cell_angle_gamma   132.76691201
_symmetry_Int_Tables_number   1
_chemical_formula_structural   LiHo2Er3(Si3Ru)8
_chemical_formula_sum   'Li1 Ho2 Er3 Si24 Ru8'
_cell_volume   604.88025556
_cell_formula_units_Z   1
loop_
 _symmetry_equiv_pos_site_id
 _symmetry_equiv_pos_as_xyz
  1  'x, y, z'
loop_
 _atom_site_type_symbol
 _atom_site_label
 _atom_site_symmetry_multiplicity
 _atom_site_fract_x
 _atom_site_fract_y
 _atom_site_fract_z
 _atom_site_occupancy
  Li  Li0  1  0.500003  0.499997  0.500000  1
  Ho  Ho1  1  0.498094  0.998102  0.250735  1
  Ho  Ho2  1  0.001898  0.501906  0.749265  1
  Er  Er3  1  0.000006  0.999994  0.000000  1
  Er  Er4  1  0.501930  0.001925  0.749173  1
  Er  Er5  1  0.998075  0.498070  0.250827  1
  Si  Si6  1  0.796797  0.203203  0.500000  1
  Si  Si7  1  0.296494  0.703506  0.000000  1
  Si  Si8  1  0.203214  0.796786  0.500000  1
  Si  Si9  1  0.703495  0.296505  0.000000  1
  Si  Si10  1  0.336616  0.336623  0.827261  1
  Si  Si11  1  0.663377  0.663384  0.172739  1
  Si  Si12  1  0.172176  0.172181  0.336301  1
  Si  Si13  1  0.827819  0.827824  0.663699  1
  Si  Si14  1  0.123626  0.890348  0.728737  1
  Si  Si15  1  0.109652  0.876374  0.271263  1
  Si  Si16  1  0.607482  0.378133  0.234337  1
  Si  Si17  1  0.621867  0.392518  0.765663  1
  Si  Si18  1  0.876528  0.109792  0.271287  1
  Si  Si19  1  0.890208  0.123472  0.728713  1
  Si  Si20  1  0.392651  0.622008  0.765636  1
  Si  Si21  1  0.377992  0.607349  0.234364  1
  Si  Si22  1  0.349690  0.120593  0.507543  1
  Si  Si23  1  0.879407  0.650310  0.492457  1
  Si  Si24  1  0.387793  0.154546  0.006233  1
  Si  Si25  1  0.845454  0.612207  0.993767  1
  Si  Si26  1  0.650347  0.879416  0.492604  1
  Si  Si27  1  0.120584  0.349653  0.507396  1
  Si  Si28  1  0.612218  0.845497  0.993629  1
  Si  Si29  1  0.154503  0.387782  0.006371  1
  Ru  Ru30  1  0.672056  0.327944  0.500000  1
  Ru  Ru31  1  0.170951  0.829049  0.000000  1
  Ru  Ru32  1  0.327940  0.672060  0.500000  1
  Ru  Ru33  1  0.829050  0.170950  0.000000  1
  Ru  Ru34  1  0.124144  0.124119  0.628869  1
  Ru  Ru35  1  0.875881  0.875856  0.371131  1
  Ru  Ru36  1  0.370776  0.370796  0.124076  1
  Ru  Ru37  1  0.629204  0.629224  0.875924  1
