# generated using pymatgen
data_U2Pa3(AlGa4)3
_symmetry_space_group_name_H-M   'P 1'
_cell_length_a   12.58466413
_cell_length_b   12.58466455
_cell_length_c   12.58466500
_cell_angle_alpha   28.20524375
_cell_angle_beta   28.20524021
_cell_angle_gamma   28.20524854
_symmetry_Int_Tables_number   1
_chemical_formula_structural   U2Pa3(AlGa4)3
_chemical_formula_sum   'U2 Pa3 Al3 Ga12'
_cell_volume   393.34533469
_cell_formula_units_Z   1
loop_
 _symmetry_equiv_pos_site_id
 _symmetry_equiv_pos_as_xyz
  1  'x, y, z'
loop_
 _atom_site_type_symbol
 _atom_site_label
 _atom_site_symmetry_multiplicity
 _atom_site_fract_x
 _atom_site_fract_y
 _atom_site_fract_z
 _atom_site_occupancy
  U  U0  1  0.000437  0.000437  0.000437  1
  U  U1  1  0.598188  0.598188  0.598188  1
  Pa  Pa2  1  0.130316  0.130316  0.130316  1
  Pa  Pa3  1  0.869838  0.869838  0.869838  1
  Pa  Pa4  1  0.401381  0.401381  0.401381  1
  Al  Al5  1  0.500255  0.500255  0.998484  1
  Al  Al6  1  0.500255  0.998484  0.500255  1
  Al  Al7  1  0.998484  0.500255  0.500255  1
  Ga  Ga8  1  0.126120  0.637808  0.637808  1
  Ga  Ga9  1  0.637808  0.637808  0.126120  1
  Ga  Ga10  1  0.637808  0.126120  0.637808  1
  Ga  Ga11  1  0.362808  0.874336  0.362808  1
  Ga  Ga12  1  0.362808  0.362808  0.874336  1
  Ga  Ga13  1  0.874336  0.362808  0.362808  1
  Ga  Ga14  1  0.430219  0.882166  0.882166  1
  Ga  Ga15  1  0.882166  0.882166  0.430219  1
  Ga  Ga16  1  0.882166  0.430219  0.882166  1
  Ga  Ga17  1  0.116767  0.571074  0.116767  1
  Ga  Ga18  1  0.116767  0.116767  0.571074  1
  Ga  Ga19  1  0.571074  0.116767  0.116767  1
