# generated using pymatgen
data_SmF37
_symmetry_space_group_name_H-M   'P 1'
_cell_length_a   6.30448476
_cell_length_b   10.82614954
_cell_length_c   10.73156295
_cell_angle_alpha   87.09452632
_cell_angle_beta   98.14543444
_cell_angle_gamma   73.44722123
_symmetry_Int_Tables_number   1
_chemical_formula_structural   SmF37
_chemical_formula_sum   'Sm1 F37'
_cell_volume   691.81899995
_cell_formula_units_Z   1
loop_
 _symmetry_equiv_pos_site_id
 _symmetry_equiv_pos_as_xyz
  1  'x, y, z'
loop_
 _atom_site_type_symbol
 _atom_site_label
 _atom_site_symmetry_multiplicity
 _atom_site_fract_x
 _atom_site_fract_y
 _atom_site_fract_z
 _atom_site_occupancy
  Sm  Sm0  1  0.209573  0.196841  0.182280  1
  F  F1  1  0.717336  0.853998  0.732517  1
  F  F2  1  0.306632  0.383068  0.888661  1
  F  F3  1  0.692158  0.622132  0.091645  1
  F  F4  1  0.326332  0.239587  0.569200  1
  F  F5  1  0.686945  0.749483  0.443664  1
  F  F6  1  0.865925  0.198334  0.824446  1
  F  F7  1  0.116837  0.785644  0.192678  1
  F  F8  1  0.666050  0.891931  0.009403  1
  F  F9  1  0.294212  0.154397  0.992480  1
  F  F10  1  0.790146  0.590003  0.836392  1
  F  F11  1  0.198548  0.399920  0.126350  1
  F  F12  1  0.439885  0.445062  0.826945  1
  F  F13  1  0.557143  0.569364  0.161630  1
  F  F14  1  0.793407  0.576297  0.705143  1
  F  F15  1  0.257988  0.350102  0.313722  1
  F  F16  1  0.784129  0.024525  0.518970  1
  F  F17  1  0.240428  0.029554  0.413149  1
  F  F18  1  0.294569  0.191891  0.689340  1
  F  F19  1  0.697544  0.796207  0.318792  1
  F  F20  1  0.833858  0.085606  0.630059  1
  F  F21  1  0.184483  0.924340  0.352104  1
  F  F22  1  0.802764  0.971904  0.984257  1
  F  F23  1  0.206651  0.014006  0.084554  1
  F  F24  1  0.888620  0.322398  0.790907  1
  F  F25  1  0.120511  0.654627  0.218624  1
  F  F26  1  0.167850  0.713868  0.922537  1
  F  F27  1  0.826203  0.258108  0.115495  1
  F  F28  1  0.483286  0.919035  0.717837  1
  F  F29  1  0.567997  0.074598  0.276133  1
  F  F30  1  0.124227  0.770354  0.583650  1
  F  F31  1  0.917825  0.251950  0.403546  1
  F  F32  1  0.199478  0.646136  0.653952  1
  F  F33  1  0.790797  0.381330  0.355029  1
  F  F34  1  0.283159  0.798715  0.878181  1
  F  F35  1  0.695201  0.165783  0.194450  1
  F  F36  1  0.492761  0.442247  0.538938  1
  F  F37  1  0.478539  0.556658  0.462337  1
