# generated using pymatgen
data_LuTh3(Al3Rh)6
_symmetry_space_group_name_H-M   'P 1'
_cell_length_a   7.66169268
_cell_length_b   7.65105009
_cell_length_c   9.51254600
_cell_angle_alpha   90.00000000
_cell_angle_beta   90.00000000
_cell_angle_gamma   119.41863600
_symmetry_Int_Tables_number   1
_chemical_formula_structural   LuTh3(Al3Rh)6
_chemical_formula_sum   'Lu1 Th3 Al18 Rh6'
_cell_volume   485.72188208
_cell_formula_units_Z   1
loop_
 _symmetry_equiv_pos_site_id
 _symmetry_equiv_pos_as_xyz
  1  'x, y, z'
loop_
 _atom_site_type_symbol
 _atom_site_label
 _atom_site_symmetry_multiplicity
 _atom_site_fract_x
 _atom_site_fract_y
 _atom_site_fract_z
 _atom_site_occupancy
  Lu  Lu0  1  0.994039  0.672426  0.250000  1
  Th  Th1  1  0.005562  0.329607  0.750000  1
  Th  Th2  1  0.671406  0.995841  0.250000  1
  Th  Th3  1  0.328345  0.004934  0.750000  1
  Al  Al4  1  0.130340  0.129112  0.250000  1
  Al  Al5  1  0.867576  0.864882  0.750000  1
  Al  Al6  1  0.004418  0.341299  0.078689  1
  Al  Al7  1  0.996151  0.664860  0.932278  1
  Al  Al8  1  0.996151  0.664860  0.567722  1
  Al  Al9  1  0.330097  0.998551  0.421373  1
  Al  Al10  1  0.004418  0.341299  0.421311  1
  Al  Al11  1  0.664156  0.994256  0.574094  1
  Al  Al12  1  0.664156  0.994256  0.925906  1
  Al  Al13  1  0.330097  0.998551  0.078627  1
  Al  Al14  1  0.336506  0.336480  0.543280  1
  Al  Al15  1  0.667720  0.663755  0.447148  1
  Al  Al16  1  0.667720  0.663755  0.052852  1
  Al  Al17  1  0.336506  0.336480  0.956720  1
  Al  Al18  1  0.338056  0.547592  0.250000  1
  Al  Al19  1  0.661262  0.455578  0.750000  1
  Al  Al20  1  0.551381  0.344251  0.250000  1
  Al  Al21  1  0.454988  0.658656  0.750000  1
  Rh  Rh22  1  0.671437  0.325790  0.000518  1
  Rh  Rh23  1  0.328584  0.672634  0.000434  1
  Rh  Rh24  1  0.328584  0.672634  0.499566  1
  Rh  Rh25  1  0.671437  0.325790  0.499482  1
  Rh  Rh26  1  0.999453  0.000935  0.000494  1
  Rh  Rh27  1  0.999453  0.000935  0.499506  1
