# generated using pymatgen
data_Hf4Nb2Ga5Ge
_symmetry_space_group_name_H-M   'P 1'
_cell_length_a   5.52696300
_cell_length_b   8.45715423
_cell_length_c   9.12783825
_cell_angle_alpha   89.97331040
_cell_angle_beta   90.00000000
_cell_angle_gamma   90.00000000
_symmetry_Int_Tables_number   1
_chemical_formula_structural   Hf4Nb2Ga5Ge
_chemical_formula_sum   'Hf8 Nb4 Ga10 Ge2'
_cell_volume   426.65682407
_cell_formula_units_Z   2
loop_
 _symmetry_equiv_pos_site_id
 _symmetry_equiv_pos_as_xyz
  1  'x, y, z'
loop_
 _atom_site_type_symbol
 _atom_site_label
 _atom_site_symmetry_multiplicity
 _atom_site_fract_x
 _atom_site_fract_y
 _atom_site_fract_z
 _atom_site_occupancy
  Hf  Hf0  1  0.750000  0.469821  0.620563  1
  Hf  Hf1  1  0.250000  0.530179  0.379437  1
  Hf  Hf2  1  0.750000  0.971219  0.374317  1
  Hf  Hf3  1  0.250000  0.028781  0.625683  1
  Hf  Hf4  1  0.750000  0.367833  0.184719  1
  Hf  Hf5  1  0.250000  0.632167  0.815281  1
  Hf  Hf6  1  0.750000  0.871063  0.817316  1
  Hf  Hf7  1  0.250000  0.128937  0.182684  1
  Nb  Nb8  1  0.000065  0.752362  0.111594  1
  Nb  Nb9  1  0.500065  0.247638  0.888406  1
  Nb  Nb10  1  0.999935  0.247638  0.888406  1
  Nb  Nb11  1  0.499935  0.752362  0.111594  1
  Ga  Ga12  1  0.998886  0.750550  0.571659  1
  Ga  Ga13  1  0.498886  0.249450  0.428341  1
  Ga  Ga14  1  0.001114  0.249450  0.428341  1
  Ga  Ga15  1  0.501114  0.750550  0.571659  1
  Ga  Ga16  1  0.750000  0.545964  0.920379  1
  Ga  Ga17  1  0.250000  0.454036  0.079621  1
  Ga  Ga18  1  0.750000  0.133609  0.649548  1
  Ga  Ga19  1  0.250000  0.866391  0.350452  1
  Ga  Ga20  1  0.750000  0.633420  0.348061  1
  Ga  Ga21  1  0.250000  0.366580  0.651939  1
  Ge  Ge22  1  0.750000  0.049062  0.080078  1
  Ge  Ge23  1  0.250000  0.950938  0.919922  1
