# generated using pymatgen
data_ZrSc4TiSn5
_symmetry_space_group_name_H-M   'P 1'
_cell_length_a   10.89484286
_cell_length_b   10.89484198
_cell_length_c   10.90587189
_cell_angle_alpha   148.37218055
_cell_angle_beta   131.99671743
_cell_angle_gamma   58.52679106
_symmetry_Int_Tables_number   1
_chemical_formula_structural   ZrSc4TiSn5
_chemical_formula_sum   'Zr2 Sc8 Ti2 Sn10'
_cell_volume   500.72032375
_cell_formula_units_Z   2
loop_
 _symmetry_equiv_pos_site_id
 _symmetry_equiv_pos_as_xyz
  1  'x, y, z'
loop_
 _atom_site_type_symbol
 _atom_site_label
 _atom_site_symmetry_multiplicity
 _atom_site_fract_x
 _atom_site_fract_y
 _atom_site_fract_z
 _atom_site_occupancy
  Zr  Zr0  1  0.306102  0.556102  0.250000  1
  Zr  Zr1  1  0.693898  0.443898  0.750000  1
  Sc  Sc2  1  0.674748  0.438530  0.238753  1
  Sc  Sc3  1  0.325252  0.561470  0.761247  1
  Sc  Sc4  1  0.199775  0.935995  0.261247  1
  Sc  Sc5  1  0.800225  0.064005  0.738753  1
  Sc  Sc6  1  0.256484  0.144255  0.112076  1
  Sc  Sc7  1  0.743516  0.855745  0.887924  1
  Sc  Sc8  1  0.032179  0.644409  0.387924  1
  Sc  Sc9  1  0.967821  0.355591  0.612076  1
  Ti  Ti10  1  0.692089  0.942089  0.250000  1
  Ti  Ti11  1  0.307911  0.057911  0.750000  1
  Sn  Sn12  1  0.590097  0.276987  0.287275  1
  Sn  Sn13  1  0.409903  0.723013  0.712725  1
  Sn  Sn14  1  0.989712  0.802822  0.212725  1
  Sn  Sn15  1  0.010288  0.197178  0.787275  1
  Sn  Sn16  1  0.000527  0.250527  0.250000  1
  Sn  Sn17  1  0.999473  0.749473  0.750000  1
  Sn  Sn18  1  0.473326  0.065441  0.392914  1
  Sn  Sn19  1  0.526674  0.934559  0.607086  1
  Sn  Sn20  1  0.672527  0.580410  0.107086  1
  Sn  Sn21  1  0.327473  0.419590  0.892914  1
