# generated using pymatgen
data_CaSm6NiBr12
_symmetry_space_group_name_H-M   'P 1'
_cell_length_a   9.37637353
_cell_length_b   9.37637305
_cell_length_c   9.37637287
_cell_angle_alpha   106.71474024
_cell_angle_beta   106.71473347
_cell_angle_gamma   106.71472925
_symmetry_Int_Tables_number   1
_chemical_formula_structural   CaSm6NiBr12
_chemical_formula_sum   'Ca1 Sm6 Ni1 Br12'
_cell_volume   691.78826901
_cell_formula_units_Z   1
loop_
 _symmetry_equiv_pos_site_id
 _symmetry_equiv_pos_as_xyz
  1  'x, y, z'
loop_
 _atom_site_type_symbol
 _atom_site_label
 _atom_site_symmetry_multiplicity
 _atom_site_fract_x
 _atom_site_fract_y
 _atom_site_fract_z
 _atom_site_occupancy
  Ca  Ca0  1  0.500000  0.500000  0.500000  1
  Sm  Sm1  1  0.102973  0.023548  0.309719  1
  Sm  Sm2  1  0.023548  0.309719  0.102973  1
  Sm  Sm3  1  0.309719  0.102973  0.023548  1
  Sm  Sm4  1  0.897026  0.976452  0.690281  1
  Sm  Sm5  1  0.976452  0.690281  0.897026  1
  Sm  Sm6  1  0.690281  0.897026  0.976452  1
  Ni  Ni7  1  0.000000  0.000000  0.000000  1
  Br  Br8  1  0.073720  0.680536  0.220823  1
  Br  Br9  1  0.680536  0.220823  0.073720  1
  Br  Br10  1  0.220823  0.073720  0.680536  1
  Br  Br11  1  0.926280  0.319464  0.779177  1
  Br  Br12  1  0.319464  0.779177  0.926280  1
  Br  Br13  1  0.779177  0.926280  0.319464  1
  Br  Br14  1  0.454982  0.160292  0.376284  1
  Br  Br15  1  0.160292  0.376284  0.454982  1
  Br  Br16  1  0.376284  0.454982  0.160292  1
  Br  Br17  1  0.545018  0.839708  0.623716  1
  Br  Br18  1  0.839708  0.623716  0.545018  1
  Br  Br19  1  0.623716  0.545018  0.839708  1
