# generated using pymatgen
data_PrTm4P12IrRu18
_symmetry_space_group_name_H-M   'P 1'
_cell_length_a   12.54475100
_cell_length_b   12.54475107
_cell_length_c   3.97990500
_cell_angle_alpha   90.00000000
_cell_angle_beta   90.00000000
_cell_angle_gamma   119.99999190
_symmetry_Int_Tables_number   1
_chemical_formula_structural   PrTm4P12IrRu18
_chemical_formula_sum   'Pr1 Tm4 P12 Ir1 Ru18'
_cell_volume   542.40972336
_cell_formula_units_Z   1
loop_
 _symmetry_equiv_pos_site_id
 _symmetry_equiv_pos_as_xyz
  1  'x, y, z'
loop_
 _atom_site_type_symbol
 _atom_site_label
 _atom_site_symmetry_multiplicity
 _atom_site_fract_x
 _atom_site_fract_y
 _atom_site_fract_z
 _atom_site_occupancy
  Pr  Pr0  1  0.333333  0.666667  0.500000  1
  Tm  Tm1  1  0.666667  0.333333  0.500000  1
  Tm  Tm2  1  0.185972  0.185998  0.000000  1
  Tm  Tm3  1  0.814002  0.999974  0.000000  1
  Tm  Tm4  1  0.000026  0.814028  0.000000  1
  P  P5  1  0.306894  0.832547  0.000000  1
  P  P6  1  0.167453  0.474347  0.000000  1
  P  P7  1  0.525653  0.693106  0.000000  1
  P  P8  1  0.828721  0.306852  0.000000  1
  P  P9  1  0.478131  0.171279  0.000000  1
  P  P10  1  0.693148  0.521869  0.000000  1
  P  P11  1  0.372969  0.373045  0.500000  1
  P  P12  1  0.626955  0.999924  0.500000  1
  P  P13  1  0.000076  0.627031  0.500000  1
  P  P14  1  0.816532  0.814984  0.500000  1
  P  P15  1  0.185016  0.001548  0.500000  1
  P  P16  1  0.998452  0.183468  0.500000  1
  Ir  Ir17  1  0.000000  0.000000  0.500000  1
  Ru  Ru18  1  0.190095  0.816835  0.500000  1
  Ru  Ru19  1  0.183165  0.373260  0.500000  1
  Ru  Ru20  1  0.626740  0.809905  0.500000  1
  Ru  Ru21  1  0.813941  0.190979  0.500000  1
  Ru  Ru22  1  0.377038  0.186059  0.500000  1
  Ru  Ru23  1  0.809021  0.622962  0.500000  1
  Ru  Ru24  1  0.123172  0.634923  0.000000  1
  Ru  Ru25  1  0.365077  0.488248  0.000000  1
  Ru  Ru26  1  0.511752  0.876828  0.000000  1
  Ru  Ru27  1  0.634666  0.127867  0.000000  1
  Ru  Ru28  1  0.493200  0.365334  0.000000  1
  Ru  Ru29  1  0.872133  0.506800  0.000000  1
  Ru  Ru30  1  0.555715  0.555352  0.500000  1
  Ru  Ru31  1  0.444648  0.000363  0.500000  1
  Ru  Ru32  1  0.999637  0.444285  0.500000  1
  Ru  Ru33  1  0.720477  0.718702  0.000000  1
  Ru  Ru34  1  0.281298  0.001775  0.000000  1
  Ru  Ru35  1  0.998225  0.279523  0.000000  1
