# generated using pymatgen
data_Zr6Sc8Al8Pt4Rh3
_symmetry_space_group_name_H-M   'P 1'
_cell_length_a   9.11600363
_cell_length_b   9.13624014
_cell_length_c   9.13624000
_cell_angle_alpha   60.00000049
_cell_angle_beta   59.92653997
_cell_angle_gamma   59.92654274
_symmetry_Int_Tables_number   1
_chemical_formula_structural   Zr6Sc8Al8Pt4Rh3
_chemical_formula_sum   'Zr6 Sc8 Al8 Pt4 Rh3'
_cell_volume   537.45411980
_cell_formula_units_Z   1
loop_
 _symmetry_equiv_pos_site_id
 _symmetry_equiv_pos_as_xyz
  1  'x, y, z'
loop_
 _atom_site_type_symbol
 _atom_site_label
 _atom_site_symmetry_multiplicity
 _atom_site_fract_x
 _atom_site_fract_y
 _atom_site_fract_z
 _atom_site_occupancy
  Zr  Zr0  1  0.679465  0.681360  0.319588  1
  Zr  Zr1  1  0.320535  0.680412  0.318640  1
  Zr  Zr2  1  0.679465  0.319588  0.319588  1
  Zr  Zr3  1  0.320535  0.318640  0.680412  1
  Zr  Zr4  1  0.679465  0.319588  0.681360  1
  Zr  Zr5  1  0.320535  0.680412  0.680412  1
  Sc  Sc6  1  0.873053  0.881186  0.364574  1
  Sc  Sc7  1  0.873053  0.364574  0.881186  1
  Sc  Sc8  1  0.370786  0.876404  0.876404  1
  Sc  Sc9  1  0.873053  0.881186  0.881186  1
  Sc  Sc10  1  0.126947  0.118814  0.635426  1
  Sc  Sc11  1  0.126947  0.635426  0.118814  1
  Sc  Sc12  1  0.629214  0.123596  0.123596  1
  Sc  Sc13  1  0.126947  0.118814  0.118814  1
  Al  Al14  1  0.661226  0.661223  0.016326  1
  Al  Al15  1  0.661226  0.016326  0.661223  1
  Al  Al16  1  0.015806  0.661398  0.661398  1
  Al  Al17  1  0.661226  0.661223  0.661223  1
  Al  Al18  1  0.338774  0.338777  0.983674  1
  Al  Al19  1  0.338774  0.983674  0.338777  1
  Al  Al20  1  0.984194  0.338602  0.338602  1
  Al  Al21  1  0.338774  0.338777  0.338777  1
  Pt  Pt22  1  0.000000  0.000000  0.000000  1
  Pt  Pt23  1  0.000000  0.000000  0.500000  1
  Pt  Pt24  1  0.000000  0.500000  0.500000  1
  Pt  Pt25  1  0.000000  0.500000  0.000000  1
  Rh  Rh26  1  0.500000  0.000000  0.500000  1
  Rh  Rh27  1  0.500000  0.500000  0.000000  1
  Rh  Rh28  1  0.500000  0.000000  0.000000  1
