# generated using pymatgen
data_LaDy3(Si5Os3)2
_symmetry_space_group_name_H-M   'P 1'
_cell_length_a   8.25181464
_cell_length_b   8.30808508
_cell_length_c   8.30808500
_cell_angle_alpha   139.91184211
_cell_angle_beta   108.43953125
_cell_angle_gamma   85.42544957
_symmetry_Int_Tables_number   1
_chemical_formula_structural   LaDy3(Si5Os3)2
_chemical_formula_sum   'La1 Dy3 Si10 Os6'
_cell_volume   335.46155438
_cell_formula_units_Z   1
loop_
 _symmetry_equiv_pos_site_id
 _symmetry_equiv_pos_as_xyz
  1  'x, y, z'
loop_
 _atom_site_type_symbol
 _atom_site_label
 _atom_site_symmetry_multiplicity
 _atom_site_fract_x
 _atom_site_fract_y
 _atom_site_fract_z
 _atom_site_occupancy
  La  La0  1  0.907105  0.137098  0.770007  1
  Dy  Dy1  1  0.089784  0.860794  0.228990  1
  Dy  Dy2  1  0.633197  0.368690  0.264507  1
  Dy  Dy3  1  0.369961  0.633506  0.736455  1
  Si  Si4  1  0.003207  0.751418  0.754483  1
  Si  Si5  1  0.003207  0.248724  0.251788  1
  Si  Si6  1  0.712642  0.475974  0.771203  1
  Si  Si7  1  0.287218  0.058446  0.760552  1
  Si  Si8  1  0.287218  0.526664  0.228771  1
  Si  Si9  1  0.712642  0.941440  0.236668  1
  Si  Si10  1  0.228502  0.401395  0.827107  1
  Si  Si11  1  0.570039  0.906483  0.663557  1
  Si  Si12  1  0.423595  0.088906  0.334688  1
  Si  Si13  1  0.769616  0.599270  0.170346  1
  Os  Os14  1  0.754204  0.856475  0.897731  1
  Os  Os15  1  0.498228  0.252363  0.751413  1
  Os  Os16  1  0.936079  0.349922  0.586157  1
  Os  Os17  1  0.065824  0.651111  0.414713  1
  Os  Os18  1  0.249503  0.144505  0.104997  1
  Os  Os19  1  0.498228  0.746816  0.245866  1
