# generated using pymatgen
data_GaBr37
_symmetry_space_group_name_H-M   'P 1'
_cell_length_a   14.20848141
_cell_length_b   15.29732181
_cell_length_c   14.42416200
_cell_angle_alpha   103.00376457
_cell_angle_beta   48.80056783
_cell_angle_gamma   81.50743146
_symmetry_Int_Tables_number   1
_chemical_formula_structural   GaBr37
_chemical_formula_sum   'Ga1 Br37'
_cell_volume   2102.91272627
_cell_formula_units_Z   1
loop_
 _symmetry_equiv_pos_site_id
 _symmetry_equiv_pos_as_xyz
  1  'x, y, z'
loop_
 _atom_site_type_symbol
 _atom_site_label
 _atom_site_symmetry_multiplicity
 _atom_site_fract_x
 _atom_site_fract_y
 _atom_site_fract_z
 _atom_site_occupancy
  Ga  Ga0  1  0.500000  0.000000  0.000000  1
  Br  Br1  1  0.790225  0.299754  0.134740  1
  Br  Br2  1  0.209775  0.700246  0.865260  1
  Br  Br3  1  0.743011  0.084528  0.363587  1
  Br  Br4  1  0.256989  0.915472  0.636413  1
  Br  Br5  1  0.120110  0.349866  0.171280  1
  Br  Br6  1  0.879890  0.650134  0.828720  1
  Br  Br7  1  0.865797  0.531060  0.246848  1
  Br  Br8  1  0.134203  0.468940  0.753152  1
  Br  Br9  1  0.684175  0.276235  0.523058  1
  Br  Br10  1  0.315825  0.723765  0.476942  1
  Br  Br11  1  0.022466  0.144984  0.516738  1
  Br  Br12  1  0.977534  0.855016  0.483262  1
  Br  Br13  1  0.977058  0.010698  0.285830  1
  Br  Br14  1  0.022942  0.989302  0.714170  1
  Br  Br15  1  0.936589  0.338359  0.615635  1
  Br  Br16  1  0.063411  0.661641  0.384365  1
  Br  Br17  1  0.580881  0.428609  0.233657  1
  Br  Br18  1  0.419119  0.571391  0.766343  1
  Br  Br19  1  0.170588  0.478904  0.286815  1
  Br  Br20  1  0.829412  0.521096  0.713185  1
  Br  Br21  1  0.000000  0.500000  0.000000  1
  Br  Br22  1  0.548386  0.971675  0.144715  1
  Br  Br23  1  0.451614  0.028325  0.855285  1
  Br  Br24  1  0.284316  0.061370  0.332103  1
  Br  Br25  1  0.715684  0.938630  0.667897  1
  Br  Br26  1  0.530145  0.133269  0.414382  1
  Br  Br27  1  0.469855  0.866731  0.585618  1
  Br  Br28  1  0.097473  0.217525  0.068870  1
  Br  Br29  1  0.902527  0.782475  0.931130  1
  Br  Br30  1  0.664168  0.691612  0.402810  1
  Br  Br31  1  0.335832  0.308388  0.597190  1
  Br  Br32  1  0.901950  0.145425  0.921293  1
  Br  Br33  1  0.098050  0.854575  0.078707  1
  Br  Br34  1  0.500439  0.153865  0.047755  1
  Br  Br35  1  0.499561  0.846135  0.952245  1
  Br  Br36  1  0.649112  0.430897  0.651117  1
  Br  Br37  1  0.350888  0.569103  0.348883  1
