# generated using pymatgen
data_Tb2Sm3Bi3O14
_symmetry_space_group_name_H-M   'P 1'
_cell_length_a   6.65393317
_cell_length_b   6.69716074
_cell_length_c   7.82651333
_cell_angle_alpha   106.72597592
_cell_angle_beta   89.67778613
_cell_angle_gamma   98.50096637
_symmetry_Int_Tables_number   1
_chemical_formula_structural   Tb2Sm3Bi3O14
_chemical_formula_sum   'Tb2 Sm3 Bi3 O14'
_cell_volume   330.09229181
_cell_formula_units_Z   1
loop_
 _symmetry_equiv_pos_site_id
 _symmetry_equiv_pos_as_xyz
  1  'x, y, z'
loop_
 _atom_site_type_symbol
 _atom_site_label
 _atom_site_symmetry_multiplicity
 _atom_site_fract_x
 _atom_site_fract_y
 _atom_site_fract_z
 _atom_site_occupancy
  Tb  Tb0  1  0.459323  0.008123  0.254786  1
  Tb  Tb1  1  0.538040  0.999737  0.749806  1
  Sm  Sm2  1  0.270312  0.535553  0.882549  1
  Sm  Sm3  1  0.739791  0.459204  0.113862  1
  Sm  Sm4  1  0.746926  0.480820  0.618459  1
  Bi  Bi5  1  0.993983  0.999337  0.500200  1
  Bi  Bi6  1  0.998953  0.995708  0.997535  1
  Bi  Bi7  1  0.284455  0.535933  0.389196  1
  O  O8  1  0.449261  0.654621  0.171086  1
  O  O9  1  0.557268  0.352041  0.834199  1
  O  O10  1  0.301831  0.924840  0.952153  1
  O  O11  1  0.698165  0.071295  0.049738  1
  O  O12  1  0.296473  0.932233  0.516344  1
  O  O13  1  0.698502  0.081907  0.491012  1
  O  O14  1  0.546485  0.360285  0.343908  1
  O  O15  1  0.459417  0.643815  0.655022  1
  O  O16  1  0.927155  0.663879  0.948200  1
  O  O17  1  0.068719  0.321143  0.028283  1
  O  O18  1  0.068339  0.335027  0.626154  1
  O  O19  1  0.906849  0.667477  0.383001  1
  O  O20  1  0.872786  0.904627  0.726662  1
  O  O21  1  0.116968  0.072396  0.267845  1
