# generated using pymatgen
data_Dy11Ho5(ZnIn3)2
_symmetry_space_group_name_H-M   'P 1'
_cell_length_a   10.65268874
_cell_length_b   10.65268742
_cell_length_c   6.75736009
_cell_angle_alpha   89.99708561
_cell_angle_beta   90.00291090
_cell_angle_gamma   120.01000686
_symmetry_Int_Tables_number   1
_chemical_formula_structural   Dy11Ho5(ZnIn3)2
_chemical_formula_sum   'Dy11 Ho5 Zn2 In6'
_cell_volume   664.02176282
_cell_formula_units_Z   1
loop_
 _symmetry_equiv_pos_site_id
 _symmetry_equiv_pos_as_xyz
  1  'x, y, z'
loop_
 _atom_site_type_symbol
 _atom_site_label
 _atom_site_symmetry_multiplicity
 _atom_site_fract_x
 _atom_site_fract_y
 _atom_site_fract_z
 _atom_site_occupancy
  Dy  Dy0  1  0.478734  0.521266  0.017288  1
  Dy  Dy1  1  0.172591  0.345404  0.734085  1
  Dy  Dy2  1  0.654596  0.827409  0.734085  1
  Dy  Dy3  1  0.172649  0.827351  0.734787  1
  Dy  Dy4  1  0.827522  0.654466  0.234405  1
  Dy  Dy5  1  0.345534  0.172478  0.234405  1
  Dy  Dy6  1  0.827143  0.172857  0.234671  1
  Dy  Dy7  1  0.666830  0.333170  0.865887  1
  Dy  Dy8  1  0.333215  0.666785  0.366418  1
  Dy  Dy9  1  0.000047  0.999953  0.499260  1
  Dy  Dy10  1  0.999931  0.000069  0.999489  1
  Ho  Ho11  1  0.521005  0.042331  0.517503  1
  Ho  Ho12  1  0.957669  0.478995  0.517503  1
  Ho  Ho13  1  0.521207  0.478793  0.517230  1
  Ho  Ho14  1  0.478969  0.957433  0.017518  1
  Ho  Ho15  1  0.042567  0.521031  0.017518  1
  Zn  Zn16  1  0.666609  0.333391  0.301774  1
  Zn  Zn17  1  0.333086  0.666914  0.801544  1
  In  In18  1  0.835348  0.670691  0.749643  1
  In  In19  1  0.329309  0.164652  0.749643  1
  In  In20  1  0.835289  0.164711  0.749719  1
  In  In21  1  0.164382  0.328929  0.250042  1
  In  In22  1  0.671071  0.835618  0.250042  1
  In  In23  1  0.164697  0.835303  0.249743  1
