# generated using pymatgen
data_Ho2Si6Ni8PRu4
_symmetry_space_group_name_H-M   'P 1'
_cell_length_a   9.37040085
_cell_length_b   9.27287458
_cell_length_c   3.72879700
_cell_angle_alpha   90.00000000
_cell_angle_beta   90.00000000
_cell_angle_gamma   120.00302265
_symmetry_Int_Tables_number   1
_chemical_formula_structural   Ho2Si6Ni8PRu4
_chemical_formula_sum   'Ho2 Si6 Ni8 P1 Ru4'
_cell_volume   280.58128450
_cell_formula_units_Z   1
loop_
 _symmetry_equiv_pos_site_id
 _symmetry_equiv_pos_as_xyz
  1  'x, y, z'
loop_
 _atom_site_type_symbol
 _atom_site_label
 _atom_site_symmetry_multiplicity
 _atom_site_fract_x
 _atom_site_fract_y
 _atom_site_fract_z
 _atom_site_occupancy
  Ho  Ho0  1  0.668615  0.332381  0.500000  1
  Ho  Ho1  1  0.328120  0.667267  0.000000  1
  Si  Si2  1  0.007600  0.001998  0.500000  1
  Si  Si3  1  0.701452  0.098540  0.000000  1
  Si  Si4  1  0.109237  0.396459  0.500000  1
  Si  Si5  1  0.601862  0.725264  0.500000  1
  Si  Si6  1  0.885940  0.599222  0.000000  1
  Si  Si7  1  0.402386  0.294412  0.000000  1
  Ni  Ni8  1  0.850269  0.725148  0.500000  1
  Ni  Ni9  1  0.290028  0.124183  0.500000  1
  Ni  Ni10  1  0.806862  0.914026  0.000000  1
  Ni  Ni11  1  0.371940  0.432871  0.500000  1
  Ni  Ni12  1  0.548964  0.942009  0.500000  1
  Ni  Ni13  1  0.064468  0.630357  0.500000  1
  Ni  Ni14  1  0.865025  0.139815  0.500000  1
  Ni  Ni15  1  0.430401  0.048956  0.000000  1
  P  P16  1  0.288244  0.884833  0.500000  1
  Ru  Ru17  1  0.616995  0.576092  0.000000  1
  Ru  Ru18  1  0.940222  0.377994  0.000000  1
  Ru  Ru19  1  0.115564  0.206685  0.000000  1
  Ru  Ru20  1  0.105804  0.881488  0.000000  1
