# generated using pymatgen
data_PrBiTeWO8
_symmetry_space_group_name_H-M   'P 1'
_cell_length_a   7.19276563
_cell_length_b   7.19276385
_cell_length_c   10.35656273
_cell_angle_alpha   66.57497864
_cell_angle_beta   66.57498492
_cell_angle_gamma   46.80350825
_symmetry_Int_Tables_number   1
_chemical_formula_structural   PrBiTeWO8
_chemical_formula_sum   'Pr2 Bi2 Te2 W2 O16'
_cell_volume   352.05772803
_cell_formula_units_Z   2
loop_
 _symmetry_equiv_pos_site_id
 _symmetry_equiv_pos_as_xyz
  1  'x, y, z'
loop_
 _atom_site_type_symbol
 _atom_site_label
 _atom_site_symmetry_multiplicity
 _atom_site_fract_x
 _atom_site_fract_y
 _atom_site_fract_z
 _atom_site_occupancy
  Pr  Pr0  1  0.066289  0.933711  0.500000  1
  Pr  Pr1  1  0.947684  0.052316  0.000000  1
  Bi  Bi2  1  0.662586  0.787643  0.905409  1
  Bi  Bi3  1  0.212357  0.337414  0.094591  1
  Te  Te4  1  0.374864  0.195248  0.622276  1
  Te  Te5  1  0.804752  0.625136  0.377724  1
  W  W6  1  0.511330  0.498843  0.751407  1
  W  W7  1  0.501157  0.488670  0.248593  1
  O  O8  1  0.788479  0.345169  0.594341  1
  O  O9  1  0.654831  0.211521  0.405659  1
  O  O10  1  0.193565  0.651339  0.903462  1
  O  O11  1  0.348661  0.806435  0.096538  1
  O  O12  1  0.705649  0.490566  0.837589  1
  O  O13  1  0.509434  0.294351  0.162411  1
  O  O14  1  0.301831  0.486164  0.661368  1
  O  O15  1  0.513836  0.698169  0.338632  1
  O  O16  1  0.905154  0.720895  0.167544  1
  O  O17  1  0.279105  0.094846  0.832456  1
  O  O18  1  0.082339  0.278139  0.342987  1
  O  O19  1  0.721861  0.917661  0.657013  1
  O  O20  1  0.167237  0.643019  0.365808  1
  O  O21  1  0.356981  0.832763  0.634192  1
  O  O22  1  0.841093  0.371279  0.120846  1
  O  O23  1  0.628721  0.158907  0.879154  1
