# generated using pymatgen
data_LuPt3(SeO3)8
_symmetry_space_group_name_H-M   'P 1'
_cell_length_a   8.24468351
_cell_length_b   8.24468246
_cell_length_c   8.24468200
_cell_angle_alpha   89.30387315
_cell_angle_beta   90.69612676
_cell_angle_gamma   90.69612461
_symmetry_Int_Tables_number   1
_chemical_formula_structural   LuPt3(SeO3)8
_chemical_formula_sum   'Lu1 Pt3 Se8 O24'
_cell_volume   560.30749532
_cell_formula_units_Z   1
loop_
 _symmetry_equiv_pos_site_id
 _symmetry_equiv_pos_as_xyz
  1  'x, y, z'
loop_
 _atom_site_type_symbol
 _atom_site_label
 _atom_site_symmetry_multiplicity
 _atom_site_fract_x
 _atom_site_fract_y
 _atom_site_fract_z
 _atom_site_occupancy
  Lu  Lu0  1  0.500000  0.500000  0.000000  1
  Pt  Pt1  1  0.500000  0.000000  0.500000  1
  Pt  Pt2  1  0.000000  0.000000  0.000000  1
  Pt  Pt3  1  0.000000  0.500000  0.500000  1
  Se  Se4  1  0.824119  0.175881  0.675881  1
  Se  Se5  1  0.175881  0.824119  0.324119  1
  Se  Se6  1  0.687081  0.679802  0.640389  1
  Se  Se7  1  0.140389  0.687081  0.820198  1
  Se  Se8  1  0.320198  0.140389  0.812919  1
  Se  Se9  1  0.859611  0.312919  0.179802  1
  Se  Se10  1  0.679802  0.859611  0.187081  1
  Se  Se11  1  0.312919  0.320198  0.359611  1
  O  O12  1  0.241549  0.464598  0.500085  1
  O  O13  1  0.000085  0.241549  0.035402  1
  O  O14  1  0.035101  0.741076  0.461806  1
  O  O15  1  0.443399  0.250997  0.932461  1
  O  O16  1  0.258924  0.961806  0.464899  1
  O  O17  1  0.567539  0.556601  0.750997  1
  O  O18  1  0.961806  0.035101  0.758924  1
  O  O19  1  0.556601  0.749003  0.067539  1
  O  O20  1  0.535402  0.000085  0.258451  1
  O  O21  1  0.464598  0.999915  0.741549  1
  O  O22  1  0.758556  0.999378  0.039154  1
  O  O23  1  0.250997  0.567539  0.943399  1
  O  O24  1  0.000622  0.539154  0.741444  1
  O  O25  1  0.038194  0.964899  0.241076  1
  O  O26  1  0.241444  0.000622  0.960846  1
  O  O27  1  0.432461  0.443399  0.249003  1
  O  O28  1  0.758451  0.535402  0.499915  1
  O  O29  1  0.999378  0.460846  0.258556  1
  O  O30  1  0.999915  0.758451  0.964598  1
  O  O31  1  0.460846  0.241444  0.499378  1
  O  O32  1  0.539154  0.758556  0.500622  1
  O  O33  1  0.964899  0.258924  0.538194  1
  O  O34  1  0.741076  0.038194  0.535101  1
  O  O35  1  0.749003  0.432461  0.056601  1
