# generated using pymatgen
data_CaPr2MnO6
_symmetry_space_group_name_H-M   'P 1'
_cell_length_a   5.59406341
_cell_length_b   5.90913000
_cell_length_c   8.03436200
_cell_angle_alpha   90.00118293
_cell_angle_beta   89.90674430
_cell_angle_gamma   89.99952681
_symmetry_Int_Tables_number   1
_chemical_formula_structural   CaPr2MnO6
_chemical_formula_sum   'Ca2 Pr4 Mn2 O12'
_cell_volume   265.58390346
_cell_formula_units_Z   2
loop_
 _symmetry_equiv_pos_site_id
 _symmetry_equiv_pos_as_xyz
  1  'x, y, z'
loop_
 _atom_site_type_symbol
 _atom_site_label
 _atom_site_symmetry_multiplicity
 _atom_site_fract_x
 _atom_site_fract_y
 _atom_site_fract_z
 _atom_site_occupancy
  Ca  Ca0  1  0.500000  0.000000  0.500000  1
  Ca  Ca1  1  0.000000  0.500000  0.000000  1
  Pr  Pr2  1  0.983357  0.061365  0.247509  1
  Pr  Pr3  1  0.483357  0.438633  0.747513  1
  Pr  Pr4  1  0.016643  0.938635  0.752490  1
  Pr  Pr5  1  0.516642  0.561367  0.252487  1
  Mn  Mn6  1  0.000002  0.499998  0.500001  1
  Mn  Mn7  1  0.500002  0.000001  0.000000  1
  O  O8  1  0.107989  0.457426  0.272158  1
  O  O9  1  0.607987  0.042572  0.772156  1
  O  O10  1  0.892010  0.542574  0.727843  1
  O  O11  1  0.392013  0.957428  0.227843  1
  O  O12  1  0.281961  0.678184  0.550360  1
  O  O13  1  0.781969  0.821813  0.050353  1
  O  O14  1  0.718038  0.321816  0.449640  1
  O  O15  1  0.218031  0.178187  0.949646  1
  O  O16  1  0.173091  0.221554  0.562075  1
  O  O17  1  0.673098  0.278451  0.062074  1
  O  O18  1  0.826909  0.778446  0.437925  1
  O  O19  1  0.326902  0.721550  0.937925  1
