# generated using pymatgen
data_LiY5(Si3Pt2)4
_symmetry_space_group_name_H-M   'P 1'
_cell_length_a   4.27011700
_cell_length_b   8.51930291
_cell_length_c   12.81976400
_cell_angle_alpha   80.00726222
_cell_angle_beta   90.00000000
_cell_angle_gamma   90.00000000
_symmetry_Int_Tables_number   1
_chemical_formula_structural   LiY5(Si3Pt2)4
_chemical_formula_sum   'Li1 Y5 Si12 Pt8'
_cell_volume   459.28792423
_cell_formula_units_Z   1
loop_
 _symmetry_equiv_pos_site_id
 _symmetry_equiv_pos_as_xyz
  1  'x, y, z'
loop_
 _atom_site_type_symbol
 _atom_site_label
 _atom_site_symmetry_multiplicity
 _atom_site_fract_x
 _atom_site_fract_y
 _atom_site_fract_z
 _atom_site_occupancy
  Li  Li0  1  0.250000  0.768779  0.429952  1
  Y  Y1  1  0.250000  0.586268  0.186683  1
  Y  Y2  1  0.750000  0.234447  0.559806  1
  Y  Y3  1  0.750000  0.413717  0.812492  1
  Y  Y4  1  0.750000  0.929472  0.814618  1
  Y  Y5  1  0.250000  0.070325  0.186602  1
  Si  Si6  1  0.750000  0.592923  0.564463  1
  Si  Si7  1  0.750000  0.127469  0.005603  1
  Si  Si8  1  0.750000  0.869560  0.567804  1
  Si  Si9  1  0.250000  0.696997  0.712425  1
  Si  Si10  1  0.750000  0.302834  0.290040  1
  Si  Si11  1  0.750000  0.806292  0.280655  1
  Si  Si12  1  0.250000  0.872050  0.995921  1
  Si  Si13  1  0.250000  0.192932  0.722314  1
  Si  Si14  1  0.250000  0.378511  0.004066  1
  Si  Si15  1  0.250000  0.121267  0.429441  1
  Si  Si16  1  0.750000  0.620195  0.999386  1
  Si  Si17  1  0.250000  0.418446  0.432248  1
  Pt  Pt18  1  0.750000  0.350059  0.102293  1
  Pt  Pt19  1  0.250000  0.968111  0.622334  1
  Pt  Pt20  1  0.750000  0.848885  0.089087  1
  Pt  Pt21  1  0.750000  0.025371  0.377943  1
  Pt  Pt22  1  0.250000  0.647888  0.901029  1
  Pt  Pt23  1  0.250000  0.150729  0.912811  1
  Pt  Pt24  1  0.750000  0.535650  0.376740  1
  Pt  Pt25  1  0.250000  0.470825  0.623244  1
