# generated using pymatgen
data_Cs4Ba2ZrAs4
_symmetry_space_group_name_H-M   'P 1'
_cell_length_a   11.26212029
_cell_length_b   11.26212145
_cell_length_c   8.28639137
_cell_angle_alpha   87.57081916
_cell_angle_beta   87.57081199
_cell_angle_gamma   119.38206467
_symmetry_Int_Tables_number   1
_chemical_formula_structural   Cs4Ba2ZrAs4
_chemical_formula_sum   'Cs8 Ba4 Zr2 As8'
_cell_volume   912.57807555
_cell_formula_units_Z   2
loop_
 _symmetry_equiv_pos_site_id
 _symmetry_equiv_pos_as_xyz
  1  'x, y, z'
loop_
 _atom_site_type_symbol
 _atom_site_label
 _atom_site_symmetry_multiplicity
 _atom_site_fract_x
 _atom_site_fract_y
 _atom_site_fract_z
 _atom_site_occupancy
  Cs  Cs0  1  0.474213  0.939437  0.390077  1
  Cs  Cs1  1  0.939437  0.474213  0.890077  1
  Cs  Cs2  1  0.869703  0.724741  0.158093  1
  Cs  Cs3  1  0.260726  0.124783  0.240359  1
  Cs  Cs4  1  0.858068  0.143102  0.191120  1
  Cs  Cs5  1  0.124783  0.260726  0.740359  1
  Cs  Cs6  1  0.724741  0.869703  0.658093  1
  Cs  Cs7  1  0.143102  0.858068  0.691120  1
  Ba  Ba8  1  0.076517  0.535372  0.401478  1
  Ba  Ba9  1  0.476170  0.532136  0.377756  1
  Ba  Ba10  1  0.535372  0.076517  0.901478  1
  Ba  Ba11  1  0.532136  0.476170  0.877756  1
  Zr  Zr12  1  0.662762  0.336427  0.488385  1
  Zr  Zr13  1  0.336427  0.662762  0.988385  1
  As  As14  1  0.629857  0.325805  0.169697  1
  As  As15  1  0.325805  0.629857  0.669697  1
  As  As16  1  0.217022  0.415494  0.139797  1
  As  As17  1  0.592581  0.788615  0.068968  1
  As  As18  1  0.217727  0.798552  0.091937  1
  As  As19  1  0.788615  0.592581  0.568968  1
  As  As20  1  0.415494  0.217022  0.639797  1
  As  As21  1  0.798552  0.217727  0.591937  1
