# generated using pymatgen
data_Y9Tm(In3Cl)2
_symmetry_space_group_name_H-M   'P 1'
_cell_length_a   9.13448700
_cell_length_b   9.13446010
_cell_length_c   6.71197700
_cell_angle_alpha   89.99998893
_cell_angle_beta   89.99981829
_cell_angle_gamma   120.00001252
_symmetry_Int_Tables_number   1
_chemical_formula_structural   Y9Tm(In3Cl)2
_chemical_formula_sum   'Y9 Tm1 In6 Cl2'
_cell_volume   485.00708383
_cell_formula_units_Z   1
loop_
 _symmetry_equiv_pos_site_id
 _symmetry_equiv_pos_as_xyz
  1  'x, y, z'
loop_
 _atom_site_type_symbol
 _atom_site_label
 _atom_site_symmetry_multiplicity
 _atom_site_fract_x
 _atom_site_fract_y
 _atom_site_fract_z
 _atom_site_occupancy
  Y  Y0  1  0.333330  0.666662  0.000001  1
  Y  Y1  1  0.742430  0.742081  0.249642  1
  Y  Y2  1  0.257924  0.000351  0.249643  1
  Y  Y3  1  0.999651  0.257575  0.249642  1
  Y  Y4  1  0.666674  0.333339  0.500000  1
  Y  Y5  1  0.333336  0.666670  0.500000  1
  Y  Y6  1  0.257919  0.257568  0.750352  1
  Y  Y7  1  0.742424  0.000350  0.750360  1
  Y  Y8  1  0.999652  0.742079  0.750357  1
  Tm  Tm9  1  0.666663  0.333328  0.000001  1
  In  In10  1  0.604743  0.000621  0.249495  1
  In  In11  1  0.999380  0.604122  0.249494  1
  In  In12  1  0.395877  0.395258  0.249494  1
  In  In13  1  0.395876  0.000619  0.750506  1
  In  In14  1  0.999381  0.395257  0.750505  1
  In  In15  1  0.604740  0.604121  0.750507  1
  Cl  Cl16  1  0.000001  0.000000  0.999999  1
  Cl  Cl17  1  0.000001  0.000000  0.500001  1
