# generated using pymatgen
data_Dy5Er5SnSb5
_symmetry_space_group_name_H-M   'P 1'
_cell_length_a   8.93503800
_cell_length_b   8.93014513
_cell_length_c   6.33650200
_cell_angle_alpha   90.00000000
_cell_angle_beta   90.00000000
_cell_angle_gamma   120.01813361
_symmetry_Int_Tables_number   1
_chemical_formula_structural   Dy5Er5SnSb5
_chemical_formula_sum   'Dy5 Er5 Sn1 Sb5'
_cell_volume   437.77982455
_cell_formula_units_Z   1
loop_
 _symmetry_equiv_pos_site_id
 _symmetry_equiv_pos_as_xyz
  1  'x, y, z'
loop_
 _atom_site_type_symbol
 _atom_site_label
 _atom_site_symmetry_multiplicity
 _atom_site_fract_x
 _atom_site_fract_y
 _atom_site_fract_z
 _atom_site_occupancy
  Dy  Dy0  1  0.001652  0.756357  0.750000  1
  Dy  Dy1  1  0.997796  0.242705  0.250000  1
  Dy  Dy2  1  0.755091  0.757295  0.250000  1
  Dy  Dy3  1  0.755419  0.000000  0.750000  1
  Dy  Dy4  1  0.245295  0.243643  0.750000  1
  Er  Er5  1  0.244837  0.000000  0.250000  1
  Er  Er6  1  0.333789  0.667009  0.499895  1
  Er  Er7  1  0.666780  0.332991  0.000105  1
  Er  Er8  1  0.666780  0.332991  0.499895  1
  Er  Er9  1  0.333789  0.667009  0.000105  1
  Sn  Sn10  1  0.605707  0.000000  0.250000  1
  Sb  Sb11  1  0.391838  0.000000  0.750000  1
  Sb  Sb12  1  0.390103  0.389806  0.250000  1
  Sb  Sb13  1  0.000297  0.610194  0.250000  1
  Sb  Sb14  1  0.000842  0.390855  0.750000  1
  Sb  Sb15  1  0.609988  0.609145  0.750000  1
