# generated using pymatgen
data_Ba5Cd6
_symmetry_space_group_name_H-M   'P 1'
_cell_length_a   18.48904500
_cell_length_b   18.48904471
_cell_length_c   5.52202200
_cell_angle_alpha   90.00000000
_cell_angle_beta   90.00000000
_cell_angle_gamma   166.53473142
_symmetry_Int_Tables_number   1
_chemical_formula_structural   Ba5Cd6
_chemical_formula_sum   'Ba5 Cd6'
_cell_volume   439.55610496
_cell_formula_units_Z   1
loop_
 _symmetry_equiv_pos_site_id
 _symmetry_equiv_pos_as_xyz
  1  'x, y, z'
loop_
 _atom_site_type_symbol
 _atom_site_label
 _atom_site_symmetry_multiplicity
 _atom_site_fract_x
 _atom_site_fract_y
 _atom_site_fract_z
 _atom_site_occupancy
  Ba  Ba0  1  0.000000  0.000000  0.000000  1
  Ba  Ba1  1  0.618415  0.381583  0.000000  1
  Ba  Ba2  1  0.381583  0.618415  0.000000  1
  Ba  Ba3  1  0.805918  0.194080  0.500001  1
  Ba  Ba4  1  0.194080  0.805918  0.500001  1
  Cd  Cd5  1  0.721062  0.278936  0.000000  1
  Cd  Cd6  1  0.278936  0.721062  0.000000  1
  Cd  Cd7  1  0.906219  0.093780  0.500001  1
  Cd  Cd8  1  0.539749  0.460249  0.500001  1
  Cd  Cd9  1  0.460249  0.539749  0.500001  1
  Cd  Cd10  1  0.093780  0.906219  0.500001  1
