# generated using pymatgen
data_LuScAlB6
_symmetry_space_group_name_H-M   'P 1'
_cell_length_a   3.47381000
_cell_length_b   9.00663000
_cell_length_c   11.33917000
_cell_angle_alpha   90.00000000
_cell_angle_beta   90.00000000
_cell_angle_gamma   90.00000000
_symmetry_Int_Tables_number   1
_chemical_formula_structural   LuScAlB6
_chemical_formula_sum   'Lu4 Sc4 Al4 B24'
_cell_volume   354.77225575
_cell_formula_units_Z   4
loop_
 _symmetry_equiv_pos_site_id
 _symmetry_equiv_pos_as_xyz
  1  'x, y, z'
loop_
 _atom_site_type_symbol
 _atom_site_label
 _atom_site_symmetry_multiplicity
 _atom_site_fract_x
 _atom_site_fract_y
 _atom_site_fract_z
 _atom_site_occupancy
  Lu  Lu0  1  0.500000  0.320736  0.413644  1
  Lu  Lu1  1  0.500000  0.679264  0.586356  1
  Lu  Lu2  1  0.500000  0.179264  0.913644  1
  Lu  Lu3  1  0.500000  0.820736  0.086356  1
  Sc  Sc4  1  0.500000  0.444320  0.127870  1
  Sc  Sc5  1  0.500000  0.555680  0.872130  1
  Sc  Sc6  1  0.500000  0.055680  0.627870  1
  Sc  Sc7  1  0.500000  0.944320  0.372130  1
  Al  Al8  1  0.500000  0.141473  0.181016  1
  Al  Al9  1  0.500000  0.858527  0.818984  1
  Al  Al10  1  0.500000  0.358527  0.681016  1
  Al  Al11  1  0.500000  0.641473  0.318984  1
  B  B12  1  0.000000  0.098964  0.472805  1
  B  B13  1  0.000000  0.901036  0.527195  1
  B  B14  1  0.000000  0.401036  0.972805  1
  B  B15  1  0.000000  0.598964  0.027195  1
  B  B16  1  0.000000  0.130215  0.318672  1
  B  B17  1  0.000000  0.869785  0.681328  1
  B  B18  1  0.000000  0.369785  0.818672  1
  B  B19  1  0.000000  0.630215  0.181328  1
  B  B20  1  0.000000  0.051287  0.064148  1
  B  B21  1  0.000000  0.948713  0.935852  1
  B  B22  1  0.000000  0.448713  0.564148  1
  B  B23  1  0.000000  0.551287  0.435852  1
  B  B24  1  0.000000  0.479067  0.286461  1
  B  B25  1  0.000000  0.520933  0.713539  1
  B  B26  1  0.000000  0.020933  0.786461  1
  B  B27  1  0.000000  0.979067  0.213539  1
  B  B28  1  0.000000  0.254325  0.079451  1
  B  B29  1  0.000000  0.745675  0.920549  1
  B  B30  1  0.000000  0.245675  0.579451  1
  B  B31  1  0.000000  0.754325  0.420549  1
  B  B32  1  0.000000  0.298335  0.236735  1
  B  B33  1  0.000000  0.701665  0.763265  1
  B  B34  1  0.000000  0.201665  0.736735  1
  B  B35  1  0.000000  0.798335  0.263265  1
