# generated using pymatgen
data_La3MgCd2Si2Au
_symmetry_space_group_name_H-M   'P 1'
_cell_length_a   7.57797888
_cell_length_b   7.57797886
_cell_length_c   4.49598500
_cell_angle_alpha   90.00000000
_cell_angle_beta   90.00000000
_cell_angle_gamma   120.77851016
_symmetry_Int_Tables_number   1
_chemical_formula_structural   La3MgCd2Si2Au
_chemical_formula_sum   'La3 Mg1 Cd2 Si2 Au1'
_cell_volume   221.82045004
_cell_formula_units_Z   1
loop_
 _symmetry_equiv_pos_site_id
 _symmetry_equiv_pos_as_xyz
  1  'x, y, z'
loop_
 _atom_site_type_symbol
 _atom_site_label
 _atom_site_symmetry_multiplicity
 _atom_site_fract_x
 _atom_site_fract_y
 _atom_site_fract_z
 _atom_site_occupancy
  La  La0  1  0.583095  0.001793  0.000000  1
  La  La1  1  0.001793  0.583095  0.000000  1
  La  La2  1  0.414459  0.414459  0.000000  1
  Mg  Mg3  1  0.762872  0.762872  0.500000  1
  Cd  Cd4  1  0.248431  0.999223  0.500000  1
  Cd  Cd5  1  0.999223  0.248431  0.500000  1
  Si  Si6  1  0.337158  0.666222  0.500000  1
  Si  Si7  1  0.666222  0.337158  0.500000  1
  Au  Au8  1  0.986747  0.986747  0.000000  1
