# generated using pymatgen
data_Hf2Zr4Ni20Ge4P9
_symmetry_space_group_name_H-M   'P 1'
_cell_length_a   12.59067351
_cell_length_b   12.66646931
_cell_length_c   3.66067600
_cell_angle_alpha   90.00000000
_cell_angle_beta   90.00000000
_cell_angle_gamma   120.08253380
_symmetry_Int_Tables_number   1
_chemical_formula_structural   Hf2Zr4Ni20Ge4P9
_chemical_formula_sum   'Hf2 Zr4 Ni20 Ge4 P9'
_cell_volume   505.16665101
_cell_formula_units_Z   1
loop_
 _symmetry_equiv_pos_site_id
 _symmetry_equiv_pos_as_xyz
  1  'x, y, z'
loop_
 _atom_site_type_symbol
 _atom_site_label
 _atom_site_symmetry_multiplicity
 _atom_site_fract_x
 _atom_site_fract_y
 _atom_site_fract_z
 _atom_site_occupancy
  Hf  Hf0  1  0.806581  0.283078  0.500000  1
  Hf  Hf1  1  0.193636  0.714642  0.000000  1
  Zr  Zr2  1  0.718569  0.519953  0.500000  1
  Zr  Zr3  1  0.481165  0.196388  0.500000  1
  Zr  Zr4  1  0.283225  0.482676  0.000000  1
  Zr  Zr5  1  0.522867  0.807592  0.000000  1
  Ni  Ni6  1  0.420836  0.976200  0.000000  1
  Ni  Ni7  1  0.019267  0.438848  0.000000  1
  Ni  Ni8  1  0.586830  0.022355  0.500000  1
  Ni  Ni9  1  0.557409  0.580915  0.000000  1
  Ni  Ni10  1  0.981698  0.561442  0.500000  1
  Ni  Ni11  1  0.917485  0.086367  0.500000  1
  Ni  Ni12  1  0.157531  0.071465  0.500000  1
  Ni  Ni13  1  0.918929  0.835132  0.500000  1
  Ni  Ni14  1  0.091567  0.880457  0.000000  1
  Ni  Ni15  1  0.791038  0.909100  0.000000  1
  Ni  Ni16  1  0.100817  0.204380  0.000000  1
  Ni  Ni17  1  0.333172  0.669142  0.500000  1
  Ni  Ni18  1  0.668668  0.332089  0.000000  1
  Ni  Ni19  1  0.670935  0.752588  0.500000  1
  Ni  Ni20  1  0.247803  0.915848  0.500000  1
  Ni  Ni21  1  0.926812  0.667206  0.000000  1
  Ni  Ni22  1  0.331815  0.254957  0.000000  1
  Ni  Ni23  1  0.755524  0.085258  0.000000  1
  Ni  Ni24  1  0.447033  0.422269  0.500000  1
  Ni  Ni25  1  0.063639  0.325466  0.500000  1
  Ge  Ge26  1  0.999597  0.997475  0.000000  1
  Ge  Ge27  1  0.233707  0.288817  0.500000  1
  Ge  Ge28  1  0.771439  0.714985  0.000000  1
  Ge  Ge29  1  0.285359  0.054871  0.000000  1
  P  P30  1  0.713129  0.948810  0.500000  1
  P  P31  1  0.052227  0.761483  0.500000  1
  P  P32  1  0.472027  0.613612  0.500000  1
  P  P33  1  0.388273  0.860297  0.500000  1
  P  P34  1  0.859748  0.470060  0.000000  1
  P  P35  1  0.530462  0.388766  0.000000  1
  P  P36  1  0.612868  0.140150  0.000000  1
  P  P37  1  0.944858  0.236260  0.000000  1
  P  P38  1  0.141454  0.528602  0.500000  1
