# generated using pymatgen
data_Ho3MgCd2CuAu2
_symmetry_space_group_name_H-M   'P 1'
_cell_length_a   7.68770800
_cell_length_b   7.75100995
_cell_length_c   3.83883200
_cell_angle_alpha   90.00000000
_cell_angle_beta   90.00000000
_cell_angle_gamma   119.73020588
_symmetry_Int_Tables_number   1
_chemical_formula_structural   Ho3MgCd2CuAu2
_chemical_formula_sum   'Ho3 Mg1 Cd2 Cu1 Au2'
_cell_volume   198.63656090
_cell_formula_units_Z   1
loop_
 _symmetry_equiv_pos_site_id
 _symmetry_equiv_pos_as_xyz
  1  'x, y, z'
loop_
 _atom_site_type_symbol
 _atom_site_label
 _atom_site_symmetry_multiplicity
 _atom_site_fract_x
 _atom_site_fract_y
 _atom_site_fract_z
 _atom_site_occupancy
  Ho  Ho0  1  0.601158  0.000000  0.000000  1
  Ho  Ho1  1  0.992151  0.583114  0.000000  1
  Ho  Ho2  1  0.409036  0.416886  0.000000  1
  Mg  Mg3  1  0.246100  0.000000  0.500000  1
  Cd  Cd4  1  0.003905  0.249067  0.500000  1
  Cd  Cd5  1  0.754838  0.750933  0.500000  1
  Cu  Cu6  1  0.005659  0.000000  0.000000  1
  Au  Au7  1  0.331611  0.676070  0.500000  1
  Au  Au8  1  0.655542  0.323930  0.500000  1
