# generated using pymatgen
data_K4Rb2Li2Sn3Pb5
_symmetry_space_group_name_H-M   'P 1'
_cell_length_a   8.80230902
_cell_length_b   8.80230937
_cell_length_c   10.66241002
_cell_angle_alpha   90.00600092
_cell_angle_beta   89.99400076
_cell_angle_gamma   133.78232176
_symmetry_Int_Tables_number   1
_chemical_formula_structural   K4Rb2Li2Sn3Pb5
_chemical_formula_sum   'K4 Rb2 Li2 Sn3 Pb5'
_cell_volume   596.44447920
_cell_formula_units_Z   1
loop_
 _symmetry_equiv_pos_site_id
 _symmetry_equiv_pos_as_xyz
  1  'x, y, z'
loop_
 _atom_site_type_symbol
 _atom_site_label
 _atom_site_symmetry_multiplicity
 _atom_site_fract_x
 _atom_site_fract_y
 _atom_site_fract_z
 _atom_site_occupancy
  K  K0  1  0.618573  0.381427  0.043381  1
  K  K1  1  0.382123  0.617877  0.957312  1
  K  K2  1  0.382895  0.617105  0.543622  1
  K  K3  1  0.614091  0.385909  0.457056  1
  Rb  Rb4  1  0.222512  0.777488  0.247896  1
  Rb  Rb5  1  0.775806  0.224194  0.754194  1
  Li  Li6  1  0.000718  0.999282  0.999284  1
  Li  Li7  1  0.002468  0.997532  0.498127  1
  Sn  Sn8  1  0.835444  0.164556  0.109678  1
  Sn  Sn9  1  0.166063  0.833937  0.887915  1
  Sn  Sn10  1  0.167295  0.832705  0.611780  1
  Pb  Pb11  1  0.208668  0.277125  0.248744  1
  Pb  Pb12  1  0.793050  0.723051  0.749629  1
  Pb  Pb13  1  0.722875  0.791332  0.248744  1
  Pb  Pb14  1  0.276949  0.206950  0.749629  1
  Pb  Pb15  1  0.830471  0.169529  0.393009  1
