# generated using pymatgen
data_YbCe2Zn11
_symmetry_space_group_name_H-M   'P 1'
_cell_length_a   4.48435769
_cell_length_b   8.26039001
_cell_length_c   8.26039014
_cell_angle_alpha   64.75481612
_cell_angle_beta   74.25017707
_cell_angle_gamma   74.25018235
_symmetry_Int_Tables_number   1
_chemical_formula_structural   YbCe2Zn11
_chemical_formula_sum   'Yb1 Ce2 Zn11'
_cell_volume   262.07718565
_cell_formula_units_Z   1
loop_
 _symmetry_equiv_pos_site_id
 _symmetry_equiv_pos_as_xyz
  1  'x, y, z'
loop_
 _atom_site_type_symbol
 _atom_site_label
 _atom_site_symmetry_multiplicity
 _atom_site_fract_x
 _atom_site_fract_y
 _atom_site_fract_z
 _atom_site_occupancy
  Yb  Yb0  1  0.000000  0.000000  0.000000  1
  Ce  Ce1  1  0.702819  0.297181  0.297181  1
  Ce  Ce2  1  0.297181  0.702819  0.702819  1
  Zn  Zn3  1  0.000000  0.500000  0.500000  1
  Zn  Zn4  1  0.500000  0.683292  0.316708  1
  Zn  Zn5  1  0.500000  0.316708  0.683292  1
  Zn  Zn6  1  0.660991  0.696788  0.981231  1
  Zn  Zn7  1  0.339009  0.303212  0.018769  1
  Zn  Zn8  1  0.660991  0.981231  0.696788  1
  Zn  Zn9  1  0.339009  0.018769  0.303212  1
  Zn  Zn10  1  0.864159  0.418773  0.852908  1
  Zn  Zn11  1  0.135841  0.581227  0.147092  1
  Zn  Zn12  1  0.864159  0.852908  0.418773  1
  Zn  Zn13  1  0.135841  0.147092  0.581227  1
