# generated using pymatgen
data_Er6Lu9Th(CdPt)4
_symmetry_space_group_name_H-M   'P 1'
_cell_length_a   9.54152140
_cell_length_b   9.54152145
_cell_length_c   9.54152107
_cell_angle_alpha   60.32793648
_cell_angle_beta   60.32793468
_cell_angle_gamma   60.32794057
_symmetry_Int_Tables_number   1
_chemical_formula_structural   Er6Lu9Th(CdPt)4
_chemical_formula_sum   'Er6 Lu9 Th1 Cd4 Pt4'
_cell_volume   618.79711976
_cell_formula_units_Z   1
loop_
 _symmetry_equiv_pos_site_id
 _symmetry_equiv_pos_as_xyz
  1  'x, y, z'
loop_
 _atom_site_type_symbol
 _atom_site_label
 _atom_site_symmetry_multiplicity
 _atom_site_fract_x
 _atom_site_fract_y
 _atom_site_fract_z
 _atom_site_occupancy
  Er  Er0  1  0.935107  0.567186  0.567186  1
  Er  Er1  1  0.563568  0.938511  0.938511  1
  Er  Er2  1  0.567186  0.935107  0.567186  1
  Er  Er3  1  0.938511  0.563568  0.938511  1
  Er  Er4  1  0.567186  0.567186  0.935107  1
  Er  Er5  1  0.938511  0.938511  0.563568  1
  Lu  Lu6  1  0.355079  0.355079  0.936350  1
  Lu  Lu7  1  0.355079  0.936350  0.355079  1
  Lu  Lu8  1  0.936350  0.355079  0.355079  1
  Lu  Lu9  1  0.814347  0.187034  0.187034  1
  Lu  Lu10  1  0.190795  0.811631  0.811631  1
  Lu  Lu11  1  0.187034  0.814347  0.187034  1
  Lu  Lu12  1  0.811631  0.190795  0.811631  1
  Lu  Lu13  1  0.187034  0.187034  0.814347  1
  Lu  Lu14  1  0.811631  0.811631  0.190795  1
  Th  Th15  1  0.349118  0.349118  0.349118  1
  Cd  Cd16  1  0.582634  0.582634  0.582634  1
  Cd  Cd17  1  0.582612  0.582612  0.252257  1
  Cd  Cd18  1  0.582612  0.252257  0.582612  1
  Cd  Cd19  1  0.252257  0.582612  0.582612  1
  Pt  Pt20  1  0.144386  0.144386  0.144386  1
  Pt  Pt21  1  0.137531  0.137531  0.572274  1
  Pt  Pt22  1  0.137531  0.572274  0.137531  1
  Pt  Pt23  1  0.572274  0.137531  0.137531  1
