# generated using pymatgen
data_Na2ErPa7O20
_symmetry_space_group_name_H-M   'P 1'
_cell_length_a   6.53983624
_cell_length_b   7.53533406
_cell_length_c   8.42653500
_cell_angle_alpha   102.70087615
_cell_angle_beta   97.30986853
_cell_angle_gamma   106.90720297
_symmetry_Int_Tables_number   1
_chemical_formula_structural   Na2ErPa7O20
_chemical_formula_sum   'Na2 Er1 Pa7 O20'
_cell_volume   379.37064081
_cell_formula_units_Z   1
loop_
 _symmetry_equiv_pos_site_id
 _symmetry_equiv_pos_as_xyz
  1  'x, y, z'
loop_
 _atom_site_type_symbol
 _atom_site_label
 _atom_site_symmetry_multiplicity
 _atom_site_fract_x
 _atom_site_fract_y
 _atom_site_fract_z
 _atom_site_occupancy
  Na  Na0  1  0.799271  0.598011  0.597512  1
  Na  Na1  1  0.602202  0.202645  0.203673  1
  Er  Er2  1  0.997269  0.998901  0.998526  1
  Pa  Pa3  1  0.992507  0.497033  0.995927  1
  Pa  Pa4  1  0.801348  0.100515  0.597109  1
  Pa  Pa5  1  0.602079  0.700613  0.204813  1
  Pa  Pa6  1  0.198287  0.397883  0.396444  1
  Pa  Pa7  1  0.404271  0.299814  0.805744  1
  Pa  Pa8  1  0.200107  0.901940  0.396434  1
  Pa  Pa9  1  0.401979  0.802378  0.803767  1
  O  O10  1  0.878105  0.311870  0.457380  1
  O  O11  1  0.643272  0.899893  0.045185  1
  O  O12  1  0.947991  0.768072  0.151887  1
  O  O13  1  0.860302  0.841182  0.442679  1
  O  O14  1  0.428231  0.519221  0.662775  1
  O  O15  1  0.651682  0.439337  0.043896  1
  O  O16  1  0.743749  0.359006  0.756233  1
  O  O17  1  0.228668  0.117283  0.258376  1
  O  O18  1  0.448779  0.029856  0.647082  1
  O  O19  1  0.970557  0.288200  0.141509  1
  O  O20  1  0.544251  0.960550  0.359471  1
  O  O21  1  0.066536  0.721900  0.861277  1
  O  O22  1  0.241428  0.631880  0.242287  1
  O  O23  1  0.739281  0.894211  0.751018  1
  O  O24  1  0.346029  0.567598  0.957138  1
  O  O25  1  0.054211  0.230727  0.841947  1
  O  O26  1  0.523743  0.490092  0.345340  1
  O  O27  1  0.161890  0.171082  0.557044  1
  O  O28  1  0.345202  0.072106  0.933666  1
  O  O29  1  0.176776  0.686205  0.543860  1
