# generated using pymatgen
data_Ta3P6PtO24
_symmetry_space_group_name_H-M   'P 1'
_cell_length_a   8.77817190
_cell_length_b   9.13648868
_cell_length_c   8.70945630
_cell_angle_alpha   91.10045139
_cell_angle_beta   59.54310261
_cell_angle_gamma   119.87180710
_symmetry_Int_Tables_number   1
_chemical_formula_structural   Ta3P6PtO24
_chemical_formula_sum   'Ta3 P6 Pt1 O24'
_cell_volume   496.05534240
_cell_formula_units_Z   1
loop_
 _symmetry_equiv_pos_site_id
 _symmetry_equiv_pos_as_xyz
  1  'x, y, z'
loop_
 _atom_site_type_symbol
 _atom_site_label
 _atom_site_symmetry_multiplicity
 _atom_site_fract_x
 _atom_site_fract_y
 _atom_site_fract_z
 _atom_site_occupancy
  Ta  Ta0  1  0.286423  0.928761  0.358389  1
  Ta  Ta1  1  0.280779  0.422820  0.861227  1
  Ta  Ta2  1  0.711982  0.569474  0.144270  1
  P  P3  1  0.784017  0.749701  0.754587  1
  P  P4  1  0.501660  0.253621  0.533046  1
  P  P5  1  0.504891  0.754422  0.467623  1
  P  P6  1  0.208610  0.242718  0.254411  1
  P  P7  1  0.780623  0.246604  0.963115  1
  P  P8  1  0.222000  0.753333  0.026489  1
  Pt  Pt9  1  0.711506  0.063677  0.644694  1
  O  O10  1  0.679697  0.917302  0.470204  1
  O  O11  1  0.002310  0.713606  0.087942  1
  O  O12  1  0.219779  0.584252  0.000885  1
  O  O13  1  0.240385  0.787511  0.193673  1
  O  O14  1  0.989311  0.275668  0.923598  1
  O  O15  1  0.784621  0.411345  0.011450  1
  O  O16  1  0.765809  0.233049  0.796984  1
  O  O17  1  0.810758  0.704605  0.906568  1
  O  O18  1  0.981040  0.780425  0.563916  1
  O  O19  1  0.672993  0.251197  0.527218  1
  O  O20  1  0.774309  0.908920  0.770994  1
  O  O21  1  0.582191  0.580818  0.783219  1
  O  O22  1  0.591954  0.083124  0.141639  1
  O  O23  1  0.606642  0.418968  0.376591  1
  O  O24  1  0.193174  0.269589  0.086809  1
  O  O25  1  0.349835  0.273282  0.717473  1
  O  O26  1  0.626195  0.717227  0.284004  1
  O  O27  1  0.349622  0.087049  0.505433  1
  O  O28  1  0.389232  0.912781  0.849202  1
  O  O29  1  0.365430  0.586935  0.636632  1
  O  O30  1  0.226883  0.082800  0.264164  1
  O  O31  1  0.421798  0.414506  0.200880  1
  O  O32  1  0.353974  0.788364  0.452934  1
  O  O33  1  0.031696  0.231550  0.437606  1
