# generated using pymatgen
data_Zr6Sc4Al12Pt6Rh
_symmetry_space_group_name_H-M   'P 1'
_cell_length_a   8.94239144
_cell_length_b   8.95807883
_cell_length_c   8.95807862
_cell_angle_alpha   60.04906007
_cell_angle_beta   60.05791379
_cell_angle_gamma   60.05791437
_symmetry_Int_Tables_number   1
_chemical_formula_structural   Zr6Sc4Al12Pt6Rh
_chemical_formula_sum   'Zr6 Sc4 Al12 Pt6 Rh1'
_cell_volume   508.05308153
_cell_formula_units_Z   1
loop_
 _symmetry_equiv_pos_site_id
 _symmetry_equiv_pos_as_xyz
  1  'x, y, z'
loop_
 _atom_site_type_symbol
 _atom_site_label
 _atom_site_symmetry_multiplicity
 _atom_site_fract_x
 _atom_site_fract_y
 _atom_site_fract_z
 _atom_site_occupancy
  Zr  Zr0  1  0.681662  0.683009  0.317319  1
  Zr  Zr1  1  0.318010  0.683009  0.317319  1
  Zr  Zr2  1  0.686632  0.313368  0.313368  1
  Zr  Zr3  1  0.318010  0.317319  0.683009  1
  Zr  Zr4  1  0.681662  0.317319  0.683009  1
  Zr  Zr5  1  0.314208  0.685792  0.685792  1
  Sc  Sc6  1  0.880398  0.880986  0.358217  1
  Sc  Sc7  1  0.880398  0.358217  0.880986  1
  Sc  Sc8  1  0.359203  0.881998  0.881998  1
  Sc  Sc9  1  0.876800  0.881998  0.881998  1
  Al  Al10  1  0.121749  0.119916  0.636586  1
  Al  Al11  1  0.121749  0.636586  0.119916  1
  Al  Al12  1  0.635546  0.120259  0.120259  1
  Al  Al13  1  0.123936  0.120259  0.120259  1
  Al  Al14  1  0.661456  0.664573  0.012515  1
  Al  Al15  1  0.661456  0.012515  0.664573  1
  Al  Al16  1  0.012444  0.662748  0.662748  1
  Al  Al17  1  0.662060  0.662748  0.662748  1
  Al  Al18  1  0.337400  0.332732  0.992469  1
  Al  Al19  1  0.337400  0.992469  0.332732  1
  Al  Al20  1  0.991903  0.336019  0.336019  1
  Al  Al21  1  0.336060  0.336019  0.336019  1
  Pt  Pt22  1  0.000113  0.999887  0.999887  1
  Pt  Pt23  1  0.000764  0.000824  0.499197  1
  Pt  Pt24  1  0.499215  0.000824  0.499197  1
  Pt  Pt25  1  0.000659  0.499341  0.499341  1
  Pt  Pt26  1  0.499215  0.499197  0.000824  1
  Pt  Pt27  1  0.000764  0.499197  0.000824  1
  Rh  Rh28  1  0.499127  0.000873  0.000873  1
