# generated using pymatgen
data_Tm2Lu2Si4Ru3Rh
_symmetry_space_group_name_H-M   'P 1'
_cell_length_a   4.24377500
_cell_length_b   6.87079829
_cell_length_c   7.19052101
_cell_angle_alpha   90.04323646
_cell_angle_beta   90.00000000
_cell_angle_gamma   90.00000000
_symmetry_Int_Tables_number   1
_chemical_formula_structural   Tm2Lu2Si4Ru3Rh
_chemical_formula_sum   'Tm2 Lu2 Si4 Ru3 Rh1'
_cell_volume   209.66202940
_cell_formula_units_Z   1
loop_
 _symmetry_equiv_pos_site_id
 _symmetry_equiv_pos_as_xyz
  1  'x, y, z'
loop_
 _atom_site_type_symbol
 _atom_site_label
 _atom_site_symmetry_multiplicity
 _atom_site_fract_x
 _atom_site_fract_y
 _atom_site_fract_z
 _atom_site_occupancy
  Tm  Tm0  1  0.750000  0.008209  0.812627  1
  Tm  Tm1  1  0.750000  0.506081  0.687529  1
  Lu  Lu2  1  0.250000  0.496502  0.311634  1
  Lu  Lu3  1  0.250000  0.989927  0.189192  1
  Si  Si4  1  0.750000  0.200842  0.384945  1
  Si  Si5  1  0.250000  0.298955  0.897629  1
  Si  Si6  1  0.750000  0.700123  0.107032  1
  Si  Si7  1  0.250000  0.797267  0.608563  1
  Ru  Ru8  1  0.750000  0.343960  0.064725  1
  Ru  Ru9  1  0.250000  0.655829  0.936040  1
  Ru  Ru10  1  0.750000  0.845844  0.436687  1
  Rh  Rh11  1  0.250000  0.156459  0.563398  1
