# generated using pymatgen
data_Lu12TcNi4Pb
_symmetry_space_group_name_H-M   'P 1'
_cell_length_a   8.15886835
_cell_length_b   8.15886799
_cell_length_c   8.15886831
_cell_angle_alpha   111.95265390
_cell_angle_beta   110.06481547
_cell_angle_gamma   106.44391607
_symmetry_Int_Tables_number   1
_chemical_formula_structural   Lu12TcNi4Pb
_chemical_formula_sum   'Lu12 Tc1 Ni4 Pb1'
_cell_volume   417.09879769
_cell_formula_units_Z   1
loop_
 _symmetry_equiv_pos_site_id
 _symmetry_equiv_pos_as_xyz
  1  'x, y, z'
loop_
 _atom_site_type_symbol
 _atom_site_label
 _atom_site_symmetry_multiplicity
 _atom_site_fract_x
 _atom_site_fract_y
 _atom_site_fract_z
 _atom_site_occupancy
  Lu  Lu0  1  0.679303  0.871345  0.192041  1
  Lu  Lu1  1  0.320697  0.512737  0.192041  1
  Lu  Lu2  1  0.820183  0.778455  0.598639  1
  Lu  Lu3  1  0.179817  0.778455  0.958272  1
  Lu  Lu4  1  0.820183  0.221545  0.041728  1
  Lu  Lu5  1  0.179817  0.221545  0.401361  1
  Lu  Lu6  1  0.679303  0.487263  0.807959  1
  Lu  Lu7  1  0.320697  0.128655  0.807959  1
  Lu  Lu8  1  0.585123  0.277242  0.307880  1
  Lu  Lu9  1  0.414877  0.722758  0.692120  1
  Lu  Lu10  1  0.030637  0.722758  0.307880  1
  Lu  Lu11  1  0.969363  0.277242  0.692120  1
  Tc  Tc12  1  0.000000  0.500000  0.500000  1
  Ni  Ni13  1  0.354041  0.500000  0.854041  1
  Ni  Ni14  1  0.645959  0.500000  0.145959  1
  Ni  Ni15  1  0.880026  0.880026  0.000000  1
  Ni  Ni16  1  0.119974  0.119974  0.000000  1
  Pb  Pb17  1  0.500000  0.000000  0.500000  1
