# generated using pymatgen
data_TbHoMnC2
_symmetry_space_group_name_H-M   'P 1'
_cell_length_a   5.04840700
_cell_length_b   6.35574600
_cell_length_c   9.66695500
_cell_angle_alpha   90.00000000
_cell_angle_beta   90.00000000
_cell_angle_gamma   90.00000000
_symmetry_Int_Tables_number   1
_chemical_formula_structural   TbHoMnC2
_chemical_formula_sum   'Tb4 Ho4 Mn4 C8'
_cell_volume   310.17771334
_cell_formula_units_Z   4
loop_
 _symmetry_equiv_pos_site_id
 _symmetry_equiv_pos_as_xyz
  1  'x, y, z'
loop_
 _atom_site_type_symbol
 _atom_site_label
 _atom_site_symmetry_multiplicity
 _atom_site_fract_x
 _atom_site_fract_y
 _atom_site_fract_z
 _atom_site_occupancy
  Tb  Tb0  1  0.750000  0.477115  0.787434  1
  Tb  Tb1  1  0.250000  0.022885  0.287434  1
  Tb  Tb2  1  0.750000  0.977115  0.712566  1
  Tb  Tb3  1  0.250000  0.522885  0.212566  1
  Ho  Ho4  1  0.750000  0.818548  0.055688  1
  Ho  Ho5  1  0.250000  0.681452  0.555688  1
  Ho  Ho6  1  0.750000  0.318548  0.444312  1
  Ho  Ho7  1  0.250000  0.181452  0.944312  1
  Mn  Mn8  1  0.750000  0.269920  0.143191  1
  Mn  Mn9  1  0.250000  0.230080  0.643191  1
  Mn  Mn10  1  0.750000  0.769920  0.356809  1
  Mn  Mn11  1  0.250000  0.730080  0.856809  1
  C  C12  1  0.750000  0.189270  0.965465  1
  C  C13  1  0.250000  0.810730  0.034535  1
  C  C14  1  0.750000  0.689270  0.534535  1
  C  C15  1  0.250000  0.310730  0.465465  1
  C  C16  1  0.750000  0.035917  0.260233  1
  C  C17  1  0.250000  0.464083  0.760233  1
  C  C18  1  0.750000  0.535917  0.239767  1
  C  C19  1  0.250000  0.964083  0.739767  1
