# generated using pymatgen
data_Li3TbDy3AlPt4
_symmetry_space_group_name_H-M   'P 1'
_cell_length_a   4.04265100
_cell_length_b   7.01408028
_cell_length_c   8.43863150
_cell_angle_alpha   90.87907533
_cell_angle_beta   90.00000000
_cell_angle_gamma   90.00000000
_symmetry_Int_Tables_number   1
_chemical_formula_structural   Li3TbDy3AlPt4
_chemical_formula_sum   'Li3 Tb1 Dy3 Al1 Pt4'
_cell_volume   239.25327246
_cell_formula_units_Z   1
loop_
 _symmetry_equiv_pos_site_id
 _symmetry_equiv_pos_as_xyz
  1  'x, y, z'
loop_
 _atom_site_type_symbol
 _atom_site_label
 _atom_site_symmetry_multiplicity
 _atom_site_fract_x
 _atom_site_fract_y
 _atom_site_fract_z
 _atom_site_occupancy
  Li  Li0  1  0.250000  0.874002  0.942044  1
  Li  Li1  1  0.750000  0.130771  0.060972  1
  Li  Li2  1  0.750000  0.629639  0.438730  1
  Tb  Tb3  1  0.250000  0.455514  0.180023  1
  Dy  Dy4  1  0.750000  0.544242  0.817494  1
  Dy  Dy5  1  0.750000  0.042095  0.684051  1
  Dy  Dy6  1  0.250000  0.955966  0.319795  1
  Al  Al7  1  0.250000  0.371260  0.558299  1
  Pt  Pt8  1  0.250000  0.741612  0.617955  1
  Pt  Pt9  1  0.750000  0.253867  0.391638  1
  Pt  Pt10  1  0.750000  0.745680  0.123791  1
  Pt  Pt11  1  0.250000  0.255350  0.865206  1
