# generated using pymatgen
data_Tb5Tm2FeBr12
_symmetry_space_group_name_H-M   'P 1'
_cell_length_a   9.18607351
_cell_length_b   9.28010570
_cell_length_c   9.26249457
_cell_angle_alpha   106.99705052
_cell_angle_beta   106.88611590
_cell_angle_gamma   107.08943953
_symmetry_Int_Tables_number   1
_chemical_formula_structural   Tb5Tm2FeBr12
_chemical_formula_sum   'Tb5 Tm2 Fe1 Br12'
_cell_volume   657.75411489
_cell_formula_units_Z   1
loop_
 _symmetry_equiv_pos_site_id
 _symmetry_equiv_pos_as_xyz
  1  'x, y, z'
loop_
 _atom_site_type_symbol
 _atom_site_label
 _atom_site_symmetry_multiplicity
 _atom_site_fract_x
 _atom_site_fract_y
 _atom_site_fract_z
 _atom_site_occupancy
  Tb  Tb0  1  0.707194  0.978538  0.906684  1
  Tb  Tb1  1  0.979270  0.900771  0.693363  1
  Tb  Tb2  1  0.098552  0.304728  0.020732  1
  Tb  Tb3  1  0.293448  0.022325  0.095618  1
  Tb  Tb4  1  0.901653  0.695448  0.978449  1
  Tm  Tm5  1  0.499193  0.499861  0.501082  1
  Tm  Tm6  1  0.020687  0.097311  0.299548  1
  Fe  Fe7  1  0.000229  0.999955  0.998987  1
  Br  Br8  1  0.069615  0.219231  0.674906  1
  Br  Br9  1  0.382967  0.172195  0.461209  1
  Br  Br10  1  0.612889  0.827143  0.539833  1
  Br  Br11  1  0.222933  0.682903  0.072620  1
  Br  Br12  1  0.777335  0.317322  0.928570  1
  Br  Br13  1  0.684856  0.070316  0.223425  1
  Br  Br14  1  0.537175  0.613788  0.828458  1
  Br  Br15  1  0.827980  0.536636  0.612502  1
  Br  Br16  1  0.930149  0.784090  0.320970  1
  Br  Br17  1  0.321357  0.931470  0.781720  1
  Br  Br18  1  0.463116  0.386739  0.173910  1
  Br  Br19  1  0.169401  0.459229  0.387415  1
