# generated using pymatgen
data_Y7Tm13(Cd3Co)2
_symmetry_space_group_name_H-M   'P 1'
_cell_length_a   9.56795182
_cell_length_b   9.53727834
_cell_length_c   9.62488242
_cell_angle_alpha   89.99999780
_cell_angle_beta   89.80057929
_cell_angle_gamma   119.89400281
_symmetry_Int_Tables_number   1
_chemical_formula_structural   Y7Tm13(Cd3Co)2
_chemical_formula_sum   'Y7 Tm13 Cd6 Co2'
_cell_volume   761.42806567
_cell_formula_units_Z   1
loop_
 _symmetry_equiv_pos_site_id
 _symmetry_equiv_pos_as_xyz
  1  'x, y, z'
loop_
 _atom_site_type_symbol
 _atom_site_label
 _atom_site_symmetry_multiplicity
 _atom_site_fract_x
 _atom_site_fract_y
 _atom_site_fract_z
 _atom_site_occupancy
  Y  Y0  1  0.541758  0.457458  0.250577  1
  Y  Y1  1  0.541758  0.084300  0.250577  1
  Y  Y2  1  0.916562  0.458281  0.249982  1
  Y  Y3  1  0.458076  0.541267  0.749263  1
  Y  Y4  1  0.458076  0.916810  0.749263  1
  Y  Y5  1  0.083650  0.541826  0.750074  1
  Y  Y6  1  0.577009  0.788505  0.063784  1
  Tm  Tm7  1  0.999993  0.999997  0.499892  1
  Tm  Tm8  1  0.000939  0.000470  0.999945  1
  Tm  Tm9  1  0.212042  0.788248  0.435510  1
  Tm  Tm10  1  0.212042  0.423796  0.435510  1
  Tm  Tm11  1  0.576599  0.788300  0.436355  1
  Tm  Tm12  1  0.788089  0.211960  0.564597  1
  Tm  Tm13  1  0.788089  0.576129  0.564597  1
  Tm  Tm14  1  0.423632  0.211815  0.564613  1
  Tm  Tm15  1  0.788490  0.212382  0.935251  1
  Tm  Tm16  1  0.788490  0.576107  0.935251  1
  Tm  Tm17  1  0.423998  0.211999  0.935474  1
  Tm  Tm18  1  0.210959  0.788156  0.064379  1
  Tm  Tm19  1  0.210959  0.422804  0.064379  1
  Cd  Cd20  1  0.885573  0.114749  0.250046  1
  Cd  Cd21  1  0.885573  0.770825  0.250046  1
  Cd  Cd22  1  0.229099  0.114550  0.250076  1
  Cd  Cd23  1  0.114522  0.885401  0.749974  1
  Cd  Cd24  1  0.114522  0.229121  0.749974  1
  Cd  Cd25  1  0.771075  0.885538  0.749933  1
  Co  Co26  1  0.331844  0.665923  0.250960  1
  Co  Co27  1  0.666578  0.333288  0.749718  1
