# generated using pymatgen
data_Ta3Si4TcOs4
_symmetry_space_group_name_H-M   'P 1'
_cell_length_a   6.22329972
_cell_length_b   3.94819400
_cell_length_c   7.25115135
_cell_angle_alpha   90.00000000
_cell_angle_beta   90.54813323
_cell_angle_gamma   90.00000000
_symmetry_Int_Tables_number   1
_chemical_formula_structural   Ta3Si4TcOs4
_chemical_formula_sum   'Ta3 Si4 Tc1 Os4'
_cell_volume   178.15839742
_cell_formula_units_Z   1
loop_
 _symmetry_equiv_pos_site_id
 _symmetry_equiv_pos_as_xyz
  1  'x, y, z'
loop_
 _atom_site_type_symbol
 _atom_site_label
 _atom_site_symmetry_multiplicity
 _atom_site_fract_x
 _atom_site_fract_y
 _atom_site_fract_z
 _atom_site_occupancy
  Ta  Ta0  1  0.015524  0.249999  0.307059  1
  Ta  Ta1  1  0.975461  0.750000  0.683384  1
  Ta  Ta2  1  0.476421  0.750000  0.829943  1
  Si  Si3  1  0.244364  0.750000  0.127808  1
  Si  Si4  1  0.708333  0.750000  0.362978  1
  Si  Si5  1  0.277281  0.249999  0.623400  1
  Si  Si6  1  0.766008  0.249999  0.887455  1
  Tc  Tc7  1  0.524470  0.249999  0.175747  1
  Os  Os8  1  0.856405  0.750000  0.065033  1
  Os  Os9  1  0.336376  0.750000  0.448928  1
  Os  Os10  1  0.664203  0.249999  0.554301  1
  Os  Os11  1  0.155158  0.249999  0.933959  1
