# generated using pymatgen
data_Pr2Ta3Co9P7
_symmetry_space_group_name_H-M   'P 1'
_cell_length_a   3.73535100
_cell_length_b   9.31335559
_cell_length_c   9.31335500
_cell_angle_alpha   119.99999434
_cell_angle_beta   90.00000000
_cell_angle_gamma   90.00000000
_symmetry_Int_Tables_number   1
_chemical_formula_structural   Pr2Ta3Co9P7
_chemical_formula_sum   'Pr2 Ta3 Co9 P7'
_cell_volume   280.59143910
_cell_formula_units_Z   1
loop_
 _symmetry_equiv_pos_site_id
 _symmetry_equiv_pos_as_xyz
  1  'x, y, z'
loop_
 _atom_site_type_symbol
 _atom_site_label
 _atom_site_symmetry_multiplicity
 _atom_site_fract_x
 _atom_site_fract_y
 _atom_site_fract_z
 _atom_site_occupancy
  Pr  Pr0  1  0.000000  0.666667  0.333333  1
  Pr  Pr1  1  0.500000  0.333333  0.666667  1
  Ta  Ta2  1  0.500000  0.776758  0.896418  1
  Ta  Ta3  1  0.500000  0.119659  0.223242  1
  Ta  Ta4  1  0.500000  0.103582  0.880341  1
  Co  Co5  1  0.000000  0.570839  0.939963  1
  Co  Co6  1  0.000000  0.369125  0.429161  1
  Co  Co7  1  0.000000  0.060037  0.630875  1
  Co  Co8  1  0.000000  0.879086  0.157807  1
  Co  Co9  1  0.000000  0.278722  0.120914  1
  Co  Co10  1  0.000000  0.842193  0.721278  1
  Co  Co11  1  0.500000  0.948797  0.385711  1
  Co  Co12  1  0.500000  0.436912  0.051203  1
  Co  Co13  1  0.500000  0.614289  0.563088  1
  P  P14  1  0.000000  0.000000  0.000000  1
  P  P15  1  0.500000  0.708213  0.117810  1
  P  P16  1  0.500000  0.409598  0.291787  1
  P  P17  1  0.500000  0.882190  0.590402  1
  P  P18  1  0.000000  0.586749  0.689973  1
  P  P19  1  0.000000  0.103224  0.413251  1
  P  P20  1  0.000000  0.310027  0.896776  1
