# generated using pymatgen
data_Ce2ZrPaSb5
_symmetry_space_group_name_H-M   'P 1'
_cell_length_a   9.36190000
_cell_length_b   9.38336413
_cell_length_c   6.32391100
_cell_angle_alpha   90.00000000
_cell_angle_beta   90.00000000
_cell_angle_gamma   119.92435299
_symmetry_Int_Tables_number   1
_chemical_formula_structural   Ce2ZrPaSb5
_chemical_formula_sum   'Ce4 Zr2 Pa2 Sb10'
_cell_volume   481.47029008
_cell_formula_units_Z   2
loop_
 _symmetry_equiv_pos_site_id
 _symmetry_equiv_pos_as_xyz
  1  'x, y, z'
loop_
 _atom_site_type_symbol
 _atom_site_label
 _atom_site_symmetry_multiplicity
 _atom_site_fract_x
 _atom_site_fract_y
 _atom_site_fract_z
 _atom_site_occupancy
  Ce  Ce0  1  0.995934  0.612537  0.250000  1
  Ce  Ce1  1  0.004066  0.387463  0.750000  1
  Ce  Ce2  1  0.383398  0.387463  0.250000  1
  Ce  Ce3  1  0.616602  0.612537  0.750000  1
  Zr  Zr4  1  0.000000  0.000000  0.000000  1
  Zr  Zr5  1  0.000000  0.000000  0.500000  1
  Pa  Pa6  1  0.612152  0.000000  0.250000  1
  Pa  Pa7  1  0.387848  0.000000  0.750000  1
  Sb  Sb8  1  0.270161  0.000000  0.250000  1
  Sb  Sb9  1  0.729839  0.000000  0.750000  1
  Sb  Sb10  1  0.995995  0.264898  0.250000  1
  Sb  Sb11  1  0.004005  0.735102  0.750000  1
  Sb  Sb12  1  0.731097  0.735102  0.250000  1
  Sb  Sb13  1  0.268903  0.264898  0.750000  1
  Sb  Sb14  1  0.337349  0.674698  0.000000  1
  Sb  Sb15  1  0.662651  0.325302  0.000000  1
  Sb  Sb16  1  0.662651  0.325302  0.500000  1
  Sb  Sb17  1  0.337349  0.674698  0.500000  1
