# generated using pymatgen
data_NbSi(BW2)2
_symmetry_space_group_name_H-M   'P 1'
_cell_length_a   7.08087168
_cell_length_b   7.08087178
_cell_length_c   7.09041926
_cell_angle_alpha   128.94678935
_cell_angle_beta   128.94678437
_cell_angle_gamma   74.99568578
_symmetry_Int_Tables_number   1
_chemical_formula_structural   NbSi(BW2)2
_chemical_formula_sum   'Nb2 Si2 B4 W8'
_cell_volume   209.50606457
_cell_formula_units_Z   2
loop_
 _symmetry_equiv_pos_site_id
 _symmetry_equiv_pos_as_xyz
  1  'x, y, z'
loop_
 _atom_site_type_symbol
 _atom_site_label
 _atom_site_symmetry_multiplicity
 _atom_site_fract_x
 _atom_site_fract_y
 _atom_site_fract_z
 _atom_site_occupancy
  Nb  Nb0  1  0.695923  0.520282  0.500000  1
  Nb  Nb1  1  0.979718  0.804077  0.500000  1
  Si  Si2  1  0.247547  0.252453  0.000000  1
  Si  Si3  1  0.747547  0.752453  0.000000  1
  B  B4  1  0.131828  0.626836  0.758663  1
  B  B5  1  0.873164  0.368172  0.241337  1
  B  B6  1  0.620529  0.879471  0.500000  1
  B  B7  1  0.377337  0.122663  0.500000  1
  W  W8  1  0.999836  0.999763  0.999597  1
  W  W9  1  0.500237  0.500164  0.000403  1
  W  W10  1  0.801734  0.303277  0.824490  1
  W  W11  1  0.196723  0.698266  0.175510  1
  W  W12  1  0.477244  0.978787  0.175510  1
  W  W13  1  0.302280  0.472863  0.500000  1
  W  W14  1  0.027137  0.197720  0.500000  1
  W  W15  1  0.521213  0.022756  0.824490  1
