# generated using pymatgen
data_Ho7Sn23Os5Rh
_symmetry_space_group_name_H-M   'P 1'
_cell_length_a   9.84532515
_cell_length_b   9.84532574
_cell_length_c   10.10770517
_cell_angle_alpha   89.87917307
_cell_angle_beta   90.12082603
_cell_angle_gamma   119.95943321
_symmetry_Int_Tables_number   1
_chemical_formula_structural   Ho7Sn23Os5Rh
_chemical_formula_sum   'Ho7 Sn23 Os5 Rh1'
_cell_volume   848.82751195
_cell_formula_units_Z   1
loop_
 _symmetry_equiv_pos_site_id
 _symmetry_equiv_pos_as_xyz
  1  'x, y, z'
loop_
 _atom_site_type_symbol
 _atom_site_label
 _atom_site_symmetry_multiplicity
 _atom_site_fract_x
 _atom_site_fract_y
 _atom_site_fract_z
 _atom_site_occupancy
  Ho  Ho0  1  0.006277  0.993723  0.991537  1
  Ho  Ho1  1  0.514571  0.485429  0.698383  1
  Ho  Ho2  1  0.514381  0.029517  0.697785  1
  Ho  Ho3  1  0.970483  0.485619  0.697785  1
  Ho  Ho4  1  0.032178  0.518684  0.304507  1
  Ho  Ho5  1  0.481316  0.967822  0.304507  1
  Ho  Ho6  1  0.483982  0.516018  0.302828  1
  Sn  Sn7  1  0.665505  0.334495  0.178058  1
  Sn  Sn8  1  0.666937  0.333063  0.871233  1
  Sn  Sn9  1  0.333033  0.666967  0.129535  1
  Sn  Sn10  1  0.350005  0.349845  0.000048  1
  Sn  Sn11  1  0.998890  0.647278  0.000265  1
  Sn  Sn12  1  0.650405  0.998289  0.001680  1
  Sn  Sn13  1  0.650155  0.649995  0.000048  1
  Sn  Sn14  1  0.333027  0.666973  0.824925  1
  Sn  Sn15  1  0.440202  0.220852  0.462469  1
  Sn  Sn16  1  0.220111  0.779889  0.539478  1
  Sn  Sn17  1  0.219684  0.439803  0.537826  1
  Sn  Sn18  1  0.560197  0.780316  0.537826  1
  Sn  Sn19  1  0.117808  0.882192  0.274953  1
  Sn  Sn20  1  0.779148  0.559798  0.462469  1
  Sn  Sn21  1  0.780093  0.219907  0.461488  1
  Sn  Sn22  1  0.352722  0.001110  0.000265  1
  Sn  Sn23  1  0.115964  0.234078  0.275185  1
  Sn  Sn24  1  0.765922  0.884036  0.275185  1
  Sn  Sn25  1  0.235351  0.118386  0.721320  1
  Sn  Sn26  1  0.881614  0.764649  0.721320  1
  Sn  Sn27  1  0.881831  0.118169  0.724393  1
  Sn  Sn28  1  0.999458  0.000542  0.498544  1
  Sn  Sn29  1  0.001711  0.349595  0.001680  1
  Os  Os30  1  0.168831  0.831169  0.800466  1
  Os  Os31  1  0.169564  0.339944  0.798562  1
  Os  Os32  1  0.660056  0.830436  0.798562  1
  Os  Os33  1  0.340357  0.169913  0.201777  1
  Os  Os34  1  0.830087  0.659643  0.201777  1
  Rh  Rh35  1  0.828145  0.171855  0.201328  1
