# generated using pymatgen
data_Hf4In2Pd3Pt
_symmetry_space_group_name_H-M   'P 1'
_cell_length_a   7.54162174
_cell_length_b   7.54162174
_cell_length_c   6.76140817
_cell_angle_alpha   90.11831941
_cell_angle_beta   90.11831941
_cell_angle_gamma   90.04889533
_symmetry_Int_Tables_number   1
_chemical_formula_structural   Hf4In2Pd3Pt
_chemical_formula_sum   'Hf8 In4 Pd6 Pt2'
_cell_volume   384.56046434
_cell_formula_units_Z   2
loop_
 _symmetry_equiv_pos_site_id
 _symmetry_equiv_pos_as_xyz
  1  'x, y, z'
loop_
 _atom_site_type_symbol
 _atom_site_label
 _atom_site_symmetry_multiplicity
 _atom_site_fract_x
 _atom_site_fract_y
 _atom_site_fract_z
 _atom_site_occupancy
  Hf  Hf0  1  0.154353  0.154353  0.002215  1
  Hf  Hf1  1  0.845647  0.845647  0.997785  1
  Hf  Hf2  1  0.653261  0.346739  0.500000  1
  Hf  Hf3  1  0.346739  0.653261  0.500000  1
  Hf  Hf4  1  0.679471  0.320529  0.000000  1
  Hf  Hf5  1  0.320529  0.679471  0.000000  1
  Hf  Hf6  1  0.818748  0.818748  0.501353  1
  Hf  Hf7  1  0.181252  0.181252  0.498647  1
  In  In8  1  0.500782  0.998205  0.250217  1
  In  In9  1  0.499218  0.001795  0.749783  1
  In  In10  1  0.998205  0.500782  0.250217  1
  In  In11  1  0.001795  0.499218  0.749783  1
  Pd  Pd12  1  0.632732  0.632732  0.220041  1
  Pd  Pd13  1  0.870120  0.129875  0.723298  1
  Pd  Pd14  1  0.870125  0.129880  0.276702  1
  Pd  Pd15  1  0.367268  0.367268  0.779959  1
  Pd  Pd16  1  0.129880  0.870125  0.276702  1
  Pd  Pd17  1  0.129875  0.870120  0.723298  1
  Pt  Pt18  1  0.371979  0.371979  0.226701  1
  Pt  Pt19  1  0.628021  0.628021  0.773299  1
