# generated using pymatgen
data_Dy3TmAl18Ir5Au
_symmetry_space_group_name_H-M   'P 1'
_cell_length_a   7.58291322
_cell_length_b   7.58365031
_cell_length_c   9.46026995
_cell_angle_alpha   89.96170084
_cell_angle_beta   89.98729770
_cell_angle_gamma   119.56225860
_symmetry_Int_Tables_number   1
_chemical_formula_structural   Dy3TmAl18Ir5Au
_chemical_formula_sum   'Dy3 Tm1 Al18 Ir5 Au1'
_cell_volume   473.20265410
_cell_formula_units_Z   1
loop_
 _symmetry_equiv_pos_site_id
 _symmetry_equiv_pos_as_xyz
  1  'x, y, z'
loop_
 _atom_site_type_symbol
 _atom_site_label
 _atom_site_symmetry_multiplicity
 _atom_site_fract_x
 _atom_site_fract_y
 _atom_site_fract_z
 _atom_site_occupancy
  Dy  Dy0  1  0.995942  0.673572  0.251209  1
  Dy  Dy1  1  0.004183  0.326439  0.748797  1
  Dy  Dy2  1  0.673419  0.995905  0.251196  1
  Tm  Tm3  1  0.326478  0.004058  0.748486  1
  Al  Al4  1  0.135419  0.135318  0.256090  1
  Al  Al5  1  0.865094  0.864778  0.744009  1
  Al  Al6  1  0.001553  0.344201  0.079226  1
  Al  Al7  1  0.998921  0.656369  0.920372  1
  Al  Al8  1  0.000468  0.664934  0.574677  1
  Al  Al9  1  0.335571  0.000039  0.426252  1
  Al  Al10  1  0.000031  0.335559  0.425777  1
  Al  Al11  1  0.663989  0.999970  0.574650  1
  Al  Al12  1  0.655301  0.998483  0.920298  1
  Al  Al13  1  0.344094  0.001549  0.078779  1
  Al  Al14  1  0.333283  0.332861  0.553377  1
  Al  Al15  1  0.666742  0.666726  0.447197  1
  Al  Al16  1  0.657943  0.657940  0.059300  1
  Al  Al17  1  0.341982  0.341548  0.940126  1
  Al  Al18  1  0.339169  0.550251  0.251180  1
  Al  Al19  1  0.660390  0.449185  0.748823  1
  Al  Al20  1  0.550193  0.339073  0.251170  1
  Al  Al21  1  0.449675  0.661204  0.748850  1
  Ir  Ir22  1  0.671793  0.327924  0.999789  1
  Ir  Ir23  1  0.328050  0.672066  0.999790  1
  Ir  Ir24  1  0.328005  0.672062  0.500197  1
  Ir  Ir25  1  0.671813  0.327891  0.500239  1
  Ir  Ir26  1  0.000339  0.000075  0.500271  1
  Au  Au27  1  0.000160  0.000018  0.999873  1
