# generated using pymatgen
data_Tb6YbTm(B6Os)4
_symmetry_space_group_name_H-M   'P 1'
_cell_length_a   3.66298500
_cell_length_b   9.17052324
_cell_length_c   11.55918102
_cell_angle_alpha   89.93631458
_cell_angle_beta   90.00000000
_cell_angle_gamma   90.00000000
_symmetry_Int_Tables_number   1
_chemical_formula_structural   Tb6YbTm(B6Os)4
_chemical_formula_sum   'Tb6 Yb1 Tm1 B24 Os4'
_cell_volume   388.28986290
_cell_formula_units_Z   1
loop_
 _symmetry_equiv_pos_site_id
 _symmetry_equiv_pos_as_xyz
  1  'x, y, z'
loop_
 _atom_site_type_symbol
 _atom_site_label
 _atom_site_symmetry_multiplicity
 _atom_site_fract_x
 _atom_site_fract_y
 _atom_site_fract_z
 _atom_site_occupancy
  Tb  Tb0  1  0.000000  0.675990  0.585544  1
  Tb  Tb1  1  0.000000  0.822056  0.086249  1
  Tb  Tb2  1  0.000000  0.178356  0.914059  1
  Tb  Tb3  1  0.000000  0.943999  0.371670  1
  Tb  Tb4  1  0.000000  0.058336  0.627871  1
  Tb  Tb5  1  0.000000  0.443033  0.128418  1
  Yb  Yb6  1  0.000000  0.323482  0.413651  1
  Tm  Tm7  1  0.000000  0.556288  0.872278  1
  B  B8  1  0.500000  0.553247  0.432520  1
  B  B9  1  0.500000  0.446385  0.567729  1
  B  B10  1  0.500000  0.053047  0.066616  1
  B  B11  1  0.500000  0.945119  0.932333  1
  B  B12  1  0.500000  0.747111  0.418898  1
  B  B13  1  0.500000  0.253840  0.581134  1
  B  B14  1  0.500000  0.247140  0.080681  1
  B  B15  1  0.500000  0.750620  0.919194  1
  B  B16  1  0.500000  0.790329  0.266450  1
  B  B17  1  0.500000  0.211406  0.733953  1
  B  B18  1  0.500000  0.289434  0.233540  1
  B  B19  1  0.500000  0.708604  0.766962  1
  B  B20  1  0.500000  0.631488  0.186378  1
  B  B21  1  0.500000  0.369997  0.815066  1
  B  B22  1  0.500000  0.131924  0.313496  1
  B  B23  1  0.500000  0.867886  0.686121  1
  B  B24  1  0.500000  0.983920  0.211831  1
  B  B25  1  0.500000  0.015701  0.787484  1
  B  B26  1  0.500000  0.483453  0.288058  1
  B  B27  1  0.500000  0.517046  0.713572  1
  B  B28  1  0.500000  0.606850  0.028700  1
  B  B29  1  0.500000  0.394332  0.969661  1
  B  B30  1  0.500000  0.106521  0.470462  1
  B  B31  1  0.500000  0.893147  0.529825  1
  Os  Os32  1  0.000000  0.638320  0.320928  1
  Os  Os33  1  0.000000  0.364001  0.680164  1
  Os  Os34  1  0.000000  0.136304  0.176873  1
  Os  Os35  1  0.000000  0.861288  0.821632  1
