# generated using pymatgen
data_La2Tm4FeBr10
_symmetry_space_group_name_H-M   'P 1'
_cell_length_a   7.38004351
_cell_length_b   9.28520938
_cell_length_c   9.09054500
_cell_angle_alpha   107.03364367
_cell_angle_beta   95.95473578
_cell_angle_gamma   105.88104506
_symmetry_Int_Tables_number   1
_chemical_formula_structural   La2Tm4FeBr10
_chemical_formula_sum   'La2 Tm4 Fe1 Br10'
_cell_volume   561.30151147
_cell_formula_units_Z   1
loop_
 _symmetry_equiv_pos_site_id
 _symmetry_equiv_pos_as_xyz
  1  'x, y, z'
loop_
 _atom_site_type_symbol
 _atom_site_label
 _atom_site_symmetry_multiplicity
 _atom_site_fract_x
 _atom_site_fract_y
 _atom_site_fract_z
 _atom_site_occupancy
  La  La0  1  0.383361  0.955876  0.729687  1
  La  La1  1  0.616639  0.044124  0.270313  1
  Tm  Tm2  1  0.472324  0.296535  0.592124  1
  Tm  Tm3  1  0.527676  0.703465  0.407876  1
  Tm  Tm4  1  0.860034  0.134724  0.674961  1
  Tm  Tm5  1  0.139966  0.865276  0.325039  1
  Fe  Fe6  1  0.500000  0.000000  0.500000  1
  Br  Br7  1  0.420621  0.620975  0.670312  1
  Br  Br8  1  0.579379  0.379025  0.329688  1
  Br  Br9  1  0.281959  0.266389  0.841903  1
  Br  Br10  1  0.718041  0.733611  0.158097  1
  Br  Br11  1  0.848066  0.445650  0.766577  1
  Br  Br12  1  0.151934  0.554350  0.233423  1
  Br  Br13  1  0.053422  0.178613  0.417073  1
  Br  Br14  1  0.227234  0.909437  0.046087  1
  Br  Br15  1  0.772766  0.090563  0.953913  1
  Br  Br16  1  0.946578  0.821387  0.582927  1
