# generated using pymatgen
data_CuSb3(SeO3)8
_symmetry_space_group_name_H-M   'P 1'
_cell_length_a   8.35919623
_cell_length_b   8.38040272
_cell_length_c   8.35846185
_cell_angle_alpha   89.48273224
_cell_angle_beta   90.32930029
_cell_angle_gamma   89.54354916
_symmetry_Int_Tables_number   1
_chemical_formula_structural   CuSb3(SeO3)8
_chemical_formula_sum   'Cu1 Sb3 Se8 O24'
_cell_volume   585.48657218
_cell_formula_units_Z   1
loop_
 _symmetry_equiv_pos_site_id
 _symmetry_equiv_pos_as_xyz
  1  'x, y, z'
loop_
 _atom_site_type_symbol
 _atom_site_label
 _atom_site_symmetry_multiplicity
 _atom_site_fract_x
 _atom_site_fract_y
 _atom_site_fract_z
 _atom_site_occupancy
  Cu  Cu0  1  0.000000  0.500000  0.000000  1
  Sb  Sb1  1  0.500000  0.500000  0.500000  1
  Sb  Sb2  1  0.000000  0.000000  0.500000  1
  Sb  Sb3  1  0.500000  0.000000  0.000000  1
  Se  Se4  1  0.326476  0.666992  0.166138  1
  Se  Se5  1  0.834195  0.333425  0.325109  1
  Se  Se6  1  0.675113  0.824698  0.674311  1
  Se  Se7  1  0.166549  0.171900  0.833372  1
  Se  Se8  1  0.673524  0.333008  0.833862  1
  Se  Se9  1  0.165805  0.666575  0.674891  1
  Se  Se10  1  0.324887  0.175302  0.325689  1
  Se  Se11  1  0.833451  0.828100  0.166628  1
  O  O12  1  0.249714  0.540691  0.035721  1
  O  O13  1  0.735510  0.457046  0.470935  1
  O  O14  1  0.759315  0.965858  0.545675  1
  O  O15  1  0.263587  0.023800  0.961035  1
  O  O16  1  0.534094  0.952382  0.759533  1
  O  O17  1  0.472474  0.537803  0.263543  1
  O  O18  1  0.962779  0.462000  0.247761  1
  O  O19  1  0.041373  0.027115  0.735667  1
  O  O20  1  0.961841  0.236058  0.472868  1
  O  O21  1  0.547103  0.740079  0.533443  1
  O  O22  1  0.474943  0.765277  0.044633  1
  O  O23  1  0.038472  0.249916  0.962048  1
  O  O24  1  0.750286  0.459309  0.964279  1
  O  O25  1  0.264490  0.542954  0.529065  1
  O  O26  1  0.240685  0.034142  0.454325  1
  O  O27  1  0.736413  0.976200  0.038965  1
  O  O28  1  0.465906  0.047618  0.240467  1
  O  O29  1  0.527526  0.462197  0.736457  1
  O  O30  1  0.037221  0.538000  0.752239  1
  O  O31  1  0.958627  0.972885  0.264333  1
  O  O32  1  0.038159  0.763942  0.527132  1
  O  O33  1  0.452897  0.259921  0.466557  1
  O  O34  1  0.525057  0.234723  0.955367  1
  O  O35  1  0.961528  0.750084  0.037952  1
