# generated using pymatgen
data_Th2Al20Fe2RuRh
_symmetry_space_group_name_H-M   'P 1'
_cell_length_a   6.83611932
_cell_length_b   6.83382238
_cell_length_c   9.12262244
_cell_angle_alpha   89.98940388
_cell_angle_beta   90.02115593
_cell_angle_gamma   97.56846709
_symmetry_Int_Tables_number   1
_chemical_formula_structural   Th2Al20Fe2RuRh
_chemical_formula_sum   'Th2 Al20 Fe2 Ru1 Rh1'
_cell_volume   422.46712055
_cell_formula_units_Z   1
loop_
 _symmetry_equiv_pos_site_id
 _symmetry_equiv_pos_as_xyz
  1  'x, y, z'
loop_
 _atom_site_type_symbol
 _atom_site_label
 _atom_site_symmetry_multiplicity
 _atom_site_fract_x
 _atom_site_fract_y
 _atom_site_fract_z
 _atom_site_occupancy
  Th  Th0  1  0.875961  0.127527  0.749602  1
  Th  Th1  1  0.124039  0.872473  0.250398  1
  Al  Al2  1  0.518978  0.776241  0.744724  1
  Al  Al3  1  0.481022  0.223759  0.255276  1
  Al  Al4  1  0.592942  0.861945  0.253884  1
  Al  Al5  1  0.778562  0.771389  0.002864  1
  Al  Al6  1  0.163615  0.843123  0.601410  1
  Al  Al7  1  0.221438  0.228611  0.997136  1
  Al  Al8  1  0.137349  0.406388  0.247311  1
  Al  Al9  1  0.625886  0.381439  0.950022  1
  Al  Al10  1  0.843430  0.164187  0.102098  1
  Al  Al11  1  0.379413  0.624726  0.451386  1
  Al  Al12  1  0.156570  0.835813  0.897902  1
  Al  Al13  1  0.223381  0.482256  0.752894  1
  Al  Al14  1  0.374114  0.618561  0.049978  1
  Al  Al15  1  0.836385  0.156877  0.398590  1
  Al  Al16  1  0.620587  0.375274  0.548614  1
  Al  Al17  1  0.407058  0.138055  0.746116  1
  Al  Al18  1  0.776619  0.517744  0.247106  1
  Al  Al19  1  0.773146  0.778502  0.502141  1
  Al  Al20  1  0.226854  0.221498  0.497859  1
  Al  Al21  1  0.862651  0.593612  0.752689  1
  Fe  Fe22  1  0.000000  0.500000  0.000000  1
  Fe  Fe23  1  0.500000  0.000000  0.500000  1
  Ru  Ru24  1  0.000000  0.500000  0.500000  1
  Rh  Rh25  1  0.500000  0.000000  0.000000  1
