# generated using pymatgen
data_Ce2ErGa5
_symmetry_space_group_name_H-M   'P 1'
_cell_length_a   6.23168900
_cell_length_b   9.73484800
_cell_length_c   11.64151000
_cell_angle_alpha   90.00000000
_cell_angle_beta   90.00000000
_cell_angle_gamma   90.00000000
_symmetry_Int_Tables_number   1
_chemical_formula_structural   Ce2ErGa5
_chemical_formula_sum   'Ce8 Er4 Ga20'
_cell_volume   706.22690957
_cell_formula_units_Z   4
loop_
 _symmetry_equiv_pos_site_id
 _symmetry_equiv_pos_as_xyz
  1  'x, y, z'
loop_
 _atom_site_type_symbol
 _atom_site_label
 _atom_site_symmetry_multiplicity
 _atom_site_fract_x
 _atom_site_fract_y
 _atom_site_fract_z
 _atom_site_occupancy
  Ce  Ce0  1  0.888639  0.509680  0.352963  1
  Ce  Ce1  1  0.611361  0.990320  0.852963  1
  Ce  Ce2  1  0.111361  0.009680  0.647037  1
  Ce  Ce3  1  0.388639  0.490320  0.147037  1
  Ce  Ce4  1  0.111361  0.490320  0.647037  1
  Ce  Ce5  1  0.388639  0.009680  0.147037  1
  Ce  Ce6  1  0.888639  0.990320  0.352963  1
  Ce  Ce7  1  0.611361  0.509680  0.852963  1
  Er  Er8  1  0.852900  0.750000  0.075141  1
  Er  Er9  1  0.647100  0.750000  0.575141  1
  Er  Er10  1  0.147100  0.250000  0.924859  1
  Er  Er11  1  0.352900  0.250000  0.424859  1
  Ga  Ga12  1  0.875185  0.054138  0.090159  1
  Ga  Ga13  1  0.624815  0.445862  0.590159  1
  Ga  Ga14  1  0.124815  0.554138  0.909841  1
  Ga  Ga15  1  0.375185  0.945862  0.409841  1
  Ga  Ga16  1  0.124815  0.945862  0.909841  1
  Ga  Ga17  1  0.375185  0.554138  0.409841  1
  Ga  Ga18  1  0.875185  0.445862  0.090159  1
  Ga  Ga19  1  0.624815  0.054138  0.590159  1
  Ga  Ga20  1  0.173665  0.750000  0.254128  1
  Ga  Ga21  1  0.326335  0.750000  0.754128  1
  Ga  Ga22  1  0.826335  0.250000  0.745872  1
  Ga  Ga23  1  0.673665  0.250000  0.245872  1
  Ga  Ga24  1  0.369823  0.750000  0.001732  1
  Ga  Ga25  1  0.130177  0.750000  0.501732  1
  Ga  Ga26  1  0.630177  0.250000  0.998268  1
  Ga  Ga27  1  0.869823  0.250000  0.498268  1
  Ga  Ga28  1  0.596508  0.750000  0.299402  1
  Ga  Ga29  1  0.903492  0.750000  0.799402  1
  Ga  Ga30  1  0.403492  0.250000  0.700598  1
  Ga  Ga31  1  0.096508  0.250000  0.200598  1
