# generated using pymatgen
data_La4NdCo2
_symmetry_space_group_name_H-M   'P 1'
_cell_length_a   9.13789045
_cell_length_b   9.13789090
_cell_length_c   7.07487964
_cell_angle_alpha   86.41777756
_cell_angle_beta   86.41777553
_cell_angle_gamma   42.48279592
_symmetry_Int_Tables_number   1
_chemical_formula_structural   La4NdCo2
_chemical_formula_sum   'La8 Nd2 Co4'
_cell_volume   398.08330931
_cell_formula_units_Z   2
loop_
 _symmetry_equiv_pos_site_id
 _symmetry_equiv_pos_as_xyz
  1  'x, y, z'
loop_
 _atom_site_type_symbol
 _atom_site_label
 _atom_site_symmetry_multiplicity
 _atom_site_fract_x
 _atom_site_fract_y
 _atom_site_fract_z
 _atom_site_occupancy
  La  La0  1  0.013753  0.798687  0.899492  1
  La  La1  1  0.201313  0.986247  0.600508  1
  La  La2  1  0.986247  0.201313  0.100508  1
  La  La3  1  0.798687  0.013753  0.399492  1
  La  La4  1  0.361254  0.218307  0.832514  1
  La  La5  1  0.781693  0.638746  0.667486  1
  La  La6  1  0.638746  0.781693  0.167486  1
  La  La7  1  0.218307  0.361254  0.332514  1
  Nd  Nd8  1  0.570814  0.429186  0.750000  1
  Nd  Nd9  1  0.429186  0.570814  0.250000  1
  Co  Co10  1  0.176823  0.601503  0.581798  1
  Co  Co11  1  0.398497  0.823177  0.918202  1
  Co  Co12  1  0.823177  0.398497  0.418202  1
  Co  Co13  1  0.601503  0.176823  0.081798  1
