# generated using pymatgen
data_LaHg3(Bi2O7)2
_symmetry_space_group_name_H-M   'P 1'
_cell_length_a   7.87811203
_cell_length_b   7.87811267
_cell_length_c   7.87811172
_cell_angle_alpha   59.24542997
_cell_angle_beta   59.24542575
_cell_angle_gamma   59.24542852
_symmetry_Int_Tables_number   1
_chemical_formula_structural   LaHg3(Bi2O7)2
_chemical_formula_sum   'La1 Hg3 Bi4 O14'
_cell_volume   339.79912443
_cell_formula_units_Z   1
loop_
 _symmetry_equiv_pos_site_id
 _symmetry_equiv_pos_as_xyz
  1  'x, y, z'
loop_
 _atom_site_type_symbol
 _atom_site_label
 _atom_site_symmetry_multiplicity
 _atom_site_fract_x
 _atom_site_fract_y
 _atom_site_fract_z
 _atom_site_occupancy
  La  La0  1  0.125000  0.125000  0.125000  1
  Hg  Hg1  1  0.625000  0.125000  0.125000  1
  Hg  Hg2  1  0.125000  0.625000  0.125000  1
  Hg  Hg3  1  0.125000  0.125000  0.625000  1
  Bi  Bi4  1  0.625000  0.625000  0.125000  1
  Bi  Bi5  1  0.625000  0.625000  0.625000  1
  Bi  Bi6  1  0.625000  0.125000  0.625000  1
  Bi  Bi7  1  0.125000  0.625000  0.625000  1
  O  O8  1  0.720015  0.294529  0.294529  1
  O  O9  1  0.703792  0.703792  0.293041  1
  O  O10  1  0.294529  0.720015  0.294529  1
  O  O11  1  0.995598  0.995598  0.995598  1
  O  O12  1  0.703792  0.293041  0.703792  1
  O  O13  1  0.956959  0.546208  0.546208  1
  O  O14  1  0.293041  0.703792  0.703792  1
  O  O15  1  0.546208  0.956959  0.546208  1
  O  O16  1  0.254402  0.254402  0.254402  1
  O  O17  1  0.955471  0.529985  0.955471  1
  O  O18  1  0.546208  0.546208  0.956959  1
  O  O19  1  0.955471  0.955471  0.529985  1
  O  O20  1  0.529985  0.955471  0.955471  1
  O  O21  1  0.294529  0.294529  0.720015  1
