# generated using pymatgen
data_Rb(SiP)3
_symmetry_space_group_name_H-M   'P 1'
_cell_length_a   3.56023500
_cell_length_b   9.91956500
_cell_length_c   19.93491000
_cell_angle_alpha   90.00000000
_cell_angle_beta   90.00000000
_cell_angle_gamma   90.00000000
_symmetry_Int_Tables_number   1
_chemical_formula_structural   Rb(SiP)3
_chemical_formula_sum   'Rb4 Si12 P12'
_cell_volume   704.02093265
_cell_formula_units_Z   4
loop_
 _symmetry_equiv_pos_site_id
 _symmetry_equiv_pos_as_xyz
  1  'x, y, z'
loop_
 _atom_site_type_symbol
 _atom_site_label
 _atom_site_symmetry_multiplicity
 _atom_site_fract_x
 _atom_site_fract_y
 _atom_site_fract_z
 _atom_site_occupancy
  Rb  Rb0  1  0.000000  0.303359  0.308198  1
  Rb  Rb1  1  0.000000  0.696641  0.691802  1
  Rb  Rb2  1  0.000000  0.196641  0.808198  1
  Rb  Rb3  1  0.000000  0.803359  0.191802  1
  Si  Si4  1  0.500000  0.404358  0.035112  1
  Si  Si5  1  0.500000  0.595642  0.964888  1
  Si  Si6  1  0.500000  0.095642  0.535112  1
  Si  Si7  1  0.500000  0.904358  0.464888  1
  Si  Si8  1  0.000000  0.113750  0.016154  1
  Si  Si9  1  0.000000  0.886250  0.983846  1
  Si  Si10  1  0.000000  0.386250  0.516154  1
  Si  Si11  1  0.000000  0.613750  0.483846  1
  Si  Si12  1  0.000000  0.179201  0.129723  1
  Si  Si13  1  0.000000  0.820799  0.870277  1
  Si  Si14  1  0.000000  0.320799  0.629723  1
  Si  Si15  1  0.000000  0.679201  0.370277  1
  P  P16  1  0.500000  0.113020  0.189421  1
  P  P17  1  0.500000  0.886980  0.810579  1
  P  P18  1  0.500000  0.386980  0.689421  1
  P  P19  1  0.500000  0.613020  0.310579  1
  P  P20  1  0.500000  0.282315  0.465710  1
  P  P21  1  0.500000  0.717685  0.534290  1
  P  P22  1  0.500000  0.217685  0.965710  1
  P  P23  1  0.500000  0.782315  0.034290  1
  P  P24  1  0.000000  0.409835  0.106648  1
  P  P25  1  0.000000  0.590165  0.893352  1
  P  P26  1  0.000000  0.090165  0.606648  1
  P  P27  1  0.000000  0.909835  0.393352  1
