# generated using pymatgen
data_Tb3Dy9(TcRh)2
_symmetry_space_group_name_H-M   'P 1'
_cell_length_a   6.32915000
_cell_length_b   7.32772900
_cell_length_c   9.26194800
_cell_angle_alpha   90.00000000
_cell_angle_beta   90.00000000
_cell_angle_gamma   89.99865766
_symmetry_Int_Tables_number   1
_chemical_formula_structural   Tb3Dy9(TcRh)2
_chemical_formula_sum   'Tb3 Dy9 Tc2 Rh2'
_cell_volume   429.55336582
_cell_formula_units_Z   1
loop_
 _symmetry_equiv_pos_site_id
 _symmetry_equiv_pos_as_xyz
  1  'x, y, z'
loop_
 _atom_site_type_symbol
 _atom_site_label
 _atom_site_symmetry_multiplicity
 _atom_site_fract_x
 _atom_site_fract_y
 _atom_site_fract_z
 _atom_site_occupancy
  Tb  Tb0  1  0.870102  0.537535  0.250000  1
  Tb  Tb1  1  0.138261  0.459698  0.750000  1
  Tb  Tb2  1  0.361754  0.959714  0.750000  1
  Dy  Dy3  1  0.328184  0.677991  0.067695  1
  Dy  Dy4  1  0.171952  0.177951  0.432250  1
  Dy  Dy5  1  0.665587  0.322214  0.560370  1
  Dy  Dy6  1  0.834360  0.822348  0.939637  1
  Dy  Dy7  1  0.665587  0.322214  0.939630  1
  Dy  Dy8  1  0.834360  0.822348  0.560363  1
  Dy  Dy9  1  0.328184  0.677991  0.432305  1
  Dy  Dy10  1  0.171952  0.177951  0.067750  1
  Dy  Dy11  1  0.629890  0.037565  0.250000  1
  Tc  Tc12  1  0.037972  0.886586  0.250000  1
  Tc  Tc13  1  0.461882  0.386462  0.250000  1
  Rh  Rh14  1  0.949220  0.115711  0.750000  1
  Rh  Rh15  1  0.550753  0.615720  0.750000  1
