# generated using pymatgen
data_Lu6CdHg9
_symmetry_space_group_name_H-M   'P 1'
_cell_length_a   6.31506419
_cell_length_b   6.31506319
_cell_length_c   9.98495700
_cell_angle_alpha   90.00000000
_cell_angle_beta   90.00000000
_cell_angle_gamma   106.50350883
_symmetry_Int_Tables_number   1
_chemical_formula_structural   Lu6CdHg9
_chemical_formula_sum   'Lu6 Cd1 Hg9'
_cell_volume   381.79545496
_cell_formula_units_Z   1
loop_
 _symmetry_equiv_pos_site_id
 _symmetry_equiv_pos_as_xyz
  1  'x, y, z'
loop_
 _atom_site_type_symbol
 _atom_site_label
 _atom_site_symmetry_multiplicity
 _atom_site_fract_x
 _atom_site_fract_y
 _atom_site_fract_z
 _atom_site_occupancy
  Lu  Lu0  1  0.545926  0.545926  0.250000  1
  Lu  Lu1  1  0.447336  0.447336  0.750000  1
  Lu  Lu2  1  0.222700  0.776910  0.502243  1
  Lu  Lu3  1  0.222700  0.776910  0.997757  1
  Lu  Lu4  1  0.776910  0.222700  0.502243  1
  Lu  Lu5  1  0.776910  0.222700  0.997757  1
  Cd  Cd6  1  0.978626  0.978626  0.250000  1
  Hg  Hg7  1  0.035000  0.035000  0.750000  1
  Hg  Hg8  1  0.279425  0.279425  0.024719  1
  Hg  Hg9  1  0.717017  0.717017  0.978931  1
  Hg  Hg10  1  0.279425  0.279425  0.475281  1
  Hg  Hg11  1  0.717017  0.717017  0.521069  1
  Hg  Hg12  1  0.485857  0.024568  0.250000  1
  Hg  Hg13  1  0.968235  0.522347  0.750000  1
  Hg  Hg14  1  0.522347  0.968235  0.750000  1
  Hg  Hg15  1  0.024568  0.485857  0.250000  1
