# generated using pymatgen
data_Sc4Zn2HgOs
_symmetry_space_group_name_H-M   'P 1'
_cell_length_a   6.71262500
_cell_length_b   6.74480000
_cell_length_c   6.71486700
_cell_angle_alpha   90.00030650
_cell_angle_beta   90.00296986
_cell_angle_gamma   89.99931037
_symmetry_Int_Tables_number   1
_chemical_formula_structural   Sc4Zn2HgOs
_chemical_formula_sum   'Sc8 Zn4 Hg2 Os2'
_cell_volume   304.01770563
_cell_formula_units_Z   2
loop_
 _symmetry_equiv_pos_site_id
 _symmetry_equiv_pos_as_xyz
  1  'x, y, z'
loop_
 _atom_site_type_symbol
 _atom_site_label
 _atom_site_symmetry_multiplicity
 _atom_site_fract_x
 _atom_site_fract_y
 _atom_site_fract_z
 _atom_site_occupancy
  Sc  Sc0  1  0.236298  0.999989  0.263696  1
  Sc  Sc1  1  0.236298  0.500014  0.263697  1
  Sc  Sc2  1  0.763661  0.000004  0.263658  1
  Sc  Sc3  1  0.763661  0.499982  0.263656  1
  Sc  Sc4  1  0.236339  0.999996  0.736342  1
  Sc  Sc5  1  0.236339  0.500019  0.736344  1
  Sc  Sc6  1  0.763702  0.000011  0.736303  1
  Sc  Sc7  1  0.763702  0.499985  0.736302  1
  Zn  Zn8  1  0.000008  0.249999  0.000000  1
  Zn  Zn9  1  0.999992  0.750000  0.000000  1
  Zn  Zn10  1  0.499966  0.249999  0.499999  1
  Zn  Zn11  1  0.500034  0.750000  0.500001  1
  Hg  Hg12  1  0.499984  0.249999  0.000000  1
  Hg  Hg13  1  0.500016  0.750000  0.000000  1
  Os  Os14  1  0.999992  0.750001  0.500000  1
  Os  Os15  1  0.000008  0.249998  0.500001  1
