# generated using pymatgen
data_Mn2AsPd8
_symmetry_space_group_name_H-M   'P 1'
_cell_length_a   3.98313600
_cell_length_b   3.98313600
_cell_length_c   10.87793200
_cell_angle_alpha   90.00000000
_cell_angle_beta   90.00000000
_cell_angle_gamma   90.00000000
_symmetry_Int_Tables_number   1
_chemical_formula_structural   Mn2AsPd8
_chemical_formula_sum   'Mn2 As1 Pd8'
_cell_volume   172.58244206
_cell_formula_units_Z   1
loop_
 _symmetry_equiv_pos_site_id
 _symmetry_equiv_pos_as_xyz
  1  'x, y, z'
loop_
 _atom_site_type_symbol
 _atom_site_label
 _atom_site_symmetry_multiplicity
 _atom_site_fract_x
 _atom_site_fract_y
 _atom_site_fract_z
 _atom_site_occupancy
  Mn  Mn0  1  0.500000  0.500000  0.822755  1
  Mn  Mn1  1  0.500000  0.500000  0.177245  1
  As  As2  1  0.000000  0.000000  0.500000  1
  Pd  Pd3  1  0.500000  0.000000  0.000000  1
  Pd  Pd4  1  0.000000  0.500000  0.000000  1
  Pd  Pd5  1  0.500000  0.000000  0.639658  1
  Pd  Pd6  1  0.000000  0.500000  0.639658  1
  Pd  Pd7  1  0.500000  0.000000  0.360342  1
  Pd  Pd8  1  0.000000  0.500000  0.360342  1
  Pd  Pd9  1  0.000000  0.000000  0.820785  1
  Pd  Pd10  1  0.000000  0.000000  0.179215  1
