# generated using pymatgen
data_LiMn20(WC3)2
_symmetry_space_group_name_H-M   'P 1'
_cell_length_a   7.38888626
_cell_length_b   7.38674654
_cell_length_c   7.38595317
_cell_angle_alpha   60.00411462
_cell_angle_beta   59.98993513
_cell_angle_gamma   59.98961585
_symmetry_Int_Tables_number   1
_chemical_formula_structural   LiMn20(WC3)2
_chemical_formula_sum   'Li1 Mn20 W2 C6'
_cell_volume   285.01656036
_cell_formula_units_Z   1
loop_
 _symmetry_equiv_pos_site_id
 _symmetry_equiv_pos_as_xyz
  1  'x, y, z'
loop_
 _atom_site_type_symbol
 _atom_site_label
 _atom_site_symmetry_multiplicity
 _atom_site_fract_x
 _atom_site_fract_y
 _atom_site_fract_z
 _atom_site_occupancy
  Li  Li0  1  0.000000  0.000000  0.000000  1
  Mn  Mn1  1  0.846817  0.384216  0.384471  1
  Mn  Mn2  1  0.384269  0.846882  0.384338  1
  Mn  Mn3  1  0.384516  0.384337  0.846850  1
  Mn  Mn4  1  0.384485  0.384445  0.384233  1
  Mn  Mn5  1  0.153183  0.615784  0.615529  1
  Mn  Mn6  1  0.615731  0.153118  0.615662  1
  Mn  Mn7  1  0.615484  0.615663  0.153150  1
  Mn  Mn8  1  0.615515  0.615555  0.615767  1
  Mn  Mn9  1  0.659719  0.999934  0.000084  1
  Mn  Mn10  1  0.659837  0.999927  0.340091  1
  Mn  Mn11  1  0.659465  0.340421  0.000003  1
  Mn  Mn12  1  0.999903  0.659797  0.340231  1
  Mn  Mn13  1  0.999808  0.659893  0.000106  1
  Mn  Mn14  1  0.340535  0.659579  0.999997  1
  Mn  Mn15  1  0.000097  0.340203  0.659769  1
  Mn  Mn16  1  0.340163  0.000073  0.659909  1
  Mn  Mn17  1  0.999936  0.000018  0.659527  1
  Mn  Mn18  1  0.340281  0.000066  0.999916  1
  Mn  Mn19  1  0.000192  0.340107  0.999894  1
  Mn  Mn20  1  0.000064  0.999982  0.340473  1
  W  W21  1  0.250016  0.249950  0.249948  1
  W  W22  1  0.749984  0.750050  0.750052  1
  C  C23  1  0.727524  0.272480  0.272499  1
  C  C24  1  0.727524  0.272413  0.727569  1
  C  C25  1  0.727499  0.727544  0.272440  1
  C  C26  1  0.272476  0.727520  0.727501  1
  C  C27  1  0.272476  0.727587  0.272431  1
  C  C28  1  0.272501  0.272456  0.727560  1
