# generated using pymatgen
data_U4GaSi3Tc7As2
_symmetry_space_group_name_H-M   'P 1'
_cell_length_a   7.17955714
_cell_length_b   7.17955752
_cell_length_c   7.17955702
_cell_angle_alpha   109.81166004
_cell_angle_beta   109.46461291
_cell_angle_gamma   109.13808226
_symmetry_Int_Tables_number   1
_chemical_formula_structural   U4GaSi3Tc7As2
_chemical_formula_sum   'U4 Ga1 Si3 Tc7 As2'
_cell_volume   284.87616791
_cell_formula_units_Z   1
loop_
 _symmetry_equiv_pos_site_id
 _symmetry_equiv_pos_as_xyz
  1  'x, y, z'
loop_
 _atom_site_type_symbol
 _atom_site_label
 _atom_site_symmetry_multiplicity
 _atom_site_fract_x
 _atom_site_fract_y
 _atom_site_fract_z
 _atom_site_occupancy
  U  U0  1  0.493694  0.492458  0.493897  1
  U  U1  1  0.001440  0.507542  0.001236  1
  U  U2  1  0.493694  0.999797  0.001236  1
  U  U3  1  0.001440  0.000203  0.493897  1
  Ga  Ga4  1  0.699383  0.000000  0.699383  1
  Si  Si5  1  0.997140  0.688711  0.685851  1
  Si  Si6  1  0.997140  0.311289  0.308428  1
  Si  Si7  1  0.319218  0.000000  0.319218  1
  Tc  Tc8  1  0.497878  0.750864  0.248742  1
  Tc  Tc9  1  0.749634  0.251428  0.498206  1
  Tc  Tc10  1  0.246778  0.748572  0.498206  1
  Tc  Tc11  1  0.244822  0.500000  0.744822  1
  Tc  Tc12  1  0.015898  0.000000  0.015898  1
  Tc  Tc13  1  0.497878  0.249136  0.747012  1
  Tc  Tc14  1  0.750199  0.500000  0.250199  1
  As  As15  1  0.691552  0.694670  0.996882  1
  As  As16  1  0.302212  0.305330  0.996882  1
