# generated using pymatgen
data_K2Hg3Br8
_symmetry_space_group_name_H-M   'P 1'
_cell_length_a   10.87050603
_cell_length_b   10.87050678
_cell_length_c   7.57189427
_cell_angle_alpha   85.05999991
_cell_angle_beta   85.06000164
_cell_angle_gamma   142.92115153
_symmetry_Int_Tables_number   1
_chemical_formula_structural   K2Hg3Br8
_chemical_formula_sum   'K2 Hg3 Br8'
_cell_volume   519.29862766
_cell_formula_units_Z   1
loop_
 _symmetry_equiv_pos_site_id
 _symmetry_equiv_pos_as_xyz
  1  'x, y, z'
loop_
 _atom_site_type_symbol
 _atom_site_label
 _atom_site_symmetry_multiplicity
 _atom_site_fract_x
 _atom_site_fract_y
 _atom_site_fract_z
 _atom_site_occupancy
  K  K0  1  0.663301  0.944674  0.500961  1
  K  K1  1  0.944674  0.663301  0.500961  1
  Hg  Hg2  1  0.937004  0.937004  0.026051  1
  Hg  Hg3  1  0.952081  0.334066  0.910666  1
  Hg  Hg4  1  0.334066  0.952081  0.910666  1
  Br  Br5  1  0.656522  0.656522  0.325649  1
  Br  Br6  1  0.010155  0.010155  0.679569  1
  Br  Br7  1  0.535861  0.912263  0.026549  1
  Br  Br8  1  0.912263  0.535861  0.026549  1
  Br  Br9  1  0.087773  0.475159  0.556111  1
  Br  Br10  1  0.475159  0.087773  0.556111  1
  Br  Br11  1  0.299632  0.105894  0.122253  1
  Br  Br12  1  0.105894  0.299632  0.122253  1
