# generated using pymatgen
data_Sm5Er3(Si3Pt)4
_symmetry_space_group_name_H-M   'P 1'
_cell_length_a   8.16119400
_cell_length_b   8.16119458
_cell_length_c   8.27818300
_cell_angle_alpha   90.00000000
_cell_angle_beta   90.00000000
_cell_angle_gamma   119.99999765
_symmetry_Int_Tables_number   1
_chemical_formula_structural   Sm5Er3(Si3Pt)4
_chemical_formula_sum   'Sm5 Er3 Si12 Pt4'
_cell_volume   477.49969547
_cell_formula_units_Z   1
loop_
 _symmetry_equiv_pos_site_id
 _symmetry_equiv_pos_as_xyz
  1  'x, y, z'
loop_
 _atom_site_type_symbol
 _atom_site_label
 _atom_site_symmetry_multiplicity
 _atom_site_fract_x
 _atom_site_fract_y
 _atom_site_fract_z
 _atom_site_occupancy
  Sm  Sm0  1  0.000000  0.000000  0.250000  1
  Sm  Sm1  1  0.000000  0.000000  0.750000  1
  Sm  Sm2  1  0.499461  0.500539  0.250000  1
  Sm  Sm3  1  0.499461  0.998922  0.250000  1
  Sm  Sm4  1  0.001078  0.500539  0.250000  1
  Er  Er5  1  0.501175  0.498825  0.750000  1
  Er  Er6  1  0.997650  0.498825  0.750000  1
  Er  Er7  1  0.501175  0.002350  0.750000  1
  Si  Si8  1  0.834171  0.165829  0.501509  1
  Si  Si9  1  0.834171  0.668343  0.501509  1
  Si  Si10  1  0.331657  0.165829  0.501509  1
  Si  Si11  1  0.834171  0.165829  0.998491  1
  Si  Si12  1  0.834171  0.668343  0.998491  1
  Si  Si13  1  0.331657  0.165829  0.998491  1
  Si  Si14  1  0.165924  0.834076  0.996548  1
  Si  Si15  1  0.668153  0.834076  0.996548  1
  Si  Si16  1  0.165924  0.331847  0.996548  1
  Si  Si17  1  0.165924  0.834076  0.503452  1
  Si  Si18  1  0.668153  0.834076  0.503452  1
  Si  Si19  1  0.165924  0.331847  0.503452  1
  Pt  Pt20  1  0.666667  0.333333  0.510349  1
  Pt  Pt21  1  0.666667  0.333333  0.989651  1
  Pt  Pt22  1  0.333333  0.666667  0.984631  1
  Pt  Pt23  1  0.333333  0.666667  0.515369  1
