# generated using pymatgen
data_Y3Hf3CoSn6Ir5
_symmetry_space_group_name_H-M   'P 1'
_cell_length_a   7.43837300
_cell_length_b   7.43837140
_cell_length_c   7.55645900
_cell_angle_alpha   90.00000000
_cell_angle_beta   90.00000000
_cell_angle_gamma   119.99999377
_symmetry_Int_Tables_number   1
_chemical_formula_structural   Y3Hf3CoSn6Ir5
_chemical_formula_sum   'Y3 Hf3 Co1 Sn6 Ir5'
_cell_volume   362.08022019
_cell_formula_units_Z   1
loop_
 _symmetry_equiv_pos_site_id
 _symmetry_equiv_pos_as_xyz
  1  'x, y, z'
loop_
 _atom_site_type_symbol
 _atom_site_label
 _atom_site_symmetry_multiplicity
 _atom_site_fract_x
 _atom_site_fract_y
 _atom_site_fract_z
 _atom_site_occupancy
  Y  Y0  1  0.000321  0.406126  0.250000  1
  Y  Y1  1  0.593874  0.594194  0.250000  1
  Y  Y2  1  0.405806  0.999679  0.250000  1
  Hf  Hf3  1  0.000310  0.393110  0.750000  1
  Hf  Hf4  1  0.606890  0.607201  0.750000  1
  Hf  Hf5  1  0.392799  0.999690  0.750000  1
  Co  Co6  1  0.000000  0.000000  0.250000  1
  Sn  Sn7  1  0.263061  0.262574  0.500800  1
  Sn  Sn8  1  0.999513  0.736939  0.500800  1
  Sn  Sn9  1  0.999513  0.736939  0.999200  1
  Sn  Sn10  1  0.737426  0.000487  0.500800  1
  Sn  Sn11  1  0.737426  0.000487  0.999200  1
  Sn  Sn12  1  0.263061  0.262574  0.999200  1
  Ir  Ir13  1  0.333333  0.666667  0.538923  1
  Ir  Ir14  1  0.666667  0.333333  0.538855  1
  Ir  Ir15  1  0.333333  0.666667  0.961077  1
  Ir  Ir16  1  0.000000  0.000000  0.750000  1
  Ir  Ir17  1  0.666667  0.333333  0.961145  1
