# generated using pymatgen
data_DyBi3(MoO4)6
_symmetry_space_group_name_H-M   'P 1'
_cell_length_a   7.56824436
_cell_length_b   7.56824436
_cell_length_c   10.88265642
_cell_angle_alpha   89.84731036
_cell_angle_beta   90.15268964
_cell_angle_gamma   89.84806976
_symmetry_Int_Tables_number   1
_chemical_formula_structural   DyBi3(MoO4)6
_chemical_formula_sum   'Dy1 Bi3 Mo6 O24'
_cell_volume   623.33367658
_cell_formula_units_Z   1
loop_
 _symmetry_equiv_pos_site_id
 _symmetry_equiv_pos_as_xyz
  1  'x, y, z'
loop_
 _atom_site_type_symbol
 _atom_site_label
 _atom_site_symmetry_multiplicity
 _atom_site_fract_x
 _atom_site_fract_y
 _atom_site_fract_z
 _atom_site_occupancy
  Dy  Dy0  1  0.310040  0.189960  0.264163  1
  Bi  Bi1  1  0.191888  0.691158  0.739803  1
  Bi  Bi2  1  0.808842  0.308112  0.739803  1
  Bi  Bi3  1  0.689687  0.810313  0.259693  1
  Mo  Mo4  1  0.208125  0.706432  0.352835  1
  Mo  Mo5  1  0.793568  0.291875  0.352835  1
  Mo  Mo6  1  0.707039  0.792961  0.645911  1
  Mo  Mo7  1  0.292867  0.207133  0.639791  1
  Mo  Mo8  1  0.003371  0.002796  0.003288  1
  Mo  Mo9  1  0.497204  0.496629  0.003288  1
  O  O10  1  0.004219  0.222059  0.296059  1
  O  O11  1  0.996850  0.769484  0.292639  1
  O  O12  1  0.225779  0.998375  0.700872  1
  O  O13  1  0.498375  0.725009  0.706702  1
  O  O14  1  0.774991  0.001625  0.706702  1
  O  O15  1  0.501625  0.274221  0.700872  1
  O  O16  1  0.277941  0.495781  0.296059  1
  O  O17  1  0.730516  0.503150  0.292639  1
  O  O18  1  0.187269  0.050110  0.101174  1
  O  O19  1  0.810875  0.958246  0.094393  1
  O  O20  1  0.051862  0.813756  0.909744  1
  O  O21  1  0.308827  0.539607  0.907165  1
  O  O22  1  0.960393  0.191173  0.907165  1
  O  O23  1  0.686244  0.448138  0.909744  1
  O  O24  1  0.449890  0.312731  0.101174  1
  O  O25  1  0.541754  0.689125  0.094393  1
  O  O26  1  0.621823  0.134531  0.306843  1
  O  O27  1  0.365469  0.878177  0.306843  1
  O  O28  1  0.128740  0.371260  0.685466  1
  O  O29  1  0.872067  0.627933  0.690537  1
  O  O30  1  0.198726  0.696154  0.515983  1
  O  O31  1  0.803846  0.301274  0.515983  1
  O  O32  1  0.694445  0.805555  0.483179  1
  O  O33  1  0.304843  0.195157  0.476261  1
