# generated using pymatgen
data_Be6Co11Si6Rh
_symmetry_space_group_name_H-M   'P 1'
_cell_length_a   3.81881700
_cell_length_b   5.39009400
_cell_length_c   11.45905000
_cell_angle_alpha   89.99883035
_cell_angle_beta   90.00098512
_cell_angle_gamma   90.00005127
_symmetry_Int_Tables_number   1
_chemical_formula_structural   Be6Co11Si6Rh
_chemical_formula_sum   'Be6 Co11 Si6 Rh1'
_cell_volume   235.87059395
_cell_formula_units_Z   1
loop_
 _symmetry_equiv_pos_site_id
 _symmetry_equiv_pos_as_xyz
  1  'x, y, z'
loop_
 _atom_site_type_symbol
 _atom_site_label
 _atom_site_symmetry_multiplicity
 _atom_site_fract_x
 _atom_site_fract_y
 _atom_site_fract_z
 _atom_site_occupancy
  Be  Be0  1  0.000001  0.512714  0.999991  1
  Be  Be1  1  0.499757  0.994091  0.171563  1
  Be  Be2  1  0.999743  0.499905  0.334119  1
  Be  Be3  1  0.500002  0.000868  0.499980  1
  Be  Be4  1  0.000249  0.499866  0.665885  1
  Be  Be5  1  0.500241  0.994124  0.828453  1
  Co  Co6  1  0.500000  0.746960  0.999987  1
  Co  Co7  1  0.999846  0.249990  0.169517  1
  Co  Co8  1  0.999797  0.749843  0.168733  1
  Co  Co9  1  0.499825  0.250116  0.334803  1
  Co  Co10  1  0.499810  0.751766  0.335930  1
  Co  Co11  1  0.000001  0.250434  0.500015  1
  Co  Co12  1  0.000001  0.750148  0.499997  1
  Co  Co13  1  0.500174  0.250088  0.665218  1
  Co  Co14  1  0.500192  0.751792  0.664083  1
  Co  Co15  1  0.000156  0.250003  0.830472  1
  Co  Co16  1  0.000206  0.749840  0.831264  1
  Si  Si17  1  0.000001  0.984079  0.999993  1
  Si  Si18  1  0.499806  0.506184  0.172730  1
  Si  Si19  1  0.999815  0.000793  0.334317  1
  Si  Si20  1  0.500001  0.499774  0.499946  1
  Si  Si21  1  0.000187  0.000910  0.665685  1
  Si  Si22  1  0.500200  0.506067  0.827331  1
  Rh  Rh23  1  0.500000  0.249637  0.999991  1
