# generated using pymatgen
data_Y8Mg2SnPbAu8
_symmetry_space_group_name_H-M   'P 1'
_cell_length_a   8.06945700
_cell_length_b   8.06945700
_cell_length_c   7.38614100
_cell_angle_alpha   90.00000000
_cell_angle_beta   90.00000000
_cell_angle_gamma   90.00000000
_symmetry_Int_Tables_number   1
_chemical_formula_structural   Y8Mg2SnPbAu8
_chemical_formula_sum   'Y8 Mg2 Sn1 Pb1 Au8'
_cell_volume   480.95696390
_cell_formula_units_Z   1
loop_
 _symmetry_equiv_pos_site_id
 _symmetry_equiv_pos_as_xyz
  1  'x, y, z'
loop_
 _atom_site_type_symbol
 _atom_site_label
 _atom_site_symmetry_multiplicity
 _atom_site_fract_x
 _atom_site_fract_y
 _atom_site_fract_z
 _atom_site_occupancy
  Y  Y0  1  0.842751  0.165978  0.499191  1
  Y  Y1  1  0.157249  0.834022  0.499191  1
  Y  Y2  1  0.334022  0.342751  0.000809  1
  Y  Y3  1  0.665978  0.657249  0.000809  1
  Y  Y4  1  0.680967  0.673996  0.499407  1
  Y  Y5  1  0.319033  0.326004  0.499407  1
  Y  Y6  1  0.173996  0.819033  0.000593  1
  Y  Y7  1  0.826004  0.180967  0.000593  1
  Mg  Mg8  1  0.500000  0.000000  0.250000  1
  Mg  Mg9  1  0.000000  0.500000  0.750000  1
  Sn  Sn10  1  0.000000  0.500000  0.250000  1
  Pb  Pb11  1  0.500000  0.000000  0.750000  1
  Au  Au12  1  0.619708  0.361540  0.265850  1
  Au  Au13  1  0.380292  0.638460  0.265850  1
  Au  Au14  1  0.121783  0.135939  0.765486  1
  Au  Au15  1  0.878217  0.864061  0.765486  1
  Au  Au16  1  0.364061  0.621783  0.734514  1
  Au  Au17  1  0.635939  0.378217  0.734514  1
  Au  Au18  1  0.861540  0.880292  0.234150  1
  Au  Au19  1  0.138460  0.119708  0.234150  1
