# generated using pymatgen
data_LiLaPr(Si3Pd10)2
_symmetry_space_group_name_H-M   'P 1'
_cell_length_a   8.73595256
_cell_length_b   8.73595202
_cell_length_c   8.73595200
_cell_angle_alpha   60.00000006
_cell_angle_beta   60.00000210
_cell_angle_gamma   60.00000154
_symmetry_Int_Tables_number   1
_chemical_formula_structural   LiLaPr(Si3Pd10)2
_chemical_formula_sum   'Li1 La1 Pr1 Si6 Pd20'
_cell_volume   471.42841969
_cell_formula_units_Z   1
loop_
 _symmetry_equiv_pos_site_id
 _symmetry_equiv_pos_as_xyz
  1  'x, y, z'
loop_
 _atom_site_type_symbol
 _atom_site_label
 _atom_site_symmetry_multiplicity
 _atom_site_fract_x
 _atom_site_fract_y
 _atom_site_fract_z
 _atom_site_occupancy
  Li  Li0  1  0.000000  0.000000  0.000000  1
  La  La1  1  0.250000  0.250000  0.250000  1
  Pr  Pr2  1  0.750000  0.750000  0.750000  1
  Si  Si3  1  0.735521  0.264479  0.264479  1
  Si  Si4  1  0.264479  0.735521  0.735521  1
  Si  Si5  1  0.264479  0.735521  0.264479  1
  Si  Si6  1  0.735521  0.264479  0.735521  1
  Si  Si7  1  0.264479  0.264479  0.735521  1
  Si  Si8  1  0.735521  0.735521  0.264479  1
  Pd  Pd9  1  0.385282  0.385282  0.385282  1
  Pd  Pd10  1  0.614493  0.614493  0.614493  1
  Pd  Pd11  1  0.385282  0.385282  0.844156  1
  Pd  Pd12  1  0.385282  0.844156  0.385282  1
  Pd  Pd13  1  0.614493  0.614493  0.156520  1
  Pd  Pd14  1  0.614493  0.156520  0.614493  1
  Pd  Pd15  1  0.844156  0.385282  0.385282  1
  Pd  Pd16  1  0.156520  0.614493  0.614493  1
  Pd  Pd17  1  0.344442  0.999775  0.999775  1
  Pd  Pd18  1  0.656007  0.999775  0.999775  1
  Pd  Pd19  1  0.999775  0.344442  0.656007  1
  Pd  Pd20  1  0.999775  0.656007  0.344442  1
  Pd  Pd21  1  0.999775  0.344442  0.999775  1
  Pd  Pd22  1  0.656007  0.999775  0.344442  1
  Pd  Pd23  1  0.999775  0.656007  0.999775  1
  Pd  Pd24  1  0.344442  0.999775  0.656007  1
  Pd  Pd25  1  0.999775  0.999775  0.344442  1
  Pd  Pd26  1  0.999775  0.999775  0.656007  1
  Pd  Pd27  1  0.656007  0.344442  0.999775  1
  Pd  Pd28  1  0.344442  0.656007  0.999775  1
