# generated using pymatgen
data_Tb3B6(IrRu)4
_symmetry_space_group_name_H-M   'P 1'
_cell_length_a   10.00389499
_cell_length_b   9.19421011
_cell_length_c   5.57215917
_cell_angle_alpha   81.29666554
_cell_angle_beta   65.29614717
_cell_angle_gamma   33.20939638
_symmetry_Int_Tables_number   1
_chemical_formula_structural   Tb3B6(IrRu)4
_chemical_formula_sum   'Tb3 B6 Ir4 Ru4'
_cell_volume   233.87647516
_cell_formula_units_Z   1
loop_
 _symmetry_equiv_pos_site_id
 _symmetry_equiv_pos_as_xyz
  1  'x, y, z'
loop_
 _atom_site_type_symbol
 _atom_site_label
 _atom_site_symmetry_multiplicity
 _atom_site_fract_x
 _atom_site_fract_y
 _atom_site_fract_z
 _atom_site_occupancy
  Tb  Tb0  1  0.000031  0.000031  0.999969  1
  Tb  Tb1  1  0.821054  0.821054  0.178946  1
  Tb  Tb2  1  0.179242  0.179242  0.820758  1
  B  B3  1  0.669781  0.330614  0.676049  1
  B  B4  1  0.330614  0.669781  0.323556  1
  B  B5  1  0.169107  0.485156  0.514332  1
  B  B6  1  0.485156  0.169107  0.831404  1
  B  B7  1  0.826772  0.518082  0.491006  1
  B  B8  1  0.518082  0.826772  0.164140  1
  Ir  Ir9  1  0.914417  0.914417  0.585583  1
  Ir  Ir10  1  0.413595  0.413595  0.586405  1
  Ir  Ir11  1  0.586142  0.586142  0.413858  1
  Ir  Ir12  1  0.249682  0.249682  0.250318  1
  Ru  Ru13  1  0.750484  0.750484  0.749516  1
  Ru  Ru14  1  0.086279  0.086279  0.413721  1
  Ru  Ru15  1  0.585704  0.585704  0.914296  1
  Ru  Ru16  1  0.413857  0.413857  0.086143  1
