# generated using pymatgen
data_Er11Sc(Si3Tc)4
_symmetry_space_group_name_H-M   'P 1'
_cell_length_a   4.10237100
_cell_length_b   10.83352337
_cell_length_c   12.31608725
_cell_angle_alpha   89.86214806
_cell_angle_beta   90.00000000
_cell_angle_gamma   90.00000000
_symmetry_Int_Tables_number   1
_chemical_formula_structural   Er11Sc(Si3Tc)4
_chemical_formula_sum   'Er11 Sc1 Si12 Tc4'
_cell_volume   547.36390813
_cell_formula_units_Z   1
loop_
 _symmetry_equiv_pos_site_id
 _symmetry_equiv_pos_as_xyz
  1  'x, y, z'
loop_
 _atom_site_type_symbol
 _atom_site_label
 _atom_site_symmetry_multiplicity
 _atom_site_fract_x
 _atom_site_fract_y
 _atom_site_fract_z
 _atom_site_occupancy
  Er  Er0  1  0.250000  0.880076  0.018827  1
  Er  Er1  1  0.250000  0.620544  0.519990  1
  Er  Er2  1  0.750000  0.121221  0.977490  1
  Er  Er3  1  0.750000  0.376463  0.482166  1
  Er  Er4  1  0.250000  0.924824  0.605780  1
  Er  Er5  1  0.250000  0.577054  0.104889  1
  Er  Er6  1  0.750000  0.076158  0.397148  1
  Er  Er7  1  0.750000  0.421581  0.893714  1
  Er  Er8  1  0.250000  0.664195  0.799103  1
  Er  Er9  1  0.250000  0.835975  0.299354  1
  Er  Er10  1  0.750000  0.333498  0.200672  1
  Sc  Sc11  1  0.750000  0.165015  0.702219  1
  Si  Si12  1  0.250000  0.016542  0.819510  1
  Si  Si13  1  0.250000  0.485897  0.321715  1
  Si  Si14  1  0.750000  0.988638  0.178613  1
  Si  Si15  1  0.750000  0.513736  0.678677  1
  Si  Si16  1  0.250000  0.248976  0.840134  1
  Si  Si17  1  0.250000  0.247837  0.346836  1
  Si  Si18  1  0.750000  0.749522  0.155073  1
  Si  Si19  1  0.750000  0.751209  0.655037  1
  Si  Si20  1  0.250000  0.197115  0.549070  1
  Si  Si21  1  0.250000  0.300367  0.039921  1
  Si  Si22  1  0.750000  0.801322  0.458479  1
  Si  Si23  1  0.750000  0.699270  0.957660  1
  Tc  Tc24  1  0.250000  0.388001  0.679920  1
  Tc  Tc25  1  0.250000  0.112300  0.180479  1
  Tc  Tc26  1  0.750000  0.611455  0.319771  1
  Tc  Tc27  1  0.750000  0.891205  0.817751  1
