# generated using pymatgen
data_Ce3Th(B4W)4
_symmetry_space_group_name_H-M   'P 1'
_cell_length_a   6.09051399
_cell_length_b   11.78055100
_cell_length_c   3.71398900
_cell_angle_alpha   90.00000000
_cell_angle_beta   90.00000000
_cell_angle_gamma   90.07223202
_symmetry_Int_Tables_number   1
_chemical_formula_structural   Ce3Th(B4W)4
_chemical_formula_sum   'Ce3 Th1 B16 W4'
_cell_volume   266.47705290
_cell_formula_units_Z   1
loop_
 _symmetry_equiv_pos_site_id
 _symmetry_equiv_pos_as_xyz
  1  'x, y, z'
loop_
 _atom_site_type_symbol
 _atom_site_label
 _atom_site_symmetry_multiplicity
 _atom_site_fract_x
 _atom_site_fract_y
 _atom_site_fract_z
 _atom_site_occupancy
  Ce  Ce0  1  0.624080  0.349022  0.000000  1
  Ce  Ce1  1  0.375895  0.649965  0.000000  1
  Ce  Ce2  1  0.124576  0.151773  0.000000  1
  Th  Th3  1  0.875947  0.848611  0.000000  1
  B  B4  1  0.785868  0.186012  0.500000  1
  B  B5  1  0.217440  0.814208  0.500000  1
  B  B6  1  0.285851  0.314621  0.500000  1
  B  B7  1  0.713461  0.683836  0.500000  1
  B  B8  1  0.863107  0.033609  0.500000  1
  B  B9  1  0.137530  0.969004  0.500000  1
  B  B10  1  0.363768  0.467514  0.500000  1
  B  B11  1  0.635829  0.531477  0.500000  1
  B  B12  1  0.886090  0.452967  0.500000  1
  B  B13  1  0.113777  0.545783  0.500000  1
  B  B14  1  0.385701  0.047388  0.500000  1
  B  B15  1  0.611451  0.954928  0.500000  1
  B  B16  1  0.974043  0.308252  0.500000  1
  B  B17  1  0.027452  0.689870  0.500000  1
  B  B18  1  0.473939  0.192314  0.500000  1
  B  B19  1  0.524375  0.808519  0.500000  1
  W  W20  1  0.629950  0.086730  0.000000  1
  W  W21  1  0.369656  0.915255  0.000000  1
  W  W22  1  0.130686  0.414133  0.000000  1
  W  W23  1  0.869529  0.584210  0.000000  1
