# generated using pymatgen
data_CuP2(PbO4)2
_symmetry_space_group_name_H-M   'P 1'
_cell_length_a   5.16580200
_cell_length_b   6.44135694
_cell_length_c   6.77339531
_cell_angle_alpha   104.32756355
_cell_angle_beta   90.00000000
_cell_angle_gamma   113.63990100
_symmetry_Int_Tables_number   1
_chemical_formula_structural   CuP2(PbO4)2
_chemical_formula_sum   'Cu1 P2 Pb2 O8'
_cell_volume   198.79390599
_cell_formula_units_Z   1
loop_
 _symmetry_equiv_pos_site_id
 _symmetry_equiv_pos_as_xyz
  1  'x, y, z'
loop_
 _atom_site_type_symbol
 _atom_site_label
 _atom_site_symmetry_multiplicity
 _atom_site_fract_x
 _atom_site_fract_y
 _atom_site_fract_z
 _atom_site_occupancy
  Cu  Cu0  1  0.500000  0.999999  0.500001  1
  P  P1  1  0.858639  0.717279  0.292871  1
  P  P2  1  0.141360  0.282719  0.707129  1
  Pb  Pb3  1  0.166147  0.332294  0.211498  1
  Pb  Pb4  1  0.833852  0.667707  0.788501  1
  O  O5  1  0.731130  0.462264  0.150758  1
  O  O6  1  0.947988  0.895979  0.162940  1
  O  O7  1  0.117481  0.746647  0.436070  1
  O  O8  1  0.629167  0.746647  0.436070  1
  O  O9  1  0.370834  0.253353  0.563929  1
  O  O10  1  0.882519  0.253353  0.563929  1
  O  O11  1  0.052011  0.104020  0.837061  1
  O  O12  1  0.268869  0.537737  0.849243  1
