# generated using pymatgen
data_Yb12Ho5Tm3Ge16
_symmetry_space_group_name_H-M   'P 1'
_cell_length_a   7.38950729
_cell_length_b   7.87777221
_cell_length_c   15.13438336
_cell_angle_alpha   90.01164360
_cell_angle_beta   89.97800727
_cell_angle_gamma   90.02335584
_symmetry_Int_Tables_number   1
_chemical_formula_structural   Yb12Ho5Tm3Ge16
_chemical_formula_sum   'Yb12 Ho5 Tm3 Ge16'
_cell_volume   881.01550955
_cell_formula_units_Z   1
loop_
 _symmetry_equiv_pos_site_id
 _symmetry_equiv_pos_as_xyz
  1  'x, y, z'
loop_
 _atom_site_type_symbol
 _atom_site_label
 _atom_site_symmetry_multiplicity
 _atom_site_fract_x
 _atom_site_fract_y
 _atom_site_fract_z
 _atom_site_occupancy
  Yb  Yb0  1  0.980973  0.813372  0.405703  1
  Yb  Yb1  1  0.481493  0.686299  0.094041  1
  Yb  Yb2  1  0.518971  0.313604  0.594696  1
  Yb  Yb3  1  0.018601  0.186229  0.905773  1
  Yb  Yb4  1  0.019283  0.186658  0.594957  1
  Yb  Yb5  1  0.519388  0.313247  0.905194  1
  Yb  Yb6  1  0.480454  0.686775  0.405319  1
  Yb  Yb7  1  0.980340  0.813031  0.094511  1
  Yb  Yb8  1  0.344579  0.019975  0.749974  1
  Yb  Yb9  1  0.844396  0.479874  0.750399  1
  Yb  Yb10  1  0.155509  0.520285  0.249949  1
  Yb  Yb11  1  0.655517  0.979914  0.249536  1
  Ho  Ho12  1  0.318529  0.172022  0.120892  1
  Ho  Ho13  1  0.818221  0.328375  0.378731  1
  Ho  Ho14  1  0.181657  0.671923  0.878925  1
  Ho  Ho15  1  0.681894  0.827854  0.621490  1
  Ho  Ho16  1  0.317910  0.171888  0.378598  1
  Tm  Tm17  1  0.818120  0.328497  0.121244  1
  Tm  Tm18  1  0.181883  0.671407  0.621721  1
  Tm  Tm19  1  0.681937  0.828297  0.878537  1
  Ge  Ge20  1  0.846038  0.533945  0.540717  1
  Ge  Ge21  1  0.346490  0.966209  0.959389  1
  Ge  Ge22  1  0.654297  0.033772  0.459878  1
  Ge  Ge23  1  0.153421  0.466066  0.040390  1
  Ge  Ge24  1  0.156389  0.466471  0.460514  1
  Ge  Ge25  1  0.657757  0.034057  0.039712  1
  Ge  Ge26  1  0.343406  0.965487  0.540464  1
  Ge  Ge27  1  0.842517  0.533976  0.960224  1
  Ge  Ge28  1  0.977661  0.876813  0.750473  1
  Ge  Ge29  1  0.477461  0.622831  0.749848  1
  Ge  Ge30  1  0.522832  0.377983  0.249185  1
  Ge  Ge31  1  0.021948  0.123037  0.249650  1
  Ge  Ge32  1  0.236922  0.386208  0.749727  1
  Ge  Ge33  1  0.737379  0.113477  0.750472  1
  Ge  Ge34  1  0.262348  0.886144  0.249653  1
  Ge  Ge35  1  0.763479  0.613995  0.249516  1
