# generated using pymatgen
data_LiDy(NiPt)2
_symmetry_space_group_name_H-M   'P 1'
_cell_length_a   4.95934603
_cell_length_b   5.12408850
_cell_length_c   5.12409009
_cell_angle_alpha   63.54296620
_cell_angle_beta   61.05796499
_cell_angle_gamma   61.05795499
_symmetry_Int_Tables_number   1
_chemical_formula_structural   LiDy(NiPt)2
_chemical_formula_sum   'Li1 Dy1 Ni2 Pt2'
_cell_volume   95.84757116
_cell_formula_units_Z   1
loop_
 _symmetry_equiv_pos_site_id
 _symmetry_equiv_pos_as_xyz
  1  'x, y, z'
loop_
 _atom_site_type_symbol
 _atom_site_label
 _atom_site_symmetry_multiplicity
 _atom_site_fract_x
 _atom_site_fract_y
 _atom_site_fract_z
 _atom_site_occupancy
  Li  Li0  1  0.240429  0.259571  0.259571  1
  Dy  Dy1  1  0.000020  0.999980  0.999980  1
  Ni  Ni2  1  0.127030  0.621483  0.621483  1
  Ni  Ni3  1  0.630005  0.621483  0.621483  1
  Pt  Pt4  1  0.626259  0.622004  0.125478  1
  Pt  Pt5  1  0.626259  0.125478  0.622004  1
