# generated using pymatgen
data_LaTb15(CdNi)4
_symmetry_space_group_name_H-M   'P 1'
_cell_length_a   9.60004244
_cell_length_b   9.60004162
_cell_length_c   9.60004184
_cell_angle_alpha   60.03905678
_cell_angle_beta   60.03906164
_cell_angle_gamma   60.03905640
_symmetry_Int_Tables_number   1
_chemical_formula_structural   LaTb15(CdNi)4
_chemical_formula_sum   'La1 Tb15 Cd4 Ni4'
_cell_volume   626.16490157
_cell_formula_units_Z   1
loop_
 _symmetry_equiv_pos_site_id
 _symmetry_equiv_pos_as_xyz
  1  'x, y, z'
loop_
 _atom_site_type_symbol
 _atom_site_label
 _atom_site_symmetry_multiplicity
 _atom_site_fract_x
 _atom_site_fract_y
 _atom_site_fract_z
 _atom_site_occupancy
  La  La0  1  0.346377  0.346377  0.346377  1
  Tb  Tb1  1  0.348613  0.348613  0.951561  1
  Tb  Tb2  1  0.348613  0.951561  0.348613  1
  Tb  Tb3  1  0.951561  0.348613  0.348613  1
  Tb  Tb4  1  0.814299  0.188595  0.188595  1
  Tb  Tb5  1  0.189424  0.811517  0.811517  1
  Tb  Tb6  1  0.188595  0.814299  0.188595  1
  Tb  Tb7  1  0.811517  0.189424  0.811517  1
  Tb  Tb8  1  0.188595  0.188595  0.814299  1
  Tb  Tb9  1  0.811517  0.811517  0.189424  1
  Tb  Tb10  1  0.936573  0.564442  0.564442  1
  Tb  Tb11  1  0.562926  0.936197  0.936197  1
  Tb  Tb12  1  0.564442  0.936573  0.564442  1
  Tb  Tb13  1  0.936197  0.562926  0.936197  1
  Tb  Tb14  1  0.564442  0.564442  0.936573  1
  Tb  Tb15  1  0.936197  0.936197  0.562926  1
  Cd  Cd16  1  0.580772  0.580772  0.580772  1
  Cd  Cd17  1  0.582892  0.582892  0.255608  1
  Cd  Cd18  1  0.582892  0.255608  0.582892  1
  Cd  Cd19  1  0.255608  0.582892  0.582892  1
  Ni  Ni20  1  0.142833  0.142833  0.142833  1
  Ni  Ni21  1  0.140262  0.140262  0.574588  1
  Ni  Ni22  1  0.140262  0.574588  0.140262  1
  Ni  Ni23  1  0.574588  0.140262  0.140262  1
