# generated using pymatgen
data_Dy3Ho5In3Rh
_symmetry_space_group_name_H-M   'P 1'
_cell_length_a   10.40522300
_cell_length_b   10.40522373
_cell_length_c   7.00905600
_cell_angle_alpha   90.00000000
_cell_angle_beta   90.00000000
_cell_angle_gamma   120.00000087
_symmetry_Int_Tables_number   1
_chemical_formula_structural   Dy3Ho5In3Rh
_chemical_formula_sum   'Dy6 Ho10 In6 Rh2'
_cell_volume   657.19306598
_cell_formula_units_Z   2
loop_
 _symmetry_equiv_pos_site_id
 _symmetry_equiv_pos_as_xyz
  1  'x, y, z'
loop_
 _atom_site_type_symbol
 _atom_site_label
 _atom_site_symmetry_multiplicity
 _atom_site_fract_x
 _atom_site_fract_y
 _atom_site_fract_z
 _atom_site_occupancy
  Dy  Dy0  1  0.532733  0.065467  0.507451  1
  Dy  Dy1  1  0.934533  0.467267  0.507451  1
  Dy  Dy2  1  0.532733  0.467267  0.507451  1
  Dy  Dy3  1  0.467267  0.934533  0.007451  1
  Dy  Dy4  1  0.065467  0.532733  0.007451  1
  Dy  Dy5  1  0.467267  0.532733  0.007451  1
  Ho  Ho6  1  0.176302  0.352605  0.713070  1
  Ho  Ho7  1  0.647395  0.823698  0.713070  1
  Ho  Ho8  1  0.176302  0.823698  0.713070  1
  Ho  Ho9  1  0.823698  0.647395  0.213070  1
  Ho  Ho10  1  0.352605  0.176302  0.213070  1
  Ho  Ho11  1  0.823698  0.176302  0.213070  1
  Ho  Ho12  1  0.666667  0.333333  0.887706  1
  Ho  Ho13  1  0.333333  0.666667  0.387706  1
  Ho  Ho14  1  0.000000  0.000000  0.493521  1
  Ho  Ho15  1  0.000000  0.000000  0.993521  1
  In  In16  1  0.837430  0.674859  0.751610  1
  In  In17  1  0.325141  0.162570  0.751610  1
  In  In18  1  0.837430  0.162570  0.751610  1
  In  In19  1  0.162570  0.325141  0.251610  1
  In  In20  1  0.674859  0.837430  0.251610  1
  In  In21  1  0.162570  0.837430  0.251610  1
  Rh  Rh22  1  0.666667  0.333333  0.281401  1
  Rh  Rh23  1  0.333333  0.666667  0.781401  1
