# generated using pymatgen
data_La3Sm5SnPd24
_symmetry_space_group_name_H-M   'P 1'
_cell_length_a   8.52602522
_cell_length_b   8.52602522
_cell_length_c   8.52634206
_cell_angle_alpha   90.00925915
_cell_angle_beta   90.00925915
_cell_angle_gamma   90.02429952
_symmetry_Int_Tables_number   1
_chemical_formula_structural   La3Sm5SnPd24
_chemical_formula_sum   'La3 Sm5 Sn1 Pd24'
_cell_volume   619.80621529
_cell_formula_units_Z   1
loop_
 _symmetry_equiv_pos_site_id
 _symmetry_equiv_pos_as_xyz
  1  'x, y, z'
loop_
 _atom_site_type_symbol
 _atom_site_label
 _atom_site_symmetry_multiplicity
 _atom_site_fract_x
 _atom_site_fract_y
 _atom_site_fract_z
 _atom_site_occupancy
  La  La0  1  0.252674  0.252674  0.252811  1
  La  La1  1  0.747268  0.747268  0.747394  1
  La  La2  1  0.747497  0.747497  0.252557  1
  Sm  Sm3  1  0.747735  0.252260  0.747834  1
  Sm  Sm4  1  0.252315  0.252315  0.747670  1
  Sm  Sm5  1  0.252164  0.747770  0.252152  1
  Sm  Sm6  1  0.252260  0.747735  0.747834  1
  Sm  Sm7  1  0.747770  0.252164  0.252152  1
  Sn  Sn8  1  0.000375  0.000375  0.999520  1
  Pd  Pd9  1  0.265743  0.500683  0.999012  1
  Pd  Pd10  1  0.734312  0.498349  0.999909  1
  Pd  Pd11  1  0.999214  0.265694  0.500903  1
  Pd  Pd12  1  0.500683  0.265743  0.999012  1
  Pd  Pd13  1  0.001854  0.734335  0.500121  1
  Pd  Pd14  1  0.498349  0.734312  0.999909  1
  Pd  Pd15  1  0.499903  0.000105  0.265691  1
  Pd  Pd16  1  0.265694  0.999214  0.500903  1
  Pd  Pd17  1  0.499106  0.001004  0.734292  1
  Pd  Pd18  1  0.734335  0.001854  0.500121  1
  Pd  Pd19  1  0.000105  0.499903  0.265691  1
  Pd  Pd20  1  0.001004  0.499106  0.734292  1
  Pd  Pd21  1  0.254874  0.500986  0.501097  1
  Pd  Pd22  1  0.745094  0.497897  0.500055  1
  Pd  Pd23  1  0.500986  0.254874  0.501097  1
  Pd  Pd24  1  0.497897  0.745094  0.500055  1
  Pd  Pd25  1  0.499949  0.499949  0.254853  1
  Pd  Pd26  1  0.498902  0.498902  0.745137  1
  Pd  Pd27  1  0.310002  0.998920  0.998974  1
  Pd  Pd28  1  0.689865  0.002117  0.999975  1
  Pd  Pd29  1  0.998920  0.310002  0.998974  1
  Pd  Pd30  1  0.002117  0.689865  0.999975  1
  Pd  Pd31  1  0.000012  0.000012  0.310049  1
  Pd  Pd32  1  0.001020  0.001020  0.689982  1
