# generated using pymatgen
data_LiHf3(Ta3B10)2
_symmetry_space_group_name_H-M   'P 1'
_cell_length_a   6.21462619
_cell_length_b   7.07949133
_cell_length_c   7.45528100
_cell_angle_alpha   94.09552485
_cell_angle_beta   102.08029403
_cell_angle_gamma   116.06847621
_symmetry_Int_Tables_number   1
_chemical_formula_structural   LiHf3(Ta3B10)2
_chemical_formula_sum   'Li1 Hf3 Ta6 B20'
_cell_volume   283.08442177
_cell_formula_units_Z   1
loop_
 _symmetry_equiv_pos_site_id
 _symmetry_equiv_pos_as_xyz
  1  'x, y, z'
loop_
 _atom_site_type_symbol
 _atom_site_label
 _atom_site_symmetry_multiplicity
 _atom_site_fract_x
 _atom_site_fract_y
 _atom_site_fract_z
 _atom_site_occupancy
  Li  Li0  1  0.000028  0.000382  0.000350  1
  Hf  Hf1  1  0.500740  0.800098  0.399556  1
  Hf  Hf2  1  0.999948  0.397714  0.198421  1
  Hf  Hf3  1  0.499032  0.199256  0.600728  1
  Ta  Ta4  1  0.499280  0.999617  0.999319  1
  Ta  Ta5  1  0.997478  0.796075  0.399863  1
  Ta  Ta6  1  0.504147  0.602279  0.800488  1
  Ta  Ta7  1  0.497264  0.398666  0.199581  1
  Ta  Ta8  1  0.002510  0.203259  0.600886  1
  Ta  Ta9  1  0.999170  0.603553  0.801435  1
  B  B10  1  0.330398  0.230801  0.870188  1
  B  B11  1  0.333804  0.632929  0.065114  1
  B  B12  1  0.165652  0.362710  0.934807  1
  B  B13  1  0.329903  0.033118  0.262413  1
  B  B14  1  0.164987  0.769922  0.129213  1
  B  B15  1  0.835512  0.230530  0.869011  1
  B  B16  1  0.165051  0.164962  0.328468  1
  B  B17  1  0.833793  0.637992  0.062683  1
  B  B18  1  0.333641  0.432451  0.466667  1
  B  B19  1  0.665964  0.368036  0.932706  1
  B  B20  1  0.835043  0.032500  0.262889  1
  B  B21  1  0.669729  0.769676  0.129263  1
  B  B22  1  0.333546  0.833879  0.667696  1
  B  B23  1  0.167008  0.567047  0.534824  1
  B  B24  1  0.665142  0.165314  0.332467  1
  B  B25  1  0.833051  0.432735  0.467022  1
  B  B26  1  0.164994  0.966466  0.737931  1
  B  B27  1  0.835499  0.834073  0.672854  1
  B  B28  1  0.667976  0.567563  0.535266  1
  B  B29  1  0.669711  0.966396  0.737893  1
