# generated using pymatgen
data_Tb3Ce(InPd2)2
_symmetry_space_group_name_H-M   'P 1'
_cell_length_a   7.78819843
_cell_length_b   7.78819843
_cell_length_c   3.75499100
_cell_angle_alpha   90.00000000
_cell_angle_beta   90.00000000
_cell_angle_gamma   90.63194748
_symmetry_Int_Tables_number   1
_chemical_formula_structural   Tb3Ce(InPd2)2
_chemical_formula_sum   'Tb3 Ce1 In2 Pd4'
_cell_volume   227.74901105
_cell_formula_units_Z   1
loop_
 _symmetry_equiv_pos_site_id
 _symmetry_equiv_pos_as_xyz
  1  'x, y, z'
loop_
 _atom_site_type_symbol
 _atom_site_label
 _atom_site_symmetry_multiplicity
 _atom_site_fract_x
 _atom_site_fract_y
 _atom_site_fract_z
 _atom_site_occupancy
  Tb  Tb0  1  0.326131  0.826131  0.500000  1
  Tb  Tb1  1  0.829004  0.674082  0.500000  1
  Tb  Tb2  1  0.174082  0.329004  0.500000  1
  Ce  Ce3  1  0.672934  0.172934  0.500000  1
  In  In4  1  0.002762  0.999051  0.000000  1
  In  In5  1  0.499051  0.502762  0.000000  1
  Pd  Pd6  1  0.373267  0.128171  0.000000  1
  Pd  Pd7  1  0.868394  0.368394  0.000000  1
  Pd  Pd8  1  0.126203  0.626203  0.000000  1
  Pd  Pd9  1  0.628171  0.873267  0.000000  1
