# generated using pymatgen
data_VNiS2
_symmetry_space_group_name_H-M   'P 1'
_cell_length_a   3.75136020
_cell_length_b   5.60076074
_cell_length_c   3.75826208
_cell_angle_alpha   89.94900105
_cell_angle_beta   89.99746654
_cell_angle_gamma   85.55007798
_symmetry_Int_Tables_number   1
_chemical_formula_structural   VNiS2
_chemical_formula_sum   'V1 Ni1 S2'
_cell_volume   78.72479367
_cell_formula_units_Z   1
loop_
 _symmetry_equiv_pos_site_id
 _symmetry_equiv_pos_as_xyz
  1  'x, y, z'
loop_
 _atom_site_type_symbol
 _atom_site_label
 _atom_site_symmetry_multiplicity
 _atom_site_fract_x
 _atom_site_fract_y
 _atom_site_fract_z
 _atom_site_occupancy
  V  V0  1  0.373264  0.254165  0.887963  1
  Ni  Ni1  1  0.873199  0.253156  0.387907  1
  S  S2  1  0.900167  0.024473  0.888282  1
  S  S3  1  0.346209  0.482868  0.387677  1
