# generated using pymatgen
data_Tb8ZrTi3(Si2Mo)8
_symmetry_space_group_name_H-M   'P 1'
_cell_length_a   6.96967520
_cell_length_b   6.96967480
_cell_length_c   12.89782526
_cell_angle_alpha   89.93297841
_cell_angle_beta   90.06702281
_cell_angle_gamma   89.91503149
_symmetry_Int_Tables_number   1
_chemical_formula_structural   Tb8ZrTi3(Si2Mo)8
_chemical_formula_sum   'Tb8 Zr1 Ti3 Si16 Mo8'
_cell_volume   626.52797912
_cell_formula_units_Z   1
loop_
 _symmetry_equiv_pos_site_id
 _symmetry_equiv_pos_as_xyz
  1  'x, y, z'
loop_
 _atom_site_type_symbol
 _atom_site_label
 _atom_site_symmetry_multiplicity
 _atom_site_fract_x
 _atom_site_fract_y
 _atom_site_fract_z
 _atom_site_occupancy
  Tb  Tb0  1  0.340084  0.002936  0.468665  1
  Tb  Tb1  1  0.497675  0.839022  0.717349  1
  Tb  Tb2  1  0.502808  0.159690  0.219098  1
  Tb  Tb3  1  0.839022  0.497675  0.282651  1
  Tb  Tb4  1  0.159690  0.502808  0.780902  1
  Tb  Tb5  1  0.660875  0.996355  0.968524  1
  Tb  Tb6  1  0.002936  0.340084  0.531335  1
  Tb  Tb7  1  0.996355  0.660875  0.031476  1
  Zr  Zr8  1  0.330683  0.330683  0.000000  1
  Ti  Ti9  1  0.169007  0.831213  0.250954  1
  Ti  Ti10  1  0.831213  0.169007  0.749046  1
  Ti  Ti11  1  0.669813  0.669813  0.500000  1
  Si  Si12  1  0.199853  0.126765  0.683893  1
  Si  Si13  1  0.373329  0.706135  0.932290  1
  Si  Si14  1  0.627326  0.299913  0.434559  1
  Si  Si15  1  0.706135  0.373329  0.067710  1
  Si  Si16  1  0.299913  0.627326  0.565441  1
  Si  Si17  1  0.798621  0.872462  0.184579  1
  Si  Si18  1  0.126765  0.199853  0.316107  1
  Si  Si19  1  0.872462  0.798621  0.815421  1
  Si  Si20  1  0.287204  0.954000  0.064457  1
  Si  Si21  1  0.541547  0.788828  0.313742  1
  Si  Si22  1  0.461862  0.209551  0.809550  1
  Si  Si23  1  0.788828  0.541547  0.686258  1
  Si  Si24  1  0.209551  0.461862  0.190450  1
  Si  Si25  1  0.712146  0.041445  0.563085  1
  Si  Si26  1  0.954000  0.287204  0.935543  1
  Si  Si27  1  0.041445  0.712146  0.436915  1
  Mo  Mo28  1  0.158205  0.005216  0.872587  1
  Mo  Mo29  1  0.492881  0.661352  0.125590  1
  Mo  Mo30  1  0.508278  0.340445  0.623474  1
  Mo  Mo31  1  0.661352  0.492881  0.874410  1
  Mo  Mo32  1  0.340445  0.508278  0.376526  1
  Mo  Mo33  1  0.840018  0.992460  0.374629  1
  Mo  Mo34  1  0.005216  0.158205  0.127413  1
  Mo  Mo35  1  0.992460  0.840018  0.625371  1
