# generated using pymatgen
data_La16Mg2Cd2Os3Pd
_symmetry_space_group_name_H-M   'P 1'
_cell_length_a   10.12977999
_cell_length_b   10.22053172
_cell_length_c   10.22810200
_cell_angle_alpha   59.97550151
_cell_angle_beta   59.67840414
_cell_angle_gamma   59.61684650
_symmetry_Int_Tables_number   1
_chemical_formula_structural   La16Mg2Cd2Os3Pd
_chemical_formula_sum   'La16 Mg2 Cd2 Os3 Pd1'
_cell_volume   744.62898227
_cell_formula_units_Z   1
loop_
 _symmetry_equiv_pos_site_id
 _symmetry_equiv_pos_as_xyz
  1  'x, y, z'
loop_
 _atom_site_type_symbol
 _atom_site_label
 _atom_site_symmetry_multiplicity
 _atom_site_fract_x
 _atom_site_fract_y
 _atom_site_fract_z
 _atom_site_occupancy
  La  La0  1  0.340966  0.349643  0.351382  1
  La  La1  1  0.340966  0.349643  0.958007  1
  La  La2  1  0.340651  0.958678  0.350334  1
  La  La3  1  0.965518  0.344180  0.345150  1
  La  La4  1  0.817485  0.190381  0.190735  1
  La  La5  1  0.188442  0.811605  0.811836  1
  La  La6  1  0.188442  0.811605  0.188117  1
  La  La7  1  0.817485  0.190381  0.801401  1
  La  La8  1  0.190106  0.189005  0.810444  1
  La  La9  1  0.818600  0.802525  0.189438  1
  La  La10  1  0.941259  0.558744  0.559074  1
  La  La11  1  0.555687  0.941325  0.939113  1
  La  La12  1  0.555687  0.941325  0.563875  1
  La  La13  1  0.941259  0.558744  0.940922  1
  La  La14  1  0.556900  0.564519  0.939290  1
  La  La15  1  0.940629  0.942898  0.558236  1
  Mg  Mg16  1  0.577311  0.577913  0.578942  1
  Mg  Mg17  1  0.577311  0.577913  0.265836  1
  Cd  Cd18  1  0.579884  0.260466  0.579826  1
  Cd  Cd19  1  0.260547  0.580109  0.579673  1
  Os  Os20  1  0.142232  0.137921  0.138506  1
  Os  Os21  1  0.142232  0.137921  0.581341  1
  Os  Os22  1  0.141858  0.582046  0.138048  1
  Pd  Pd23  1  0.578543  0.140513  0.140473  1
