# generated using pymatgen
data_HoNiB4Os3
_symmetry_space_group_name_H-M   'P 1'
_cell_length_a   7.53577773
_cell_length_b   7.23800095
_cell_length_c   4.01018500
_cell_angle_alpha   90.00000000
_cell_angle_beta   90.00000000
_cell_angle_gamma   87.45247556
_symmetry_Int_Tables_number   1
_chemical_formula_structural   HoNiB4Os3
_chemical_formula_sum   'Ho2 Ni2 B8 Os6'
_cell_volume   218.51522290
_cell_formula_units_Z   2
loop_
 _symmetry_equiv_pos_site_id
 _symmetry_equiv_pos_as_xyz
  1  'x, y, z'
loop_
 _atom_site_type_symbol
 _atom_site_label
 _atom_site_symmetry_multiplicity
 _atom_site_fract_x
 _atom_site_fract_y
 _atom_site_fract_z
 _atom_site_occupancy
  Ho  Ho0  1  0.000000  0.000000  0.015530  1
  Ho  Ho1  1  0.500000  0.500000  0.610796  1
  Ni  Ni2  1  0.136037  0.383505  0.879257  1
  Ni  Ni3  1  0.863963  0.616495  0.879257  1
  B  B4  1  0.673845  0.781327  0.105958  1
  B  B5  1  0.326155  0.218673  0.105958  1
  B  B6  1  0.279428  0.835994  0.603350  1
  B  B7  1  0.720572  0.164006  0.603350  1
  B  B8  1  0.843980  0.690657  0.380982  1
  B  B9  1  0.156020  0.309343  0.380982  1
  B  B10  1  0.203044  0.670417  0.880563  1
  B  B11  1  0.796956  0.329583  0.880563  1
  Os  Os12  1  0.879581  0.367628  0.373342  1
  Os  Os13  1  0.120419  0.632372  0.373342  1
  Os  Os14  1  0.346608  0.116343  0.607747  1
  Os  Os15  1  0.653392  0.883657  0.607747  1
  Os  Os16  1  0.603923  0.151361  0.105639  1
  Os  Os17  1  0.396077  0.848639  0.105639  1
