# generated using pymatgen
data_Ba4DyY(GaS5)2
_symmetry_space_group_name_H-M   'P 1'
_cell_length_a   7.16319067
_cell_length_b   8.47561839
_cell_length_c   9.20674853
_cell_angle_alpha   103.62354717
_cell_angle_beta   103.06941311
_cell_angle_gamma   107.49773425
_symmetry_Int_Tables_number   1
_chemical_formula_structural   Ba4DyY(GaS5)2
_chemical_formula_sum   'Ba4 Dy1 Y1 Ga2 S10'
_cell_volume   490.79317796
_cell_formula_units_Z   1
loop_
 _symmetry_equiv_pos_site_id
 _symmetry_equiv_pos_as_xyz
  1  'x, y, z'
loop_
 _atom_site_type_symbol
 _atom_site_label
 _atom_site_symmetry_multiplicity
 _atom_site_fract_x
 _atom_site_fract_y
 _atom_site_fract_z
 _atom_site_occupancy
  Ba  Ba0  1  0.630390  0.976029  0.287586  1
  Ba  Ba1  1  0.369619  0.023983  0.712409  1
  Ba  Ba2  1  0.335777  0.509595  0.704399  1
  Ba  Ba3  1  0.664229  0.490425  0.295605  1
  Dy  Dy4  1  0.003546  0.271671  0.002398  1
  Y  Y5  1  0.996480  0.728728  0.997590  1
  Ga  Ga6  1  0.808484  0.873042  0.690193  1
  Ga  Ga7  1  0.191504  0.127060  0.309813  1
  S  S8  1  0.991118  0.691780  0.690132  1
  S  S9  1  0.008878  0.308204  0.309552  1
  S  S10  1  0.987917  0.149272  0.694322  1
  S  S11  1  0.012105  0.850869  0.306021  1
  S  S12  1  0.717333  0.908355  0.923044  1
  S  S13  1  0.282643  0.091957  0.076941  1
  S  S14  1  0.713590  0.412347  0.948492  1
  S  S15  1  0.286387  0.586667  0.051503  1
  S  S16  1  0.502067  0.745824  0.497314  1
  S  S17  1  0.497933  0.254193  0.502684  1
