# generated using pymatgen
data_Ca12Ga12Ru3Rh5
_symmetry_space_group_name_H-M   'P 1'
_cell_length_a   5.84162595
_cell_length_b   8.25416998
_cell_length_c   14.77932619
_cell_angle_alpha   90.13769492
_cell_angle_beta   89.84857687
_cell_angle_gamma   90.03739761
_symmetry_Int_Tables_number   1
_chemical_formula_structural   Ca12Ga12Ru3Rh5
_chemical_formula_sum   'Ca12 Ga12 Ru3 Rh5'
_cell_volume   712.62150798
_cell_formula_units_Z   1
loop_
 _symmetry_equiv_pos_site_id
 _symmetry_equiv_pos_as_xyz
  1  'x, y, z'
loop_
 _atom_site_type_symbol
 _atom_site_label
 _atom_site_symmetry_multiplicity
 _atom_site_fract_x
 _atom_site_fract_y
 _atom_site_fract_z
 _atom_site_occupancy
  Ca  Ca0  1  0.885691  0.452032  0.108708  1
  Ca  Ca1  1  0.386865  0.048515  0.891139  1
  Ca  Ca2  1  0.614623  0.951386  0.390771  1
  Ca  Ca3  1  0.116916  0.547752  0.609022  1
  Ca  Ca4  1  0.112941  0.548609  0.891365  1
  Ca  Ca5  1  0.612347  0.950505  0.107690  1
  Ca  Ca6  1  0.385616  0.048862  0.609213  1
  Ca  Ca7  1  0.885740  0.450594  0.391192  1
  Ca  Ca8  1  0.385186  0.300147  0.249094  1
  Ca  Ca9  1  0.885631  0.199146  0.751231  1
  Ca  Ca10  1  0.113580  0.802001  0.250505  1
  Ca  Ca11  1  0.617200  0.698226  0.749308  1
  Ga  Ga12  1  0.924934  0.143222  0.249227  1
  Ga  Ga13  1  0.425961  0.357618  0.750003  1
  Ga  Ga14  1  0.569506  0.642264  0.250530  1
  Ga  Ga15  1  0.078940  0.857080  0.751764  1
  Ga  Ga16  1  0.365449  0.310961  0.038411  1
  Ga  Ga17  1  0.866695  0.190199  0.961315  1
  Ga  Ga18  1  0.132604  0.813409  0.460244  1
  Ga  Ga19  1  0.632712  0.686835  0.539150  1
  Ga  Ga20  1  0.631049  0.682042  0.957306  1
  Ga  Ga21  1  0.131599  0.817204  0.042151  1
  Ga  Ga22  1  0.873091  0.184319  0.541413  1
  Ga  Ga23  1  0.368428  0.316995  0.458088  1
  Ru  Ru24  1  0.093521  0.103012  0.095412  1
  Ru  Ru25  1  0.593782  0.396546  0.903918  1
  Ru  Ru26  1  0.404836  0.604454  0.405211  1
  Rh  Rh27  1  0.902870  0.897336  0.597120  1
  Rh  Rh28  1  0.902556  0.899941  0.906530  1
  Rh  Rh29  1  0.401917  0.600619  0.094233  1
  Rh  Rh30  1  0.599490  0.397711  0.593539  1
  Rh  Rh31  1  0.097721  0.100460  0.405198  1
