# generated using pymatgen
data_Na4Ca2SnAs4
_symmetry_space_group_name_H-M   'P 1'
_cell_length_a   9.72742351
_cell_length_b   9.72742287
_cell_length_c   7.32416645
_cell_angle_alpha   88.79892249
_cell_angle_beta   88.79891587
_cell_angle_gamma   119.99972512
_symmetry_Int_Tables_number   1
_chemical_formula_structural   Na4Ca2SnAs4
_chemical_formula_sum   'Na8 Ca4 Sn2 As8'
_cell_volume   599.65808212
_cell_formula_units_Z   2
loop_
 _symmetry_equiv_pos_site_id
 _symmetry_equiv_pos_as_xyz
  1  'x, y, z'
loop_
 _atom_site_type_symbol
 _atom_site_label
 _atom_site_symmetry_multiplicity
 _atom_site_fract_x
 _atom_site_fract_y
 _atom_site_fract_z
 _atom_site_occupancy
  Na  Na0  1  0.470344  0.933550  0.379947  1
  Na  Na1  1  0.933550  0.470344  0.879947  1
  Na  Na2  1  0.860927  0.714144  0.186820  1
  Na  Na3  1  0.294602  0.139962  0.225305  1
  Na  Na4  1  0.849880  0.140278  0.207516  1
  Na  Na5  1  0.139962  0.294602  0.725305  1
  Na  Na6  1  0.714144  0.860927  0.686820  1
  Na  Na7  1  0.140278  0.849880  0.707516  1
  Ca  Ca8  1  0.058321  0.530412  0.387006  1
  Ca  Ca9  1  0.480286  0.533997  0.379045  1
  Ca  Ca10  1  0.530412  0.058321  0.887006  1
  Ca  Ca11  1  0.533997  0.480286  0.879045  1
  Sn  Sn12  1  0.661352  0.327080  0.497996  1
  Sn  Sn13  1  0.327080  0.661352  0.997996  1
  As  As14  1  0.193923  0.372131  0.142198  1
  As  As15  1  0.628045  0.809405  0.090459  1
  As  As16  1  0.192390  0.818194  0.113632  1
  As  As17  1  0.809405  0.628045  0.590459  1
  As  As18  1  0.372131  0.193923  0.642198  1
  As  As19  1  0.818194  0.192390  0.613632  1
  As  As20  1  0.657488  0.333303  0.138204  1
  As  As21  1  0.333303  0.657488  0.638204  1
