# generated using pymatgen
data_Dy3Lu5Re(B8Ir)3
_symmetry_space_group_name_H-M   'P 1'
_cell_length_a   3.62414300
_cell_length_b   9.09550120
_cell_length_c   11.44563401
_cell_angle_alpha   90.14736523
_cell_angle_beta   90.00000000
_cell_angle_gamma   90.00000000
_symmetry_Int_Tables_number   1
_chemical_formula_structural   Dy3Lu5Re(B8Ir)3
_chemical_formula_sum   'Dy3 Lu5 Re1 B24 Ir3'
_cell_volume   377.28572995
_cell_formula_units_Z   1
loop_
 _symmetry_equiv_pos_site_id
 _symmetry_equiv_pos_as_xyz
  1  'x, y, z'
loop_
 _atom_site_type_symbol
 _atom_site_label
 _atom_site_symmetry_multiplicity
 _atom_site_fract_x
 _atom_site_fract_y
 _atom_site_fract_z
 _atom_site_occupancy
  Dy  Dy0  1  0.000000  0.320118  0.414019  1
  Dy  Dy1  1  0.000000  0.683365  0.590126  1
  Dy  Dy2  1  0.000000  0.820053  0.082824  1
  Lu  Lu3  1  0.000000  0.176593  0.912280  1
  Lu  Lu4  1  0.000000  0.944010  0.373340  1
  Lu  Lu5  1  0.000000  0.053553  0.626712  1
  Lu  Lu6  1  0.000000  0.443271  0.125565  1
  Lu  Lu7  1  0.000000  0.557224  0.874886  1
  Re  Re8  1  0.000000  0.862958  0.820824  1
  B  B9  1  0.500000  0.554231  0.434032  1
  B  B10  1  0.500000  0.446796  0.567009  1
  B  B11  1  0.500000  0.054713  0.065557  1
  B  B12  1  0.500000  0.947378  0.933285  1
  B  B13  1  0.500000  0.751934  0.420111  1
  B  B14  1  0.500000  0.248639  0.579990  1
  B  B15  1  0.500000  0.250058  0.078102  1
  B  B16  1  0.500000  0.750539  0.919467  1
  B  B17  1  0.500000  0.792839  0.264736  1
  B  B18  1  0.500000  0.206727  0.734746  1
  B  B19  1  0.500000  0.293391  0.234652  1
  B  B20  1  0.500000  0.707502  0.766075  1
  B  B21  1  0.500000  0.629972  0.183474  1
  B  B22  1  0.500000  0.368161  0.817077  1
  B  B23  1  0.500000  0.131087  0.316180  1
  B  B24  1  0.500000  0.870095  0.685029  1
  B  B25  1  0.500000  0.981866  0.213613  1
  B  B26  1  0.500000  0.018897  0.786585  1
  B  B27  1  0.500000  0.481018  0.286283  1
  B  B28  1  0.500000  0.517876  0.715060  1
  B  B29  1  0.500000  0.604295  0.029721  1
  B  B30  1  0.500000  0.391587  0.970832  1
  B  B31  1  0.500000  0.105532  0.470780  1
  B  B32  1  0.500000  0.895524  0.527644  1
  Ir  Ir33  1  0.000000  0.638290  0.321109  1
  Ir  Ir34  1  0.000000  0.361503  0.679655  1
  Ir  Ir35  1  0.000000  0.138404  0.178621  1
