# generated using pymatgen
data_CeDySc2(ReB6)2
_symmetry_space_group_name_H-M   'P 1'
_cell_length_a   3.61845800
_cell_length_b   9.02499722
_cell_length_c   11.41685655
_cell_angle_alpha   89.94041416
_cell_angle_beta   90.00000000
_cell_angle_gamma   90.00000000
_symmetry_Int_Tables_number   1
_chemical_formula_structural   CeDySc2(ReB6)2
_chemical_formula_sum   'Ce2 Dy2 Sc4 Re4 B24'
_cell_volume   372.83521199
_cell_formula_units_Z   2
loop_
 _symmetry_equiv_pos_site_id
 _symmetry_equiv_pos_as_xyz
  1  'x, y, z'
loop_
 _atom_site_type_symbol
 _atom_site_label
 _atom_site_symmetry_multiplicity
 _atom_site_fract_x
 _atom_site_fract_y
 _atom_site_fract_z
 _atom_site_occupancy
  Ce  Ce0  1  0.000000  0.820637  0.085831  1
  Ce  Ce1  1  0.000000  0.179363  0.914169  1
  Dy  Dy2  1  0.000000  0.322294  0.414505  1
  Dy  Dy3  1  0.000000  0.677706  0.585495  1
  Sc  Sc4  1  0.000000  0.944112  0.372039  1
  Sc  Sc5  1  0.000000  0.055888  0.627961  1
  Sc  Sc6  1  0.000000  0.444631  0.128961  1
  Sc  Sc7  1  0.000000  0.555369  0.871039  1
  Re  Re8  1  0.000000  0.641573  0.318088  1
  Re  Re9  1  0.000000  0.358427  0.681912  1
  Re  Re10  1  0.000000  0.140305  0.181265  1
  Re  Re11  1  0.000000  0.859695  0.818735  1
  B  B12  1  0.500000  0.554448  0.432729  1
  B  B13  1  0.500000  0.445552  0.567271  1
  B  B14  1  0.500000  0.055294  0.069093  1
  B  B15  1  0.500000  0.944706  0.930907  1
  B  B16  1  0.500000  0.753432  0.418624  1
  B  B17  1  0.500000  0.246568  0.581376  1
  B  B18  1  0.500000  0.254246  0.083146  1
  B  B19  1  0.500000  0.745754  0.916854  1
  B  B20  1  0.500000  0.794188  0.265887  1
  B  B21  1  0.500000  0.205812  0.734113  1
  B  B22  1  0.500000  0.294991  0.235538  1
  B  B23  1  0.500000  0.705009  0.764462  1
  B  B24  1  0.500000  0.629018  0.183991  1
  B  B25  1  0.500000  0.370982  0.816009  1
  B  B26  1  0.500000  0.129541  0.317546  1
  B  B27  1  0.500000  0.870459  0.682454  1
  B  B28  1  0.500000  0.982407  0.215073  1
  B  B29  1  0.500000  0.017593  0.784927  1
  B  B30  1  0.500000  0.481673  0.286639  1
  B  B31  1  0.500000  0.518327  0.713361  1
  B  B32  1  0.500000  0.596920  0.026373  1
  B  B33  1  0.500000  0.403080  0.973627  1
  B  B34  1  0.500000  0.096516  0.473752  1
  B  B35  1  0.500000  0.903484  0.526248  1
