# generated using pymatgen
data_Sc3TiZn2(Co5B2)2
_symmetry_space_group_name_H-M   'P 1'
_cell_length_a   8.73598663
_cell_length_b   8.73598596
_cell_length_c   2.93751500
_cell_angle_alpha   90.00000000
_cell_angle_beta   90.00000000
_cell_angle_gamma   90.77561074
_symmetry_Int_Tables_number   1
_chemical_formula_structural   Sc3TiZn2(Co5B2)2
_chemical_formula_sum   'Sc3 Ti1 Zn2 Co10 B4'
_cell_volume   224.16313294
_cell_formula_units_Z   1
loop_
 _symmetry_equiv_pos_site_id
 _symmetry_equiv_pos_as_xyz
  1  'x, y, z'
loop_
 _atom_site_type_symbol
 _atom_site_label
 _atom_site_symmetry_multiplicity
 _atom_site_fract_x
 _atom_site_fract_y
 _atom_site_fract_z
 _atom_site_occupancy
  Sc  Sc0  1  0.824970  0.324970  0.000000  1
  Sc  Sc1  1  0.322487  0.175442  0.000000  1
  Sc  Sc2  1  0.675442  0.822487  0.000000  1
  Ti  Ti3  1  0.173959  0.673959  0.000000  1
  Zn  Zn4  1  0.999368  0.003374  0.000000  1
  Zn  Zn5  1  0.503374  0.499368  0.000000  1
  Co  Co6  1  0.496568  0.996568  0.500000  1
  Co  Co7  1  0.005904  0.505904  0.500000  1
  Co  Co8  1  0.069293  0.227094  0.500000  1
  Co  Co9  1  0.217357  0.920021  0.500000  1
  Co  Co10  1  0.775770  0.068528  0.500000  1
  Co  Co11  1  0.941338  0.777178  0.500000  1
  Co  Co12  1  0.420021  0.717357  0.500000  1
  Co  Co13  1  0.568528  0.275770  0.500000  1
  Co  Co14  1  0.727094  0.569293  0.500000  1
  Co  Co15  1  0.277178  0.441338  0.500000  1
  B  B16  1  0.620108  0.120108  0.000000  1
  B  B17  1  0.123890  0.383160  0.000000  1
  B  B18  1  0.883160  0.623890  0.000000  1
  B  B19  1  0.374192  0.874192  0.000000  1
