# generated using pymatgen
data_Tb3Ho3Co2(P3Ir4)4
_symmetry_space_group_name_H-M   'P 1'
_cell_length_a   3.92733900
_cell_length_b   11.09115707
_cell_length_c   12.77745408
_cell_angle_alpha   90.01258330
_cell_angle_beta   89.99999552
_cell_angle_gamma   90.00000000
_symmetry_Int_Tables_number   1
_chemical_formula_structural   Tb3Ho3Co2(P3Ir4)4
_chemical_formula_sum   'Tb3 Ho3 Co2 P12 Ir16'
_cell_volume   556.56970613
_cell_formula_units_Z   1
loop_
 _symmetry_equiv_pos_site_id
 _symmetry_equiv_pos_as_xyz
  1  'x, y, z'
loop_
 _atom_site_type_symbol
 _atom_site_label
 _atom_site_symmetry_multiplicity
 _atom_site_fract_x
 _atom_site_fract_y
 _atom_site_fract_z
 _atom_site_occupancy
  Tb  Tb0  1  0.000000  0.500102  0.522583  1
  Tb  Tb1  1  0.500000  0.000017  0.477275  1
  Tb  Tb2  1  0.000000  0.315696  0.799565  1
  Ho  Ho3  1  0.500000  0.815716  0.200562  1
  Ho  Ho4  1  0.499999  0.184180  0.200426  1
  Ho  Ho5  1  0.000000  0.684208  0.799558  1
  Co  Co6  1  0.000000  0.500299  0.977435  1
  Co  Co7  1  0.500000  0.999836  0.023342  1
  P  P8  1  0.500000  0.500330  0.880568  1
  P  P9  1  0.999999  0.999870  0.119746  1
  P  P10  1  0.500001  0.500067  0.357631  1
  P  P11  1  0.000000  0.000308  0.642285  1
  P  P12  1  0.499999  0.315628  0.619010  1
  P  P13  1  0.500000  0.684654  0.619483  1
  P  P14  1  0.000000  0.184474  0.380274  1
  P  P15  1  0.000000  0.815598  0.380560  1
  P  P16  1  0.500000  0.851677  0.896809  1
  P  P17  1  0.500001  0.147176  0.896672  1
  P  P18  1  0.000000  0.648313  0.103484  1
  P  P19  1  0.000000  0.351551  0.103308  1
  Ir  Ir20  1  0.500000  0.500260  0.177523  1
  Ir  Ir21  1  0.000000  0.000110  0.822531  1
  Ir  Ir22  1  0.500000  0.500454  0.702806  1
  Ir  Ir23  1  0.000000  0.999933  0.297036  1
  Ir  Ir24  1  0.500000  0.339005  0.998138  1
  Ir  Ir25  1  0.500001  0.661283  0.997771  1
  Ir  Ir26  1  0.000000  0.160872  0.002715  1
  Ir  Ir27  1  0.000001  0.838976  0.002294  1
  Ir  Ir28  1  0.500000  0.292786  0.428801  1
  Ir  Ir29  1  0.500000  0.707472  0.429059  1
  Ir  Ir30  1  0.000000  0.207334  0.570448  1
  Ir  Ir31  1  0.000000  0.792962  0.570993  1
  Ir  Ir32  1  0.499999  0.869820  0.715275  1
  Ir  Ir33  1  0.500000  0.128920  0.714152  1
  Ir  Ir34  1  0.000000  0.630019  0.285080  1
  Ir  Ir35  1  0.000000  0.370097  0.284802  1
