# generated using pymatgen
data_Cs2KV3F12
_symmetry_space_group_name_H-M   'P 1'
_cell_length_a   7.78348514
_cell_length_b   7.78348529
_cell_length_c   7.78348436
_cell_angle_alpha   59.30971336
_cell_angle_beta   59.30971566
_cell_angle_gamma   59.30971121
_symmetry_Int_Tables_number   1
_chemical_formula_structural   Cs2KV3F12
_chemical_formula_sum   'Cs2 K1 V3 F12'
_cell_volume   328.19145220
_cell_formula_units_Z   1
loop_
 _symmetry_equiv_pos_site_id
 _symmetry_equiv_pos_as_xyz
  1  'x, y, z'
loop_
 _atom_site_type_symbol
 _atom_site_label
 _atom_site_symmetry_multiplicity
 _atom_site_fract_x
 _atom_site_fract_y
 _atom_site_fract_z
 _atom_site_occupancy
  Cs  Cs0  1  0.620748  0.620748  0.620748  1
  Cs  Cs1  1  0.379252  0.379252  0.379252  1
  K  K2  1  0.000000  0.000000  0.000000  1
  V  V3  1  0.500000  0.000000  0.000000  1
  V  V4  1  0.000000  0.000000  0.500000  1
  V  V5  1  0.000000  0.500000  0.000000  1
  F  F6  1  0.110414  0.110414  0.579222  1
  F  F7  1  0.579222  0.110414  0.110414  1
  F  F8  1  0.110414  0.579222  0.110414  1
  F  F9  1  0.889586  0.420778  0.889586  1
  F  F10  1  0.889586  0.889586  0.420778  1
  F  F11  1  0.420778  0.889586  0.889586  1
  F  F12  1  0.907863  0.286453  0.286453  1
  F  F13  1  0.286453  0.286453  0.907863  1
  F  F14  1  0.286453  0.907863  0.286453  1
  F  F15  1  0.713547  0.092137  0.713547  1
  F  F16  1  0.092137  0.713547  0.713547  1
  F  F17  1  0.713547  0.713547  0.092137  1
