# generated using pymatgen
data_Li3Y4Co17P12
_symmetry_space_group_name_H-M   'P 1'
_cell_length_a   3.68248800
_cell_length_b   10.26111116
_cell_length_c   11.87519521
_cell_angle_alpha   90.02094749
_cell_angle_beta   90.00000000
_cell_angle_gamma   90.00000000
_symmetry_Int_Tables_number   1
_chemical_formula_structural   Li3Y4Co17P12
_chemical_formula_sum   'Li3 Y4 Co17 P12'
_cell_volume   448.72106859
_cell_formula_units_Z   1
loop_
 _symmetry_equiv_pos_site_id
 _symmetry_equiv_pos_as_xyz
  1  'x, y, z'
loop_
 _atom_site_type_symbol
 _atom_site_label
 _atom_site_symmetry_multiplicity
 _atom_site_fract_x
 _atom_site_fract_y
 _atom_site_fract_z
 _atom_site_occupancy
  Li  Li0  1  0.250000  0.796291  0.492081  1
  Li  Li1  1  0.750000  0.203282  0.508425  1
  Li  Li2  1  0.750000  0.296494  0.008701  1
  Y  Y3  1  0.250000  0.919609  0.201407  1
  Y  Y4  1  0.750000  0.079994  0.798352  1
  Y  Y5  1  0.750000  0.419657  0.296766  1
  Y  Y6  1  0.250000  0.580561  0.703740  1
  Co  Co7  1  0.250000  0.711470  0.991153  1
  Co  Co8  1  0.250000  0.091618  0.985983  1
  Co  Co9  1  0.750000  0.903930  0.013705  1
  Co  Co10  1  0.750000  0.594551  0.513071  1
  Co  Co11  1  0.250000  0.406580  0.485874  1
  Co  Co12  1  0.250000  0.279871  0.673987  1
  Co  Co13  1  0.750000  0.720956  0.322463  1
  Co  Co14  1  0.750000  0.777394  0.828512  1
  Co  Co15  1  0.250000  0.219674  0.173864  1
  Co  Co16  1  0.250000  0.618901  0.197758  1
  Co  Co17  1  0.750000  0.381375  0.801358  1
  Co  Co18  1  0.750000  0.119867  0.301421  1
  Co  Co19  1  0.250000  0.878772  0.701124  1
  Co  Co20  1  0.250000  0.032545  0.433204  1
  Co  Co21  1  0.750000  0.965978  0.568178  1
  Co  Co22  1  0.750000  0.535119  0.067139  1
  Co  Co23  1  0.250000  0.467020  0.933259  1
  P  P24  1  0.250000  0.076400  0.615305  1
  P  P25  1  0.750000  0.922959  0.385217  1
  P  P26  1  0.750000  0.578087  0.888484  1
  P  P27  1  0.250000  0.421854  0.114443  1
  P  P28  1  0.250000  0.228660  0.361117  1
  P  P29  1  0.750000  0.770056  0.639351  1
  P  P30  1  0.750000  0.730196  0.132518  1
  P  P31  1  0.250000  0.270871  0.861944  1
  P  P32  1  0.250000  0.896609  0.894431  1
  P  P33  1  0.750000  0.101397  0.107340  1
  P  P34  1  0.750000  0.398933  0.607484  1
  P  P35  1  0.250000  0.602468  0.390838  1
