# generated using pymatgen
data_Gd2Dy8C4Cl17
_symmetry_space_group_name_H-M   'P 1'
_cell_length_a   8.51151530
_cell_length_b   9.22971055
_cell_length_c   11.47712380
_cell_angle_alpha   105.06255454
_cell_angle_beta   95.79879864
_cell_angle_gamma   110.11649565
_symmetry_Int_Tables_number   1
_chemical_formula_structural   Gd2Dy8C4Cl17
_chemical_formula_sum   'Gd2 Dy8 C4 Cl17'
_cell_volume   799.30800123
_cell_formula_units_Z   1
loop_
 _symmetry_equiv_pos_site_id
 _symmetry_equiv_pos_as_xyz
  1  'x, y, z'
loop_
 _atom_site_type_symbol
 _atom_site_label
 _atom_site_symmetry_multiplicity
 _atom_site_fract_x
 _atom_site_fract_y
 _atom_site_fract_z
 _atom_site_occupancy
  Gd  Gd0  1  0.209606  0.096559  0.306601  1
  Gd  Gd1  1  0.790328  0.903447  0.693405  1
  Dy  Dy2  1  0.652127  0.489691  0.438237  1
  Dy  Dy3  1  0.347837  0.510274  0.561718  1
  Dy  Dy4  1  0.085236  0.424779  0.271403  1
  Dy  Dy5  1  0.914830  0.575230  0.728608  1
  Dy  Dy6  1  0.411795  0.371232  0.139315  1
  Dy  Dy7  1  0.588195  0.628746  0.860720  1
  Dy  Dy8  1  0.489428  0.780428  0.343489  1
  Dy  Dy9  1  0.510622  0.219622  0.656499  1
  C  C10  1  0.398443  0.530068  0.345547  1
  C  C11  1  0.601586  0.469964  0.654469  1
  C  C12  1  0.328675  0.362124  0.339098  1
  C  C13  1  0.671286  0.637787  0.660901  1
  Cl  Cl14  1  0.106427  0.350348  0.040541  1
  Cl  Cl15  1  0.893590  0.649635  0.959463  1
  Cl  Cl16  1  0.810134  0.819523  0.441468  1
  Cl  Cl17  1  0.189861  0.180481  0.558497  1
  Cl  Cl18  1  0.000015  0.499994  0.499999  1
  Cl  Cl19  1  0.305170  0.048843  0.090355  1
  Cl  Cl20  1  0.694852  0.951174  0.909700  1
  Cl  Cl21  1  0.905788  0.109519  0.247053  1
  Cl  Cl22  1  0.094171  0.890519  0.752931  1
  Cl  Cl23  1  0.549801  0.129206  0.410730  1
  Cl  Cl24  1  0.450154  0.870815  0.589217  1
  Cl  Cl25  1  0.740736  0.414755  0.212197  1
  Cl  Cl26  1  0.259285  0.585270  0.787805  1
  Cl  Cl27  1  0.163900  0.752833  0.283130  1
  Cl  Cl28  1  0.836132  0.247159  0.716911  1
  Cl  Cl29  1  0.533828  0.684336  0.111753  1
  Cl  Cl30  1  0.466167  0.315645  0.888237  1
