# generated using pymatgen
data_IrOsRhO6
_symmetry_space_group_name_H-M   'P 1'
_cell_length_a   4.55630700
_cell_length_b   4.55630700
_cell_length_c   9.51198200
_cell_angle_alpha   90.00000000
_cell_angle_beta   90.00000000
_cell_angle_gamma   90.00000000
_symmetry_Int_Tables_number   1
_chemical_formula_structural   IrOsRhO6
_chemical_formula_sum   'Ir2 Os2 Rh2 O12'
_cell_volume   197.46811357
_cell_formula_units_Z   2
loop_
 _symmetry_equiv_pos_site_id
 _symmetry_equiv_pos_as_xyz
  1  'x, y, z'
loop_
 _atom_site_type_symbol
 _atom_site_label
 _atom_site_symmetry_multiplicity
 _atom_site_fract_x
 _atom_site_fract_y
 _atom_site_fract_z
 _atom_site_occupancy
  Ir  Ir0  1  0.500000  0.500000  0.500078  1
  Ir  Ir1  1  0.000000  0.000000  0.000078  1
  Os  Os2  1  0.500000  0.500000  0.166771  1
  Os  Os3  1  0.000000  0.000000  0.666771  1
  Rh  Rh4  1  0.500000  0.500000  0.833519  1
  Rh  Rh5  1  0.000000  0.000000  0.333519  1
  O  O6  1  0.191335  0.808665  0.503111  1
  O  O7  1  0.808665  0.191335  0.503111  1
  O  O8  1  0.308665  0.308665  0.003111  1
  O  O9  1  0.691335  0.691335  0.003111  1
  O  O10  1  0.199752  0.800248  0.165263  1
  O  O11  1  0.800248  0.199752  0.165263  1
  O  O12  1  0.300248  0.300248  0.665263  1
  O  O13  1  0.699752  0.699752  0.665263  1
  O  O14  1  0.813258  0.186742  0.831443  1
  O  O15  1  0.186742  0.813258  0.831443  1
  O  O16  1  0.686742  0.686742  0.331443  1
  O  O17  1  0.313258  0.313258  0.331443  1
