# generated using pymatgen
data_Sm3VWC6
_symmetry_space_group_name_H-M   'P 1'
_cell_length_a   8.46425600
_cell_length_b   8.46425624
_cell_length_c   5.21744700
_cell_angle_alpha   90.00000000
_cell_angle_beta   90.00000000
_cell_angle_gamma   119.99999905
_symmetry_Int_Tables_number   1
_chemical_formula_structural   Sm3VWC6
_chemical_formula_sum   'Sm6 V2 W2 C12'
_cell_volume   323.71757209
_cell_formula_units_Z   2
loop_
 _symmetry_equiv_pos_site_id
 _symmetry_equiv_pos_as_xyz
  1  'x, y, z'
loop_
 _atom_site_type_symbol
 _atom_site_label
 _atom_site_symmetry_multiplicity
 _atom_site_fract_x
 _atom_site_fract_y
 _atom_site_fract_z
 _atom_site_occupancy
  Sm  Sm0  1  0.621238  0.695042  0.750000  1
  Sm  Sm1  1  0.926195  0.621238  0.250000  1
  Sm  Sm2  1  0.695042  0.073805  0.250000  1
  Sm  Sm3  1  0.304958  0.926195  0.750000  1
  Sm  Sm4  1  0.073805  0.378762  0.750000  1
  Sm  Sm5  1  0.378762  0.304958  0.250000  1
  V  V6  1  0.000000  0.000000  0.500000  1
  V  V7  1  0.000000  0.000000  0.000000  1
  W  W8  1  0.666667  0.333333  0.750000  1
  W  W9  1  0.333333  0.666667  0.250000  1
  C  C10  1  0.961290  0.778059  0.750000  1
  C  C11  1  0.183231  0.961290  0.250000  1
  C  C12  1  0.778059  0.816769  0.250000  1
  C  C13  1  0.221941  0.183231  0.750000  1
  C  C14  1  0.816769  0.038710  0.750000  1
  C  C15  1  0.038710  0.221941  0.250000  1
  C  C16  1  0.864659  0.590523  0.750000  1
  C  C17  1  0.274136  0.864659  0.250000  1
  C  C18  1  0.590523  0.725864  0.250000  1
  C  C19  1  0.409477  0.274136  0.750000  1
  C  C20  1  0.135341  0.409477  0.250000  1
  C  C21  1  0.725864  0.135341  0.750000  1
