# generated using pymatgen
data_Tb8Dy3ErGa20
_symmetry_space_group_name_H-M   'P 1'
_cell_length_a   6.11548805
_cell_length_b   9.64539500
_cell_length_c   11.59048810
_cell_angle_alpha   90.00000000
_cell_angle_beta   89.98508642
_cell_angle_gamma   90.00000000
_symmetry_Int_Tables_number   1
_chemical_formula_structural   Tb8Dy3ErGa20
_chemical_formula_sum   'Tb8 Dy3 Er1 Ga20'
_cell_volume   683.67996034
_cell_formula_units_Z   1
loop_
 _symmetry_equiv_pos_site_id
 _symmetry_equiv_pos_as_xyz
  1  'x, y, z'
loop_
 _atom_site_type_symbol
 _atom_site_label
 _atom_site_symmetry_multiplicity
 _atom_site_fract_x
 _atom_site_fract_y
 _atom_site_fract_z
 _atom_site_occupancy
  Tb  Tb0  1  0.890534  0.509119  0.350928  1
  Tb  Tb1  1  0.609495  0.990750  0.851313  1
  Tb  Tb2  1  0.109322  0.008773  0.649023  1
  Tb  Tb3  1  0.390992  0.491143  0.148963  1
  Tb  Tb4  1  0.109322  0.491227  0.649023  1
  Tb  Tb5  1  0.390992  0.008857  0.148963  1
  Tb  Tb6  1  0.890534  0.990881  0.350928  1
  Tb  Tb7  1  0.609495  0.509250  0.851313  1
  Dy  Dy8  1  0.651467  0.750000  0.575699  1
  Dy  Dy9  1  0.151647  0.250000  0.924456  1
  Dy  Dy10  1  0.348373  0.250000  0.424462  1
  Er  Er11  1  0.848366  0.750000  0.075625  1
  Ga  Ga12  1  0.875879  0.053399  0.089430  1
  Ga  Ga13  1  0.624277  0.445854  0.589631  1
  Ga  Ga14  1  0.124264  0.554535  0.910764  1
  Ga  Ga15  1  0.375645  0.945585  0.410210  1
  Ga  Ga16  1  0.124264  0.945465  0.910764  1
  Ga  Ga17  1  0.375645  0.554415  0.410210  1
  Ga  Ga18  1  0.875879  0.446601  0.089430  1
  Ga  Ga19  1  0.624277  0.054146  0.589631  1
  Ga  Ga20  1  0.170464  0.750000  0.252713  1
  Ga  Ga21  1  0.328308  0.750000  0.753401  1
  Ga  Ga22  1  0.828389  0.250000  0.746939  1
  Ga  Ga23  1  0.671511  0.250000  0.246823  1
  Ga  Ga24  1  0.374371  0.750000  0.003879  1
  Ga  Ga25  1  0.126544  0.750000  0.503247  1
  Ga  Ga26  1  0.627684  0.250000  0.996531  1
  Ga  Ga27  1  0.873173  0.250000  0.496453  1
  Ga  Ga28  1  0.600030  0.750000  0.299551  1
  Ga  Ga29  1  0.899582  0.750000  0.800820  1
  Ga  Ga30  1  0.399599  0.250000  0.699489  1
  Ga  Ga31  1  0.099678  0.250000  0.199390  1
