# generated using pymatgen
data_FeTe28
_symmetry_space_group_name_H-M   'P 1'
_cell_length_a   12.07044839
_cell_length_b   10.81983923
_cell_length_c   12.67756400
_cell_angle_alpha   115.00825248
_cell_angle_beta   124.68022695
_cell_angle_gamma   88.22720311
_symmetry_Int_Tables_number   1
_chemical_formula_structural   FeTe28
_chemical_formula_sum   'Fe1 Te28'
_cell_volume   1184.08520647
_cell_formula_units_Z   1
loop_
 _symmetry_equiv_pos_site_id
 _symmetry_equiv_pos_as_xyz
  1  'x, y, z'
loop_
 _atom_site_type_symbol
 _atom_site_label
 _atom_site_symmetry_multiplicity
 _atom_site_fract_x
 _atom_site_fract_y
 _atom_site_fract_z
 _atom_site_occupancy
  Fe  Fe0  1  0.500000  0.000000  0.000000  1
  Te  Te1  1  0.246365  0.110427  0.424676  1
  Te  Te2  1  0.619811  0.154455  0.438366  1
  Te  Te3  1  0.264723  0.269862  0.905502  1
  Te  Te4  1  0.894226  0.300942  0.901042  1
  Te  Te5  1  0.208992  0.557535  0.719880  1
  Te  Te6  1  0.803868  0.518051  0.621294  1
  Te  Te7  1  0.380189  0.845545  0.561634  1
  Te  Te8  1  0.753635  0.889573  0.575324  1
  Te  Te9  1  0.105774  0.699058  0.098958  1
  Te  Te10  1  0.735277  0.730138  0.094498  1
  Te  Te11  1  0.196132  0.481949  0.378706  1
  Te  Te12  1  0.791008  0.442465  0.280120  1
  Te  Te13  1  0.756127  0.065293  0.856781  1
  Te  Te14  1  0.265250  0.984577  0.773050  1
  Te  Te15  1  0.821592  0.666436  0.887452  1
  Te  Te16  1  0.390261  0.805030  0.020982  1
  Te  Te17  1  0.503500  0.216809  0.200644  1
  Te  Te18  1  0.045537  0.275859  0.366484  1
  Te  Te19  1  0.734750  0.015423  0.226950  1
  Te  Te20  1  0.243873  0.934707  0.143219  1
  Te  Te21  1  0.609739  0.194970  0.979018  1
  Te  Te22  1  0.178408  0.333564  0.112548  1
  Te  Te23  1  0.954463  0.724141  0.633516  1
  Te  Te24  1  0.496500  0.783191  0.799356  1
  Te  Te25  1  0.051381  0.385450  0.735106  1
  Te  Te26  1  0.508858  0.298406  0.583987  1
  Te  Te27  1  0.491142  0.701594  0.416013  1
  Te  Te28  1  0.948619  0.614550  0.264894  1
