# generated using pymatgen
data_Th3GaPd2PtAu2
_symmetry_space_group_name_H-M   'P 1'
_cell_length_a   7.81630065
_cell_length_b   7.60478351
_cell_length_c   3.80763200
_cell_angle_alpha   90.00000000
_cell_angle_beta   90.00000000
_cell_angle_gamma   119.17111809
_symmetry_Int_Tables_number   1
_chemical_formula_structural   Th3GaPd2PtAu2
_chemical_formula_sum   'Th3 Ga1 Pd2 Pt1 Au2'
_cell_volume   197.62452337
_cell_formula_units_Z   1
loop_
 _symmetry_equiv_pos_site_id
 _symmetry_equiv_pos_as_xyz
  1  'x, y, z'
loop_
 _atom_site_type_symbol
 _atom_site_label
 _atom_site_symmetry_multiplicity
 _atom_site_fract_x
 _atom_site_fract_y
 _atom_site_fract_z
 _atom_site_occupancy
  Th  Th0  1  0.398654  0.393826  0.500000  1
  Th  Th1  1  0.598141  0.989124  0.500000  1
  Th  Th2  1  0.002702  0.614643  0.500000  1
  Ga  Ga3  1  0.996759  0.261612  0.000000  1
  Pd  Pd4  1  0.684807  0.328449  0.000000  1
  Pd  Pd5  1  0.999930  0.032169  0.500000  1
  Pt  Pt6  1  0.314340  0.644036  0.000000  1
  Au  Au7  1  0.731235  0.729348  0.000000  1
  Au  Au8  1  0.273433  0.006792  0.000000  1
