# generated using pymatgen
data_Sr14LuSb11
_symmetry_space_group_name_H-M   'P 1'
_cell_length_a   17.47725707
_cell_length_b   17.47725751
_cell_length_c   17.47725700
_cell_angle_alpha   93.91138331
_cell_angle_beta   117.76805034
_cell_angle_gamma   117.76804455
_symmetry_Int_Tables_number   1
_chemical_formula_structural   Sr14LuSb11
_chemical_formula_sum   'Sr56 Lu4 Sb44'
_cell_volume   3892.43255551
_cell_formula_units_Z   4
loop_
 _symmetry_equiv_pos_site_id
 _symmetry_equiv_pos_as_xyz
  1  'x, y, z'
loop_
 _atom_site_type_symbol
 _atom_site_label
 _atom_site_symmetry_multiplicity
 _atom_site_fract_x
 _atom_site_fract_y
 _atom_site_fract_z
 _atom_site_occupancy
  Sr  Sr0  1  0.227465  0.976849  0.065702  1
  Sr  Sr1  1  0.727456  0.565704  0.476841  1
  Sr  Sr2  1  0.617897  0.402335  0.872089  1
  Sr  Sr3  1  0.145635  0.749997  0.895643  1
  Sr  Sr4  1  0.354355  0.250000  0.604355  1
  Sr  Sr5  1  0.272540  0.338245  0.749385  1
  Sr  Sr6  1  0.882102  0.627915  0.097663  1
  Sr  Sr7  1  0.911138  0.476842  0.249394  1
  Sr  Sr8  1  0.411140  0.749389  0.976842  1
  Sr  Sr9  1  0.645130  0.114208  0.518490  1
  Sr  Sr10  1  0.404279  0.518481  0.373360  1
  Sr  Sr11  1  0.854869  0.981514  0.385810  1
  Sr  Sr12  1  0.382103  0.597665  0.127911  1
  Sr  Sr13  1  0.727460  0.661755  0.250615  1
  Sr  Sr14  1  0.411148  0.161757  0.434301  1
  Sr  Sr15  1  0.469742  0.097655  0.715551  1
  Sr  Sr16  1  0.645126  0.030905  0.126641  1
  Sr  Sr17  1  0.145131  0.018486  0.614190  1
  Sr  Sr18  1  0.088862  0.523158  0.750606  1
  Sr  Sr19  1  0.354874  0.969095  0.873359  1
  Sr  Sr20  1  0.854351  0.104352  0.749999  1
  Sr  Sr21  1  0.088864  0.065705  0.338250  1
  Sr  Sr22  1  0.969747  0.254194  0.372093  1
  Sr  Sr23  1  0.404283  0.385799  0.030921  1
  Sr  Sr24  1  0.911136  0.934295  0.661750  1
  Sr  Sr25  1  0.227455  0.750611  0.161753  1
  Sr  Sr26  1  0.469743  0.872081  0.754189  1
  Sr  Sr27  1  0.095736  0.126646  0.981523  1
  Sr  Sr28  1  0.272544  0.434296  0.523159  1
  Sr  Sr29  1  0.645641  0.395638  0.249996  1
  Sr  Sr30  1  0.382114  0.284450  0.254201  1
  Sr  Sr31  1  0.030252  0.784450  0.402342  1
  Sr  Sr32  1  0.595717  0.614201  0.969079  1
  Sr  Sr33  1  0.969748  0.215550  0.597658  1
  Sr  Sr34  1  0.095730  0.469097  0.114211  1
  Sr  Sr35  1  0.117892  0.245810  0.215557  1
  Sr  Sr36  1  0.772545  0.249389  0.838247  1
  Sr  Sr37  1  0.145649  0.895648  0.250001  1
  Sr  Sr38  1  0.530258  0.902345  0.284449  1
  Sr  Sr39  1  0.117898  0.372085  0.902337  1
  Sr  Sr40  1  0.904270  0.530903  0.885789  1
  Sr  Sr41  1  0.645645  0.750000  0.395645  1
  Sr  Sr42  1  0.904264  0.873354  0.018477  1
  Sr  Sr43  1  0.854870  0.373354  0.469085  1
  Sr  Sr44  1  0.354359  0.604362  0.750004  1
  Sr  Sr45  1  0.145130  0.626646  0.530915  1
  Sr  Sr46  1  0.588852  0.838243  0.565699  1
  Sr  Sr47  1  0.854365  0.250003  0.104357  1
  Sr  Sr48  1  0.595721  0.481519  0.626640  1
  Sr  Sr49  1  0.030253  0.745806  0.627907  1
  Sr  Sr50  1  0.530257  0.127919  0.245811  1
  Sr  Sr51  1  0.882108  0.754190  0.784443  1
  Sr  Sr52  1  0.588860  0.250611  0.023158  1
  Sr  Sr53  1  0.354870  0.885792  0.481510  1
  Sr  Sr54  1  0.617886  0.715550  0.745799  1
  Sr  Sr55  1  0.772535  0.023151  0.934298  1
  Lu  Lu56  1  0.249949  0.124989  0.874978  1
  Lu  Lu57  1  0.749996  0.374996  0.624994  1
  Lu  Lu58  1  0.750051  0.875011  0.125022  1
  Lu  Lu59  1  0.250004  0.625004  0.375006  1
  Sb  Sb60  1  0.343411  0.521363  0.915887  1
  Sb  Sb61  1  0.884468  0.079054  0.185612  1
  Sb  Sb62  1  0.656589  0.478637  0.084113  1
  Sb  Sb63  1  0.615534  0.314390  0.420947  1
  Sb  Sb64  1  0.105475  0.177952  0.521363  1
  Sb  Sb65  1  0.106558  0.185610  0.801144  1
  Sb  Sb66  1  0.515237  0.507618  0.257618  1
  Sb  Sb67  1  0.105475  0.427523  0.584113  1
  Sb  Sb68  1  0.750000  0.125000  0.375000  1
  Sb  Sb69  1  0.606559  0.301144  0.685611  1
  Sb  Sb70  1  0.393441  0.698856  0.314389  1
  Sb  Sb71  1  0.394525  0.915887  0.072477  1
  Sb  Sb72  1  0.384467  0.198856  0.805415  1
  Sb  Sb73  1  0.894525  0.822048  0.478637  1
  Sb  Sb74  1  0.250000  0.375001  0.125000  1
  Sb  Sb75  1  0.250000  0.742381  0.757618  1
  Sb  Sb76  1  0.115533  0.694585  0.301144  1
  Sb  Sb77  1  0.615533  0.801144  0.194585  1
  Sb  Sb78  1  0.106559  0.420948  0.305415  1
  Sb  Sb79  1  0.605475  0.084113  0.927523  1
  Sb  Sb80  1  0.893442  0.814390  0.198856  1
  Sb  Sb81  1  0.894525  0.572477  0.415887  1
  Sb  Sb82  1  0.250000  0.875000  0.625000  1
  Sb  Sb83  1  0.384466  0.685610  0.579053  1
  Sb  Sb84  1  0.015236  0.757618  0.007618  1
  Sb  Sb85  1  0.606559  0.805414  0.920949  1
  Sb  Sb86  1  0.156589  0.584113  0.978637  1
  Sb  Sb87  1  0.393441  0.194586  0.079051  1
  Sb  Sb88  1  0.843411  0.927523  0.822048  1
  Sb  Sb89  1  0.484763  0.492382  0.742382  1
  Sb  Sb90  1  0.984764  0.242382  0.992382  1
  Sb  Sb91  1  0.394525  0.978637  0.322048  1
  Sb  Sb92  1  0.750000  0.992381  0.507618  1
  Sb  Sb93  1  0.605475  0.021363  0.677952  1
  Sb  Sb94  1  0.115532  0.920946  0.814388  1
  Sb  Sb95  1  0.343411  0.322048  0.427524  1
  Sb  Sb96  1  0.156589  0.072477  0.177952  1
  Sb  Sb97  1  0.750000  0.257619  0.242382  1
  Sb  Sb98  1  0.750000  0.624999  0.875000  1
  Sb  Sb99  1  0.250000  0.007619  0.492382  1
  Sb  Sb100  1  0.893441  0.579052  0.694585  1
  Sb  Sb101  1  0.656589  0.677952  0.572476  1
  Sb  Sb102  1  0.884467  0.305415  0.698856  1
  Sb  Sb103  1  0.843411  0.415887  0.021363  1
