# generated using pymatgen
data_Zr10AgSn4Bi3
_symmetry_space_group_name_H-M   'P 1'
_cell_length_a   5.96743500
_cell_length_b   8.89110922
_cell_length_c   8.89095800
_cell_angle_alpha   120.00172645
_cell_angle_beta   90.00072350
_cell_angle_gamma   90.00012831
_symmetry_Int_Tables_number   1
_chemical_formula_structural   Zr10AgSn4Bi3
_chemical_formula_sum   'Zr10 Ag1 Sn4 Bi3'
_cell_volume   408.52183819
_cell_formula_units_Z   1
loop_
 _symmetry_equiv_pos_site_id
 _symmetry_equiv_pos_as_xyz
  1  'x, y, z'
loop_
 _atom_site_type_symbol
 _atom_site_label
 _atom_site_symmetry_multiplicity
 _atom_site_fract_x
 _atom_site_fract_y
 _atom_site_fract_z
 _atom_site_occupancy
  Zr  Zr0  1  0.496114  0.333334  0.666670  1
  Zr  Zr1  1  0.496118  0.666665  0.333332  1
  Zr  Zr2  1  0.004334  0.666667  0.333336  1
  Zr  Zr3  1  0.004330  0.333331  0.666664  1
  Zr  Zr4  1  0.749595  0.278743  0.999999  1
  Zr  Zr5  1  0.749611  0.721271  0.721263  1
  Zr  Zr6  1  0.749609  0.000007  0.278738  1
  Zr  Zr7  1  0.250276  0.720119  0.000003  1
  Zr  Zr8  1  0.250269  0.279875  0.279885  1
  Zr  Zr9  1  0.250272  0.999991  0.720114  1
  Ag  Ag10  1  0.497955  0.000002  0.000000  1
  Sn  Sn11  1  0.251778  0.381834  0.999997  1
  Sn  Sn12  1  0.251788  0.618139  0.618142  1
  Sn  Sn13  1  0.251789  0.000003  0.381856  1
  Sn  Sn14  1  0.001682  0.000004  0.999999  1
  Bi  Bi15  1  0.748165  0.616718  0.999998  1
  Bi  Bi16  1  0.748154  0.383300  0.383303  1
  Bi  Bi17  1  0.748158  0.999998  0.616700  1
