# generated using pymatgen
data_Tb3Nd2YNi20P13
_symmetry_space_group_name_H-M   'P 1'
_cell_length_a   12.68994859
_cell_length_b   12.70585828
_cell_length_c   3.78674500
_cell_angle_alpha   90.00000000
_cell_angle_beta   90.00000000
_cell_angle_gamma   120.01592951
_symmetry_Int_Tables_number   1
_chemical_formula_structural   Tb3Nd2YNi20P13
_chemical_formula_sum   'Tb3 Nd2 Y1 Ni20 P13'
_cell_volume   528.67750068
_cell_formula_units_Z   1
loop_
 _symmetry_equiv_pos_site_id
 _symmetry_equiv_pos_as_xyz
  1  'x, y, z'
loop_
 _atom_site_type_symbol
 _atom_site_label
 _atom_site_symmetry_multiplicity
 _atom_site_fract_x
 _atom_site_fract_y
 _atom_site_fract_z
 _atom_site_occupancy
  Tb  Tb0  1  0.520671  0.135893  0.500000  1
  Tb  Tb1  1  0.863923  0.384226  0.500000  1
  Tb  Tb2  1  0.615459  0.479548  0.500000  1
  Nd  Nd3  1  0.051107  0.853519  0.000000  1
  Nd  Nd4  1  0.145991  0.197866  0.000000  1
  Y  Y5  1  0.800989  0.948496  0.000000  1
  Ni  Ni6  1  0.528721  0.771513  0.000000  1
  Ni  Ni7  1  0.229279  0.756659  0.000000  1
  Ni  Ni8  1  0.243343  0.472450  0.000000  1
  Ni  Ni9  1  0.997642  0.999344  0.500000  1
  Ni  Ni10  1  0.403926  0.814002  0.500000  1
  Ni  Ni11  1  0.186443  0.589538  0.500000  1
  Ni  Ni12  1  0.411006  0.597175  0.500000  1
  Ni  Ni13  1  0.666699  0.333416  0.000000  1
  Ni  Ni14  1  0.770659  0.686871  0.000000  1
  Ni  Ni15  1  0.314242  0.085057  0.000000  1
  Ni  Ni16  1  0.914348  0.227905  0.000000  1
  Ni  Ni17  1  0.647714  0.736552  0.500000  1
  Ni  Ni18  1  0.265718  0.911681  0.500000  1
  Ni  Ni19  1  0.087594  0.353329  0.500000  1
  Ni  Ni20  1  0.359641  0.257418  0.500000  1
  Ni  Ni21  1  0.743322  0.100768  0.500000  1
  Ni  Ni22  1  0.897661  0.640597  0.500000  1
  Ni  Ni23  1  0.573900  0.986276  0.000000  1
  Ni  Ni24  1  0.013673  0.586719  0.000000  1
  Ni  Ni25  1  0.413217  0.426927  0.000000  1
  P  P26  1  0.852735  0.801227  0.500000  1
  P  P27  1  0.200756  0.054438  0.500000  1
  P  P28  1  0.943028  0.143050  0.500000  1
  P  P29  1  0.609947  0.898557  0.500000  1
  P  P30  1  0.102003  0.709125  0.500000  1
  P  P31  1  0.290822  0.392899  0.500000  1
  P  P32  1  0.471649  0.282448  0.000000  1
  P  P33  1  0.717559  0.189279  0.000000  1
  P  P34  1  0.810746  0.528765  0.000000  1
  P  P35  1  0.380459  0.949279  0.000000  1
  P  P36  1  0.050558  0.430410  0.000000  1
  P  P37  1  0.568838  0.619824  0.000000  1
  P  P38  1  0.334008  0.666956  0.000000  1
