# generated using pymatgen
data_V17(SbO16)3
_symmetry_space_group_name_H-M   'P 1'
_cell_length_a   9.11599900
_cell_length_b   8.98366363
_cell_length_c   15.50080500
_cell_angle_alpha   55.19396274
_cell_angle_beta   90.00000000
_cell_angle_gamma   90.00000000
_symmetry_Int_Tables_number   1
_chemical_formula_structural   V17(SbO16)3
_chemical_formula_sum   'V17 Sb3 O48'
_cell_volume   1042.32288802
_cell_formula_units_Z   1
loop_
 _symmetry_equiv_pos_site_id
 _symmetry_equiv_pos_as_xyz
  1  'x, y, z'
loop_
 _atom_site_type_symbol
 _atom_site_label
 _atom_site_symmetry_multiplicity
 _atom_site_fract_x
 _atom_site_fract_y
 _atom_site_fract_z
 _atom_site_occupancy
  V  V0  1  0.530936  0.129877  0.122560  1
  V  V1  1  0.468738  0.866145  0.881085  1
  V  V2  1  0.967787  0.131762  0.623281  1
  V  V3  1  0.531813  0.373940  0.383604  1
  V  V4  1  0.027128  0.626993  0.121858  1
  V  V5  1  0.749087  0.537086  0.494196  1
  V  V6  1  0.610692  0.247840  0.859402  1
  V  V7  1  0.886529  0.965304  0.140560  1
  V  V8  1  0.114307  0.748598  0.645988  1
  V  V9  1  0.391037  0.029600  0.356720  1
  V  V10  1  0.251487  0.466066  0.007882  1
  V  V11  1  0.753601  0.539001  0.991516  1
  V  V12  1  0.609736  0.970659  0.639770  1
  V  V13  1  0.886294  0.256114  0.354922  1
  V  V14  1  0.112435  0.028507  0.858689  1
  V  V15  1  0.383848  0.746099  0.146265  1
  V  V16  1  0.247383  0.456540  0.511340  1
  Sb  Sb17  1  0.969585  0.369816  0.881699  1
  Sb  Sb18  1  0.467482  0.626212  0.620363  1
  Sb  Sb19  1  0.029860  0.870490  0.380184  1
  O  O20  1  0.128755  0.640444  0.431229  1
  O  O21  1  0.107208  0.196904  0.884023  1
  O  O22  1  0.320686  0.468388  0.614017  1
  O  O23  1  0.417325  0.914652  0.163601  1
  O  O24  1  0.623340  0.513887  0.587381  1
  O  O25  1  0.802060  0.277974  0.842107  1
  O  O26  1  0.564027  0.174406  0.984654  1
  O  O27  1  0.005706  0.902318  0.244030  1
  O  O28  1  0.709947  0.975168  0.171105  1
  O  O29  1  0.838358  0.747467  0.432135  1
  O  O30  1  0.509689  0.445769  0.772492  1
  O  O31  1  0.015951  0.545919  0.730822  1
  O  O32  1  0.935603  0.182587  0.034721  1
  O  O33  1  0.433941  0.812303  0.465222  1
  O  O34  1  0.350639  0.269831  0.070078  1
  O  O35  1  0.210402  0.020434  0.321436  1
  O  O36  1  0.068262  0.836547  0.516764  1
  O  O37  1  0.510686  0.089471  0.250991  1
  O  O38  1  0.306218  0.723166  0.661294  1
  O  O39  1  0.128690  0.474434  0.918222  1
  O  O40  1  0.832429  0.535433  0.887775  1
  O  O41  1  0.607318  0.798267  0.616469  1
  O  O42  1  0.919725  0.097288  0.325394  1
  O  O43  1  0.645109  0.353039  0.067742  1
  O  O44  1  0.368397  0.652224  0.931907  1
  O  O45  1  0.070222  0.904561  0.669431  1
  O  O46  1  0.403020  0.188926  0.381478  1
  O  O47  1  0.166167  0.482045  0.102230  1
  O  O48  1  0.885153  0.544521  0.073958  1
  O  O49  1  0.702472  0.296542  0.339541  1
  O  O50  1  0.498420  0.917458  0.743263  1
  O  O51  1  0.939913  0.178945  0.478771  1
  O  O52  1  0.786486  0.993222  0.666645  1
  O  O53  1  0.653563  0.733350  0.931202  1
  O  O54  1  0.560803  0.180081  0.525805  1
  O  O55  1  0.062688  0.823064  0.966320  1
  O  O56  1  0.988111  0.458733  0.257908  1
  O  O57  1  0.477919  0.544827  0.246093  1
  O  O58  1  0.154322  0.256261  0.569128  1
  O  O59  1  0.288092  0.010060  0.828972  1
  O  O60  1  0.994377  0.092000  0.750064  1
  O  O61  1  0.441436  0.815536  0.024973  1
  O  O62  1  0.190475  0.711907  0.152284  1
  O  O63  1  0.377258  0.462117  0.431150  1
  O  O64  1  0.569114  0.082142  0.839646  1
  O  O65  1  0.667587  0.526063  0.398015  1
  O  O66  1  0.902609  0.801018  0.112964  1
  O  O67  1  0.869555  0.361649  0.562662  1
