# generated using pymatgen
data_Y3Al3ZnSiPd
_symmetry_space_group_name_H-M   'P 1'
_cell_length_a   6.97024300
_cell_length_b   6.97024368
_cell_length_c   4.27120800
_cell_angle_alpha   90.00000000
_cell_angle_beta   90.00000000
_cell_angle_gamma   120.00000154
_symmetry_Int_Tables_number   1
_chemical_formula_structural   Y3Al3ZnSiPd
_chemical_formula_sum   'Y3 Al3 Zn1 Si1 Pd1'
_cell_volume   179.71206157
_cell_formula_units_Z   1
loop_
 _symmetry_equiv_pos_site_id
 _symmetry_equiv_pos_as_xyz
  1  'x, y, z'
loop_
 _atom_site_type_symbol
 _atom_site_label
 _atom_site_symmetry_multiplicity
 _atom_site_fract_x
 _atom_site_fract_y
 _atom_site_fract_z
 _atom_site_occupancy
  Y  Y0  1  0.420827  0.418376  0.500000  1
  Y  Y1  1  0.581624  0.002452  0.500000  1
  Y  Y2  1  0.997548  0.579173  0.500000  1
  Al  Al3  1  0.004953  0.240153  0.000000  1
  Al  Al4  1  0.759847  0.764799  0.000000  1
  Al  Al5  1  0.235201  0.995047  0.000000  1
  Zn  Zn6  1  0.333333  0.666667  0.000000  1
  Si  Si7  1  0.666667  0.333333  0.000000  1
  Pd  Pd8  1  0.000000  0.000000  0.500000  1
