# generated using pymatgen
data_Er3Sn3RuPtRh
_symmetry_space_group_name_H-M   'P 1'
_cell_length_a   7.65506700
_cell_length_b   7.65506669
_cell_length_c   3.74078100
_cell_angle_alpha   90.00000000
_cell_angle_beta   90.00000000
_cell_angle_gamma   119.99998837
_symmetry_Int_Tables_number   1
_chemical_formula_structural   Er3Sn3RuPtRh
_chemical_formula_sum   'Er3 Sn3 Ru1 Pt1 Rh1'
_cell_volume   189.84140574
_cell_formula_units_Z   1
loop_
 _symmetry_equiv_pos_site_id
 _symmetry_equiv_pos_as_xyz
  1  'x, y, z'
loop_
 _atom_site_type_symbol
 _atom_site_label
 _atom_site_symmetry_multiplicity
 _atom_site_fract_x
 _atom_site_fract_y
 _atom_site_fract_z
 _atom_site_occupancy
  Er  Er0  1  0.400788  0.404610  0.000000  1
  Er  Er1  1  0.003822  0.599212  0.000000  1
  Er  Er2  1  0.595390  0.996178  0.000000  1
  Sn  Sn3  1  0.734498  0.738614  0.500000  1
  Sn  Sn4  1  0.004117  0.265502  0.500000  1
  Sn  Sn5  1  0.261386  0.995883  0.500000  1
  Ru  Ru6  1  0.000000  0.000000  0.000000  1
  Pt  Pt7  1  0.666667  0.333333  0.500000  1
  Rh  Rh8  1  0.333333  0.666667  0.500000  1
