# generated using pymatgen
data_Pr16Hg4IrPt3
_symmetry_space_group_name_H-M   'P 1'
_cell_length_a   10.08319174
_cell_length_b   10.07016222
_cell_length_c   10.07016200
_cell_angle_alpha   60.00000072
_cell_angle_beta   60.04273723
_cell_angle_gamma   60.04274585
_symmetry_Int_Tables_number   1
_chemical_formula_structural   Pr16Hg4IrPt3
_chemical_formula_sum   'Pr16 Hg4 Ir1 Pt3'
_cell_volume   723.49614768
_cell_formula_units_Z   1
loop_
 _symmetry_equiv_pos_site_id
 _symmetry_equiv_pos_as_xyz
  1  'x, y, z'
loop_
 _atom_site_type_symbol
 _atom_site_label
 _atom_site_symmetry_multiplicity
 _atom_site_fract_x
 _atom_site_fract_y
 _atom_site_fract_z
 _atom_site_occupancy
  Pr  Pr0  1  0.352088  0.348170  0.348170  1
  Pr  Pr1  1  0.352088  0.348170  0.951571  1
  Pr  Pr2  1  0.352088  0.951571  0.348170  1
  Pr  Pr3  1  0.940877  0.353041  0.353041  1
  Pr  Pr4  1  0.805524  0.190749  0.190749  1
  Pr  Pr5  1  0.194679  0.807389  0.807389  1
  Pr  Pr6  1  0.194679  0.807389  0.190544  1
  Pr  Pr7  1  0.805524  0.190749  0.812979  1
  Pr  Pr8  1  0.194679  0.190544  0.807389  1
  Pr  Pr9  1  0.805524  0.812979  0.190749  1
  Pr  Pr10  1  0.938546  0.563409  0.563409  1
  Pr  Pr11  1  0.566415  0.936372  0.936372  1
  Pr  Pr12  1  0.566415  0.936372  0.560840  1
  Pr  Pr13  1  0.938546  0.563409  0.934636  1
  Pr  Pr14  1  0.566415  0.560840  0.936372  1
  Pr  Pr15  1  0.938546  0.934636  0.563409  1
  Hg  Hg16  1  0.582469  0.584583  0.584583  1
  Hg  Hg17  1  0.582469  0.584583  0.248363  1
  Hg  Hg18  1  0.582469  0.248363  0.584583  1
  Hg  Hg19  1  0.249186  0.583605  0.583605  1
  Ir  Ir20  1  0.572398  0.142534  0.142534  1
  Pt  Pt21  1  0.139458  0.144281  0.144281  1
  Pt  Pt22  1  0.139458  0.144281  0.571980  1
  Pt  Pt23  1  0.139458  0.571980  0.144281  1
