# generated using pymatgen
data_Er3Lu4Sn23Ru6
_symmetry_space_group_name_H-M   'P 1'
_cell_length_a   9.81097804
_cell_length_b   9.88068794
_cell_length_c   10.00622582
_cell_angle_alpha   89.99999825
_cell_angle_beta   89.79564334
_cell_angle_gamma   120.23531929
_symmetry_Int_Tables_number   1
_chemical_formula_structural   Er3Lu4Sn23Ru6
_chemical_formula_sum   'Er3 Lu4 Sn23 Ru6'
_cell_volume   838.03472135
_cell_formula_units_Z   1
loop_
 _symmetry_equiv_pos_site_id
 _symmetry_equiv_pos_as_xyz
  1  'x, y, z'
loop_
 _atom_site_type_symbol
 _atom_site_label
 _atom_site_symmetry_multiplicity
 _atom_site_fract_x
 _atom_site_fract_y
 _atom_site_fract_z
 _atom_site_occupancy
  Er  Er0  1  0.028739  0.514371  0.304983  1
  Er  Er1  1  0.971261  0.485629  0.695017  1
  Er  Er2  1  0.000000  0.000000  0.000000  1
  Lu  Lu3  1  0.486979  0.511804  0.303220  1
  Lu  Lu4  1  0.513021  0.488196  0.696780  1
  Lu  Lu5  1  0.486979  0.975176  0.303220  1
  Lu  Lu6  1  0.513021  0.024824  0.696780  1
  Sn  Sn7  1  0.117536  0.880742  0.276855  1
  Sn  Sn8  1  0.882464  0.119258  0.723145  1
  Sn  Sn9  1  0.117536  0.236793  0.276855  1
  Sn  Sn10  1  0.882464  0.763207  0.723145  1
  Sn  Sn11  1  0.759727  0.879864  0.274124  1
  Sn  Sn12  1  0.240273  0.120136  0.725876  1
  Sn  Sn13  1  0.777971  0.222383  0.465514  1
  Sn  Sn14  1  0.222029  0.777617  0.534486  1
  Sn  Sn15  1  0.777971  0.555587  0.465514  1
  Sn  Sn16  1  0.222029  0.444413  0.534486  1
  Sn  Sn17  1  0.444593  0.222296  0.466898  1
  Sn  Sn18  1  0.555407  0.777704  0.533102  1
  Sn  Sn19  1  0.349248  0.000909  0.000104  1
  Sn  Sn20  1  0.650752  0.999091  0.999896  1
  Sn  Sn21  1  0.000000  0.349055  0.000000  1
  Sn  Sn22  1  0.000000  0.650945  0.000000  1
  Sn  Sn23  1  0.650752  0.651660  0.999896  1
  Sn  Sn24  1  0.349248  0.348340  0.000104  1
  Sn  Sn25  1  0.335754  0.667878  0.133684  1
  Sn  Sn26  1  0.664246  0.332122  0.866316  1
  Sn  Sn27  1  0.332075  0.666037  0.823264  1
  Sn  Sn28  1  0.667925  0.333963  0.176736  1
  Sn  Sn29  1  0.000000  0.000000  0.500000  1
  Ru  Ru30  1  0.828048  0.169074  0.203195  1
  Ru  Ru31  1  0.171952  0.830926  0.796805  1
  Ru  Ru32  1  0.828048  0.658975  0.203195  1
  Ru  Ru33  1  0.171952  0.341025  0.796805  1
  Ru  Ru34  1  0.341128  0.170564  0.204288  1
  Ru  Ru35  1  0.658872  0.829436  0.795712  1
