# generated using pymatgen
data_Dy4Er2Si24Os3Ru5
_symmetry_space_group_name_H-M   'P 1'
_cell_length_a   10.12044105
_cell_length_b   10.12044098
_cell_length_c   8.14960301
_cell_angle_alpha   90.00157618
_cell_angle_beta   90.00158566
_cell_angle_gamma   132.50648097
_symmetry_Int_Tables_number   1
_chemical_formula_structural   Dy4Er2Si24Os3Ru5
_chemical_formula_sum   'Dy4 Er2 Si24 Os3 Ru5'
_cell_volume   615.34856571
_cell_formula_units_Z   1
loop_
 _symmetry_equiv_pos_site_id
 _symmetry_equiv_pos_as_xyz
  1  'x, y, z'
loop_
 _atom_site_type_symbol
 _atom_site_label
 _atom_site_symmetry_multiplicity
 _atom_site_fract_x
 _atom_site_fract_y
 _atom_site_fract_z
 _atom_site_occupancy
  Dy  Dy0  1  0.502281  0.002351  0.750217  1
  Dy  Dy1  1  0.997649  0.497719  0.249783  1
  Dy  Dy2  1  0.497807  0.997566  0.249642  1
  Dy  Dy3  1  0.002434  0.502193  0.750358  1
  Er  Er4  1  0.500050  0.499950  0.500000  1
  Er  Er5  1  0.999965  0.000035  0.000000  1
  Si  Si6  1  0.795960  0.204040  0.500000  1
  Si  Si7  1  0.295862  0.704138  0.000000  1
  Si  Si8  1  0.204131  0.795869  0.500000  1
  Si  Si9  1  0.704760  0.295240  0.000000  1
  Si  Si10  1  0.332364  0.332128  0.833475  1
  Si  Si11  1  0.667872  0.667636  0.166525  1
  Si  Si12  1  0.166728  0.166887  0.332411  1
  Si  Si13  1  0.833113  0.833272  0.667589  1
  Si  Si14  1  0.121424  0.888372  0.728437  1
  Si  Si15  1  0.111628  0.878576  0.271563  1
  Si  Si16  1  0.612467  0.378788  0.227375  1
  Si  Si17  1  0.621212  0.387533  0.772625  1
  Si  Si18  1  0.878022  0.111555  0.270464  1
  Si  Si19  1  0.888445  0.121978  0.729536  1
  Si  Si20  1  0.388316  0.621888  0.772231  1
  Si  Si21  1  0.378112  0.611684  0.227769  1
  Si  Si22  1  0.344814  0.111805  0.505504  1
  Si  Si23  1  0.888195  0.655186  0.494496  1
  Si  Si24  1  0.388318  0.155549  0.004397  1
  Si  Si25  1  0.844451  0.611682  0.995603  1
  Si  Si26  1  0.655395  0.888356  0.494257  1
  Si  Si27  1  0.111644  0.344605  0.505743  1
  Si  Si28  1  0.613112  0.846259  0.994824  1
  Si  Si29  1  0.153741  0.386888  0.005176  1
  Os  Os30  1  0.669586  0.330414  0.500000  1
  Os  Os31  1  0.169589  0.830411  0.000000  1
  Os  Os32  1  0.330401  0.669599  0.500000  1
  Ru  Ru33  1  0.830321  0.169679  0.000000  1
  Ru  Ru34  1  0.127865  0.127738  0.626866  1
  Ru  Ru35  1  0.872262  0.872135  0.373134  1
  Ru  Ru36  1  0.373618  0.373913  0.128137  1
  Ru  Ru37  1  0.626087  0.626382  0.871863  1
