# generated using pymatgen
data_Pr3ThAl4(Ga7Ir3)2
_symmetry_space_group_name_H-M   'P 1'
_cell_length_a   7.66784430
_cell_length_b   7.67148855
_cell_length_c   9.60928000
_cell_angle_alpha   90.00000000
_cell_angle_beta   90.00000000
_cell_angle_gamma   119.54179527
_symmetry_Int_Tables_number   1
_chemical_formula_structural   Pr3ThAl4(Ga7Ir3)2
_chemical_formula_sum   'Pr3 Th1 Al4 Ga14 Ir6'
_cell_volume   491.76901315
_cell_formula_units_Z   1
loop_
 _symmetry_equiv_pos_site_id
 _symmetry_equiv_pos_as_xyz
  1  'x, y, z'
loop_
 _atom_site_type_symbol
 _atom_site_label
 _atom_site_symmetry_multiplicity
 _atom_site_fract_x
 _atom_site_fract_y
 _atom_site_fract_z
 _atom_site_occupancy
  Pr  Pr0  1  0.999590  0.330149  0.750000  1
  Pr  Pr1  1  0.671062  0.999128  0.250000  1
  Pr  Pr2  1  0.330152  0.999829  0.750000  1
  Th  Th3  1  0.999401  0.670408  0.250000  1
  Al  Al4  1  0.332456  0.332424  0.549757  1
  Al  Al5  1  0.664677  0.666624  0.452166  1
  Al  Al6  1  0.664677  0.666624  0.047834  1
  Al  Al7  1  0.332456  0.332424  0.950243  1
  Ga  Ga8  1  0.130913  0.131319  0.250000  1
  Ga  Ga9  1  0.872055  0.873160  0.750000  1
  Ga  Ga10  1  0.002511  0.332664  0.077569  1
  Ga  Ga11  1  0.997169  0.664629  0.919791  1
  Ga  Ga12  1  0.997169  0.664629  0.580209  1
  Ga  Ga13  1  0.338449  0.004932  0.422433  1
  Ga  Ga14  1  0.002511  0.332664  0.422431  1
  Ga  Ga15  1  0.664832  0.997885  0.577598  1
  Ga  Ga16  1  0.664832  0.997885  0.922402  1
  Ga  Ga17  1  0.338449  0.004932  0.077567  1
  Ga  Ga18  1  0.348646  0.548948  0.250000  1
  Ga  Ga19  1  0.652207  0.451004  0.750000  1
  Ga  Ga20  1  0.546880  0.346872  0.250000  1
  Ga  Ga21  1  0.450929  0.653623  0.750000  1
  Ir  Ir22  1  0.670265  0.333743  0.001690  1
  Ir  Ir23  1  0.329139  0.667899  0.001627  1
  Ir  Ir24  1  0.329139  0.667899  0.498373  1
  Ir  Ir25  1  0.670265  0.333743  0.498310  1
  Ir  Ir26  1  0.999587  0.996982  0.002468  1
  Ir  Ir27  1  0.999587  0.996982  0.497532  1
