# generated using pymatgen
data_Tb5Ho5(In3Br)2
_symmetry_space_group_name_H-M   'P 1'
_cell_length_a   9.20467200
_cell_length_b   9.20256869
_cell_length_c   6.74912900
_cell_angle_alpha   90.00000000
_cell_angle_beta   90.00000000
_cell_angle_gamma   120.00756089
_symmetry_Int_Tables_number   1
_chemical_formula_structural   Tb5Ho5(In3Br)2
_chemical_formula_sum   'Tb5 Ho5 In6 Br2'
_cell_volume   495.06548906
_cell_formula_units_Z   1
loop_
 _symmetry_equiv_pos_site_id
 _symmetry_equiv_pos_as_xyz
  1  'x, y, z'
loop_
 _atom_site_type_symbol
 _atom_site_label
 _atom_site_symmetry_multiplicity
 _atom_site_fract_x
 _atom_site_fract_y
 _atom_site_fract_z
 _atom_site_occupancy
  Tb  Tb0  1  0.733816  0.733830  0.250000  1
  Tb  Tb1  1  0.000037  0.733866  0.750000  1
  Tb  Tb2  1  0.733951  0.000000  0.750000  1
  Tb  Tb3  1  0.266171  0.266134  0.750000  1
  Tb  Tb4  1  0.999986  0.266170  0.250000  1
  Ho  Ho5  1  0.333251  0.666850  0.499912  1
  Ho  Ho6  1  0.666403  0.333150  0.499912  1
  Ho  Ho7  1  0.266453  0.000000  0.250000  1
  Ho  Ho8  1  0.333251  0.666850  0.000088  1
  Ho  Ho9  1  0.666403  0.333150  0.000088  1
  In  In10  1  0.393204  0.000000  0.750000  1
  In  In11  1  0.000423  0.607194  0.250000  1
  In  In12  1  0.606279  0.000000  0.250000  1
  In  In13  1  0.999907  0.393315  0.750000  1
  In  In14  1  0.393229  0.392806  0.250000  1
  In  In15  1  0.606592  0.606685  0.750000  1
  Br  Br16  1  0.000323  0.000000  0.499625  1
  Br  Br17  1  0.000323  0.000000  0.000375  1
