# generated using pymatgen
data_Dy10Ga3ReBi2
_symmetry_space_group_name_H-M   'P 1'
_cell_length_a   8.74353181
_cell_length_b   8.74353224
_cell_length_c   8.85526894
_cell_angle_alpha   125.72919127
_cell_angle_beta   125.72919017
_cell_angle_gamma   79.46506787
_symmetry_Int_Tables_number   1
_chemical_formula_structural   Dy10Ga3ReBi2
_chemical_formula_sum   'Dy10 Ga3 Re1 Bi2'
_cell_volume   433.08677221
_cell_formula_units_Z   1
loop_
 _symmetry_equiv_pos_site_id
 _symmetry_equiv_pos_as_xyz
  1  'x, y, z'
loop_
 _atom_site_type_symbol
 _atom_site_label
 _atom_site_symmetry_multiplicity
 _atom_site_fract_x
 _atom_site_fract_y
 _atom_site_fract_z
 _atom_site_occupancy
  Dy  Dy0  1  0.010134  0.005526  0.015660  1
  Dy  Dy1  1  0.494474  0.489866  0.984340  1
  Dy  Dy2  1  0.785769  0.298940  0.801273  1
  Dy  Dy3  1  0.201060  0.714231  0.198727  1
  Dy  Dy4  1  0.484495  0.997666  0.198727  1
  Dy  Dy5  1  0.307137  0.461576  0.500000  1
  Dy  Dy6  1  0.038424  0.192863  0.500000  1
  Dy  Dy7  1  0.502334  0.015505  0.801273  1
  Dy  Dy8  1  0.705923  0.520180  0.500000  1
  Dy  Dy9  1  0.979820  0.794077  0.500000  1
  Ga  Ga10  1  0.138978  0.645270  0.784248  1
  Ga  Ga11  1  0.854730  0.361022  0.215752  1
  Ga  Ga12  1  0.632666  0.867334  0.500000  1
  Re  Re13  1  0.374804  0.125196  0.500000  1
  Bi  Bi14  1  0.244626  0.255374  0.000000  1
  Bi  Bi15  1  0.744626  0.755374  0.000000  1
