# generated using pymatgen
data_TbYErAlC3
_symmetry_space_group_name_H-M   'P 1'
_cell_length_a   3.57309200
_cell_length_b   7.06771987
_cell_length_c   9.95530817
_cell_angle_alpha   90.11490549
_cell_angle_beta   90.00000000
_cell_angle_gamma   90.00000000
_symmetry_Int_Tables_number   1
_chemical_formula_structural   TbYErAlC3
_chemical_formula_sum   'Tb2 Y2 Er2 Al2 C6'
_cell_volume   251.40699757
_cell_formula_units_Z   2
loop_
 _symmetry_equiv_pos_site_id
 _symmetry_equiv_pos_as_xyz
  1  'x, y, z'
loop_
 _atom_site_type_symbol
 _atom_site_label
 _atom_site_symmetry_multiplicity
 _atom_site_fract_x
 _atom_site_fract_y
 _atom_site_fract_z
 _atom_site_occupancy
  Tb  Tb0  1  0.000000  0.749667  0.459278  1
  Tb  Tb1  1  0.000000  0.250333  0.540722  1
  Y  Y2  1  0.500000  0.989255  0.198281  1
  Y  Y3  1  0.500000  0.010745  0.801719  1
  Er  Er4  1  0.500000  0.512697  0.200907  1
  Er  Er5  1  0.500000  0.487303  0.799093  1
  Al  Al6  1  0.000000  0.743797  0.004521  1
  Al  Al7  1  0.000000  0.256203  0.995479  1
  C  C8  1  0.500000  0.508861  0.566402  1
  C  C9  1  0.500000  0.491139  0.433598  1
  C  C10  1  0.500000  0.990991  0.566171  1
  C  C11  1  0.500000  0.009009  0.433829  1
  C  C12  1  0.000000  0.746561  0.207682  1
  C  C13  1  0.000000  0.253439  0.792318  1
