# generated using pymatgen
data_Tm12GaFe4Bi
_symmetry_space_group_name_H-M   'P 1'
_cell_length_a   8.25702656
_cell_length_b   8.25702626
_cell_length_c   8.25702684
_cell_angle_alpha   110.28845370
_cell_angle_beta   111.45041449
_cell_angle_gamma   106.71178925
_symmetry_Int_Tables_number   1
_chemical_formula_structural   Tm12GaFe4Bi
_chemical_formula_sum   'Tm12 Ga1 Fe4 Bi1'
_cell_volume   432.56414125
_cell_formula_units_Z   1
loop_
 _symmetry_equiv_pos_site_id
 _symmetry_equiv_pos_as_xyz
  1  'x, y, z'
loop_
 _atom_site_type_symbol
 _atom_site_label
 _atom_site_symmetry_multiplicity
 _atom_site_fract_x
 _atom_site_fract_y
 _atom_site_fract_z
 _atom_site_occupancy
  Tm  Tm0  1  0.283310  0.185072  0.468381  1
  Tm  Tm1  1  0.716690  0.814928  0.531619  1
  Tm  Tm2  1  0.283310  0.814928  0.098237  1
  Tm  Tm3  1  0.716690  0.185072  0.901763  1
  Tm  Tm4  1  0.617645  0.312505  0.305141  1
  Tm  Tm5  1  0.382355  0.687495  0.694859  1
  Tm  Tm6  1  0.007363  0.312505  0.694859  1
  Tm  Tm7  1  0.992637  0.687495  0.305141  1
  Tm  Tm8  1  0.222576  0.434136  0.211561  1
  Tm  Tm9  1  0.777424  0.565864  0.788439  1
  Tm  Tm10  1  0.222576  0.011016  0.788439  1
  Tm  Tm11  1  0.777424  0.988984  0.211561  1
  Ga  Ga12  1  0.000000  0.000000  0.000000  1
  Fe  Fe13  1  0.000000  0.383571  0.383571  1
  Fe  Fe14  1  0.000000  0.616429  0.616429  1
  Fe  Fe15  1  0.391374  0.891374  0.500000  1
  Fe  Fe16  1  0.608626  0.108626  0.500000  1
  Bi  Bi17  1  0.500000  0.500000  0.000000  1
