# generated using pymatgen
data_Ce3Sm(CuSi3)2
_symmetry_space_group_name_H-M   'P 1'
_cell_length_a   8.16472616
_cell_length_b   8.08934867
_cell_length_c   5.83303010
_cell_angle_alpha   69.66214142
_cell_angle_beta   68.27994948
_cell_angle_gamma   42.05790956
_symmetry_Int_Tables_number   1
_chemical_formula_structural   Ce3Sm(CuSi3)2
_chemical_formula_sum   'Ce3 Sm1 Cu2 Si6'
_cell_volume   238.10762775
_cell_formula_units_Z   1
loop_
 _symmetry_equiv_pos_site_id
 _symmetry_equiv_pos_as_xyz
  1  'x, y, z'
loop_
 _atom_site_type_symbol
 _atom_site_label
 _atom_site_symmetry_multiplicity
 _atom_site_fract_x
 _atom_site_fract_y
 _atom_site_fract_z
 _atom_site_occupancy
  Ce  Ce0  1  0.243475  0.756525  0.243475  1
  Ce  Ce1  1  0.249967  0.250033  0.249966  1
  Ce  Ce2  1  0.749967  0.750033  0.749966  1
  Sm  Sm3  1  0.756553  0.243448  0.756552  1
  Cu  Cu4  1  0.666355  0.666375  0.333625  1
  Cu  Cu5  1  0.333626  0.333645  0.666355  1
  Si  Si6  1  0.831302  0.831269  0.168731  1
  Si  Si7  1  0.829444  0.339424  0.170568  1
  Si  Si8  1  0.660577  0.170557  0.339436  1
  Si  Si9  1  0.339436  0.829432  0.660576  1
  Si  Si10  1  0.170568  0.660564  0.829444  1
  Si  Si11  1  0.168731  0.168698  0.831302  1
