# generated using pymatgen
data_KBa(InAu)6
_symmetry_space_group_name_H-M   'P 1'
_cell_length_a   4.67736400
_cell_length_b   8.08536300
_cell_length_c   9.28995700
_cell_angle_alpha   90.00000000
_cell_angle_beta   90.00000000
_cell_angle_gamma   90.00000000
_symmetry_Int_Tables_number   1
_chemical_formula_structural   KBa(InAu)6
_chemical_formula_sum   'K1 Ba1 In6 Au6'
_cell_volume   351.32932011
_cell_formula_units_Z   1
loop_
 _symmetry_equiv_pos_site_id
 _symmetry_equiv_pos_as_xyz
  1  'x, y, z'
loop_
 _atom_site_type_symbol
 _atom_site_label
 _atom_site_symmetry_multiplicity
 _atom_site_fract_x
 _atom_site_fract_y
 _atom_site_fract_z
 _atom_site_occupancy
  K  K0  1  0.000000  0.500000  0.268359  1
  Ba  Ba1  1  0.500000  0.000000  0.729993  1
  In  In2  1  0.000000  0.306412  0.888457  1
  In  In3  1  0.500000  0.197171  0.115815  1
  In  In4  1  0.000000  0.693588  0.888457  1
  In  In5  1  0.000000  0.000000  0.365721  1
  In  In6  1  0.500000  0.802829  0.115815  1
  In  In7  1  0.500000  0.500000  0.627338  1
  Au  Au8  1  0.000000  0.719621  0.588503  1
  Au  Au9  1  0.500000  0.779350  0.413140  1
  Au  Au10  1  0.500000  0.500000  0.952422  1
  Au  Au11  1  0.000000  0.000000  0.044341  1
  Au  Au12  1  0.500000  0.220650  0.413140  1
  Au  Au13  1  0.000000  0.280379  0.588503  1
