# generated using pymatgen
data_SmHo11(Si3Ir)4
_symmetry_space_group_name_H-M   'P 1'
_cell_length_a   4.24526100
_cell_length_b   10.58874504
_cell_length_c   12.30236300
_cell_angle_alpha   90.12459937
_cell_angle_beta   90.00000000
_cell_angle_gamma   90.00000000
_symmetry_Int_Tables_number   1
_chemical_formula_structural   SmHo11(Si3Ir)4
_chemical_formula_sum   'Sm1 Ho11 Si12 Ir4'
_cell_volume   553.01434598
_cell_formula_units_Z   1
loop_
 _symmetry_equiv_pos_site_id
 _symmetry_equiv_pos_as_xyz
  1  'x, y, z'
loop_
 _atom_site_type_symbol
 _atom_site_label
 _atom_site_symmetry_multiplicity
 _atom_site_fract_x
 _atom_site_fract_y
 _atom_site_fract_z
 _atom_site_occupancy
  Sm  Sm0  1  0.750000  0.158757  0.697215  1
  Ho  Ho1  1  0.250000  0.879959  0.021740  1
  Ho  Ho2  1  0.250000  0.619809  0.521775  1
  Ho  Ho3  1  0.750000  0.119368  0.979907  1
  Ho  Ho4  1  0.750000  0.381879  0.477685  1
  Ho  Ho5  1  0.250000  0.918035  0.602864  1
  Ho  Ho6  1  0.250000  0.581274  0.103518  1
  Ho  Ho7  1  0.750000  0.081986  0.394969  1
  Ho  Ho8  1  0.750000  0.419124  0.897468  1
  Ho  Ho9  1  0.250000  0.660047  0.801286  1
  Ho  Ho10  1  0.250000  0.839578  0.301067  1
  Ho  Ho11  1  0.750000  0.342442  0.198858  1
  Si  Si12  1  0.250000  0.007137  0.821934  1
  Si  Si13  1  0.250000  0.491131  0.321114  1
  Si  Si14  1  0.750000  0.989859  0.178638  1
  Si  Si15  1  0.750000  0.508963  0.679513  1
  Si  Si16  1  0.250000  0.246631  0.842675  1
  Si  Si17  1  0.250000  0.254670  0.338826  1
  Si  Si18  1  0.750000  0.753384  0.159370  1
  Si  Si19  1  0.750000  0.746561  0.659716  1
  Si  Si20  1  0.250000  0.202742  0.539319  1
  Si  Si21  1  0.250000  0.298918  0.044537  1
  Si  Si22  1  0.750000  0.799421  0.456324  1
  Si  Si23  1  0.750000  0.699716  0.957223  1
  Ir  Ir24  1  0.250000  0.390387  0.681580  1
  Ir  Ir25  1  0.250000  0.110577  0.180104  1
  Ir  Ir26  1  0.750000  0.610810  0.319108  1
  Ir  Ir27  1  0.750000  0.886833  0.821669  1
