# generated using pymatgen
data_Lu3In3CuNiAu
_symmetry_space_group_name_H-M   'P 1'
_cell_length_a   7.69954400
_cell_length_b   7.69954376
_cell_length_c   3.59806000
_cell_angle_alpha   90.00000000
_cell_angle_beta   90.00000000
_cell_angle_gamma   119.99999245
_symmetry_Int_Tables_number   1
_chemical_formula_structural   Lu3In3CuNiAu
_chemical_formula_sum   'Lu3 In3 Cu1 Ni1 Au1'
_cell_volume   184.72644083
_cell_formula_units_Z   1
loop_
 _symmetry_equiv_pos_site_id
 _symmetry_equiv_pos_as_xyz
  1  'x, y, z'
loop_
 _atom_site_type_symbol
 _atom_site_label
 _atom_site_symmetry_multiplicity
 _atom_site_fract_x
 _atom_site_fract_y
 _atom_site_fract_z
 _atom_site_occupancy
  Lu  Lu0  1  0.397934  0.980711  0.500000  1
  Lu  Lu1  1  0.019289  0.417225  0.500000  1
  Lu  Lu2  1  0.582775  0.602066  0.500000  1
  In  In3  1  0.738366  0.995803  0.000000  1
  In  In4  1  0.004197  0.742563  0.000000  1
  In  In5  1  0.257437  0.261634  0.000000  1
  Cu  Cu6  1  0.000000  0.000000  0.500000  1
  Ni  Ni7  1  0.333333  0.666667  0.000000  1
  Au  Au8  1  0.666667  0.333333  0.000000  1
