# generated using pymatgen
data_Zr3GaFe8
_symmetry_space_group_name_H-M   'P 1'
_cell_length_a   8.53565505
_cell_length_b   8.53565525
_cell_length_c   8.53565634
_cell_angle_alpha   33.50534751
_cell_angle_beta   33.50534879
_cell_angle_gamma   33.50534216
_symmetry_Int_Tables_number   1
_chemical_formula_structural   Zr3GaFe8
_chemical_formula_sum   'Zr3 Ga1 Fe8'
_cell_volume   168.77880879
_cell_formula_units_Z   1
loop_
 _symmetry_equiv_pos_site_id
 _symmetry_equiv_pos_as_xyz
  1  'x, y, z'
loop_
 _atom_site_type_symbol
 _atom_site_label
 _atom_site_symmetry_multiplicity
 _atom_site_fract_x
 _atom_site_fract_y
 _atom_site_fract_z
 _atom_site_occupancy
  Zr  Zr0  1  0.624351  0.624351  0.624351  1
  Zr  Zr1  1  0.004127  0.004127  0.004127  1
  Zr  Zr2  1  0.496636  0.496636  0.496636  1
  Ga  Ga3  1  0.126767  0.126767  0.126767  1
  Fe  Fe4  1  0.563463  0.061927  0.563463  1
  Fe  Fe5  1  0.062086  0.560681  0.062086  1
  Fe  Fe6  1  0.061927  0.563463  0.563463  1
  Fe  Fe7  1  0.560681  0.062086  0.062086  1
  Fe  Fe8  1  0.812262  0.812262  0.812262  1
  Fe  Fe9  1  0.312153  0.312153  0.312153  1
  Fe  Fe10  1  0.563463  0.563463  0.061927  1
  Fe  Fe11  1  0.062086  0.062086  0.560681  1
