# generated using pymatgen
data_YTm3(AlGa2)2
_symmetry_space_group_name_H-M   'P 1'
_cell_length_a   6.95082000
_cell_length_b   6.95082019
_cell_length_c   4.43324800
_cell_angle_alpha   90.00000000
_cell_angle_beta   90.00000000
_cell_angle_gamma   89.70489843
_symmetry_Int_Tables_number   1
_chemical_formula_structural   YTm3(AlGa2)2
_chemical_formula_sum   'Y1 Tm3 Al2 Ga4'
_cell_volume   214.18465971
_cell_formula_units_Z   1
loop_
 _symmetry_equiv_pos_site_id
 _symmetry_equiv_pos_as_xyz
  1  'x, y, z'
loop_
 _atom_site_type_symbol
 _atom_site_label
 _atom_site_symmetry_multiplicity
 _atom_site_fract_x
 _atom_site_fract_y
 _atom_site_fract_z
 _atom_site_occupancy
  Y  Y0  1  0.673165  0.173165  0.500000  1
  Tm  Tm1  1  0.326203  0.826203  0.500000  1
  Tm  Tm2  1  0.827779  0.673077  0.500000  1
  Tm  Tm3  1  0.173077  0.327779  0.500000  1
  Al  Al4  1  0.499637  0.500286  0.000000  1
  Al  Al5  1  0.000286  0.999637  0.000000  1
  Ga  Ga6  1  0.870201  0.370201  0.000000  1
  Ga  Ga7  1  0.366876  0.130947  0.000000  1
  Ga  Ga8  1  0.131829  0.631829  0.000000  1
  Ga  Ga9  1  0.630947  0.866876  0.000000  1
