# generated using pymatgen
data_UTi2NbTc4
_symmetry_space_group_name_H-M   'P 1'
_cell_length_a   6.37974702
_cell_length_b   6.37901202
_cell_length_c   6.41137201
_cell_angle_alpha   90.00301010
_cell_angle_beta   90.00597530
_cell_angle_gamma   90.00806522
_symmetry_Int_Tables_number   1
_chemical_formula_structural   UTi2NbTc4
_chemical_formula_sum   'U2 Ti4 Nb2 Tc8'
_cell_volume   260.92028731
_cell_formula_units_Z   2
loop_
 _symmetry_equiv_pos_site_id
 _symmetry_equiv_pos_as_xyz
  1  'x, y, z'
loop_
 _atom_site_type_symbol
 _atom_site_label
 _atom_site_symmetry_multiplicity
 _atom_site_fract_x
 _atom_site_fract_y
 _atom_site_fract_z
 _atom_site_occupancy
  U  U0  1  0.749976  0.750001  0.000251  1
  U  U1  1  0.250011  0.249996  0.499742  1
  Ti  Ti2  1  0.250013  0.750002  0.000527  1
  Ti  Ti3  1  0.750009  0.249998  0.499480  1
  Ti  Ti4  1  0.249992  0.750002  0.500537  1
  Ti  Ti5  1  0.749985  0.249997  0.999455  1
  Nb  Nb6  1  0.750004  0.750003  0.500280  1
  Nb  Nb7  1  0.250007  0.250000  0.999733  1
  Tc  Tc8  1  0.999994  0.999994  0.249974  1
  Tc  Tc9  1  0.999993  0.500050  0.249973  1
  Tc  Tc10  1  0.500045  0.999989  0.249990  1
  Tc  Tc11  1  0.500043  0.499961  0.249990  1
  Tc  Tc12  1  0.499971  0.999996  0.750006  1
  Tc  Tc13  1  0.499973  0.500051  0.750008  1
  Tc  Tc14  1  0.999990  0.999991  0.750024  1
  Tc  Tc15  1  0.999991  0.499964  0.750026  1
