# generated using pymatgen
data_Tb3Dy3Co17ReP12
_symmetry_space_group_name_H-M   'P 1'
_cell_length_a   3.71695500
_cell_length_b   10.54677505
_cell_length_c   12.25059005
_cell_angle_alpha   89.98937785
_cell_angle_beta   90.00000000
_cell_angle_gamma   90.00000000
_symmetry_Int_Tables_number   1
_chemical_formula_structural   Tb3Dy3Co17ReP12
_chemical_formula_sum   'Tb3 Dy3 Co17 Re1 P12'
_cell_volume   480.24625385
_cell_formula_units_Z   1
loop_
 _symmetry_equiv_pos_site_id
 _symmetry_equiv_pos_as_xyz
  1  'x, y, z'
loop_
 _atom_site_type_symbol
 _atom_site_label
 _atom_site_symmetry_multiplicity
 _atom_site_fract_x
 _atom_site_fract_y
 _atom_site_fract_z
 _atom_site_occupancy
  Tb  Tb0  1  0.000000  0.500008  0.523917  1
  Tb  Tb1  1  0.500000  0.999993  0.478134  1
  Tb  Tb2  1  0.000000  0.317107  0.795048  1
  Dy  Dy3  1  0.500000  0.817857  0.206800  1
  Dy  Dy4  1  0.500000  0.182118  0.206863  1
  Dy  Dy5  1  0.000000  0.683017  0.795132  1
  Co  Co6  1  0.000000  0.999962  0.840156  1
  Co  Co7  1  0.500000  0.500229  0.702839  1
  Co  Co8  1  0.000000  0.999993  0.296214  1
  Co  Co9  1  0.000000  0.500103  0.988100  1
  Co  Co10  1  0.500000  0.999954  0.014754  1
  Co  Co11  1  0.500000  0.332341  0.991498  1
  Co  Co12  1  0.500000  0.667694  0.991326  1
  Co  Co13  1  0.000000  0.166384  0.005767  1
  Co  Co14  1  0.000000  0.833538  0.005667  1
  Co  Co15  1  0.500000  0.296578  0.430421  1
  Co  Co16  1  0.500000  0.703433  0.430434  1
  Co  Co17  1  0.000000  0.203274  0.569124  1
  Co  Co18  1  0.000000  0.796685  0.569255  1
  Co  Co19  1  0.500000  0.879238  0.709212  1
  Co  Co20  1  0.500000  0.120525  0.709090  1
  Co  Co21  1  0.000000  0.620461  0.290869  1
  Co  Co22  1  0.000000  0.379537  0.290854  1
  Re  Re23  1  0.500000  0.500036  0.156605  1
  P  P24  1  0.500000  0.500268  0.881034  1
  P  P25  1  0.000000  0.999953  0.117219  1
  P  P26  1  0.500000  0.499997  0.348797  1
  P  P27  1  0.000000  0.000012  0.656602  1
  P  P28  1  0.500000  0.310495  0.616099  1
  P  P29  1  0.500000  0.689469  0.616396  1
  P  P30  1  0.000000  0.188946  0.384425  1
  P  P31  1  0.000000  0.811036  0.384432  1
  P  P32  1  0.500000  0.849708  0.892096  1
  P  P33  1  0.500000  0.150020  0.892239  1
  P  P34  1  0.000000  0.656102  0.106289  1
  P  P35  1  0.000000  0.343929  0.106297  1
