# generated using pymatgen
data_Pr2Sc3SiGe3
_symmetry_space_group_name_H-M   'P 1'
_cell_length_a   7.36324500
_cell_length_b   14.33654900
_cell_length_c   7.61813000
_cell_angle_alpha   90.00000000
_cell_angle_beta   90.00000000
_cell_angle_gamma   90.00000000
_symmetry_Int_Tables_number   1
_chemical_formula_structural   Pr2Sc3SiGe3
_chemical_formula_sum   'Pr8 Sc12 Si4 Ge12'
_cell_volume   804.19663950
_cell_formula_units_Z   4
loop_
 _symmetry_equiv_pos_site_id
 _symmetry_equiv_pos_as_xyz
  1  'x, y, z'
loop_
 _atom_site_type_symbol
 _atom_site_label
 _atom_site_symmetry_multiplicity
 _atom_site_fract_x
 _atom_site_fract_y
 _atom_site_fract_z
 _atom_site_occupancy
  Pr  Pr0  1  0.009146  0.598219  0.171311  1
  Pr  Pr1  1  0.490854  0.401781  0.671311  1
  Pr  Pr2  1  0.509147  0.901781  0.328689  1
  Pr  Pr3  1  0.990855  0.098220  0.828689  1
  Pr  Pr4  1  0.990855  0.401781  0.828689  1
  Pr  Pr5  1  0.509147  0.598219  0.328689  1
  Pr  Pr6  1  0.490854  0.098220  0.671311  1
  Pr  Pr7  1  0.009146  0.901781  0.171311  1
  Sc  Sc8  1  0.330955  0.126456  0.174255  1
  Sc  Sc9  1  0.169046  0.873544  0.674254  1
  Sc  Sc10  1  0.830955  0.373544  0.325745  1
  Sc  Sc11  1  0.669045  0.626456  0.825745  1
  Sc  Sc12  1  0.669045  0.873544  0.825745  1
  Sc  Sc13  1  0.830955  0.126456  0.325745  1
  Sc  Sc14  1  0.169046  0.626456  0.674254  1
  Sc  Sc15  1  0.330955  0.373544  0.174255  1
  Sc  Sc16  1  0.161163  0.250000  0.494320  1
  Sc  Sc17  1  0.338835  0.750000  0.994321  1
  Sc  Sc18  1  0.661164  0.250000  0.005679  1
  Sc  Sc19  1  0.838836  0.750000  0.505679  1
  Si  Si20  1  0.030741  0.250000  0.130693  1
  Si  Si21  1  0.469258  0.750000  0.630692  1
  Si  Si22  1  0.530741  0.250000  0.369309  1
  Si  Si23  1  0.969258  0.750000  0.869310  1
  Ge  Ge24  1  0.293424  0.250000  0.876354  1
  Ge  Ge25  1  0.206577  0.750000  0.376354  1
  Ge  Ge26  1  0.793423  0.250000  0.623646  1
  Ge  Ge27  1  0.706577  0.750000  0.123647  1
  Ge  Ge28  1  0.160827  0.041725  0.460274  1
  Ge  Ge29  1  0.339174  0.958276  0.960275  1
  Ge  Ge30  1  0.660827  0.458276  0.039725  1
  Ge  Ge31  1  0.839173  0.541724  0.539725  1
  Ge  Ge32  1  0.839173  0.958276  0.539725  1
  Ge  Ge33  1  0.660827  0.041725  0.039725  1
  Ge  Ge34  1  0.339174  0.541724  0.960275  1
  Ge  Ge35  1  0.160827  0.458276  0.460274  1
