# generated using pymatgen
data_Sr3Ca9Ta16(O6F)8
_symmetry_space_group_name_H-M   'P 1'
_cell_length_a   10.57999075
_cell_length_b   10.57802367
_cell_length_c   10.57823108
_cell_angle_alpha   90.03584452
_cell_angle_beta   89.92012353
_cell_angle_gamma   89.98006545
_symmetry_Int_Tables_number   1
_chemical_formula_structural   Sr3Ca9Ta16(O6F)8
_chemical_formula_sum   'Sr3 Ca9 Ta16 O48 F8'
_cell_volume   1183.86542964
_cell_formula_units_Z   1
loop_
 _symmetry_equiv_pos_site_id
 _symmetry_equiv_pos_as_xyz
  1  'x, y, z'
loop_
 _atom_site_type_symbol
 _atom_site_label
 _atom_site_symmetry_multiplicity
 _atom_site_fract_x
 _atom_site_fract_y
 _atom_site_fract_z
 _atom_site_occupancy
  Sr  Sr0  1  0.380799  0.374564  0.635533  1
  Sr  Sr1  1  0.635249  0.383318  0.373337  1
  Sr  Sr2  1  0.617201  0.874191  0.866652  1
  Ca  Ca3  1  0.372623  0.644294  0.386953  1
  Ca  Ca4  1  0.876612  0.860565  0.609294  1
  Ca  Ca5  1  0.122495  0.360762  0.891434  1
  Ca  Ca6  1  0.863756  0.608898  0.874555  1
  Ca  Ca7  1  0.891580  0.122460  0.360714  1
  Ca  Ca8  1  0.625144  0.139057  0.110102  1
  Ca  Ca9  1  0.136194  0.108342  0.626132  1
  Ca  Ca10  1  0.111161  0.625179  0.137969  1
  Ca  Ca11  1  0.358341  0.889114  0.125757  1
  Ta  Ta12  1  0.877210  0.374033  0.625112  1
  Ta  Ta13  1  0.372927  0.625271  0.877086  1
  Ta  Ta14  1  0.125002  0.124999  0.124597  1
  Ta  Ta15  1  0.123750  0.873730  0.875231  1
  Ta  Ta16  1  0.874640  0.874765  0.124174  1
  Ta  Ta17  1  0.875524  0.124258  0.873802  1
  Ta  Ta18  1  0.124572  0.624428  0.626447  1
  Ta  Ta19  1  0.374033  0.874971  0.624378  1
  Ta  Ta20  1  0.125587  0.375098  0.375541  1
  Ta  Ta21  1  0.375482  0.125036  0.374709  1
  Ta  Ta22  1  0.623878  0.626836  0.124940  1
  Ta  Ta23  1  0.627359  0.124559  0.623544  1
  Ta  Ta24  1  0.374321  0.376363  0.125548  1
  Ta  Ta25  1  0.626176  0.375320  0.875956  1
  Ta  Ta26  1  0.625297  0.876131  0.373891  1
  Ta  Ta27  1  0.876105  0.626203  0.375060  1
  O  O28  1  0.241905  0.259174  0.063182  1
  O  O29  1  0.758183  0.759422  0.437040  1
  O  O30  1  0.302910  0.500452  0.003489  1
  O  O31  1  0.991108  0.007619  0.187253  1
  O  O32  1  0.743366  0.240615  0.938122  1
  O  O33  1  0.495583  0.695653  0.001660  1
  O  O34  1  0.498840  0.504021  0.192220  1
  O  O35  1  0.817643  0.493103  0.493968  1
  O  O36  1  0.507289  0.994066  0.683171  1
  O  O37  1  0.492617  0.494178  0.817825  1
  O  O38  1  0.256513  0.741008  0.561369  1
  O  O39  1  0.310606  0.009170  0.506644  1
  O  O40  1  0.696475  0.000712  0.496114  1
  O  O41  1  0.993448  0.688987  0.509045  1
  O  O42  1  0.001633  0.496593  0.696393  1
  O  O43  1  0.240274  0.936790  0.742174  1
  O  O44  1  0.805303  0.999278  0.996848  1
  O  O45  1  0.504247  0.194295  0.498066  1
  O  O46  1  0.248102  0.555457  0.754331  1
  O  O47  1  0.004093  0.304532  0.501209  1
  O  O48  1  0.192826  0.498829  0.503647  1
  O  O49  1  0.501143  0.003591  0.306506  1
  O  O50  1  0.246218  0.749688  0.946520  1
  O  O51  1  0.939397  0.743655  0.240947  1
  O  O52  1  0.432830  0.755843  0.757161  1
  O  O53  1  0.056252  0.746741  0.751296  1
  O  O54  1  0.752324  0.054656  0.745854  1
  O  O55  1  0.491750  0.814055  0.490348  1
  O  O56  1  0.759893  0.436717  0.758018  1
  O  O57  1  0.743136  0.567229  0.256009  1
  O  O58  1  0.996263  0.804839  0.998485  1
  O  O59  1  0.554390  0.753729  0.249152  1
  O  O60  1  0.688848  0.509508  0.993387  1
  O  O61  1  0.253646  0.251363  0.444514  1
  O  O62  1  0.186474  0.990836  0.007866  1
  O  O63  1  0.754638  0.249240  0.555164  1
  O  O64  1  0.009462  0.507843  0.312035  1
  O  O65  1  0.567236  0.255970  0.742668  1
  O  O66  1  0.508135  0.313222  0.009769  1
  O  O67  1  0.258929  0.062390  0.242106  1
  O  O68  1  0.251446  0.444828  0.253906  1
  O  O69  1  0.444415  0.253357  0.250676  1
  O  O70  1  0.746747  0.751819  0.054212  1
  O  O71  1  0.749038  0.942789  0.246118  1
  O  O72  1  0.944446  0.246760  0.749785  1
  O  O73  1  0.063170  0.242079  0.259196  1
  O  O74  1  0.007829  0.187210  0.991081  1
  O  O75  1  0.999218  0.996536  0.805050  1
  F  F76  1  0.988623  0.010716  0.511482  1
  F  F77  1  0.011938  0.511928  0.989547  1
  F  F78  1  0.228243  0.252817  0.746605  1
  F  F79  1  0.503969  0.995065  0.019209  1
  F  F80  1  0.747111  0.229387  0.253730  1
  F  F81  1  0.486978  0.504292  0.488015  1
  F  F82  1  0.259130  0.739143  0.236679  1
  F  F83  1  0.770756  0.753455  0.754681  1
