# generated using pymatgen
data_Tb2Ho3Er(SbO7)2
_symmetry_space_group_name_H-M   'P 1'
_cell_length_a   6.45483113
_cell_length_b   6.45889672
_cell_length_c   7.51889300
_cell_angle_alpha   90.00000000
_cell_angle_beta   90.00000000
_cell_angle_gamma   109.34880935
_symmetry_Int_Tables_number   1
_chemical_formula_structural   Tb2Ho3Er(SbO7)2
_chemical_formula_sum   'Tb2 Ho3 Er1 Sb2 O14'
_cell_volume   295.76569654
_cell_formula_units_Z   1
loop_
 _symmetry_equiv_pos_site_id
 _symmetry_equiv_pos_as_xyz
  1  'x, y, z'
loop_
 _atom_site_type_symbol
 _atom_site_label
 _atom_site_symmetry_multiplicity
 _atom_site_fract_x
 _atom_site_fract_y
 _atom_site_fract_z
 _atom_site_occupancy
  Tb  Tb0  1  0.500560  0.500764  0.500201  1
  Tb  Tb1  1  0.500560  0.500764  0.999799  1
  Ho  Ho2  1  0.000632  0.531159  0.250000  1
  Ho  Ho3  1  0.468697  0.999589  0.250000  1
  Ho  Ho4  1  0.999182  0.468114  0.750000  1
  Er  Er5  1  0.531838  0.001153  0.750000  1
  Sb  Sb6  1  0.000114  0.999829  0.500224  1
  Sb  Sb7  1  0.000114  0.999829  0.999776  1
  O  O8  1  0.677318  0.928745  0.470420  1
  O  O9  1  0.926722  0.676779  0.530215  1
  O  O10  1  0.677318  0.928745  0.029580  1
  O  O11  1  0.926722  0.676779  0.969785  1
  O  O12  1  0.322608  0.071067  0.531283  1
  O  O13  1  0.072318  0.322557  0.469967  1
  O  O14  1  0.322608  0.071067  0.968717  1
  O  O15  1  0.072318  0.322557  0.030033  1
  O  O16  1  0.928203  0.070914  0.750000  1
  O  O17  1  0.071557  0.928924  0.250000  1
  O  O18  1  0.368828  0.633559  0.750000  1
  O  O19  1  0.631683  0.368134  0.250000  1
  O  O20  1  0.638508  0.360115  0.750000  1
  O  O21  1  0.361593  0.638857  0.250000  1
