# generated using pymatgen
data_Ho4Nb2Sn5
_symmetry_space_group_name_H-M   'P 1'
_cell_length_a   11.16411948
_cell_length_b   11.16411875
_cell_length_c   11.16411900
_cell_angle_alpha   148.59150547
_cell_angle_beta   131.27578415
_cell_angle_gamma   59.12561064
_symmetry_Int_Tables_number   1
_chemical_formula_structural   Ho4Nb2Sn5
_chemical_formula_sum   'Ho8 Nb4 Sn10'
_cell_volume   540.54221438
_cell_formula_units_Z   2
loop_
 _symmetry_equiv_pos_site_id
 _symmetry_equiv_pos_as_xyz
  1  'x, y, z'
loop_
 _atom_site_type_symbol
 _atom_site_label
 _atom_site_symmetry_multiplicity
 _atom_site_fract_x
 _atom_site_fract_y
 _atom_site_fract_z
 _atom_site_occupancy
  Ho  Ho0  1  0.669799  0.440771  0.229029  1
  Ho  Ho1  1  0.330201  0.559229  0.770971  1
  Ho  Ho2  1  0.211740  0.940771  0.270971  1
  Ho  Ho3  1  0.788260  0.059229  0.729029  1
  Ho  Ho4  1  0.256451  0.146851  0.109600  1
  Ho  Ho5  1  0.743549  0.853149  0.890400  1
  Ho  Ho6  1  0.037251  0.646851  0.390400  1
  Ho  Ho7  1  0.962749  0.353149  0.609600  1
  Nb  Nb8  1  0.302355  0.552355  0.250000  1
  Nb  Nb9  1  0.697645  0.447645  0.750000  1
  Nb  Nb10  1  0.697645  0.947645  0.250000  1
  Nb  Nb11  1  0.302355  0.052355  0.750000  1
  Sn  Sn12  1  0.583053  0.287829  0.295224  1
  Sn  Sn13  1  0.416947  0.712171  0.704776  1
  Sn  Sn14  1  0.992605  0.787829  0.204776  1
  Sn  Sn15  1  0.007395  0.212171  0.795224  1
  Sn  Sn16  1  0.000000  0.250000  0.250000  1
  Sn  Sn17  1  0.000000  0.750000  0.750000  1
  Sn  Sn18  1  0.482359  0.081522  0.400836  1
  Sn  Sn19  1  0.517641  0.918478  0.599164  1
  Sn  Sn20  1  0.680686  0.581522  0.099164  1
  Sn  Sn21  1  0.319314  0.418478  0.900836  1
