# generated using pymatgen
data_Be6V4GaGe
_symmetry_space_group_name_H-M   'P 1'
_cell_length_a   4.48109900
_cell_length_b   4.48109876
_cell_length_c   7.38366500
_cell_angle_alpha   90.00000000
_cell_angle_beta   90.00000000
_cell_angle_gamma   120.00000919
_symmetry_Int_Tables_number   1
_chemical_formula_structural   Be6V4GaGe
_chemical_formula_sum   'Be6 V4 Ga1 Ge1'
_cell_volume   128.40195310
_cell_formula_units_Z   1
loop_
 _symmetry_equiv_pos_site_id
 _symmetry_equiv_pos_as_xyz
  1  'x, y, z'
loop_
 _atom_site_type_symbol
 _atom_site_label
 _atom_site_symmetry_multiplicity
 _atom_site_fract_x
 _atom_site_fract_y
 _atom_site_fract_z
 _atom_site_occupancy
  Be  Be0  1  0.821909  0.643817  0.250678  1
  Be  Be1  1  0.178091  0.821909  0.749322  1
  Be  Be2  1  0.643817  0.821909  0.749322  1
  Be  Be3  1  0.356183  0.178091  0.250678  1
  Be  Be4  1  0.821909  0.178091  0.250678  1
  Be  Be5  1  0.178091  0.356183  0.749322  1
  V  V6  1  0.333333  0.666667  0.066008  1
  V  V7  1  0.666667  0.333333  0.568743  1
  V  V8  1  0.666667  0.333333  0.933992  1
  V  V9  1  0.333333  0.666667  0.431257  1
  Ga  Ga10  1  0.000000  0.000000  0.500000  1
  Ge  Ge11  1  0.000000  0.000000  0.000000  1
