# generated using pymatgen
data_Ga4Pd5Pt3
_symmetry_space_group_name_H-M   'P 1'
_cell_length_a   4.10415700
_cell_length_b   5.63101360
_cell_length_c   7.90645359
_cell_angle_alpha   90.21203109
_cell_angle_beta   90.00000000
_cell_angle_gamma   90.00000000
_symmetry_Int_Tables_number   1
_chemical_formula_structural   Ga4Pd5Pt3
_chemical_formula_sum   'Ga4 Pd5 Pt3'
_cell_volume   182.72134962
_cell_formula_units_Z   1
loop_
 _symmetry_equiv_pos_site_id
 _symmetry_equiv_pos_as_xyz
  1  'x, y, z'
loop_
 _atom_site_type_symbol
 _atom_site_label
 _atom_site_symmetry_multiplicity
 _atom_site_fract_x
 _atom_site_fract_y
 _atom_site_fract_z
 _atom_site_occupancy
  Ga  Ga0  1  0.750000  0.208073  0.390614  1
  Ga  Ga1  1  0.250000  0.793241  0.608511  1
  Ga  Ga2  1  0.750000  0.705159  0.108743  1
  Ga  Ga3  1  0.250000  0.294999  0.891405  1
  Pd  Pd4  1  0.250000  0.334652  0.567317  1
  Pd  Pd5  1  0.750000  0.042390  0.705631  1
  Pd  Pd6  1  0.250000  0.958809  0.294005  1
  Pd  Pd7  1  0.750000  0.541598  0.792994  1
  Pd  Pd8  1  0.250000  0.456404  0.208514  1
  Pt  Pt9  1  0.750000  0.164017  0.066041  1
  Pt  Pt10  1  0.250000  0.836245  0.933331  1
  Pt  Pt11  1  0.750000  0.664413  0.432895  1
