# generated using pymatgen
data_Ca5Tb3(Si3Pd)4
_symmetry_space_group_name_H-M   'P 1'
_cell_length_a   8.24459294
_cell_length_b   8.24459174
_cell_length_c   8.24079800
_cell_angle_alpha   90.00000000
_cell_angle_beta   90.00000000
_cell_angle_gamma   120.09096447
_symmetry_Int_Tables_number   1
_chemical_formula_structural   Ca5Tb3(Si3Pd)4
_chemical_formula_sum   'Ca5 Tb3 Si12 Pd4'
_cell_volume   484.66254749
_cell_formula_units_Z   1
loop_
 _symmetry_equiv_pos_site_id
 _symmetry_equiv_pos_as_xyz
  1  'x, y, z'
loop_
 _atom_site_type_symbol
 _atom_site_label
 _atom_site_symmetry_multiplicity
 _atom_site_fract_x
 _atom_site_fract_y
 _atom_site_fract_z
 _atom_site_occupancy
  Ca  Ca0  1  0.501726  0.003182  0.250000  1
  Ca  Ca1  1  0.498056  0.996822  0.750000  1
  Ca  Ca2  1  0.996818  0.498274  0.250000  1
  Ca  Ca3  1  0.003178  0.501944  0.750000  1
  Ca  Ca4  1  0.501625  0.498375  0.250000  1
  Tb  Tb5  1  0.498582  0.501418  0.750000  1
  Tb  Tb6  1  0.999841  0.000159  0.250000  1
  Tb  Tb7  1  0.000069  0.999931  0.750000  1
  Si  Si8  1  0.164797  0.328721  0.998881  1
  Si  Si9  1  0.835244  0.671310  0.996718  1
  Si  Si10  1  0.671279  0.835203  0.998881  1
  Si  Si11  1  0.835244  0.671310  0.503282  1
  Si  Si12  1  0.328690  0.164756  0.996718  1
  Si  Si13  1  0.164797  0.328721  0.501119  1
  Si  Si14  1  0.164481  0.835519  0.000416  1
  Si  Si15  1  0.328690  0.164756  0.503282  1
  Si  Si16  1  0.835516  0.164484  0.997168  1
  Si  Si17  1  0.671279  0.835203  0.501119  1
  Si  Si18  1  0.835516  0.164484  0.502832  1
  Si  Si19  1  0.164481  0.835519  0.499584  1
  Pd  Pd20  1  0.334098  0.665902  0.001340  1
  Pd  Pd21  1  0.665945  0.334055  0.994466  1
  Pd  Pd22  1  0.665945  0.334055  0.505534  1
  Pd  Pd23  1  0.334098  0.665902  0.498660  1
