# generated using pymatgen
data_LaMgZnNi2
_symmetry_space_group_name_H-M   'P 1'
_cell_length_a   5.31371675
_cell_length_b   5.31371771
_cell_length_c   5.31371756
_cell_angle_alpha   133.77135249
_cell_angle_beta   121.25890481
_cell_angle_gamma   77.83730770
_symmetry_Int_Tables_number   1
_chemical_formula_structural   LaMgZnNi2
_chemical_formula_sum   'La1 Mg1 Zn1 Ni2'
_cell_volume   89.90219276
_cell_formula_units_Z   1
loop_
 _symmetry_equiv_pos_site_id
 _symmetry_equiv_pos_as_xyz
  1  'x, y, z'
loop_
 _atom_site_type_symbol
 _atom_site_label
 _atom_site_symmetry_multiplicity
 _atom_site_fract_x
 _atom_site_fract_y
 _atom_site_fract_z
 _atom_site_occupancy
  La  La0  1  0.297686  0.797686  0.500000  1
  Mg  Mg1  1  0.694328  0.194328  0.500000  1
  Zn  Zn2  1  0.005829  0.005829  0.000000  1
  Ni  Ni3  1  0.741572  0.501078  0.240494  1
  Ni  Ni4  1  0.260585  0.501078  0.759506  1
