# generated using pymatgen
data_TbHoMo2O7
_symmetry_space_group_name_H-M   'P 1'
_cell_length_a   7.29944765
_cell_length_b   7.36686053
_cell_length_c   7.36686052
_cell_angle_alpha   60.49932352
_cell_angle_beta   60.30224277
_cell_angle_gamma   60.30223945
_symmetry_Int_Tables_number   1
_chemical_formula_structural   TbHoMo2O7
_chemical_formula_sum   'Tb2 Ho2 Mo4 O14'
_cell_volume   282.44632955
_cell_formula_units_Z   2
loop_
 _symmetry_equiv_pos_site_id
 _symmetry_equiv_pos_as_xyz
  1  'x, y, z'
loop_
 _atom_site_type_symbol
 _atom_site_label
 _atom_site_symmetry_multiplicity
 _atom_site_fract_x
 _atom_site_fract_y
 _atom_site_fract_z
 _atom_site_occupancy
  Tb  Tb0  1  0.125000  0.125000  0.625000  1
  Tb  Tb1  1  0.125000  0.625000  0.125000  1
  Ho  Ho2  1  0.125000  0.125000  0.125000  1
  Ho  Ho3  1  0.625000  0.125000  0.125000  1
  Mo  Mo4  1  0.625000  0.625000  0.625000  1
  Mo  Mo5  1  0.125000  0.625000  0.625000  1
  Mo  Mo6  1  0.625000  0.625000  0.125000  1
  Mo  Mo7  1  0.625000  0.125000  0.625000  1
  O  O8  1  0.000789  0.999211  0.999211  1
  O  O9  1  0.249211  0.250789  0.250789  1
  O  O10  1  0.286424  0.286407  0.716210  1
  O  O11  1  0.539041  0.533790  0.963593  1
  O  O12  1  0.710959  0.286407  0.716210  1
  O  O13  1  0.718804  0.281196  0.281196  1
  O  O14  1  0.286782  0.713218  0.713218  1
  O  O15  1  0.286424  0.716210  0.286407  1
  O  O16  1  0.710959  0.716210  0.286407  1
  O  O17  1  0.963218  0.536782  0.536782  1
  O  O18  1  0.531196  0.968804  0.968804  1
  O  O19  1  0.963576  0.963593  0.533790  1
  O  O20  1  0.963576  0.533790  0.963593  1
  O  O21  1  0.539041  0.963593  0.533790  1
