# generated using pymatgen
data_V9Si4Os3
_symmetry_space_group_name_H-M   'P 1'
_cell_length_a   4.64109900
_cell_length_b   4.72702691
_cell_length_c   9.54640711
_cell_angle_alpha   90.27048483
_cell_angle_beta   90.00000000
_cell_angle_gamma   90.00000000
_symmetry_Int_Tables_number   1
_chemical_formula_structural   V9Si4Os3
_chemical_formula_sum   'V9 Si4 Os3'
_cell_volume   209.43247192
_cell_formula_units_Z   1
loop_
 _symmetry_equiv_pos_site_id
 _symmetry_equiv_pos_as_xyz
  1  'x, y, z'
loop_
 _atom_site_type_symbol
 _atom_site_label
 _atom_site_symmetry_multiplicity
 _atom_site_fract_x
 _atom_site_fract_y
 _atom_site_fract_z
 _atom_site_occupancy
  V  V0  1  0.500000  0.251577  0.499991  1
  V  V1  1  0.749808  0.998264  0.250149  1
  V  V2  1  0.749540  0.001634  0.749366  1
  V  V3  1  0.000000  0.501763  0.122436  1
  V  V4  1  0.000000  0.502561  0.623875  1
  V  V5  1  0.500000  0.740117  0.999859  1
  V  V6  1  0.500000  0.752137  0.501553  1
  V  V7  1  0.250192  0.998264  0.250149  1
  V  V8  1  0.250460  0.001634  0.749366  1
  Si  Si9  1  0.500000  0.503276  0.250609  1
  Si  Si10  1  0.500000  0.502701  0.744164  1
  Si  Si11  1  0.000000  0.998513  0.003704  1
  Si  Si12  1  0.000000  0.000701  0.503466  1
  Os  Os13  1  0.000000  0.501161  0.373880  1
  Os  Os14  1  0.000000  0.506354  0.872356  1
  Os  Os15  1  0.500000  0.239342  0.005078  1
