# generated using pymatgen
data_CeZn2CdPd2
_symmetry_space_group_name_H-M   'P 1'
_cell_length_a   5.23766121
_cell_length_b   5.29012604
_cell_length_c   5.29012400
_cell_angle_alpha   63.12131986
_cell_angle_beta   60.32750884
_cell_angle_gamma   60.32751986
_symmetry_Int_Tables_number   1
_chemical_formula_structural   CeZn2CdPd2
_chemical_formula_sum   'Ce1 Zn2 Cd1 Pd2'
_cell_volume   106.41423406
_cell_formula_units_Z   1
loop_
 _symmetry_equiv_pos_site_id
 _symmetry_equiv_pos_as_xyz
  1  'x, y, z'
loop_
 _atom_site_type_symbol
 _atom_site_label
 _atom_site_symmetry_multiplicity
 _atom_site_fract_x
 _atom_site_fract_y
 _atom_site_fract_z
 _atom_site_occupancy
  Ce  Ce0  1  0.994906  0.005094  0.005094  1
  Zn  Zn1  1  0.130961  0.620034  0.620034  1
  Zn  Zn2  1  0.628971  0.620034  0.620034  1
  Cd  Cd3  1  0.242235  0.257765  0.257765  1
  Pd  Pd4  1  0.626464  0.623077  0.123997  1
  Pd  Pd5  1  0.626464  0.123997  0.623077  1
