# generated using pymatgen
data_Er3Al8CoSi4Os3
_symmetry_space_group_name_H-M   'P 1'
_cell_length_a   8.64108354
_cell_length_b   8.64108277
_cell_length_c   9.29480600
_cell_angle_alpha   90.00000000
_cell_angle_beta   90.00000000
_cell_angle_gamma   120.17030016
_symmetry_Int_Tables_number   1
_chemical_formula_structural   Er3Al8CoSi4Os3
_chemical_formula_sum   'Er6 Al16 Co2 Si8 Os6'
_cell_volume   600.01139128
_cell_formula_units_Z   2
loop_
 _symmetry_equiv_pos_site_id
 _symmetry_equiv_pos_as_xyz
  1  'x, y, z'
loop_
 _atom_site_type_symbol
 _atom_site_label
 _atom_site_symmetry_multiplicity
 _atom_site_fract_x
 _atom_site_fract_y
 _atom_site_fract_z
 _atom_site_occupancy
  Er  Er0  1  0.194106  0.391434  0.250000  1
  Er  Er1  1  0.805894  0.608566  0.750000  1
  Er  Er2  1  0.608566  0.805894  0.250000  1
  Er  Er3  1  0.391434  0.194106  0.750000  1
  Er  Er4  1  0.196772  0.803228  0.250000  1
  Er  Er5  1  0.803228  0.196772  0.750000  1
  Al  Al6  1  0.161415  0.321411  0.580195  1
  Al  Al7  1  0.838585  0.678589  0.419805  1
  Al  Al8  1  0.678589  0.838585  0.580195  1
  Al  Al9  1  0.838585  0.678589  0.080195  1
  Al  Al10  1  0.321411  0.161415  0.419805  1
  Al  Al11  1  0.161415  0.321411  0.919805  1
  Al  Al12  1  0.160526  0.839474  0.578837  1
  Al  Al13  1  0.321411  0.161415  0.080195  1
  Al  Al14  1  0.839474  0.160526  0.421163  1
  Al  Al15  1  0.678589  0.838585  0.919805  1
  Al  Al16  1  0.839474  0.160526  0.078837  1
  Al  Al17  1  0.160526  0.839474  0.921163  1
  Al  Al18  1  0.566192  0.433808  0.250000  1
  Al  Al19  1  0.433808  0.566192  0.750000  1
  Al  Al20  1  0.000552  0.999448  0.250000  1
  Al  Al21  1  0.999448  0.000552  0.750000  1
  Co  Co22  1  0.000000  0.000000  0.000000  1
  Co  Co23  1  0.000000  0.000000  0.500000  1
  Si  Si24  1  0.334861  0.665139  0.038201  1
  Si  Si25  1  0.665139  0.334861  0.961799  1
  Si  Si26  1  0.665139  0.334861  0.538201  1
  Si  Si27  1  0.334861  0.665139  0.461799  1
  Si  Si28  1  0.566058  0.127567  0.250000  1
  Si  Si29  1  0.433942  0.872433  0.750000  1
  Si  Si30  1  0.872433  0.433942  0.250000  1
  Si  Si31  1  0.127567  0.566058  0.750000  1
  Os  Os32  1  0.500000  0.000000  0.000000  1
  Os  Os33  1  0.000000  0.500000  0.000000  1
  Os  Os34  1  0.500000  0.000000  0.500000  1
  Os  Os35  1  0.500000  0.500000  0.000000  1
  Os  Os36  1  0.000000  0.500000  0.500000  1
  Os  Os37  1  0.500000  0.500000  0.500000  1
