# generated using pymatgen
data_YbLuZr2(Al8Pt3)3
_symmetry_space_group_name_H-M   'P 1'
_cell_length_a   7.49644186
_cell_length_b   7.49998662
_cell_length_c   13.05440355
_cell_angle_alpha   84.54677264
_cell_angle_beta   79.02009009
_cell_angle_gamma   59.98400646
_symmetry_Int_Tables_number   1
_chemical_formula_structural   YbLuZr2(Al8Pt3)3
_chemical_formula_sum   'Yb1 Lu1 Zr2 Al24 Pt9'
_cell_volume   623.89204463
_cell_formula_units_Z   1
loop_
 _symmetry_equiv_pos_site_id
 _symmetry_equiv_pos_as_xyz
  1  'x, y, z'
loop_
 _atom_site_type_symbol
 _atom_site_label
 _atom_site_symmetry_multiplicity
 _atom_site_fract_x
 _atom_site_fract_y
 _atom_site_fract_z
 _atom_site_occupancy
  Yb  Yb0  1  0.733954  0.498507  0.807594  1
  Lu  Lu1  1  0.266003  0.501437  0.192854  1
  Zr  Zr2  1  0.393325  0.168229  0.809463  1
  Zr  Zr3  1  0.606916  0.831729  0.190110  1
  Al  Al4  1  0.681396  0.835717  0.943246  1
  Al  Al5  1  0.318408  0.164678  0.057193  1
  Al  Al6  1  0.146492  0.832924  0.562372  1
  Al  Al7  1  0.853327  0.167316  0.437503  1
  Al  Al8  1  0.479922  0.166665  0.560745  1
  Al  Al9  1  0.520421  0.833135  0.439384  1
  Al  Al10  1  0.220733  0.163546  0.326101  1
  Al  Al11  1  0.778943  0.836170  0.673588  1
  Al  Al12  1  0.436743  0.504210  0.673965  1
  Al  Al13  1  0.563967  0.495524  0.325748  1
  Al  Al14  1  0.110276  0.160673  0.672880  1
  Al  Al15  1  0.889359  0.839957  0.326873  1
  Al  Al16  1  0.353935  0.496997  0.942622  1
  Al  Al17  1  0.646048  0.502758  0.057043  1
  Al  Al18  1  0.018383  0.168137  0.950514  1
  Al  Al19  1  0.981984  0.831545  0.049641  1
  Al  Al20  1  0.186528  0.499186  0.440988  1
  Al  Al21  1  0.813205  0.500659  0.559523  1
  Al  Al22  1  0.732278  0.159877  0.183412  1
  Al  Al23  1  0.266181  0.842065  0.816719  1
  Al  Al24  1  0.066777  0.626068  0.815767  1
  Al  Al25  1  0.935063  0.373437  0.184377  1
  Al  Al26  1  0.850015  0.040970  0.816229  1
  Al  Al27  1  0.149310  0.958013  0.183890  1
  Pt  Pt28  1  0.120623  0.491619  0.638684  1
  Pt  Pt29  1  0.881021  0.509139  0.360251  1
  Pt  Pt30  1  0.656412  0.171969  0.000538  1
  Pt  Pt31  1  0.342536  0.827813  0.001291  1
  Pt  Pt32  1  0.536328  0.167675  0.360944  1
  Pt  Pt33  1  0.462323  0.833250  0.637875  1
  Pt  Pt34  1  0.779181  0.174909  0.636947  1
  Pt  Pt35  1  0.221695  0.823105  0.362081  1
  Pt  Pt36  1  0.999989  0.500392  0.001045  1
