# generated using pymatgen
data_SmCo4As3Rh
_symmetry_space_group_name_H-M   'P 1'
_cell_length_a   3.85210600
_cell_length_b   10.87829200
_cell_length_c   12.31301600
_cell_angle_alpha   90.00000000
_cell_angle_beta   90.00000000
_cell_angle_gamma   90.00000000
_symmetry_Int_Tables_number   1
_chemical_formula_structural   SmCo4As3Rh
_chemical_formula_sum   'Sm4 Co16 As12 Rh4'
_cell_volume   515.96873357
_cell_formula_units_Z   4
loop_
 _symmetry_equiv_pos_site_id
 _symmetry_equiv_pos_as_xyz
  1  'x, y, z'
loop_
 _atom_site_type_symbol
 _atom_site_label
 _atom_site_symmetry_multiplicity
 _atom_site_fract_x
 _atom_site_fract_y
 _atom_site_fract_z
 _atom_site_occupancy
  Sm  Sm0  1  0.250000  0.584275  0.702550  1
  Sm  Sm1  1  0.250000  0.915725  0.202550  1
  Sm  Sm2  1  0.750000  0.415725  0.297450  1
  Sm  Sm3  1  0.750000  0.084275  0.797450  1
  Co  Co4  1  0.250000  0.406630  0.488765  1
  Co  Co5  1  0.250000  0.093370  0.988765  1
  Co  Co6  1  0.750000  0.593370  0.511235  1
  Co  Co7  1  0.750000  0.906630  0.011235  1
  Co  Co8  1  0.250000  0.215985  0.174678  1
  Co  Co9  1  0.250000  0.284015  0.674678  1
  Co  Co10  1  0.750000  0.784015  0.825322  1
  Co  Co11  1  0.750000  0.715985  0.325322  1
  Co  Co12  1  0.250000  0.885782  0.699741  1
  Co  Co13  1  0.250000  0.614218  0.199741  1
  Co  Co14  1  0.750000  0.114218  0.300259  1
  Co  Co15  1  0.750000  0.385782  0.800259  1
  Co  Co16  1  0.250000  0.467091  0.930544  1
  Co  Co17  1  0.250000  0.032909  0.430544  1
  Co  Co18  1  0.750000  0.532909  0.069456  1
  Co  Co19  1  0.750000  0.967091  0.569456  1
  As  As20  1  0.250000  0.418097  0.112649  1
  As  As21  1  0.250000  0.081903  0.612649  1
  As  As22  1  0.750000  0.581903  0.887351  1
  As  As23  1  0.750000  0.918097  0.387351  1
  As  As24  1  0.250000  0.272400  0.865710  1
  As  As25  1  0.250000  0.227600  0.365710  1
  As  As26  1  0.750000  0.727600  0.134290  1
  As  As27  1  0.750000  0.772400  0.634290  1
  As  As28  1  0.250000  0.595906  0.389985  1
  As  As29  1  0.250000  0.904094  0.889985  1
  As  As30  1  0.750000  0.404094  0.610015  1
  As  As31  1  0.750000  0.095906  0.110015  1
  Rh  Rh32  1  0.250000  0.713249  0.992029  1
  Rh  Rh33  1  0.250000  0.786751  0.492029  1
  Rh  Rh34  1  0.750000  0.286751  0.007971  1
  Rh  Rh35  1  0.750000  0.213249  0.507971  1
