# generated using pymatgen
data_TbYb(YOs4)2
_symmetry_space_group_name_H-M   'P 1'
_cell_length_a   5.33730100
_cell_length_b   5.33730053
_cell_length_c   8.79034200
_cell_angle_alpha   90.00000000
_cell_angle_beta   90.00000000
_cell_angle_gamma   119.99999671
_symmetry_Int_Tables_number   1
_chemical_formula_structural   TbYb(YOs4)2
_chemical_formula_sum   'Tb1 Yb1 Y2 Os8'
_cell_volume   216.86015888
_cell_formula_units_Z   1
loop_
 _symmetry_equiv_pos_site_id
 _symmetry_equiv_pos_as_xyz
  1  'x, y, z'
loop_
 _atom_site_type_symbol
 _atom_site_label
 _atom_site_symmetry_multiplicity
 _atom_site_fract_x
 _atom_site_fract_y
 _atom_site_fract_z
 _atom_site_occupancy
  Tb  Tb0  1  0.666667  0.333333  0.939335  1
  Yb  Yb1  1  0.333333  0.666667  0.063189  1
  Y  Y2  1  0.333333  0.666667  0.428653  1
  Y  Y3  1  0.666667  0.333333  0.566205  1
  Os  Os4  1  0.000000  0.000000  0.501059  1
  Os  Os5  1  0.000000  0.000000  0.000761  1
  Os  Os6  1  0.828181  0.171819  0.250300  1
  Os  Os7  1  0.828181  0.656361  0.250300  1
  Os  Os8  1  0.343639  0.171819  0.250300  1
  Os  Os9  1  0.172834  0.827166  0.749966  1
  Os  Os10  1  0.172834  0.345668  0.749966  1
  Os  Os11  1  0.654332  0.827166  0.749966  1
