# generated using pymatgen
data_YHo2ZnSn3Ir2
_symmetry_space_group_name_H-M   'P 1'
_cell_length_a   7.46895255
_cell_length_b   7.49269763
_cell_length_c   4.03453900
_cell_angle_alpha   90.00000000
_cell_angle_beta   90.00000000
_cell_angle_gamma   120.00677027
_symmetry_Int_Tables_number   1
_chemical_formula_structural   YHo2ZnSn3Ir2
_chemical_formula_sum   'Y1 Ho2 Zn1 Sn3 Ir2'
_cell_volume   195.52073644
_cell_formula_units_Z   1
loop_
 _symmetry_equiv_pos_site_id
 _symmetry_equiv_pos_as_xyz
  1  'x, y, z'
loop_
 _atom_site_type_symbol
 _atom_site_label
 _atom_site_symmetry_multiplicity
 _atom_site_fract_x
 _atom_site_fract_y
 _atom_site_fract_z
 _atom_site_occupancy
  Y  Y0  1  0.393898  0.408898  0.500000  1
  Ho  Ho1  1  0.590578  0.983142  0.500000  1
  Ho  Ho2  1  0.016847  0.607676  0.500000  1
  Zn  Zn3  1  0.667248  0.333387  0.000000  1
  Sn  Sn4  1  0.744552  0.742712  0.000000  1
  Sn  Sn5  1  0.257120  0.001211  0.000000  1
  Sn  Sn6  1  0.998395  0.255701  0.000000  1
  Ir  Ir7  1  0.332640  0.668296  0.000000  1
  Ir  Ir8  1  0.998722  0.998977  0.500000  1
