# generated using pymatgen
data_Ta4Mn(CoSe6)2
_symmetry_space_group_name_H-M   'P 1'
_cell_length_a   7.31305121
_cell_length_b   7.31305159
_cell_length_c   19.35575854
_cell_angle_alpha   69.06740996
_cell_angle_beta   69.06740851
_cell_angle_gamma   27.05170680
_symmetry_Int_Tables_number   1
_chemical_formula_structural   Ta4Mn(CoSe6)2
_chemical_formula_sum   'Ta4 Mn1 Co2 Se12'
_cell_volume   437.84831314
_cell_formula_units_Z   1
loop_
 _symmetry_equiv_pos_site_id
 _symmetry_equiv_pos_as_xyz
  1  'x, y, z'
loop_
 _atom_site_type_symbol
 _atom_site_label
 _atom_site_symmetry_multiplicity
 _atom_site_fract_x
 _atom_site_fract_y
 _atom_site_fract_z
 _atom_site_occupancy
  Ta  Ta0  1  0.621051  0.621051  0.851975  1
  Ta  Ta1  1  0.378949  0.378949  0.148025  1
  Ta  Ta2  1  0.745191  0.745191  0.591525  1
  Ta  Ta3  1  0.254809  0.254809  0.408475  1
  Mn  Mn4  1  0.000000  0.000000  0.000000  1
  Co  Co5  1  0.228677  0.228677  0.717319  1
  Co  Co6  1  0.771323  0.771323  0.282681  1
  Se  Se7  1  0.970980  0.970980  0.884945  1
  Se  Se8  1  0.029020  0.029020  0.115055  1
  Se  Se9  1  0.627883  0.627883  0.395290  1
  Se  Se10  1  0.372117  0.372117  0.604710  1
  Se  Se11  1  0.133822  0.133822  0.551586  1
  Se  Se12  1  0.866178  0.866178  0.448414  1
  Se  Se13  1  0.804187  0.804187  0.765275  1
  Se  Se14  1  0.195813  0.195813  0.234725  1
  Se  Se15  1  0.180512  0.180512  0.930092  1
  Se  Se16  1  0.819488  0.819488  0.069908  1
  Se  Se17  1  0.606415  0.606415  0.720750  1
  Se  Se18  1  0.393585  0.393585  0.279250  1
