# generated using pymatgen
data_Tb3PaPtRh3
_symmetry_space_group_name_H-M   'P 1'
_cell_length_a   4.39533300
_cell_length_b   5.56752874
_cell_length_c   7.12330176
_cell_angle_alpha   91.11098321
_cell_angle_beta   90.00000000
_cell_angle_gamma   90.00000000
_symmetry_Int_Tables_number   1
_chemical_formula_structural   Tb3PaPtRh3
_chemical_formula_sum   'Tb3 Pa1 Pt1 Rh3'
_cell_volume   174.28256555
_cell_formula_units_Z   1
loop_
 _symmetry_equiv_pos_site_id
 _symmetry_equiv_pos_as_xyz
  1  'x, y, z'
loop_
 _atom_site_type_symbol
 _atom_site_label
 _atom_site_symmetry_multiplicity
 _atom_site_fract_x
 _atom_site_fract_y
 _atom_site_fract_z
 _atom_site_occupancy
  Tb  Tb0  1  0.250000  0.146213  0.184577  1
  Tb  Tb1  1  0.750000  0.647347  0.319370  1
  Tb  Tb2  1  0.750000  0.854156  0.823563  1
  Pa  Pa3  1  0.250000  0.363346  0.674233  1
  Pt  Pt4  1  0.250000  0.646376  0.042582  1
  Rh  Rh5  1  0.250000  0.827089  0.557279  1
  Rh  Rh6  1  0.750000  0.174196  0.483180  1
  Rh  Rh7  1  0.750000  0.341277  0.915215  1
