# generated using pymatgen
data_Ta9Nb6V(Co2N)4
_symmetry_space_group_name_H-M   'P 1'
_cell_length_a   8.19924107
_cell_length_b   8.19924162
_cell_length_c   8.19924195
_cell_angle_alpha   59.83687725
_cell_angle_beta   59.83687763
_cell_angle_gamma   59.83688009
_symmetry_Int_Tables_number   1
_chemical_formula_structural   Ta9Nb6V(Co2N)4
_chemical_formula_sum   'Ta9 Nb6 V1 Co8 N4'
_cell_volume   388.32489704
_cell_formula_units_Z   1
loop_
 _symmetry_equiv_pos_site_id
 _symmetry_equiv_pos_as_xyz
  1  'x, y, z'
loop_
 _atom_site_type_symbol
 _atom_site_label
 _atom_site_symmetry_multiplicity
 _atom_site_fract_x
 _atom_site_fract_y
 _atom_site_fract_z
 _atom_site_occupancy
  Ta  Ta0  1  0.130827  0.623557  0.623557  1
  Ta  Ta1  1  0.623557  0.130827  0.623557  1
  Ta  Ta2  1  0.623557  0.623557  0.130827  1
  Ta  Ta3  1  0.441026  0.441026  0.055763  1
  Ta  Ta4  1  0.063227  0.063227  0.436823  1
  Ta  Ta5  1  0.441026  0.055763  0.441026  1
  Ta  Ta6  1  0.063227  0.436823  0.063227  1
  Ta  Ta7  1  0.055763  0.441026  0.441026  1
  Ta  Ta8  1  0.436823  0.063227  0.063227  1
  Nb  Nb9  1  0.812328  0.812328  0.187417  1
  Nb  Nb10  1  0.184754  0.184754  0.815491  1
  Nb  Nb11  1  0.812328  0.187417  0.812328  1
  Nb  Nb12  1  0.184754  0.815491  0.184754  1
  Nb  Nb13  1  0.187417  0.812328  0.812328  1
  Nb  Nb14  1  0.815491  0.184754  0.184754  1
  V  V15  1  0.626840  0.626840  0.626840  1
  Co  Co16  1  0.740988  0.429902  0.429902  1
  Co  Co17  1  0.429902  0.740988  0.429902  1
  Co  Co18  1  0.429902  0.429902  0.740988  1
  Co  Co19  1  0.406748  0.406748  0.406748  1
  Co  Co20  1  0.515681  0.823238  0.823238  1
  Co  Co21  1  0.823238  0.515681  0.823238  1
  Co  Co22  1  0.823238  0.823238  0.515681  1
  Co  Co23  1  0.826933  0.826933  0.826933  1
  N  N24  1  0.620263  0.126547  0.126547  1
  N  N25  1  0.126547  0.620263  0.126547  1
  N  N26  1  0.126547  0.126547  0.620263  1
  N  N27  1  0.127067  0.127067  0.127067  1
