# generated using pymatgen
data_Tb4Y2Ni20P13
_symmetry_space_group_name_H-M   'P 1'
_cell_length_a   12.65753449
_cell_length_b   12.65838104
_cell_length_c   3.75733100
_cell_angle_alpha   90.00000000
_cell_angle_beta   90.00000000
_cell_angle_gamma   120.01472163
_symmetry_Int_Tables_number   1
_chemical_formula_structural   Tb4Y2Ni20P13
_chemical_formula_sum   'Tb4 Y2 Ni20 P13'
_cell_volume   521.28223771
_cell_formula_units_Z   1
loop_
 _symmetry_equiv_pos_site_id
 _symmetry_equiv_pos_as_xyz
  1  'x, y, z'
loop_
 _atom_site_type_symbol
 _atom_site_label
 _atom_site_symmetry_multiplicity
 _atom_site_fract_x
 _atom_site_fract_y
 _atom_site_fract_z
 _atom_site_occupancy
  Tb  Tb0  1  0.470165  0.188452  0.000000  1
  Tb  Tb1  1  0.530509  0.811926  0.500000  1
  Tb  Tb2  1  0.281367  0.469130  0.500000  1
  Tb  Tb3  1  0.187885  0.718514  0.500000  1
  Y  Y4  1  0.718083  0.529873  0.000000  1
  Y  Y5  1  0.811745  0.281881  0.000000  1
  Ni  Ni6  1  0.333293  0.666632  0.000000  1
  Ni  Ni7  1  0.666674  0.333344  0.500000  1
  Ni  Ni8  1  0.195603  0.091271  0.000000  1
  Ni  Ni9  1  0.895947  0.804579  0.000000  1
  Ni  Ni10  1  0.908556  0.104171  0.000000  1
  Ni  Ni11  1  0.849560  0.927479  0.500000  1
  Ni  Ni12  1  0.078247  0.150867  0.500000  1
  Ni  Ni13  1  0.072728  0.921949  0.500000  1
  Ni  Ni14  1  0.438014  0.416571  0.000000  1
  Ni  Ni15  1  0.978542  0.562029  0.000000  1
  Ni  Ni16  1  0.583384  0.021511  0.000000  1
  Ni  Ni17  1  0.565431  0.587331  0.500000  1
  Ni  Ni18  1  0.021780  0.434472  0.500000  1
  Ni  Ni19  1  0.412706  0.978087  0.500000  1
  Ni  Ni20  1  0.077837  0.319634  0.000000  1
  Ni  Ni21  1  0.241848  0.922042  0.000000  1
  Ni  Ni22  1  0.680323  0.758251  0.000000  1
  Ni  Ni23  1  0.929863  0.683129  0.500000  1
  Ni  Ni24  1  0.753136  0.070077  0.500000  1
  Ni  Ni25  1  0.316846  0.246764  0.500000  1
  P  P26  1  0.234477  0.282478  0.000000  1
  P  P27  1  0.048127  0.765596  0.000000  1
  P  P28  1  0.717294  0.951888  0.000000  1
  P  P29  1  0.768007  0.721322  0.500000  1
  P  P30  1  0.953186  0.231950  0.500000  1
  P  P31  1  0.278759  0.046684  0.500000  1
  P  P32  1  0.477154  0.614343  0.000000  1
  P  P33  1  0.137163  0.522764  0.000000  1
  P  P34  1  0.385564  0.862781  0.000000  1
  P  P35  1  0.523798  0.387017  0.500000  1
  P  P36  1  0.863065  0.476263  0.500000  1
  P  P37  1  0.613270  0.136889  0.500000  1
  P  P38  1  0.000065  0.000059  0.000000  1
