# generated using pymatgen
data_TbHo11Co4BiIr
_symmetry_space_group_name_H-M   'P 1'
_cell_length_a   8.29443320
_cell_length_b   8.29444049
_cell_length_c   8.29115664
_cell_angle_alpha   111.20367176
_cell_angle_beta   110.60484826
_cell_angle_gamma   106.65907280
_symmetry_Int_Tables_number   1
_chemical_formula_structural   TbHo11Co4BiIr
_chemical_formula_sum   'Tb1 Ho11 Co4 Bi1 Ir1'
_cell_volume   438.20670452
_cell_formula_units_Z   1
loop_
 _symmetry_equiv_pos_site_id
 _symmetry_equiv_pos_as_xyz
  1  'x, y, z'
loop_
 _atom_site_type_symbol
 _atom_site_label
 _atom_site_symmetry_multiplicity
 _atom_site_fract_x
 _atom_site_fract_y
 _atom_site_fract_z
 _atom_site_occupancy
  Tb  Tb0  1  0.817056  0.713541  0.530597  1
  Ho  Ho1  1  0.182147  0.285778  0.467925  1
  Ho  Ho2  1  0.182818  0.713956  0.896773  1
  Ho  Ho3  1  0.817753  0.285638  0.103390  1
  Ho  Ho4  1  0.687737  0.378508  0.691055  1
  Ho  Ho5  1  0.311429  0.620985  0.308979  1
  Ho  Ho6  1  0.687995  0.997547  0.308977  1
  Ho  Ho7  1  0.312547  0.003321  0.691057  1
  Ho  Ho8  1  0.590572  0.788559  0.802835  1
  Ho  Ho9  1  0.408588  0.210993  0.197076  1
  Ho  Ho10  1  0.986084  0.788491  0.197079  1
  Ho  Ho11  1  0.014275  0.212259  0.802832  1
  Co  Co12  1  0.623306  0.000729  0.624035  1
  Co  Co13  1  0.376447  0.999883  0.376331  1
  Co  Co14  1  0.111722  0.610467  0.500077  1
  Co  Co15  1  0.889610  0.388353  0.500075  1
  Bi  Bi16  1  0.499985  0.500032  0.000017  1
  Ir  Ir17  1  0.999929  0.000960  0.000889  1
