# generated using pymatgen
data_Tb8As(Pd7Pt5)2
_symmetry_space_group_name_H-M   'P 1'
_cell_length_a   8.36994803
_cell_length_b   8.37230185
_cell_length_c   8.37302000
_cell_angle_alpha   90.01698555
_cell_angle_beta   90.00520252
_cell_angle_gamma   89.98063822
_symmetry_Int_Tables_number   1
_chemical_formula_structural   Tb8As(Pd7Pt5)2
_chemical_formula_sum   'Tb8 As1 Pd14 Pt10'
_cell_volume   586.74543865
_cell_formula_units_Z   1
loop_
 _symmetry_equiv_pos_site_id
 _symmetry_equiv_pos_as_xyz
  1  'x, y, z'
loop_
 _atom_site_type_symbol
 _atom_site_label
 _atom_site_symmetry_multiplicity
 _atom_site_fract_x
 _atom_site_fract_y
 _atom_site_fract_z
 _atom_site_occupancy
  Tb  Tb0  1  0.254732  0.254862  0.744940  1
  Tb  Tb1  1  0.255402  0.745289  0.255667  1
  Tb  Tb2  1  0.744871  0.255129  0.255034  1
  Tb  Tb3  1  0.745141  0.744412  0.744704  1
  Tb  Tb4  1  0.744441  0.744633  0.255439  1
  Tb  Tb5  1  0.745305  0.255374  0.745092  1
  Tb  Tb6  1  0.254749  0.745044  0.744401  1
  Tb  Tb7  1  0.255122  0.254606  0.255136  1
  As  As8  1  0.000285  0.000566  0.999723  1
  Pd  Pd9  1  0.999688  0.999739  0.712381  1
  Pd  Pd10  1  0.000033  0.288087  0.000194  1
  Pd  Pd11  1  0.288104  0.999780  0.999978  1
  Pd  Pd12  1  0.999621  0.999694  0.287294  1
  Pd  Pd13  1  0.999932  0.712626  0.000240  1
  Pd  Pd14  1  0.712273  0.999675  0.000042  1
  Pd  Pd15  1  0.500234  0.000101  0.740835  1
  Pd  Pd16  1  0.259230  0.500345  0.999825  1
  Pd  Pd17  1  0.999895  0.500282  0.259077  1
  Pd  Pd18  1  0.500070  0.740520  0.000116  1
  Pd  Pd19  1  0.000093  0.741118  0.499777  1
  Pd  Pd20  1  0.500242  0.000034  0.259002  1
  Pd  Pd21  1  0.740678  0.000033  0.499924  1
  Pd  Pd22  1  0.740911  0.500317  0.999897  1
  Pt  Pt23  1  0.500056  0.499920  0.747827  1
  Pt  Pt24  1  0.499851  0.252178  0.499904  1
  Pt  Pt25  1  0.252296  0.499952  0.500052  1
  Pt  Pt26  1  0.499992  0.499851  0.252435  1
  Pt  Pt27  1  0.499786  0.747284  0.500034  1
  Pt  Pt28  1  0.747430  0.499832  0.500083  1
  Pt  Pt29  1  0.999962  0.500213  0.741148  1
  Pt  Pt30  1  0.500148  0.259471  0.000029  1
  Pt  Pt31  1  0.259278  0.000085  0.499876  1
  Pt  Pt32  1  0.000151  0.258948  0.499892  1
