# generated using pymatgen
data_Li4Fe5Sn(PbO8)2
_symmetry_space_group_name_H-M   'P 1'
_cell_length_a   6.12421190
_cell_length_b   6.12678178
_cell_length_c   10.07323318
_cell_angle_alpha   90.16409079
_cell_angle_beta   89.83297024
_cell_angle_gamma   120.75397692
_symmetry_Int_Tables_number   1
_chemical_formula_structural   Li4Fe5Sn(PbO8)2
_chemical_formula_sum   'Li4 Fe5 Sn1 Pb2 O16'
_cell_volume   324.81027734
_cell_formula_units_Z   1
loop_
 _symmetry_equiv_pos_site_id
 _symmetry_equiv_pos_as_xyz
  1  'x, y, z'
loop_
 _atom_site_type_symbol
 _atom_site_label
 _atom_site_symmetry_multiplicity
 _atom_site_fract_x
 _atom_site_fract_y
 _atom_site_fract_z
 _atom_site_occupancy
  Li  Li0  1  0.336265  0.664662  0.894244  1
  Li  Li1  1  0.996862  0.006415  0.990077  1
  Li  Li2  1  0.997525  0.999360  0.495823  1
  Li  Li3  1  0.664220  0.335177  0.400718  1
  Fe  Fe4  1  0.169690  0.338602  0.215794  1
  Fe  Fe5  1  0.662682  0.831634  0.215733  1
  Fe  Fe6  1  0.337788  0.167667  0.715082  1
  Fe  Fe7  1  0.831110  0.660946  0.715184  1
  Fe  Fe8  1  0.830386  0.168395  0.714732  1
  Sn  Sn9  1  0.170077  0.831060  0.216042  1
  Pb  Pb10  1  0.334078  0.664486  0.496009  1
  Pb  Pb11  1  0.669991  0.331260  0.987968  1
  O  O12  1  0.154026  0.844409  0.601589  1
  O  O13  1  0.023419  0.508022  0.336696  1
  O  O14  1  0.336997  0.664252  0.105933  1
  O  O15  1  0.997523  0.003587  0.312886  1
  O  O16  1  0.998982  0.999937  0.807987  1
  O  O17  1  0.155044  0.308741  0.603512  1
  O  O18  1  0.492465  0.976561  0.336987  1
  O  O19  1  0.484642  0.516344  0.332932  1
  O  O20  1  0.311276  0.159898  0.099217  1
  O  O21  1  0.689032  0.843026  0.604001  1
  O  O22  1  0.515668  0.483332  0.833450  1
  O  O23  1  0.512738  0.025837  0.831903  1
  O  O24  1  0.666517  0.332316  0.609660  1
  O  O25  1  0.841933  0.690836  0.098775  1
  O  O26  1  0.974241  0.486775  0.831622  1
  O  O27  1  0.844823  0.156763  0.103287  1
