# generated using pymatgen
data_Li2Al2IrPt3
_symmetry_space_group_name_H-M   'P 1'
_cell_length_a   4.23382500
_cell_length_b   5.98867246
_cell_length_c   12.68945482
_cell_angle_alpha   90.04295051
_cell_angle_beta   90.00025283
_cell_angle_gamma   89.99951158
_symmetry_Int_Tables_number   1
_chemical_formula_structural   Li2Al2IrPt3
_chemical_formula_sum   'Li6 Al6 Ir3 Pt9'
_cell_volume   321.74092439
_cell_formula_units_Z   3
loop_
 _symmetry_equiv_pos_site_id
 _symmetry_equiv_pos_as_xyz
  1  'x, y, z'
loop_
 _atom_site_type_symbol
 _atom_site_label
 _atom_site_symmetry_multiplicity
 _atom_site_fract_x
 _atom_site_fract_y
 _atom_site_fract_z
 _atom_site_occupancy
  Li  Li0  1  0.000002  0.001182  0.000345  1
  Li  Li1  1  0.499862  0.499053  0.165663  1
  Li  Li2  1  0.999895  0.000839  0.331940  1
  Li  Li3  1  0.500003  0.499896  0.499768  1
  Li  Li4  1  0.000140  0.999346  0.667491  1
  Li  Li5  1  0.500126  0.499886  0.834804  1
  Al  Al6  1  0.000002  0.496280  0.002459  1
  Al  Al7  1  0.499882  0.006539  0.160984  1
  Al  Al8  1  0.999893  0.496329  0.329608  1
  Al  Al9  1  0.500005  0.000196  0.499708  1
  Al  Al10  1  0.000093  0.500013  0.667602  1
  Al  Al11  1  0.500081  0.000416  0.839567  1
  Ir  Ir12  1  0.500003  0.252728  0.999643  1
  Ir  Ir13  1  0.500001  0.748119  0.999714  1
  Ir  Ir14  1  0.999895  0.249611  0.167029  1
  Pt  Pt15  1  0.999901  0.751706  0.166936  1
  Pt  Pt16  1  0.499908  0.248651  0.333851  1
  Pt  Pt17  1  0.499921  0.750555  0.333438  1
  Pt  Pt18  1  0.000005  0.249998  0.500459  1
  Pt  Pt19  1  0.000007  0.749171  0.499658  1
  Pt  Pt20  1  0.500094  0.249121  0.666930  1
  Pt  Pt21  1  0.500097  0.750907  0.667024  1
  Pt  Pt22  1  0.000097  0.250080  0.832122  1
  Pt  Pt23  1  0.000088  0.749387  0.833257  1
