# generated using pymatgen
data_YSn6PdRu3
_symmetry_space_group_name_H-M   'P 1'
_cell_length_a   7.02023842
_cell_length_b   7.00662528
_cell_length_c   6.95763010
_cell_angle_alpha   120.02639867
_cell_angle_beta   120.09155880
_cell_angle_gamma   90.35456878
_symmetry_Int_Tables_number   1
_chemical_formula_structural   YSn6PdRu3
_chemical_formula_sum   'Y1 Sn6 Pd1 Ru3'
_cell_volume   240.79992800
_cell_formula_units_Z   1
loop_
 _symmetry_equiv_pos_site_id
 _symmetry_equiv_pos_as_xyz
  1  'x, y, z'
loop_
 _atom_site_type_symbol
 _atom_site_label
 _atom_site_symmetry_multiplicity
 _atom_site_fract_x
 _atom_site_fract_y
 _atom_site_fract_z
 _atom_site_occupancy
  Y  Y0  1  0.991699  0.015291  0.000000  1
  Sn  Sn1  1  0.868950  0.536388  0.000000  1
  Sn  Sn2  1  0.540425  0.874508  0.000000  1
  Sn  Sn3  1  0.127007  0.110935  0.650620  1
  Sn  Sn4  1  0.005345  0.504407  0.494832  1
  Sn  Sn5  1  0.476387  0.460315  0.349380  1
  Sn  Sn6  1  0.510513  0.009575  0.505168  1
  Pd  Pd7  1  0.235710  0.601047  0.000000  1
  Ru  Ru8  1  0.394702  0.398351  0.648330  1
  Ru  Ru9  1  0.602892  0.239162  0.000000  1
  Ru  Ru10  1  0.746372  0.750021  0.351670  1
