# generated using pymatgen
data_PrNd5RuCl10
_symmetry_space_group_name_H-M   'P 1'
_cell_length_a   7.43778864
_cell_length_b   9.10122056
_cell_length_c   9.41919517
_cell_angle_alpha   109.34183034
_cell_angle_beta   96.59650286
_cell_angle_gamma   106.74559988
_symmetry_Int_Tables_number   1
_chemical_formula_structural   PrNd5RuCl10
_chemical_formula_sum   'Pr1 Nd5 Ru1 Cl10'
_cell_volume   560.29050063
_cell_formula_units_Z   1
loop_
 _symmetry_equiv_pos_site_id
 _symmetry_equiv_pos_as_xyz
  1  'x, y, z'
loop_
 _atom_site_type_symbol
 _atom_site_label
 _atom_site_symmetry_multiplicity
 _atom_site_fract_x
 _atom_site_fract_y
 _atom_site_fract_z
 _atom_site_occupancy
  Pr  Pr0  1  0.969380  0.296691  0.093322  1
  Nd  Nd1  1  0.142575  0.059823  0.749735  1
  Nd  Nd2  1  0.620216  0.843984  0.799241  1
  Nd  Nd3  1  0.856519  0.940234  0.249997  1
  Nd  Nd4  1  0.031016  0.705535  0.907344  1
  Nd  Nd5  1  0.379502  0.154731  0.200449  1
  Ru  Ru6  1  0.999616  0.000418  0.000087  1
  Cl  Cl7  1  0.200667  0.751299  0.656790  1
  Cl  Cl8  1  0.649904  0.539871  0.726587  1
  Cl  Cl9  1  0.237852  0.077889  0.445180  1
  Cl  Cl10  1  0.797561  0.248110  0.344717  1
  Cl  Cl11  1  0.551059  0.166765  0.925861  1
  Cl  Cl12  1  0.761385  0.921025  0.554493  1
  Cl  Cl13  1  0.910081  0.631812  0.162175  1
  Cl  Cl14  1  0.354536  0.460438  0.274788  1
  Cl  Cl15  1  0.091058  0.369551  0.836050  1
  Cl  Cl16  1  0.447072  0.831825  0.073182  1
