# generated using pymatgen
data_Zr2AlCo5B2
_symmetry_space_group_name_H-M   'P 1'
_cell_length_a   8.71246500
_cell_length_b   8.71246500
_cell_length_c   3.10789900
_cell_angle_alpha   90.00000000
_cell_angle_beta   90.00000000
_cell_angle_gamma   90.00000000
_symmetry_Int_Tables_number   1
_chemical_formula_structural   Zr2AlCo5B2
_chemical_formula_sum   'Zr4 Al2 Co10 B4'
_cell_volume   235.91143353
_cell_formula_units_Z   2
loop_
 _symmetry_equiv_pos_site_id
 _symmetry_equiv_pos_as_xyz
  1  'x, y, z'
loop_
 _atom_site_type_symbol
 _atom_site_label
 _atom_site_symmetry_multiplicity
 _atom_site_fract_x
 _atom_site_fract_y
 _atom_site_fract_z
 _atom_site_occupancy
  Zr  Zr0  1  0.822919  0.322919  0.000000  1
  Zr  Zr1  1  0.322919  0.177081  0.000000  1
  Zr  Zr2  1  0.677081  0.822919  0.000000  1
  Zr  Zr3  1  0.177081  0.677081  0.000000  1
  Al  Al4  1  0.000000  0.000000  0.000000  1
  Al  Al5  1  0.500000  0.500000  0.000000  1
  Co  Co6  1  0.500000  0.000000  0.500000  1
  Co  Co7  1  0.000000  0.500000  0.500000  1
  Co  Co8  1  0.068958  0.224539  0.500000  1
  Co  Co9  1  0.224539  0.931042  0.500000  1
  Co  Co10  1  0.775461  0.068958  0.500000  1
  Co  Co11  1  0.931042  0.775461  0.500000  1
  Co  Co12  1  0.431042  0.724539  0.500000  1
  Co  Co13  1  0.568958  0.275461  0.500000  1
  Co  Co14  1  0.724539  0.568958  0.500000  1
  Co  Co15  1  0.275461  0.431042  0.500000  1
  B  B16  1  0.618851  0.118851  0.000000  1
  B  B17  1  0.118851  0.381149  0.000000  1
  B  B18  1  0.881149  0.618851  0.000000  1
  B  B19  1  0.381149  0.881149  0.000000  1
