# generated using pymatgen
data_Dy3Tm9Co4
_symmetry_space_group_name_H-M   'P 1'
_cell_length_a   6.88488029
_cell_length_b   9.21099500
_cell_length_c   6.16818736
_cell_angle_alpha   90.00000000
_cell_angle_beta   90.17743346
_cell_angle_gamma   90.00000000
_symmetry_Int_Tables_number   1
_chemical_formula_structural   Dy3Tm9Co4
_chemical_formula_sum   'Dy3 Tm9 Co4'
_cell_volume   391.16358217
_cell_formula_units_Z   1
loop_
 _symmetry_equiv_pos_site_id
 _symmetry_equiv_pos_as_xyz
  1  'x, y, z'
loop_
 _atom_site_type_symbol
 _atom_site_label
 _atom_site_symmetry_multiplicity
 _atom_site_fract_x
 _atom_site_fract_y
 _atom_site_fract_z
 _atom_site_occupancy
  Dy  Dy0  1  0.039875  0.250001  0.136518  1
  Dy  Dy1  1  0.540388  0.250001  0.363807  1
  Dy  Dy2  1  0.459410  0.750000  0.637600  1
  Tm  Tm3  1  0.324032  0.567469  0.175368  1
  Tm  Tm4  1  0.324032  0.932532  0.175368  1
  Tm  Tm5  1  0.825047  0.568163  0.323381  1
  Tm  Tm6  1  0.825047  0.931838  0.323381  1
  Tm  Tm7  1  0.174600  0.066371  0.676079  1
  Tm  Tm8  1  0.174600  0.433629  0.676079  1
  Tm  Tm9  1  0.676350  0.066598  0.824550  1
  Tm  Tm10  1  0.676350  0.433402  0.824550  1
  Tm  Tm11  1  0.959661  0.750000  0.862529  1
  Co  Co12  1  0.614183  0.750000  0.047625  1
  Co  Co13  1  0.111934  0.750000  0.453164  1
  Co  Co14  1  0.887231  0.250001  0.548564  1
  Co  Co15  1  0.387259  0.250001  0.951438  1
