# generated using pymatgen
data_Yb2CuOs3
_symmetry_space_group_name_H-M   'P 1'
_cell_length_a   5.37235796
_cell_length_b   5.37235752
_cell_length_c   5.37235818
_cell_angle_alpha   57.69219199
_cell_angle_beta   57.69219248
_cell_angle_gamma   57.69218255
_symmetry_Int_Tables_number   1
_chemical_formula_structural   Yb2CuOs3
_chemical_formula_sum   'Yb2 Cu1 Os3'
_cell_volume   103.82888298
_cell_formula_units_Z   1
loop_
 _symmetry_equiv_pos_site_id
 _symmetry_equiv_pos_as_xyz
  1  'x, y, z'
loop_
 _atom_site_type_symbol
 _atom_site_label
 _atom_site_symmetry_multiplicity
 _atom_site_fract_x
 _atom_site_fract_y
 _atom_site_fract_z
 _atom_site_occupancy
  Yb  Yb0  1  0.123245  0.123245  0.123245  1
  Yb  Yb1  1  0.876755  0.876755  0.876755  1
  Cu  Cu2  1  0.500000  0.500000  0.500000  1
  Os  Os3  1  0.500000  0.000000  0.500000  1
  Os  Os4  1  0.000000  0.500000  0.500000  1
  Os  Os5  1  0.500000  0.500000  0.000000  1
