# generated using pymatgen
data_La4Pr7Y5(CdPd)4
_symmetry_space_group_name_H-M   'P 1'
_cell_length_a   10.01552789
_cell_length_b   10.01552811
_cell_length_c   9.98020500
_cell_angle_alpha   60.11659501
_cell_angle_beta   60.11659430
_cell_angle_gamma   60.09718023
_symmetry_Int_Tables_number   1
_chemical_formula_structural   La4Pr7Y5(CdPd)4
_chemical_formula_sum   'La4 Pr7 Y5 Cd4 Pd4'
_cell_volume   709.66658616
_cell_formula_units_Z   1
loop_
 _symmetry_equiv_pos_site_id
 _symmetry_equiv_pos_as_xyz
  1  'x, y, z'
loop_
 _atom_site_type_symbol
 _atom_site_label
 _atom_site_symmetry_multiplicity
 _atom_site_fract_x
 _atom_site_fract_y
 _atom_site_fract_z
 _atom_site_occupancy
  La  La0  1  0.352569  0.352569  0.353759  1
  La  La1  1  0.352569  0.352569  0.941106  1
  La  La2  1  0.350684  0.938799  0.355259  1
  La  La3  1  0.938799  0.350684  0.355259  1
  Pr  Pr4  1  0.814079  0.814079  0.185921  1
  Pr  Pr5  1  0.938947  0.562248  0.565646  1
  Pr  Pr6  1  0.562248  0.938947  0.933159  1
  Pr  Pr7  1  0.562248  0.938947  0.565646  1
  Pr  Pr8  1  0.938947  0.562248  0.933159  1
  Pr  Pr9  1  0.564764  0.564764  0.935236  1
  Pr  Pr10  1  0.934710  0.934710  0.565290  1
  Y  Y11  1  0.814406  0.188610  0.184640  1
  Y  Y12  1  0.188610  0.814406  0.812345  1
  Y  Y13  1  0.188610  0.814406  0.184640  1
  Y  Y14  1  0.814406  0.188610  0.812345  1
  Y  Y15  1  0.185188  0.185188  0.814812  1
  Cd  Cd16  1  0.579747  0.579747  0.582697  1
  Cd  Cd17  1  0.579747  0.579747  0.257807  1
  Cd  Cd18  1  0.581056  0.257085  0.580929  1
  Cd  Cd19  1  0.257085  0.581056  0.580929  1
  Pd  Pd20  1  0.141062  0.141062  0.142355  1
  Pd  Pd21  1  0.141062  0.141062  0.575521  1
  Pd  Pd22  1  0.146691  0.571769  0.140770  1
  Pd  Pd23  1  0.571769  0.146691  0.140770  1
