# generated using pymatgen
data_LaCeFe3Tc14C3
_symmetry_space_group_name_H-M   'P 1'
_cell_length_a   6.92725238
_cell_length_b   6.92725165
_cell_length_c   6.92725283
_cell_angle_alpha   82.85630872
_cell_angle_beta   82.85631373
_cell_angle_gamma   82.85630461
_symmetry_Int_Tables_number   1
_chemical_formula_structural   LaCeFe3Tc14C3
_chemical_formula_sum   'La1 Ce1 Fe3 Tc14 C3'
_cell_volume   325.26805704
_cell_formula_units_Z   1
loop_
 _symmetry_equiv_pos_site_id
 _symmetry_equiv_pos_as_xyz
  1  'x, y, z'
loop_
 _atom_site_type_symbol
 _atom_site_label
 _atom_site_symmetry_multiplicity
 _atom_site_fract_x
 _atom_site_fract_y
 _atom_site_fract_z
 _atom_site_occupancy
  La  La0  1  0.649759  0.649759  0.649759  1
  Ce  Ce1  1  0.349691  0.349691  0.349691  1
  Fe  Fe2  1  0.998437  0.998437  0.500468  1
  Fe  Fe3  1  0.500468  0.998437  0.998437  1
  Fe  Fe4  1  0.998437  0.500468  0.998437  1
  Tc  Tc5  1  0.723839  0.274537  0.000721  1
  Tc  Tc6  1  0.000721  0.723839  0.274537  1
  Tc  Tc7  1  0.274537  0.000721  0.723839  1
  Tc  Tc8  1  0.000721  0.274537  0.723839  1
  Tc  Tc9  1  0.723839  0.000721  0.274537  1
  Tc  Tc10  1  0.274537  0.723839  0.000721  1
  Tc  Tc11  1  0.345802  0.345802  0.866890  1
  Tc  Tc12  1  0.866890  0.345802  0.345802  1
  Tc  Tc13  1  0.345802  0.866890  0.345802  1
  Tc  Tc14  1  0.652048  0.652048  0.139993  1
  Tc  Tc15  1  0.139993  0.652048  0.652048  1
  Tc  Tc16  1  0.652048  0.139993  0.652048  1
  Tc  Tc17  1  0.900473  0.900473  0.900473  1
  Tc  Tc18  1  0.100414  0.100414  0.100414  1
  C  C19  1  0.497684  0.497684  0.006178  1
  C  C20  1  0.006178  0.497684  0.497684  1
  C  C21  1  0.497684  0.006178  0.497684  1
