# generated using pymatgen
data_Nd7Ho9(LuSi4)4
_symmetry_space_group_name_H-M   'P 1'
_cell_length_a   7.70882264
_cell_length_b   7.71484794
_cell_length_c   14.24072051
_cell_angle_alpha   90.00846611
_cell_angle_beta   89.85023468
_cell_angle_gamma   90.08558398
_symmetry_Int_Tables_number   1
_chemical_formula_structural   Nd7Ho9(LuSi4)4
_chemical_formula_sum   'Nd7 Ho9 Lu4 Si16'
_cell_volume   846.92590141
_cell_formula_units_Z   1
loop_
 _symmetry_equiv_pos_site_id
 _symmetry_equiv_pos_as_xyz
  1  'x, y, z'
loop_
 _atom_site_type_symbol
 _atom_site_label
 _atom_site_symmetry_multiplicity
 _atom_site_fract_x
 _atom_site_fract_y
 _atom_site_fract_z
 _atom_site_occupancy
  Nd  Nd0  1  0.358519  0.007733  0.958555  1
  Nd  Nd1  1  0.991943  0.643079  0.540134  1
  Nd  Nd2  1  0.489877  0.858216  0.210324  1
  Nd  Nd3  1  0.510029  0.139180  0.707455  1
  Nd  Nd4  1  0.860322  0.489772  0.791347  1
  Nd  Nd5  1  0.139352  0.509435  0.292530  1
  Nd  Nd6  1  0.007650  0.358196  0.042347  1
  Ho  Ho7  1  0.491448  0.361244  0.124918  1
  Ho  Ho8  1  0.991772  0.136121  0.624104  1
  Ho  Ho9  1  0.862405  0.008230  0.874827  1
  Ho  Ho10  1  0.137117  0.993393  0.375080  1
  Ho  Ho11  1  0.511652  0.639870  0.622454  1
  Ho  Ho12  1  0.361316  0.491122  0.875331  1
  Ho  Ho13  1  0.639590  0.509863  0.376278  1
  Ho  Ho14  1  0.006389  0.861673  0.126922  1
  Ho  Ho15  1  0.635387  0.996104  0.456025  1
  Lu  Lu16  1  0.317065  0.316732  0.499643  1
  Lu  Lu17  1  0.185355  0.815889  0.749079  1
  Lu  Lu18  1  0.814096  0.183263  0.250588  1
  Lu  Lu19  1  0.683290  0.682284  0.000545  1
  Si  Si20  1  0.293529  0.939067  0.560853  1
  Si  Si21  1  0.709432  0.062634  0.062768  1
  Si  Si22  1  0.933409  0.287785  0.437333  1
  Si  Si23  1  0.438128  0.209863  0.313547  1
  Si  Si24  1  0.564717  0.787866  0.812388  1
  Si  Si25  1  0.212412  0.436728  0.686708  1
  Si  Si26  1  0.787995  0.564483  0.188319  1
  Si  Si27  1  0.064392  0.710477  0.938075  1
  Si  Si28  1  0.800600  0.843657  0.691238  1
  Si  Si29  1  0.202095  0.153704  0.189810  1
  Si  Si30  1  0.842850  0.802288  0.314430  1
  Si  Si31  1  0.350058  0.706821  0.437567  1
  Si  Si32  1  0.653443  0.296527  0.939784  1
  Si  Si33  1  0.700801  0.341779  0.558562  1
  Si  Si34  1  0.296594  0.653727  0.060936  1
  Si  Si35  1  0.154968  0.201192  0.809199  1
