# generated using pymatgen
data_BaEu2(H6Ir)2
_symmetry_space_group_name_H-M   'P 1'
_cell_length_a   5.22682200
_cell_length_b   5.22682232
_cell_length_c   8.68671700
_cell_angle_alpha   90.00000000
_cell_angle_beta   90.00000000
_cell_angle_gamma   119.99999799
_symmetry_Int_Tables_number   1
_chemical_formula_structural   BaEu2(H6Ir)2
_chemical_formula_sum   'Ba1 Eu2 H12 Ir2'
_cell_volume   205.52362947
_cell_formula_units_Z   1
loop_
 _symmetry_equiv_pos_site_id
 _symmetry_equiv_pos_as_xyz
  1  'x, y, z'
loop_
 _atom_site_type_symbol
 _atom_site_label
 _atom_site_symmetry_multiplicity
 _atom_site_fract_x
 _atom_site_fract_y
 _atom_site_fract_z
 _atom_site_occupancy
  Ba  Ba0  1  0.000000  0.000000  0.000000  1
  Eu  Eu1  1  0.666667  0.333333  0.365349  1
  Eu  Eu2  1  0.333333  0.666667  0.634651  1
  H  H3  1  0.178339  0.821661  0.365881  1
  H  H4  1  0.643322  0.821661  0.365881  1
  H  H5  1  0.178339  0.356678  0.365881  1
  H  H6  1  0.821661  0.178339  0.634119  1
  H  H7  1  0.356678  0.178339  0.634119  1
  H  H8  1  0.821661  0.643322  0.634119  1
  H  H9  1  0.517397  0.034794  0.859093  1
  H  H10  1  0.517397  0.482603  0.859093  1
  H  H11  1  0.965206  0.482603  0.859093  1
  H  H12  1  0.482603  0.965206  0.140907  1
  H  H13  1  0.482603  0.517397  0.140907  1
  H  H14  1  0.034794  0.517397  0.140907  1
  Ir  Ir15  1  0.666667  0.333333  0.743306  1
  Ir  Ir16  1  0.333333  0.666667  0.256694  1
