# generated using pymatgen
data_La7Nd13Si15Pd
_symmetry_space_group_name_H-M   'P 1'
_cell_length_a   7.97626910
_cell_length_b   7.97608329
_cell_length_c   15.15161475
_cell_angle_alpha   89.90938274
_cell_angle_beta   89.35554113
_cell_angle_gamma   90.02455071
_symmetry_Int_Tables_number   1
_chemical_formula_structural   La7Nd13Si15Pd
_chemical_formula_sum   'La7 Nd13 Si15 Pd1'
_cell_volume   963.87416076
_cell_formula_units_Z   1
loop_
 _symmetry_equiv_pos_site_id
 _symmetry_equiv_pos_as_xyz
  1  'x, y, z'
loop_
 _atom_site_type_symbol
 _atom_site_label
 _atom_site_symmetry_multiplicity
 _atom_site_fract_x
 _atom_site_fract_y
 _atom_site_fract_z
 _atom_site_occupancy
  La  La0  1  0.015250  0.370793  0.547886  1
  La  La1  1  0.627605  0.985787  0.951701  1
  La  La2  1  0.126829  0.512172  0.800665  1
  La  La3  1  0.864267  0.479631  0.295479  1
  La  La4  1  0.507728  0.123427  0.198267  1
  La  La5  1  0.491615  0.874507  0.700537  1
  La  La6  1  0.378353  0.019353  0.453088  1
  Nd  Nd7  1  0.373896  0.480669  0.375084  1
  Nd  Nd8  1  0.863316  0.021477  0.370723  1
  Nd  Nd9  1  0.981773  0.128870  0.124646  1
  Nd  Nd10  1  0.024294  0.872990  0.621692  1
  Nd  Nd11  1  0.630373  0.519332  0.874413  1
  Nd  Nd12  1  0.487310  0.373310  0.626662  1
  Nd  Nd13  1  0.513006  0.626990  0.125864  1
  Nd  Nd14  1  0.125844  0.982691  0.877689  1
  Nd  Nd15  1  0.991179  0.621580  0.053550  1
  Nd  Nd16  1  0.695840  0.694658  0.496449  1
  Nd  Nd17  1  0.812566  0.190448  0.749691  1
  Nd  Nd18  1  0.183355  0.803085  0.258381  1
  Nd  Nd19  1  0.305729  0.309121  0.000014  1
  Si  Si20  1  0.922294  0.289669  0.939868  1
  Si  Si21  1  0.715154  0.078476  0.560685  1
  Si  Si22  1  0.212197  0.422650  0.190427  1
  Si  Si23  1  0.791189  0.578374  0.688165  1
  Si  Si24  1  0.424823  0.212444  0.810957  1
  Si  Si25  1  0.573553  0.787543  0.308416  1
  Si  Si26  1  0.283962  0.921128  0.062033  1
  Si  Si27  1  0.834427  0.805045  0.797650  1
  Si  Si28  1  0.163962  0.199157  0.301168  1
  Si  Si29  1  0.798521  0.832827  0.196464  1
  Si  Si30  1  0.311662  0.668343  0.549548  1
  Si  Si31  1  0.697116  0.335260  0.049032  1
  Si  Si32  1  0.668112  0.305191  0.452637  1
  Si  Si33  1  0.329663  0.694798  0.952312  1
  Si  Si34  1  0.200371  0.167666  0.700332  1
  Pd  Pd35  1  0.072864  0.710537  0.437825  1
