# generated using pymatgen
data_EuHo(Ga2Ag)2
_symmetry_space_group_name_H-M   'P 1'
_cell_length_a   4.43903900
_cell_length_b   7.12366699
_cell_length_c   10.42827757
_cell_angle_alpha   91.26039683
_cell_angle_beta   90.00000000
_cell_angle_gamma   90.00000000
_symmetry_Int_Tables_number   1
_chemical_formula_structural   EuHo(Ga2Ag)2
_chemical_formula_sum   'Eu2 Ho2 Ga8 Ag4'
_cell_volume   329.68566407
_cell_formula_units_Z   2
loop_
 _symmetry_equiv_pos_site_id
 _symmetry_equiv_pos_as_xyz
  1  'x, y, z'
loop_
 _atom_site_type_symbol
 _atom_site_label
 _atom_site_symmetry_multiplicity
 _atom_site_fract_x
 _atom_site_fract_y
 _atom_site_fract_z
 _atom_site_occupancy
  Eu  Eu0  1  0.750000  0.717775  0.326507  1
  Eu  Eu1  1  0.250000  0.282225  0.673493  1
  Ho  Ho2  1  0.250000  0.781208  0.831755  1
  Ho  Ho3  1  0.750000  0.218792  0.168245  1
  Ga  Ga4  1  0.250000  0.708302  0.538470  1
  Ga  Ga5  1  0.750000  0.291698  0.461530  1
  Ga  Ga6  1  0.750000  0.802435  0.033630  1
  Ga  Ga7  1  0.250000  0.197565  0.966370  1
  Ga  Ga8  1  0.250000  0.926621  0.150937  1
  Ga  Ga9  1  0.750000  0.073379  0.849063  1
  Ga  Ga10  1  0.750000  0.581475  0.654052  1
  Ga  Ga11  1  0.250000  0.418525  0.345948  1
  Ag  Ag12  1  0.250000  0.540872  0.095283  1
  Ag  Ag13  1  0.750000  0.459128  0.904717  1
  Ag  Ag14  1  0.750000  0.958040  0.600556  1
  Ag  Ag15  1  0.250000  0.041960  0.399444  1
