# generated using pymatgen
data_Lu5TcMoC7
_symmetry_space_group_name_H-M   'P 1'
_cell_length_a   8.18631797
_cell_length_b   8.18631760
_cell_length_c   3.36073900
_cell_angle_alpha   90.00000000
_cell_angle_beta   90.00000000
_cell_angle_gamma   121.61691306
_symmetry_Int_Tables_number   1
_chemical_formula_structural   Lu5TcMoC7
_chemical_formula_sum   'Lu5 Tc1 Mo1 C7'
_cell_volume   191.79331750
_cell_formula_units_Z   1
loop_
 _symmetry_equiv_pos_site_id
 _symmetry_equiv_pos_as_xyz
  1  'x, y, z'
loop_
 _atom_site_type_symbol
 _atom_site_label
 _atom_site_symmetry_multiplicity
 _atom_site_fract_x
 _atom_site_fract_y
 _atom_site_fract_z
 _atom_site_occupancy
  Lu  Lu0  1  0.338824  0.080122  0.500000  1
  Lu  Lu1  1  0.663760  0.922669  0.500000  1
  Lu  Lu2  1  0.077331  0.336240  0.500000  1
  Lu  Lu3  1  0.919878  0.661176  0.500000  1
  Lu  Lu4  1  0.501373  0.498627  0.000000  1
  Tc  Tc5  1  0.713737  0.286263  0.000000  1
  Mo  Mo6  1  0.285750  0.714250  0.000000  1
  C  C7  1  0.169272  0.170289  0.000000  1
  C  C8  1  0.829711  0.830728  0.000000  1
  C  C9  1  0.999813  0.000187  0.000000  1
  C  C10  1  0.379212  0.620788  0.500000  1
  C  C11  1  0.622703  0.377297  0.500000  1
  C  C12  1  0.499544  0.000907  0.000000  1
  C  C13  1  0.999093  0.500456  0.000000  1
