# generated using pymatgen
data_KRb3(MnN2)4
_symmetry_space_group_name_H-M   'P 1'
_cell_length_a   6.75707676
_cell_length_b   6.75707579
_cell_length_c   7.91079815
_cell_angle_alpha   90.72586063
_cell_angle_beta   89.27413903
_cell_angle_gamma   129.73226708
_symmetry_Int_Tables_number   1
_chemical_formula_structural   KRb3(MnN2)4
_chemical_formula_sum   'K1 Rb3 Mn4 N8'
_cell_volume   277.74367794
_cell_formula_units_Z   1
loop_
 _symmetry_equiv_pos_site_id
 _symmetry_equiv_pos_as_xyz
  1  'x, y, z'
loop_
 _atom_site_type_symbol
 _atom_site_label
 _atom_site_symmetry_multiplicity
 _atom_site_fract_x
 _atom_site_fract_y
 _atom_site_fract_z
 _atom_site_occupancy
  K  K0  1  0.346539  0.653461  0.944978  1
  Rb  Rb1  1  0.835191  0.164809  0.562959  1
  Rb  Rb2  1  0.162891  0.837109  0.438135  1
  Rb  Rb3  1  0.664409  0.335591  0.057485  1
  Mn  Mn4  1  0.538083  0.461917  0.634817  1
  Mn  Mn5  1  0.459161  0.540839  0.365153  1
  Mn  Mn6  1  0.960193  0.039807  0.135742  1
  Mn  Mn7  1  0.039363  0.960637  0.863528  1
  N  N8  1  0.900743  0.099257  0.926017  1
  N  N9  1  0.099190  0.900810  0.072376  1
  N  N10  1  0.597641  0.402359  0.423180  1
  N  N11  1  0.399595  0.600405  0.578397  1
  N  N12  1  0.322337  0.178341  0.748221  1
  N  N13  1  0.176859  0.323853  0.250396  1
  N  N14  1  0.676147  0.823141  0.250396  1
  N  N15  1  0.821659  0.677663  0.748221  1
