# generated using pymatgen
data_Tb2Mo3P7Ru2Rh7
_symmetry_space_group_name_H-M   'P 1'
_cell_length_a   3.94693368
_cell_length_b   9.50805225
_cell_length_c   9.50798579
_cell_angle_alpha   119.76614268
_cell_angle_beta   89.99782023
_cell_angle_gamma   90.00401463
_symmetry_Int_Tables_number   1
_chemical_formula_structural   Tb2Mo3P7Ru2Rh7
_chemical_formula_sum   'Tb2 Mo3 P7 Ru2 Rh7'
_cell_volume   309.73418646
_cell_formula_units_Z   1
loop_
 _symmetry_equiv_pos_site_id
 _symmetry_equiv_pos_as_xyz
  1  'x, y, z'
loop_
 _atom_site_type_symbol
 _atom_site_label
 _atom_site_symmetry_multiplicity
 _atom_site_fract_x
 _atom_site_fract_y
 _atom_site_fract_z
 _atom_site_occupancy
  Tb  Tb0  1  0.261844  0.668151  0.332950  1
  Tb  Tb1  1  0.762043  0.333264  0.666510  1
  Mo  Mo2  1  0.761882  0.092970  0.874453  1
  Mo  Mo3  1  0.761851  0.125248  0.217303  1
  Mo  Mo4  1  0.761886  0.782870  0.906966  1
  P  P5  1  0.261944  0.997075  0.998504  1
  P  P6  1  0.761900  0.881530  0.598448  1
  P  P7  1  0.761840  0.403693  0.286875  1
  P  P8  1  0.761870  0.716616  0.119695  1
  P  P9  1  0.261921  0.115596  0.410733  1
  P  P10  1  0.261972  0.588574  0.704364  1
  P  P11  1  0.261937  0.295305  0.882221  1
  Ru  Ru12  1  0.261760  0.884909  0.159771  1
  Ru  Ru13  1  0.261802  0.840103  0.725695  1
  Rh  Rh14  1  0.261882  0.273822  0.113654  1
  Rh  Rh15  1  0.761910  0.610547  0.558152  1
  Rh  Rh16  1  0.761971  0.442786  0.054816  1
  Rh  Rh17  1  0.761924  0.946469  0.389528  1
  Rh  Rh18  1  0.261906  0.368774  0.436332  1
  Rh  Rh19  1  0.261978  0.562570  0.931699  1
  Rh  Rh20  1  0.261977  0.069127  0.631334  1
