# generated using pymatgen
data_Tb9NdIn4(HgPd)4
_symmetry_space_group_name_H-M   'P 1'
_cell_length_a   8.04452191
_cell_length_b   18.51527534
_cell_length_c   3.66428700
_cell_angle_alpha   90.00000000
_cell_angle_beta   90.00000000
_cell_angle_gamma   90.07873395
_symmetry_Int_Tables_number   1
_chemical_formula_structural   Tb9NdIn4(HgPd)4
_chemical_formula_sum   'Tb9 Nd1 In4 Hg4 Pd4'
_cell_volume   545.78234824
_cell_formula_units_Z   1
loop_
 _symmetry_equiv_pos_site_id
 _symmetry_equiv_pos_as_xyz
  1  'x, y, z'
loop_
 _atom_site_type_symbol
 _atom_site_label
 _atom_site_symmetry_multiplicity
 _atom_site_fract_x
 _atom_site_fract_y
 _atom_site_fract_z
 _atom_site_occupancy
  Tb  Tb0  1  0.000000  0.000000  0.000000  1
  Tb  Tb1  1  0.745091  0.282769  0.000000  1
  Tb  Tb2  1  0.254909  0.717231  0.000000  1
  Tb  Tb3  1  0.755221  0.783918  0.000000  1
  Tb  Tb4  1  0.244779  0.216082  0.000000  1
  Tb  Tb5  1  0.610011  0.083212  0.000000  1
  Tb  Tb6  1  0.389989  0.916788  0.000000  1
  Tb  Tb7  1  0.887704  0.583873  0.000000  1
  Tb  Tb8  1  0.112296  0.416127  0.000000  1
  Nd  Nd9  1  0.500000  0.500000  0.000000  1
  In  In10  1  0.578509  0.651869  0.500000  1
  In  In11  1  0.421491  0.348131  0.500000  1
  In  In12  1  0.921706  0.149421  0.500000  1
  In  In13  1  0.078294  0.850579  0.500000  1
  Hg  Hg14  1  0.712883  0.932291  0.500000  1
  Hg  Hg15  1  0.287117  0.067709  0.500000  1
  Hg  Hg16  1  0.792069  0.430461  0.500000  1
  Hg  Hg17  1  0.207931  0.569539  0.500000  1
  Pd  Pd18  1  0.531872  0.196901  0.500000  1
  Pd  Pd19  1  0.468128  0.803099  0.500000  1
  Pd  Pd20  1  0.967770  0.698035  0.500000  1
  Pd  Pd21  1  0.032230  0.301965  0.500000  1
