# generated using pymatgen
data_Hf3ZnAu2C
_symmetry_space_group_name_H-M   'P 1'
_cell_length_a   8.72314100
_cell_length_b   8.72314094
_cell_length_c   8.72314200
_cell_angle_alpha   60.00000357
_cell_angle_beta   60.00000381
_cell_angle_gamma   60.00000230
_symmetry_Int_Tables_number   1
_chemical_formula_structural   Hf3ZnAu2C
_chemical_formula_sum   'Hf12 Zn4 Au8 C4'
_cell_volume   469.35749592
_cell_formula_units_Z   4
loop_
 _symmetry_equiv_pos_site_id
 _symmetry_equiv_pos_as_xyz
  1  'x, y, z'
loop_
 _atom_site_type_symbol
 _atom_site_label
 _atom_site_symmetry_multiplicity
 _atom_site_fract_x
 _atom_site_fract_y
 _atom_site_fract_z
 _atom_site_occupancy
  Hf  Hf0  1  0.437120  0.437120  0.062880  1
  Hf  Hf1  1  0.062880  0.437120  0.062880  1
  Hf  Hf2  1  0.437120  0.062880  0.062880  1
  Hf  Hf3  1  0.062880  0.062880  0.437120  1
  Hf  Hf4  1  0.437120  0.062880  0.437120  1
  Hf  Hf5  1  0.062880  0.437120  0.437120  1
  Hf  Hf6  1  0.812880  0.812880  0.187120  1
  Hf  Hf7  1  0.187120  0.812880  0.187120  1
  Hf  Hf8  1  0.812880  0.187120  0.187120  1
  Hf  Hf9  1  0.187120  0.187120  0.812880  1
  Hf  Hf10  1  0.812880  0.187120  0.812880  1
  Hf  Hf11  1  0.187120  0.812880  0.812880  1
  Zn  Zn12  1  0.625000  0.625000  0.125000  1
  Zn  Zn13  1  0.625000  0.125000  0.625000  1
  Zn  Zn14  1  0.125000  0.625000  0.625000  1
  Zn  Zn15  1  0.625000  0.625000  0.625000  1
  Au  Au16  1  0.838524  0.838524  0.484429  1
  Au  Au17  1  0.838524  0.484429  0.838524  1
  Au  Au18  1  0.484429  0.838524  0.838524  1
  Au  Au19  1  0.838524  0.838524  0.838524  1
  Au  Au20  1  0.411476  0.411476  0.765571  1
  Au  Au21  1  0.411476  0.765571  0.411476  1
  Au  Au22  1  0.765571  0.411476  0.411476  1
  Au  Au23  1  0.411476  0.411476  0.411476  1
  C  C24  1  0.125000  0.125000  0.625000  1
  C  C25  1  0.125000  0.625000  0.125000  1
  C  C26  1  0.625000  0.125000  0.125000  1
  C  C27  1  0.125000  0.125000  0.125000  1
