# generated using pymatgen
data_TbYbRe4(SiC)2
_symmetry_space_group_name_H-M   'P 1'
_cell_length_a   5.76423933
_cell_length_b   5.76423934
_cell_length_c   7.34482600
_cell_angle_alpha   90.00000000
_cell_angle_beta   90.00000000
_cell_angle_gamma   40.36065381
_symmetry_Int_Tables_number   1
_chemical_formula_structural   TbYbRe4(SiC)2
_chemical_formula_sum   'Tb1 Yb1 Re4 Si2 C2'
_cell_volume   158.04115868
_cell_formula_units_Z   1
loop_
 _symmetry_equiv_pos_site_id
 _symmetry_equiv_pos_as_xyz
  1  'x, y, z'
loop_
 _atom_site_type_symbol
 _atom_site_label
 _atom_site_symmetry_multiplicity
 _atom_site_fract_x
 _atom_site_fract_y
 _atom_site_fract_z
 _atom_site_occupancy
  Tb  Tb0  1  0.959254  0.959254  0.750000  1
  Yb  Yb1  1  0.041361  0.041361  0.250000  1
  Re  Re2  1  0.675000  0.675000  0.559531  1
  Re  Re3  1  0.326100  0.326100  0.062039  1
  Re  Re4  1  0.326100  0.326100  0.437961  1
  Re  Re5  1  0.675000  0.675000  0.940468  1
  Si  Si6  1  0.763952  0.763952  0.250000  1
  Si  Si7  1  0.232747  0.232747  0.750000  1
  C  C8  1  0.500243  0.500243  0.998519  1
  C  C9  1  0.500243  0.500243  0.501481  1
