# generated using pymatgen
data_TbY(Ho2Os)2
_symmetry_space_group_name_H-M   'P 1'
_cell_length_a   6.31803500
_cell_length_b   7.38811800
_cell_length_c   9.05393800
_cell_angle_alpha   90.00000000
_cell_angle_beta   90.00000000
_cell_angle_gamma   90.00000000
_symmetry_Int_Tables_number   1
_chemical_formula_structural   TbY(Ho2Os)2
_chemical_formula_sum   'Tb2 Y2 Ho8 Os4'
_cell_volume   422.62323187
_cell_formula_units_Z   2
loop_
 _symmetry_equiv_pos_site_id
 _symmetry_equiv_pos_as_xyz
  1  'x, y, z'
loop_
 _atom_site_type_symbol
 _atom_site_label
 _atom_site_symmetry_multiplicity
 _atom_site_fract_x
 _atom_site_fract_y
 _atom_site_fract_z
 _atom_site_occupancy
  Tb  Tb0  1  0.130200  0.461257  0.750000  1
  Tb  Tb1  1  0.369800  0.961257  0.750000  1
  Y  Y2  1  0.870468  0.538186  0.250000  1
  Y  Y3  1  0.629532  0.038186  0.250000  1
  Ho  Ho4  1  0.331291  0.675527  0.062750  1
  Ho  Ho5  1  0.168709  0.175527  0.437250  1
  Ho  Ho6  1  0.668401  0.324490  0.563221  1
  Ho  Ho7  1  0.831599  0.824490  0.936779  1
  Ho  Ho8  1  0.668401  0.324490  0.936779  1
  Ho  Ho9  1  0.831599  0.824490  0.563221  1
  Ho  Ho10  1  0.331291  0.675527  0.437250  1
  Ho  Ho11  1  0.168709  0.175527  0.062750  1
  Os  Os12  1  0.043622  0.884305  0.250000  1
  Os  Os13  1  0.456378  0.384305  0.250000  1
  Os  Os14  1  0.959208  0.116220  0.750000  1
  Os  Os15  1  0.540792  0.616220  0.750000  1
