# generated using pymatgen
data_Pr17Dy3(BiPb)8
_symmetry_space_group_name_H-M   'P 1'
_cell_length_a   8.49315200
_cell_length_b   16.25062300
_cell_length_c   8.56842800
_cell_angle_alpha   90.00000000
_cell_angle_beta   89.87259951
_cell_angle_gamma   90.00000000
_symmetry_Int_Tables_number   1
_chemical_formula_structural   Pr17Dy3(BiPb)8
_chemical_formula_sum   'Pr17 Dy3 Bi8 Pb8'
_cell_volume   1182.60303630
_cell_formula_units_Z   1
loop_
 _symmetry_equiv_pos_site_id
 _symmetry_equiv_pos_as_xyz
  1  'x, y, z'
loop_
 _atom_site_type_symbol
 _atom_site_label
 _atom_site_symmetry_multiplicity
 _atom_site_fract_x
 _atom_site_fract_y
 _atom_site_fract_z
 _atom_site_occupancy
  Pr  Pr0  1  0.620761  0.619504  0.159071  1
  Pr  Pr1  1  0.121033  0.879847  0.340369  1
  Pr  Pr2  1  0.377960  0.119990  0.841949  1
  Pr  Pr3  1  0.878537  0.378291  0.659400  1
  Pr  Pr4  1  0.377960  0.380010  0.841949  1
  Pr  Pr5  1  0.878537  0.121709  0.659400  1
  Pr  Pr6  1  0.620761  0.880496  0.159071  1
  Pr  Pr7  1  0.121033  0.620153  0.340369  1
  Pr  Pr8  1  0.458240  0.603995  0.673833  1
  Pr  Pr9  1  0.957841  0.896022  0.824154  1
  Pr  Pr10  1  0.543119  0.105304  0.326968  1
  Pr  Pr11  1  0.042323  0.396206  0.174664  1
  Pr  Pr12  1  0.543119  0.394696  0.326968  1
  Pr  Pr13  1  0.042323  0.103794  0.174664  1
  Pr  Pr14  1  0.458240  0.896005  0.673833  1
  Pr  Pr15  1  0.957841  0.603978  0.824154  1
  Pr  Pr16  1  0.791704  0.750000  0.504660  1
  Dy  Dy17  1  0.290115  0.750000  0.996265  1
  Dy  Dy18  1  0.209972  0.250000  0.495762  1
  Dy  Dy19  1  0.709840  0.250000  0.005019  1
  Bi  Bi20  1  0.724296  0.450774  0.975895  1
  Bi  Bi21  1  0.224029  0.048822  0.524636  1
  Bi  Bi22  1  0.275426  0.950834  0.023218  1
  Bi  Bi23  1  0.775333  0.544963  0.473585  1
  Bi  Bi24  1  0.275426  0.549166  0.023218  1
  Bi  Bi25  1  0.775333  0.955037  0.473585  1
  Bi  Bi26  1  0.724296  0.049226  0.975895  1
  Bi  Bi27  1  0.224029  0.451178  0.524636  1
  Pb  Pb28  1  0.423716  0.750000  0.370993  1
  Pb  Pb29  1  0.927433  0.750000  0.123569  1
  Pb  Pb30  1  0.571695  0.250000  0.628072  1
  Pb  Pb31  1  0.073381  0.250000  0.874565  1
  Pb  Pb32  1  0.647113  0.750000  0.855841  1
  Pb  Pb33  1  0.154964  0.750000  0.650192  1
  Pb  Pb34  1  0.350430  0.250000  0.149199  1
  Pb  Pb35  1  0.851843  0.250000  0.350381  1
