# generated using pymatgen
data_Ca3SmTaV3O12
_symmetry_space_group_name_H-M   'P 1'
_cell_length_a   5.44918959
_cell_length_b   5.62384851
_cell_length_c   7.77550772
_cell_angle_alpha   89.65131429
_cell_angle_beta   89.89590663
_cell_angle_gamma   90.59662337
_symmetry_Int_Tables_number   1
_chemical_formula_structural   Ca3SmTaV3O12
_chemical_formula_sum   'Ca3 Sm1 Ta1 V3 O12'
_cell_volume   238.26592245
_cell_formula_units_Z   1
loop_
 _symmetry_equiv_pos_site_id
 _symmetry_equiv_pos_as_xyz
  1  'x, y, z'
loop_
 _atom_site_type_symbol
 _atom_site_label
 _atom_site_symmetry_multiplicity
 _atom_site_fract_x
 _atom_site_fract_y
 _atom_site_fract_z
 _atom_site_occupancy
  Ca  Ca0  1  0.485209  0.442035  0.260880  1
  Ca  Ca1  1  0.516092  0.556873  0.742513  1
  Ca  Ca2  1  0.004624  0.957858  0.260006  1
  Sm  Sm3  1  0.993406  0.052470  0.741109  1
  Ta  Ta4  1  0.001794  0.501494  0.004212  1
  V  V5  1  0.499579  0.999618  0.496570  1
  V  V6  1  0.002588  0.503655  0.499647  1
  V  V7  1  0.500060  0.999296  0.001825  1
  O  O8  1  0.906020  0.526820  0.248520  1
  O  O9  1  0.408661  0.971270  0.750101  1
  O  O10  1  0.584191  0.029944  0.249147  1
  O  O11  1  0.092965  0.474166  0.750879  1
  O  O12  1  0.709005  0.295723  0.945236  1
  O  O13  1  0.188074  0.204852  0.044100  1
  O  O14  1  0.797762  0.795054  0.546267  1
  O  O15  1  0.276765  0.694601  0.456240  1
  O  O16  1  0.725691  0.302553  0.546550  1
  O  O17  1  0.199131  0.204439  0.461452  1
  O  O18  1  0.299073  0.695517  0.047984  1
  O  O19  1  0.809312  0.791763  0.946761  1
