# generated using pymatgen
data_Dy5BeMoP11Ir18
_symmetry_space_group_name_H-M   'P 1'
_cell_length_a   12.65696040
_cell_length_b   12.76582687
_cell_length_c   3.97764200
_cell_angle_alpha   90.00000000
_cell_angle_beta   90.00000000
_cell_angle_gamma   120.74029389
_symmetry_Int_Tables_number   1
_chemical_formula_structural   Dy5BeMoP11Ir18
_chemical_formula_sum   'Dy5 Be1 Mo1 P11 Ir18'
_cell_volume   552.39077276
_cell_formula_units_Z   1
loop_
 _symmetry_equiv_pos_site_id
 _symmetry_equiv_pos_as_xyz
  1  'x, y, z'
loop_
 _atom_site_type_symbol
 _atom_site_label
 _atom_site_symmetry_multiplicity
 _atom_site_fract_x
 _atom_site_fract_y
 _atom_site_fract_z
 _atom_site_occupancy
  Dy  Dy0  1  0.339498  0.664643  0.500000  1
  Dy  Dy1  1  0.670384  0.334985  0.500000  1
  Dy  Dy2  1  0.998722  0.813897  0.000000  1
  Dy  Dy3  1  0.183696  0.186094  0.000000  1
  Dy  Dy4  1  0.811953  0.996927  0.000000  1
  Be  Be5  1  0.517723  0.687559  0.000000  1
  Mo  Mo6  1  0.999984  0.451282  0.500000  1
  P  P7  1  0.001131  0.636698  0.500000  1
  P  P8  1  0.359061  0.362072  0.500000  1
  P  P9  1  0.638610  0.992675  0.500000  1
  P  P10  1  0.316500  0.830482  0.000000  1
  P  P11  1  0.168409  0.484103  0.000000  1
  P  P12  1  0.484314  0.177786  0.000000  1
  P  P13  1  0.691127  0.517897  0.000000  1
  P  P14  1  0.833513  0.317368  0.000000  1
  P  P15  1  0.996851  0.172458  0.500000  1
  P  P16  1  0.817004  0.818092  0.500000  1
  P  P17  1  0.179797  0.000733  0.500000  1
  Ir  Ir18  1  0.513956  0.874587  0.000000  1
  Ir  Ir19  1  0.133560  0.641499  0.000000  1
  Ir  Ir20  1  0.353389  0.487573  0.000000  1
  Ir  Ir21  1  0.491749  0.366843  0.000000  1
  Ir  Ir22  1  0.872601  0.512224  0.000000  1
  Ir  Ir23  1  0.640277  0.138695  0.000000  1
  Ir  Ir24  1  0.537612  0.550996  0.500000  1
  Ir  Ir25  1  0.461738  0.999983  0.500000  1
  Ir  Ir26  1  0.997633  0.285071  0.000000  1
  Ir  Ir27  1  0.710420  0.709802  0.000000  1
  Ir  Ir28  1  0.285994  0.000454  0.000000  1
  Ir  Ir29  1  0.623723  0.803129  0.500000  1
  Ir  Ir30  1  0.196732  0.821609  0.500000  1
  Ir  Ir31  1  0.176379  0.369901  0.500000  1
  Ir  Ir32  1  0.378528  0.184282  0.500000  1
  Ir  Ir33  1  0.801321  0.622306  0.500000  1
  Ir  Ir34  1  0.816564  0.188998  0.500000  1
  Ir  Ir35  1  0.999550  0.996300  0.500000  1
