# generated using pymatgen
data_La3Pr17Ir12
_symmetry_space_group_name_H-M   'P 1'
_cell_length_a   11.33329559
_cell_length_b   11.35172562
_cell_length_c   6.64368991
_cell_angle_alpha   89.98188059
_cell_angle_beta   89.91512078
_cell_angle_gamma   90.05859484
_symmetry_Int_Tables_number   1
_chemical_formula_structural   La3Pr17Ir12
_chemical_formula_sum   'La3 Pr17 Ir12'
_cell_volume   854.72563515
_cell_formula_units_Z   1
loop_
 _symmetry_equiv_pos_site_id
 _symmetry_equiv_pos_as_xyz
  1  'x, y, z'
loop_
 _atom_site_type_symbol
 _atom_site_label
 _atom_site_symmetry_multiplicity
 _atom_site_fract_x
 _atom_site_fract_y
 _atom_site_fract_z
 _atom_site_occupancy
  La  La0  1  0.292165  0.091152  0.383807  1
  La  La1  1  0.291812  0.908784  0.883727  1
  La  La2  1  0.707963  0.090622  0.883845  1
  Pr  Pr3  1  0.708250  0.909217  0.382609  1
  Pr  Pr4  1  0.590684  0.790811  0.882197  1
  Pr  Pr5  1  0.590262  0.208917  0.382298  1
  Pr  Pr6  1  0.410674  0.790765  0.382295  1
  Pr  Pr7  1  0.409838  0.209686  0.882061  1
  Pr  Pr8  1  0.207998  0.410321  0.617888  1
  Pr  Pr9  1  0.207954  0.589601  0.117939  1
  Pr  Pr10  1  0.791977  0.410435  0.117845  1
  Pr  Pr11  1  0.791914  0.589981  0.617375  1
  Pr  Pr12  1  0.909622  0.708117  0.117480  1
  Pr  Pr13  1  0.910031  0.292246  0.616787  1
  Pr  Pr14  1  0.089782  0.707713  0.617259  1
  Pr  Pr15  1  0.089892  0.292239  0.117075  1
  Pr  Pr16  1  0.999452  0.999652  0.499328  1
  Pr  Pr17  1  0.999805  0.000089  0.000018  1
  Pr  Pr18  1  0.499996  0.499948  0.000330  1
  Pr  Pr19  1  0.500196  0.500004  0.500457  1
  Ir  Ir20  1  0.845497  0.153188  0.248884  1
  Ir  Ir21  1  0.846166  0.846444  0.749738  1
  Ir  Ir22  1  0.154436  0.153410  0.748585  1
  Ir  Ir23  1  0.154503  0.846629  0.248708  1
  Ir  Ir24  1  0.653704  0.346064  0.750095  1
  Ir  Ir25  1  0.653544  0.653576  0.249830  1
  Ir  Ir26  1  0.346274  0.346105  0.250399  1
  Ir  Ir27  1  0.346364  0.654083  0.750138  1
  Ir  Ir28  1  0.499377  0.000311  0.116433  1
  Ir  Ir29  1  0.499793  0.999951  0.617813  1
  Ir  Ir30  1  0.000087  0.499805  0.883316  1
  Ir  Ir31  1  0.999988  0.500133  0.383439  1
