# generated using pymatgen
data_Er11ThTc3Pt
_symmetry_space_group_name_H-M   'P 1'
_cell_length_a   6.29143944
_cell_length_b   7.31583755
_cell_length_c   9.16482700
_cell_angle_alpha   90.00000000
_cell_angle_beta   90.00000000
_cell_angle_gamma   90.40591474
_symmetry_Int_Tables_number   1
_chemical_formula_structural   Er11ThTc3Pt
_chemical_formula_sum   'Er11 Th1 Tc3 Pt1'
_cell_volume   421.82027084
_cell_formula_units_Z   1
loop_
 _symmetry_equiv_pos_site_id
 _symmetry_equiv_pos_as_xyz
  1  'x, y, z'
loop_
 _atom_site_type_symbol
 _atom_site_label
 _atom_site_symmetry_multiplicity
 _atom_site_fract_x
 _atom_site_fract_y
 _atom_site_fract_z
 _atom_site_occupancy
  Er  Er0  1  0.330420  0.678742  0.066093  1
  Er  Er1  1  0.167862  0.177514  0.437504  1
  Er  Er2  1  0.669136  0.315213  0.561881  1
  Er  Er3  1  0.834391  0.828983  0.937706  1
  Er  Er4  1  0.669136  0.315213  0.938119  1
  Er  Er5  1  0.834391  0.828983  0.562294  1
  Er  Er6  1  0.330420  0.678742  0.433907  1
  Er  Er7  1  0.167862  0.177514  0.062496  1
  Er  Er8  1  0.623479  0.040115  0.250000  1
  Er  Er9  1  0.129318  0.458082  0.750000  1
  Er  Er10  1  0.372003  0.964170  0.750000  1
  Th  Th11  1  0.863266  0.547198  0.250000  1
  Tc  Tc12  1  0.025963  0.874668  0.250000  1
  Tc  Tc13  1  0.478239  0.389171  0.250000  1
  Tc  Tc14  1  0.958666  0.112749  0.750000  1
  Pt  Pt15  1  0.545447  0.612946  0.750000  1
