# generated using pymatgen
data_Ca2GaSiRu2
_symmetry_space_group_name_H-M   'P 1'
_cell_length_a   4.38362500
_cell_length_b   4.38362500
_cell_length_c   6.57942300
_cell_angle_alpha   90.00000000
_cell_angle_beta   90.00000000
_cell_angle_gamma   90.00000000
_symmetry_Int_Tables_number   1
_chemical_formula_structural   Ca2GaSiRu2
_chemical_formula_sum   'Ca2 Ga1 Si1 Ru2'
_cell_volume   126.43129864
_cell_formula_units_Z   1
loop_
 _symmetry_equiv_pos_site_id
 _symmetry_equiv_pos_as_xyz
  1  'x, y, z'
loop_
 _atom_site_type_symbol
 _atom_site_label
 _atom_site_symmetry_multiplicity
 _atom_site_fract_x
 _atom_site_fract_y
 _atom_site_fract_z
 _atom_site_occupancy
  Ca  Ca0  1  0.000000  0.500000  0.316839  1
  Ca  Ca1  1  0.500000  0.000000  0.684845  1
  Ga  Ga2  1  0.000000  0.500000  0.820904  1
  Si  Si3  1  0.500000  0.000000  0.159982  1
  Ru  Ru4  1  0.000000  0.000000  0.008715  1
  Ru  Ru5  1  0.500000  0.500000  0.008715  1
