# generated using pymatgen
data_U(CoB3)2
_symmetry_space_group_name_H-M   'P 1'
_cell_length_a   5.38044750
_cell_length_b   5.38050701
_cell_length_c   5.38050726
_cell_angle_alpha   146.29415327
_cell_angle_beta   110.25262752
_cell_angle_gamma   79.74346700
_symmetry_Int_Tables_number   1
_chemical_formula_structural   U(CoB3)2
_chemical_formula_sum   'U1 Co2 B6'
_cell_volume   79.26574461
_cell_formula_units_Z   1
loop_
 _symmetry_equiv_pos_site_id
 _symmetry_equiv_pos_as_xyz
  1  'x, y, z'
loop_
 _atom_site_type_symbol
 _atom_site_label
 _atom_site_symmetry_multiplicity
 _atom_site_fract_x
 _atom_site_fract_y
 _atom_site_fract_z
 _atom_site_occupancy
  U  U0  1  0.500000  0.000000  0.500000  1
  Co  Co1  1  0.847197  0.847197  0.000001  1
  Co  Co2  1  0.152803  0.152803  0.999999  1
  B  B3  1  0.853048  0.500001  0.353048  1
  B  B4  1  0.146952  0.499999  0.646952  1
  B  B5  1  0.955892  0.695898  0.259995  1
  B  B6  1  0.044108  0.304102  0.740005  1
  B  B7  1  0.564096  0.304102  0.259994  1
  B  B8  1  0.435904  0.695898  0.740006  1
