# generated using pymatgen
data_Zn2Pd3(PtO4)3
_symmetry_space_group_name_H-M   'P 1'
_cell_length_a   3.19906200
_cell_length_b   7.20767302
_cell_length_c   10.05987322
_cell_angle_alpha   89.98373538
_cell_angle_beta   90.00000000
_cell_angle_gamma   90.00000000
_symmetry_Int_Tables_number   1
_chemical_formula_structural   Zn2Pd3(PtO4)3
_chemical_formula_sum   'Zn2 Pd3 Pt3 O12'
_cell_volume   231.95846365
_cell_formula_units_Z   1
loop_
 _symmetry_equiv_pos_site_id
 _symmetry_equiv_pos_as_xyz
  1  'x, y, z'
loop_
 _atom_site_type_symbol
 _atom_site_label
 _atom_site_symmetry_multiplicity
 _atom_site_fract_x
 _atom_site_fract_y
 _atom_site_fract_z
 _atom_site_occupancy
  Zn  Zn0  1  0.000000  0.004274  0.001937  1
  Zn  Zn1  1  0.000000  0.495522  0.497710  1
  Pd  Pd2  1  0.000000  0.000944  0.499322  1
  Pd  Pd3  1  0.000000  0.499153  0.000685  1
  Pd  Pd4  1  0.500000  0.246728  0.248504  1
  Pt  Pt5  1  0.500000  0.753072  0.751426  1
  Pt  Pt6  1  0.500000  0.253123  0.748591  1
  Pt  Pt7  1  0.500000  0.747036  0.251515  1
  O  O8  1  0.500000  0.995264  0.149521  1
  O  O9  1  0.500000  0.003185  0.850844  1
  O  O10  1  0.500000  0.503436  0.649310  1
  O  O11  1  0.500000  0.498102  0.350588  1
  O  O12  1  0.000000  0.207281  0.371235  1
  O  O13  1  0.000000  0.792918  0.630143  1
  O  O14  1  0.000000  0.290775  0.870398  1
  O  O15  1  0.000000  0.707769  0.129986  1
  O  O16  1  0.000000  0.286622  0.124729  1
  O  O17  1  0.000000  0.713259  0.873877  1
  O  O18  1  0.000000  0.215272  0.625886  1
  O  O19  1  0.000000  0.786267  0.373795  1
