# generated using pymatgen
data_LaYSc3Pt4
_symmetry_space_group_name_H-M   'P 1'
_cell_length_a   7.44607700
_cell_length_b   7.42121900
_cell_length_c   14.07904400
_cell_angle_alpha   90.00000000
_cell_angle_beta   90.00000000
_cell_angle_gamma   90.00000000
_symmetry_Int_Tables_number   1
_chemical_formula_structural   LaYSc3Pt4
_chemical_formula_sum   'La4 Y4 Sc12 Pt16'
_cell_volume   777.99344339
_cell_formula_units_Z   4
loop_
 _symmetry_equiv_pos_site_id
 _symmetry_equiv_pos_as_xyz
  1  'x, y, z'
loop_
 _atom_site_type_symbol
 _atom_site_label
 _atom_site_symmetry_multiplicity
 _atom_site_fract_x
 _atom_site_fract_y
 _atom_site_fract_z
 _atom_site_occupancy
  La  La0  1  0.003860  0.825780  0.407101  1
  La  La1  1  0.503860  0.674220  0.092899  1
  La  La2  1  0.496140  0.325780  0.592899  1
  La  La3  1  0.996140  0.174220  0.907101  1
  Y  Y4  1  0.997038  0.176328  0.598037  1
  Y  Y5  1  0.497038  0.323672  0.901963  1
  Y  Y6  1  0.502962  0.676328  0.401963  1
  Y  Y7  1  0.002962  0.823672  0.098037  1
  Sc  Sc8  1  0.677816  0.002316  0.249960  1
  Sc  Sc9  1  0.177816  0.497684  0.250040  1
  Sc  Sc10  1  0.822184  0.502316  0.750040  1
  Sc  Sc11  1  0.322184  0.997684  0.749960  1
  Sc  Sc12  1  0.654040  0.832851  0.623445  1
  Sc  Sc13  1  0.154040  0.667149  0.876555  1
  Sc  Sc14  1  0.845960  0.332851  0.376555  1
  Sc  Sc15  1  0.345960  0.167149  0.123445  1
  Sc  Sc16  1  0.344100  0.164484  0.372515  1
  Sc  Sc17  1  0.844100  0.335516  0.127485  1
  Sc  Sc18  1  0.155900  0.664484  0.627485  1
  Sc  Sc19  1  0.655900  0.835516  0.872515  1
  Pt  Pt20  1  0.811280  0.638653  0.250672  1
  Pt  Pt21  1  0.311280  0.861347  0.249328  1
  Pt  Pt22  1  0.688720  0.138653  0.749328  1
  Pt  Pt23  1  0.188720  0.361347  0.750672  1
  Pt  Pt24  1  0.543631  0.369498  0.252560  1
  Pt  Pt25  1  0.043631  0.130502  0.247440  1
  Pt  Pt26  1  0.956369  0.869498  0.747440  1
  Pt  Pt27  1  0.456369  0.630502  0.752560  1
  Pt  Pt28  1  0.826837  0.543842  0.542792  1
  Pt  Pt29  1  0.326837  0.956158  0.957208  1
  Pt  Pt30  1  0.673163  0.043842  0.457208  1
  Pt  Pt31  1  0.173163  0.456158  0.042792  1
  Pt  Pt32  1  0.177556  0.451614  0.457065  1
  Pt  Pt33  1  0.677556  0.048386  0.042935  1
  Pt  Pt34  1  0.322444  0.951614  0.542935  1
  Pt  Pt35  1  0.822444  0.548386  0.957065  1
