# generated using pymatgen
data_BaNd3(ZnSn)4
_symmetry_space_group_name_H-M   'P 1'
_cell_length_a   4.62053000
_cell_length_b   4.62052969
_cell_length_c   17.34890000
_cell_angle_alpha   90.00000000
_cell_angle_beta   90.00000000
_cell_angle_gamma   120.00000223
_symmetry_Int_Tables_number   1
_chemical_formula_structural   BaNd3(ZnSn)4
_chemical_formula_sum   'Ba1 Nd3 Zn4 Sn4'
_cell_volume   320.76437269
_cell_formula_units_Z   1
loop_
 _symmetry_equiv_pos_site_id
 _symmetry_equiv_pos_as_xyz
  1  'x, y, z'
loop_
 _atom_site_type_symbol
 _atom_site_label
 _atom_site_symmetry_multiplicity
 _atom_site_fract_x
 _atom_site_fract_y
 _atom_site_fract_z
 _atom_site_occupancy
  Ba  Ba0  1  0.000000  0.000000  0.500000  1
  Nd  Nd1  1  0.000000  0.000000  0.000000  1
  Nd  Nd2  1  0.000000  0.000000  0.239223  1
  Nd  Nd3  1  0.000000  0.000000  0.760777  1
  Zn  Zn4  1  0.333333  0.666667  0.325296  1
  Zn  Zn5  1  0.666667  0.333333  0.674704  1
  Zn  Zn6  1  0.666667  0.333333  0.848340  1
  Zn  Zn7  1  0.333333  0.666667  0.151660  1
  Sn  Sn8  1  0.333333  0.666667  0.891195  1
  Sn  Sn9  1  0.666667  0.333333  0.108805  1
  Sn  Sn10  1  0.666667  0.333333  0.363521  1
  Sn  Sn11  1  0.333333  0.666667  0.636479  1
