# generated using pymatgen
data_BeNb10SiSn4
_symmetry_space_group_name_H-M   'P 1'
_cell_length_a   7.97865146
_cell_length_b   7.97860596
_cell_length_c   7.97865066
_cell_angle_alpha   95.86741458
_cell_angle_beta   95.86692803
_cell_angle_gamma   142.70818491
_symmetry_Int_Tables_number   1
_chemical_formula_structural   BeNb10SiSn4
_chemical_formula_sum   'Be1 Nb10 Si1 Sn4'
_cell_volume   291.57650611
_cell_formula_units_Z   1
loop_
 _symmetry_equiv_pos_site_id
 _symmetry_equiv_pos_as_xyz
  1  'x, y, z'
loop_
 _atom_site_type_symbol
 _atom_site_label
 _atom_site_symmetry_multiplicity
 _atom_site_fract_x
 _atom_site_fract_y
 _atom_site_fract_z
 _atom_site_occupancy
  Be  Be0  1  0.249997  0.250000  0.999997  1
  Nb  Nb1  1  0.426430  0.288514  0.724463  1
  Nb  Nb2  1  0.211483  0.073569  0.275537  1
  Nb  Nb3  1  0.564057  0.701968  0.275537  1
  Nb  Nb4  1  0.249999  0.750000  0.499999  1
  Nb  Nb5  1  0.288516  0.564053  0.862086  1
  Nb  Nb6  1  0.701968  0.426431  0.137914  1
  Nb  Nb7  1  0.750000  0.250000  0.500000  1
  Nb  Nb8  1  0.935950  0.211486  0.137916  1
  Nb  Nb9  1  0.798034  0.935947  0.724463  1
  Nb  Nb10  1  0.073569  0.798032  0.862089  1
  Si  Si11  1  0.749997  0.750000  0.999997  1
  Sn  Sn12  1  0.168562  0.331441  0.500000  1
  Sn  Sn13  1  0.668559  0.168559  0.837121  1
  Sn  Sn14  1  0.831440  0.668562  0.500001  1
  Sn  Sn15  1  0.331439  0.831438  0.162878  1
