# generated using pymatgen
data_Tb3PrPtBr6
_symmetry_space_group_name_H-M   'P 1'
_cell_length_a   4.09485200
_cell_length_b   13.65648407
_cell_length_c   14.37451100
_cell_angle_alpha   88.96198909
_cell_angle_beta   90.00000000
_cell_angle_gamma   90.00000000
_symmetry_Int_Tables_number   1
_chemical_formula_structural   Tb3PrPtBr6
_chemical_formula_sum   'Tb6 Pr2 Pt2 Br12'
_cell_volume   803.70915768
_cell_formula_units_Z   2
loop_
 _symmetry_equiv_pos_site_id
 _symmetry_equiv_pos_as_xyz
  1  'x, y, z'
loop_
 _atom_site_type_symbol
 _atom_site_label
 _atom_site_symmetry_multiplicity
 _atom_site_fract_x
 _atom_site_fract_y
 _atom_site_fract_z
 _atom_site_occupancy
  Tb  Tb0  1  0.500000  0.122522  0.335499  1
  Tb  Tb1  1  0.500000  0.877478  0.664501  1
  Tb  Tb2  1  0.500000  0.618228  0.159718  1
  Tb  Tb3  1  0.500000  0.381772  0.840282  1
  Tb  Tb4  1  0.000000  0.611308  0.924529  1
  Tb  Tb5  1  0.000000  0.388692  0.075471  1
  Pr  Pr6  1  0.000000  0.116759  0.578333  1
  Pr  Pr7  1  0.000000  0.883241  0.421667  1
  Pt  Pt8  1  0.500000  0.000000  0.500000  1
  Pt  Pt9  1  0.500000  0.500000  0.000000  1
  Br  Br10  1  0.500000  0.247725  0.164303  1
  Br  Br11  1  0.500000  0.752275  0.835697  1
  Br  Br12  1  0.500000  0.736637  0.329785  1
  Br  Br13  1  0.500000  0.263363  0.670215  1
  Br  Br14  1  0.000000  0.255925  0.402395  1
  Br  Br15  1  0.000000  0.744075  0.597605  1
  Br  Br16  1  0.000000  0.752063  0.087278  1
  Br  Br17  1  0.000000  0.247937  0.912722  1
  Br  Br18  1  0.000000  0.011763  0.238406  1
  Br  Br19  1  0.000000  0.988237  0.761594  1
  Br  Br20  1  0.000000  0.501440  0.255249  1
  Br  Br21  1  0.000000  0.498560  0.744751  1
