# generated using pymatgen
data_YTm3Al15(GaIr2)3
_symmetry_space_group_name_H-M   'P 1'
_cell_length_a   7.51787004
_cell_length_b   7.51988362
_cell_length_c   9.49882100
_cell_angle_alpha   90.00000000
_cell_angle_beta   90.00000000
_cell_angle_gamma   119.45169867
_symmetry_Int_Tables_number   1
_chemical_formula_structural   YTm3Al15(GaIr2)3
_chemical_formula_sum   'Y1 Tm3 Al15 Ga3 Ir6'
_cell_volume   467.60521773
_cell_formula_units_Z   1
loop_
 _symmetry_equiv_pos_site_id
 _symmetry_equiv_pos_as_xyz
  1  'x, y, z'
loop_
 _atom_site_type_symbol
 _atom_site_label
 _atom_site_symmetry_multiplicity
 _atom_site_fract_x
 _atom_site_fract_y
 _atom_site_fract_z
 _atom_site_occupancy
  Y  Y0  1  0.997638  0.674582  0.250000  1
  Tm  Tm1  1  0.005704  0.325853  0.750000  1
  Tm  Tm2  1  0.670585  0.991435  0.250000  1
  Tm  Tm3  1  0.324929  0.003614  0.750000  1
  Al  Al4  1  0.001097  0.334854  0.072586  1
  Al  Al5  1  0.998762  0.664299  0.925565  1
  Al  Al6  1  0.998762  0.664299  0.574435  1
  Al  Al7  1  0.336414  0.002989  0.427175  1
  Al  Al8  1  0.001097  0.334854  0.427414  1
  Al  Al9  1  0.664482  0.999553  0.573700  1
  Al  Al10  1  0.664482  0.999553  0.926300  1
  Al  Al11  1  0.336414  0.002989  0.072825  1
  Al  Al12  1  0.333850  0.333827  0.557533  1
  Al  Al13  1  0.665927  0.666072  0.447273  1
  Al  Al14  1  0.665927  0.666072  0.052727  1
  Al  Al15  1  0.333850  0.333827  0.942467  1
  Al  Al16  1  0.662499  0.449875  0.750000  1
  Al  Al17  1  0.549913  0.338602  0.250000  1
  Al  Al18  1  0.450653  0.662587  0.750000  1
  Ga  Ga19  1  0.131381  0.132581  0.250000  1
  Ga  Ga20  1  0.865816  0.865750  0.750000  1
  Ga  Ga21  1  0.339824  0.546777  0.250000  1
  Ir  Ir22  1  0.671405  0.328674  0.000024  1
  Ir  Ir23  1  0.328327  0.672894  0.997551  1
  Ir  Ir24  1  0.328327  0.672894  0.502449  1
  Ir  Ir25  1  0.671405  0.328674  0.499976  1
  Ir  Ir26  1  0.000265  0.001011  0.999564  1
  Ir  Ir27  1  0.000265  0.001011  0.500436  1
