# generated using pymatgen
data_Li3Ca2AsN4
_symmetry_space_group_name_H-M   'P 1'
_cell_length_a   5.76811071
_cell_length_b   5.76811039
_cell_length_c   10.61820851
_cell_angle_alpha   61.34522252
_cell_angle_beta   61.34522577
_cell_angle_gamma   55.46635099
_symmetry_Int_Tables_number   1
_chemical_formula_structural   Li3Ca2AsN4
_chemical_formula_sum   'Li6 Ca4 As2 N8'
_cell_volume   244.61851069
_cell_formula_units_Z   2
loop_
 _symmetry_equiv_pos_site_id
 _symmetry_equiv_pos_as_xyz
  1  'x, y, z'
loop_
 _atom_site_type_symbol
 _atom_site_label
 _atom_site_symmetry_multiplicity
 _atom_site_fract_x
 _atom_site_fract_y
 _atom_site_fract_z
 _atom_site_occupancy
  Li  Li0  1  0.343705  0.656295  0.250000  1
  Li  Li1  1  0.656295  0.343705  0.750000  1
  Li  Li2  1  0.560711  0.009950  0.090942  1
  Li  Li3  1  0.990050  0.439289  0.409058  1
  Li  Li4  1  0.009950  0.560711  0.590942  1
  Li  Li5  1  0.439289  0.990050  0.909058  1
  Ca  Ca6  1  0.133727  0.577949  0.082121  1
  Ca  Ca7  1  0.866273  0.422051  0.917879  1
  Ca  Ca8  1  0.422051  0.866273  0.417879  1
  Ca  Ca9  1  0.577949  0.133727  0.582121  1
  As  As10  1  0.834689  0.165311  0.250000  1
  As  As11  1  0.165311  0.834689  0.750000  1
  N  N12  1  0.101490  0.169621  0.593733  1
  N  N13  1  0.729672  0.475110  0.308965  1
  N  N14  1  0.270328  0.524890  0.691035  1
  N  N15  1  0.524890  0.270328  0.191035  1
  N  N16  1  0.169621  0.101490  0.093733  1
  N  N17  1  0.475110  0.729672  0.808965  1
  N  N18  1  0.898510  0.830379  0.406267  1
  N  N19  1  0.830379  0.898510  0.906267  1
