# generated using pymatgen
data_LiAs(PS3)2
_symmetry_space_group_name_H-M   'P 1'
_cell_length_a   6.41935016
_cell_length_b   6.41935105
_cell_length_c   12.68348378
_cell_angle_alpha   87.66277232
_cell_angle_beta   87.66276843
_cell_angle_gamma   113.74365923
_symmetry_Int_Tables_number   1
_chemical_formula_structural   LiAs(PS3)2
_chemical_formula_sum   'Li2 As2 P4 S12'
_cell_volume   477.08779600
_cell_formula_units_Z   2
loop_
 _symmetry_equiv_pos_site_id
 _symmetry_equiv_pos_as_xyz
  1  'x, y, z'
loop_
 _atom_site_type_symbol
 _atom_site_label
 _atom_site_symmetry_multiplicity
 _atom_site_fract_x
 _atom_site_fract_y
 _atom_site_fract_z
 _atom_site_occupancy
  Li  Li0  1  0.845353  0.154647  0.250000  1
  Li  Li1  1  0.154647  0.845353  0.750000  1
  As  As2  1  0.481996  0.518004  0.250000  1
  As  As3  1  0.518004  0.481996  0.750000  1
  P  P4  1  0.014926  0.689768  0.221759  1
  P  P5  1  0.310232  0.985074  0.278241  1
  P  P6  1  0.985074  0.310232  0.778241  1
  P  P7  1  0.689768  0.014926  0.721759  1
  S  S8  1  0.826225  0.811788  0.132524  1
  S  S9  1  0.188212  0.173775  0.367476  1
  S  S10  1  0.173775  0.188212  0.867476  1
  S  S11  1  0.811788  0.826225  0.632524  1
  S  S12  1  0.826208  0.506485  0.353019  1
  S  S13  1  0.493515  0.173792  0.146981  1
  S  S14  1  0.173792  0.493515  0.646981  1
  S  S15  1  0.506485  0.826208  0.853019  1
  S  S16  1  0.165959  0.523733  0.132951  1
  S  S17  1  0.476267  0.834041  0.367049  1
  S  S18  1  0.834041  0.476267  0.867049  1
  S  S19  1  0.523733  0.165959  0.632951  1
