# generated using pymatgen
data_Lu3Te4
_symmetry_space_group_name_H-M   'P 1'
_cell_length_a   4.24634200
_cell_length_b   7.37705325
_cell_length_c   7.35196980
_cell_angle_alpha   71.97326245
_cell_angle_beta   90.00000000
_cell_angle_gamma   90.00000000
_symmetry_Int_Tables_number   1
_chemical_formula_structural   Lu3Te4
_chemical_formula_sum   'Lu3 Te4'
_cell_volume   218.99894606
_cell_formula_units_Z   1
loop_
 _symmetry_equiv_pos_site_id
 _symmetry_equiv_pos_as_xyz
  1  'x, y, z'
loop_
 _atom_site_type_symbol
 _atom_site_label
 _atom_site_symmetry_multiplicity
 _atom_site_fract_x
 _atom_site_fract_y
 _atom_site_fract_z
 _atom_site_occupancy
  Lu  Lu0  1  0.000000  0.500000  0.500000  1
  Lu  Lu1  1  0.000000  0.000000  0.000000  1
  Lu  Lu2  1  0.500000  0.500000  0.000000  1
  Te  Te3  1  0.500000  0.757437  0.256955  1
  Te  Te4  1  0.000000  0.248558  0.250768  1
  Te  Te5  1  0.500000  0.242563  0.743045  1
  Te  Te6  1  0.000000  0.751442  0.749232  1
