# generated using pymatgen
data_Li4LaPr(YSi3)2
_symmetry_space_group_name_H-M   'P 1'
_cell_length_a   9.40708303
_cell_length_b   9.40708298
_cell_length_c   6.86166000
_cell_angle_alpha   90.00000000
_cell_angle_beta   90.00000000
_cell_angle_gamma   153.17762182
_symmetry_Int_Tables_number   1
_chemical_formula_structural   Li4LaPr(YSi3)2
_chemical_formula_sum   'Li4 La1 Pr1 Y2 Si6'
_cell_volume   273.98916231
_cell_formula_units_Z   1
loop_
 _symmetry_equiv_pos_site_id
 _symmetry_equiv_pos_as_xyz
  1  'x, y, z'
loop_
 _atom_site_type_symbol
 _atom_site_label
 _atom_site_symmetry_multiplicity
 _atom_site_fract_x
 _atom_site_fract_y
 _atom_site_fract_z
 _atom_site_occupancy
  Li  Li0  1  0.190888  0.809112  0.058769  1
  Li  Li1  1  0.190888  0.809112  0.441231  1
  Li  Li2  1  0.809389  0.190611  0.940282  1
  Li  Li3  1  0.809389  0.190611  0.559718  1
  La  La4  1  0.554088  0.445912  0.250000  1
  Pr  Pr5  1  0.445710  0.554290  0.750000  1
  Y  Y6  1  0.344346  0.655654  0.250000  1
  Y  Y7  1  0.655462  0.344538  0.750000  1
  Si  Si8  1  0.724070  0.275930  0.250000  1
  Si  Si9  1  0.276805  0.723195  0.750000  1
  Si  Si10  1  0.058761  0.941239  0.923433  1
  Si  Si11  1  0.940722  0.059278  0.075740  1
  Si  Si12  1  0.940722  0.059278  0.424260  1
  Si  Si13  1  0.058761  0.941239  0.576567  1
