# generated using pymatgen
data_La10Pb6I
_symmetry_space_group_name_H-M   'P 1'
_cell_length_a   9.81387500
_cell_length_b   9.81387470
_cell_length_c   7.13833900
_cell_angle_alpha   90.00000000
_cell_angle_beta   90.00000000
_cell_angle_gamma   119.99999765
_symmetry_Int_Tables_number   1
_chemical_formula_structural   La10Pb6I
_chemical_formula_sum   'La10 Pb6 I1'
_cell_volume   595.40001535
_cell_formula_units_Z   1
loop_
 _symmetry_equiv_pos_site_id
 _symmetry_equiv_pos_as_xyz
  1  'x, y, z'
loop_
 _atom_site_type_symbol
 _atom_site_label
 _atom_site_symmetry_multiplicity
 _atom_site_fract_x
 _atom_site_fract_y
 _atom_site_fract_z
 _atom_site_occupancy
  La  La0  1  0.333333  0.666667  0.500000  1
  La  La1  1  0.666667  0.333333  0.500000  1
  La  La2  1  0.666667  0.333333  0.000000  1
  La  La3  1  0.333333  0.666667  0.000000  1
  La  La4  1  0.000000  0.739400  0.230378  1
  La  La5  1  0.260600  0.260600  0.230378  1
  La  La6  1  0.739400  0.000000  0.230378  1
  La  La7  1  0.000000  0.260600  0.769622  1
  La  La8  1  0.739400  0.739400  0.769622  1
  La  La9  1  0.260600  0.000000  0.769622  1
  Pb  Pb10  1  0.000000  0.388160  0.247775  1
  Pb  Pb11  1  0.611840  0.611840  0.247775  1
  Pb  Pb12  1  0.388160  0.000000  0.247775  1
  Pb  Pb13  1  0.000000  0.611840  0.752225  1
  Pb  Pb14  1  0.388160  0.388160  0.752225  1
  Pb  Pb15  1  0.611840  0.000000  0.752225  1
  I  I16  1  0.000000  0.000000  0.500000  1
