# generated using pymatgen
data_Np4Ga12Rh
_symmetry_space_group_name_H-M   'P 1'
_cell_length_a   7.47489134
_cell_length_b   7.47483910
_cell_length_c   7.47483400
_cell_angle_alpha   109.47120554
_cell_angle_beta   109.47161489
_cell_angle_gamma   109.47165019
_symmetry_Int_Tables_number   1
_chemical_formula_structural   Np4Ga12Rh
_chemical_formula_sum   'Np4 Ga12 Rh1'
_cell_volume   321.50080129
_cell_formula_units_Z   1
loop_
 _symmetry_equiv_pos_site_id
 _symmetry_equiv_pos_as_xyz
  1  'x, y, z'
loop_
 _atom_site_type_symbol
 _atom_site_label
 _atom_site_symmetry_multiplicity
 _atom_site_fract_x
 _atom_site_fract_y
 _atom_site_fract_z
 _atom_site_occupancy
  Np  Np0  1  0.499999  0.000000  0.000000  1
  Np  Np1  1  0.000000  0.499999  0.000000  1
  Np  Np2  1  0.000000  0.000000  0.499999  1
  Np  Np3  1  0.499999  0.499999  0.499999  1
  Ga  Ga4  1  0.290652  0.290649  0.000000  1
  Ga  Ga5  1  0.709347  0.709350  0.000000  1
  Ga  Ga6  1  0.749999  0.499999  0.250000  1
  Ga  Ga7  1  0.500003  0.750001  0.250002  1
  Ga  Ga8  1  0.290649  0.000000  0.290651  1
  Ga  Ga9  1  0.000001  0.290652  0.290649  1
  Ga  Ga10  1  0.750001  0.250002  0.500003  1
  Ga  Ga11  1  0.249998  0.749997  0.499995  1
  Ga  Ga12  1  0.709350  0.000000  0.709348  1
  Ga  Ga13  1  0.999999  0.709347  0.709350  1
  Ga  Ga14  1  0.499995  0.249998  0.749997  1
  Ga  Ga15  1  0.250000  0.499999  0.749999  1
  Rh  Rh16  1  0.000000  0.000000  0.000000  1
