# generated using pymatgen
data_Tb9Er5(Lu3Pb8)2
_symmetry_space_group_name_H-M   'P 1'
_cell_length_a   8.15674312
_cell_length_b   8.24089713
_cell_length_c   15.56478914
_cell_angle_alpha   90.00221863
_cell_angle_beta   89.99314021
_cell_angle_gamma   90.01814833
_symmetry_Int_Tables_number   1
_chemical_formula_structural   Tb9Er5(Lu3Pb8)2
_chemical_formula_sum   'Tb9 Er5 Lu6 Pb16'
_cell_volume   1046.24764787
_cell_formula_units_Z   1
loop_
 _symmetry_equiv_pos_site_id
 _symmetry_equiv_pos_as_xyz
  1  'x, y, z'
loop_
 _atom_site_type_symbol
 _atom_site_label
 _atom_site_symmetry_multiplicity
 _atom_site_fract_x
 _atom_site_fract_y
 _atom_site_fract_z
 _atom_site_occupancy
  Tb  Tb0  1  0.875150  0.657443  0.878637  1
  Tb  Tb1  1  0.533777  0.323259  0.901227  1
  Tb  Tb2  1  0.033922  0.176619  0.598755  1
  Tb  Tb3  1  0.465930  0.676872  0.401825  1
  Tb  Tb4  1  0.965977  0.823243  0.098362  1
  Tb  Tb5  1  0.468527  0.678627  0.096863  1
  Tb  Tb6  1  0.968416  0.821326  0.403114  1
  Tb  Tb7  1  0.533010  0.324739  0.599576  1
  Tb  Tb8  1  0.033040  0.175106  0.900386  1
  Er  Er9  1  0.627062  0.157143  0.379942  1
  Er  Er10  1  0.126971  0.342902  0.120018  1
  Er  Er11  1  0.625016  0.158774  0.121756  1
  Er  Er12  1  0.125052  0.341198  0.378337  1
  Er  Er13  1  0.375130  0.842713  0.621460  1
  Lu  Lu14  1  0.372377  0.843873  0.876219  1
  Lu  Lu15  1  0.872399  0.656034  0.623701  1
  Lu  Lu16  1  0.206228  0.505673  0.749844  1
  Lu  Lu17  1  0.705920  0.994434  0.749917  1
  Lu  Lu18  1  0.794059  0.494630  0.250757  1
  Lu  Lu19  1  0.294035  0.005292  0.249281  1
  Pb  Pb20  1  0.284584  0.034135  0.041869  1
  Pb  Pb21  1  0.784620  0.465875  0.458153  1
  Pb  Pb22  1  0.717847  0.962093  0.544335  1
  Pb  Pb23  1  0.218959  0.537639  0.955788  1
  Pb  Pb24  1  0.711464  0.964695  0.956266  1
  Pb  Pb25  1  0.212010  0.536350  0.543924  1
  Pb  Pb26  1  0.284710  0.034966  0.456217  1
  Pb  Pb27  1  0.784464  0.464507  0.044394  1
  Pb  Pb28  1  0.567776  0.626742  0.750198  1
  Pb  Pb29  1  0.068817  0.873593  0.749102  1
  Pb  Pb30  1  0.431099  0.374635  0.250650  1
  Pb  Pb31  1  0.931154  0.125328  0.249369  1
  Pb  Pb32  1  0.346000  0.155804  0.750093  1
  Pb  Pb33  1  0.846005  0.343664  0.749671  1
  Pb  Pb34  1  0.654251  0.844681  0.250191  1
  Pb  Pb35  1  0.154236  0.655393  0.249801  1
