# generated using pymatgen
data_Tm6FeCo16P12Ru
_symmetry_space_group_name_H-M   'P 1'
_cell_length_a   3.67464700
_cell_length_b   10.47251000
_cell_length_c   12.14482300
_cell_angle_alpha   90.00000000
_cell_angle_beta   90.00000000
_cell_angle_gamma   90.00000000
_symmetry_Int_Tables_number   1
_chemical_formula_structural   Tm6FeCo16P12Ru
_chemical_formula_sum   'Tm6 Fe1 Co16 P12 Ru1'
_cell_volume   467.36652073
_cell_formula_units_Z   1
loop_
 _symmetry_equiv_pos_site_id
 _symmetry_equiv_pos_as_xyz
  1  'x, y, z'
loop_
 _atom_site_type_symbol
 _atom_site_label
 _atom_site_symmetry_multiplicity
 _atom_site_fract_x
 _atom_site_fract_y
 _atom_site_fract_z
 _atom_site_occupancy
  Tm  Tm0  1  0.000000  0.500000  0.523012  1
  Tm  Tm1  1  0.500000  0.000000  0.474689  1
  Tm  Tm2  1  0.500000  0.817500  0.206125  1
  Tm  Tm3  1  0.500000  0.182500  0.206125  1
  Tm  Tm4  1  0.000000  0.682019  0.793585  1
  Tm  Tm5  1  0.000000  0.317981  0.793585  1
  Fe  Fe6  1  0.500000  0.500000  0.158658  1
  Co  Co7  1  0.500000  0.500000  0.703442  1
  Co  Co8  1  0.000000  0.000000  0.296745  1
  Co  Co9  1  0.000000  0.500000  0.986261  1
  Co  Co10  1  0.500000  0.000000  0.013494  1
  Co  Co11  1  0.500000  0.332991  0.993495  1
  Co  Co12  1  0.500000  0.667009  0.993495  1
  Co  Co13  1  0.000000  0.168047  0.009602  1
  Co  Co14  1  0.000000  0.831953  0.009602  1
  Co  Co15  1  0.500000  0.297192  0.431608  1
  Co  Co16  1  0.500000  0.702808  0.431608  1
  Co  Co17  1  0.000000  0.202512  0.569252  1
  Co  Co18  1  0.000000  0.797488  0.569252  1
  Co  Co19  1  0.500000  0.878618  0.707566  1
  Co  Co20  1  0.500000  0.121382  0.707566  1
  Co  Co21  1  0.000000  0.621726  0.291627  1
  Co  Co22  1  0.000000  0.378274  0.291627  1
  P  P23  1  0.500000  0.500000  0.881763  1
  P  P24  1  0.000000  0.000000  0.119092  1
  P  P25  1  0.500000  0.500000  0.345301  1
  P  P26  1  0.000000  0.000000  0.648091  1
  P  P27  1  0.500000  0.312729  0.616444  1
  P  P28  1  0.500000  0.687271  0.616444  1
  P  P29  1  0.000000  0.188176  0.383360  1
  P  P30  1  0.000000  0.811824  0.383360  1
  P  P31  1  0.500000  0.844635  0.893248  1
  P  P32  1  0.500000  0.155365  0.893248  1
  P  P33  1  0.000000  0.651469  0.108906  1
  P  P34  1  0.000000  0.348531  0.108906  1
  Ru  Ru35  1  0.000000  0.000000  0.839815  1
