# generated using pymatgen
data_Li4NdTh3Sn4
_symmetry_space_group_name_H-M   'P 1'
_cell_length_a   9.66021300
_cell_length_b   9.66021287
_cell_length_c   7.41659600
_cell_angle_alpha   90.00000000
_cell_angle_beta   90.00000000
_cell_angle_gamma   119.99999703
_symmetry_Int_Tables_number   1
_chemical_formula_structural   Li4NdTh3Sn4
_chemical_formula_sum   'Li8 Nd2 Th6 Sn8'
_cell_volume   599.38885864
_cell_formula_units_Z   2
loop_
 _symmetry_equiv_pos_site_id
 _symmetry_equiv_pos_as_xyz
  1  'x, y, z'
loop_
 _atom_site_type_symbol
 _atom_site_label
 _atom_site_symmetry_multiplicity
 _atom_site_fract_x
 _atom_site_fract_y
 _atom_site_fract_z
 _atom_site_occupancy
  Li  Li0  1  0.165472  0.330944  0.277264  1
  Li  Li1  1  0.165472  0.834528  0.277264  1
  Li  Li2  1  0.669056  0.834528  0.277264  1
  Li  Li3  1  0.834528  0.669056  0.777264  1
  Li  Li4  1  0.834528  0.165472  0.777264  1
  Li  Li5  1  0.330944  0.165472  0.777264  1
  Li  Li6  1  0.333333  0.666667  0.687420  1
  Li  Li7  1  0.666667  0.333333  0.187420  1
  Nd  Nd8  1  0.000000  0.000000  0.500797  1
  Nd  Nd9  1  0.000000  0.000000  0.000797  1
  Th  Th10  1  0.508372  0.016744  0.494147  1
  Th  Th11  1  0.508372  0.491628  0.494147  1
  Th  Th12  1  0.983256  0.491628  0.494147  1
  Th  Th13  1  0.491628  0.983256  0.994147  1
  Th  Th14  1  0.491628  0.508372  0.994147  1
  Th  Th15  1  0.016744  0.508372  0.994147  1
  Sn  Sn16  1  0.167374  0.334748  0.735358  1
  Sn  Sn17  1  0.167374  0.832626  0.735358  1
  Sn  Sn18  1  0.665252  0.832626  0.735358  1
  Sn  Sn19  1  0.832626  0.665252  0.235358  1
  Sn  Sn20  1  0.832626  0.167374  0.235358  1
  Sn  Sn21  1  0.334748  0.167374  0.235358  1
  Sn  Sn22  1  0.333333  0.666667  0.262462  1
  Sn  Sn23  1  0.666667  0.333333  0.762462  1
