# generated using pymatgen
data_Li2La4Pr12CdInIr4
_symmetry_space_group_name_H-M   'P 1'
_cell_length_a   10.08051513
_cell_length_b   10.08051459
_cell_length_c   10.05581800
_cell_angle_alpha   60.08101009
_cell_angle_beta   60.08101188
_cell_angle_gamma   60.16958106
_symmetry_Int_Tables_number   1
_chemical_formula_structural   Li2La4Pr12CdInIr4
_chemical_formula_sum   'Li2 La4 Pr12 Cd1 In1 Ir4'
_cell_volume   724.35824093
_cell_formula_units_Z   1
loop_
 _symmetry_equiv_pos_site_id
 _symmetry_equiv_pos_as_xyz
  1  'x, y, z'
loop_
 _atom_site_type_symbol
 _atom_site_label
 _atom_site_symmetry_multiplicity
 _atom_site_fract_x
 _atom_site_fract_y
 _atom_site_fract_z
 _atom_site_occupancy
  Li  Li0  1  0.571825  0.571673  0.576866  1
  Li  Li1  1  0.571825  0.571673  0.279636  1
  La  La2  1  0.347207  0.347502  0.347733  1
  La  La3  1  0.347207  0.347502  0.957557  1
  La  La4  1  0.346410  0.961417  0.346086  1
  La  La5  1  0.961308  0.346423  0.346134  1
  Pr  Pr6  1  0.812088  0.188229  0.189316  1
  Pr  Pr7  1  0.188160  0.812152  0.810719  1
  Pr  Pr8  1  0.188160  0.812152  0.188968  1
  Pr  Pr9  1  0.812088  0.188229  0.810366  1
  Pr  Pr10  1  0.191284  0.191171  0.808773  1
  Pr  Pr11  1  0.815948  0.815650  0.184201  1
  Pr  Pr12  1  0.937866  0.562592  0.562999  1
  Pr  Pr13  1  0.562555  0.937721  0.936648  1
  Pr  Pr14  1  0.562555  0.937721  0.563077  1
  Pr  Pr15  1  0.937866  0.562592  0.936543  1
  Pr  Pr16  1  0.563199  0.563167  0.936817  1
  Pr  Pr17  1  0.938177  0.937677  0.562073  1
  Cd  Cd18  1  0.257110  0.582678  0.580105  1
  In  In19  1  0.582596  0.257547  0.579927  1
  Ir  Ir20  1  0.143417  0.143236  0.141200  1
  Ir  Ir21  1  0.143417  0.143236  0.572146  1
  Ir  Ir22  1  0.144175  0.573936  0.140945  1
  Ir  Ir23  1  0.573550  0.144120  0.141165  1
