# generated using pymatgen
data_Dy4Ta2Ir5Os
_symmetry_space_group_name_H-M   'P 1'
_cell_length_a   5.64499206
_cell_length_b   5.64358440
_cell_length_c   8.25427000
_cell_angle_alpha   90.00000000
_cell_angle_beta   90.00000000
_cell_angle_gamma   119.99175754
_symmetry_Int_Tables_number   1
_chemical_formula_structural   Dy4Ta2Ir5Os
_chemical_formula_sum   'Dy4 Ta2 Ir5 Os1'
_cell_volume   227.75280119
_cell_formula_units_Z   1
loop_
 _symmetry_equiv_pos_site_id
 _symmetry_equiv_pos_as_xyz
  1  'x, y, z'
loop_
 _atom_site_type_symbol
 _atom_site_label
 _atom_site_symmetry_multiplicity
 _atom_site_fract_x
 _atom_site_fract_y
 _atom_site_fract_z
 _atom_site_occupancy
  Dy  Dy0  1  0.334911  0.667456  0.437514  1
  Dy  Dy1  1  0.666877  0.333438  0.562131  1
  Dy  Dy2  1  0.666877  0.333438  0.937869  1
  Dy  Dy3  1  0.334911  0.667456  0.062486  1
  Ta  Ta4  1  0.996664  0.998332  0.501966  1
  Ta  Ta5  1  0.996664  0.998332  0.998034  1
  Ir  Ir6  1  0.828657  0.172554  0.250000  1
  Ir  Ir7  1  0.828657  0.656101  0.250000  1
  Ir  Ir8  1  0.345128  0.172563  0.250000  1
  Ir  Ir9  1  0.173797  0.828317  0.750000  1
  Ir  Ir10  1  0.173797  0.345482  0.750000  1
  Os  Os11  1  0.653060  0.826531  0.750000  1
