# generated using pymatgen
data_Ho5Sc3Re11Si16Os
_symmetry_space_group_name_H-M   'P 1'
_cell_length_a   6.71543373
_cell_length_b   6.72046323
_cell_length_c   12.62757005
_cell_angle_alpha   90.38449422
_cell_angle_beta   89.94525246
_cell_angle_gamma   90.34641970
_symmetry_Int_Tables_number   1
_chemical_formula_structural   Ho5Sc3Re11Si16Os
_chemical_formula_sum   'Ho5 Sc3 Re11 Si16 Os1'
_cell_volume   569.86917283
_cell_formula_units_Z   1
loop_
 _symmetry_equiv_pos_site_id
 _symmetry_equiv_pos_as_xyz
  1  'x, y, z'
loop_
 _atom_site_type_symbol
 _atom_site_label
 _atom_site_symmetry_multiplicity
 _atom_site_fract_x
 _atom_site_fract_y
 _atom_site_fract_z
 _atom_site_occupancy
  Ho  Ho0  1  0.002892  0.660664  0.030309  1
  Ho  Ho1  1  0.997946  0.336698  0.530669  1
  Ho  Ho2  1  0.340365  0.993974  0.469263  1
  Ho  Ho3  1  0.166093  0.491695  0.782430  1
  Ho  Ho4  1  0.833727  0.507413  0.280002  1
  Sc  Sc5  1  0.487968  0.159063  0.217480  1
  Sc  Sc6  1  0.510040  0.841021  0.720763  1
  Sc  Sc7  1  0.656915  0.005591  0.971525  1
  Re  Re8  1  0.166159  0.839292  0.247710  1
  Re  Re9  1  0.334251  0.327402  0.001472  1
  Re  Re10  1  0.031342  0.810533  0.632654  1
  Re  Re11  1  0.971726  0.188983  0.130069  1
  Re  Re12  1  0.805364  0.025809  0.367713  1
  Re  Re13  1  0.315311  0.487341  0.379548  1
  Re  Re14  1  0.676373  0.514318  0.875557  1
  Re  Re15  1  0.492114  0.317768  0.624731  1
  Re  Re16  1  0.517511  0.691224  0.115564  1
  Re  Re17  1  0.191711  0.971963  0.866094  1
  Re  Re18  1  0.833628  0.159426  0.752802  1
  Si  Si19  1  0.020077  0.732693  0.438610  1
  Si  Si20  1  0.610755  0.308217  0.435435  1
  Si  Si21  1  0.386850  0.698064  0.933146  1
  Si  Si22  1  0.203739  0.113814  0.684030  1
  Si  Si23  1  0.313647  0.615031  0.567069  1
  Si  Si24  1  0.687111  0.380459  0.064616  1
  Si  Si25  1  0.798408  0.889615  0.181278  1
  Si  Si26  1  0.116528  0.197103  0.314988  1
  Si  Si27  1  0.972766  0.264713  0.937344  1
  Si  Si28  1  0.730651  0.018724  0.564726  1
  Si  Si29  1  0.227763  0.476651  0.187131  1
  Si  Si30  1  0.782816  0.528303  0.687795  1
  Si  Si31  1  0.478562  0.208743  0.815881  1
  Si  Si32  1  0.518051  0.781584  0.307210  1
  Si  Si33  1  0.274156  0.980078  0.061865  1
  Si  Si34  1  0.877020  0.806138  0.817979  1
  Os  Os35  1  0.669660  0.669896  0.504541  1
