# generated using pymatgen
data_DyV4Bi7O20
_symmetry_space_group_name_H-M   'P 1'
_cell_length_a   3.97257300
_cell_length_b   11.28189750
_cell_length_c   11.19703700
_cell_angle_alpha   89.98299698
_cell_angle_beta   90.00000000
_cell_angle_gamma   90.00000000
_symmetry_Int_Tables_number   1
_chemical_formula_structural   DyV4Bi7O20
_chemical_formula_sum   'Dy1 V4 Bi7 O20'
_cell_volume   501.83058920
_cell_formula_units_Z   1
loop_
 _symmetry_equiv_pos_site_id
 _symmetry_equiv_pos_as_xyz
  1  'x, y, z'
loop_
 _atom_site_type_symbol
 _atom_site_label
 _atom_site_symmetry_multiplicity
 _atom_site_fract_x
 _atom_site_fract_y
 _atom_site_fract_z
 _atom_site_occupancy
  Dy  Dy0  1  0.750000  0.136846  0.063544  1
  V  V1  1  0.250000  0.297741  0.881652  1
  V  V2  1  0.750000  0.702413  0.129889  1
  V  V3  1  0.250000  0.797144  0.634115  1
  V  V4  1  0.750000  0.203345  0.356061  1
  Bi  Bi5  1  0.750000  0.100242  0.735813  1
  Bi  Bi6  1  0.250000  0.903277  0.274159  1
  Bi  Bi7  1  0.750000  0.594697  0.780530  1
  Bi  Bi8  1  0.250000  0.403808  0.213636  1
  Bi  Bi9  1  0.250000  0.360843  0.546067  1
  Bi  Bi10  1  0.750000  0.635875  0.449871  1
  Bi  Bi11  1  0.250000  0.868906  0.946902  1
  O  O12  1  0.250000  0.445838  0.847517  1
  O  O13  1  0.750000  0.555074  0.168500  1
  O  O14  1  0.250000  0.943045  0.676515  1
  O  O15  1  0.750000  0.063426  0.292168  1
  O  O16  1  0.250000  0.200916  0.740747  1
  O  O17  1  0.750000  0.804106  0.266522  1
  O  O18  1  0.250000  0.693882  0.768405  1
  O  O19  1  0.750000  0.301396  0.218617  1
  O  O20  1  0.750000  0.249659  0.883585  1
  O  O21  1  0.250000  0.752666  0.127894  1
  O  O22  1  0.750000  0.748058  0.629227  1
  O  O23  1  0.250000  0.247950  0.361211  1
  O  O24  1  0.250000  0.999020  0.101693  1
  O  O25  1  0.750000  0.006973  0.907312  1
  O  O26  1  0.250000  0.489056  0.394700  1
  O  O27  1  0.750000  0.503663  0.602616  1
  O  O28  1  0.250000  0.239604  0.041866  1
  O  O29  1  0.750000  0.753646  0.969582  1
  O  O30  1  0.250000  0.744742  0.472609  1
  O  O31  1  0.750000  0.252142  0.516474  1
