# generated using pymatgen
data_Sr4Nd(BiO4)3
_symmetry_space_group_name_H-M   'P 1'
_cell_length_a   6.20631789
_cell_length_b   6.01334583
_cell_length_c   10.49352178
_cell_angle_alpha   55.15318377
_cell_angle_beta   89.79667865
_cell_angle_gamma   89.96134562
_symmetry_Int_Tables_number   1
_chemical_formula_structural   Sr4Nd(BiO4)3
_chemical_formula_sum   'Sr4 Nd1 Bi3 O12'
_cell_volume   321.39814829
_cell_formula_units_Z   1
loop_
 _symmetry_equiv_pos_site_id
 _symmetry_equiv_pos_as_xyz
  1  'x, y, z'
loop_
 _atom_site_type_symbol
 _atom_site_label
 _atom_site_symmetry_multiplicity
 _atom_site_fract_x
 _atom_site_fract_y
 _atom_site_fract_z
 _atom_site_occupancy
  Sr  Sr0  1  0.550174  0.264833  0.749964  1
  Sr  Sr1  1  0.050647  0.738909  0.747907  1
  Sr  Sr2  1  0.449826  0.735167  0.250036  1
  Sr  Sr3  1  0.949353  0.261091  0.252093  1
  Nd  Nd4  1  0.000000  0.000000  0.000000  1
  Bi  Bi5  1  0.500000  0.000000  0.500000  1
  Bi  Bi6  1  0.000000  0.500000  0.500000  1
  Bi  Bi7  1  0.500000  0.500000  0.000000  1
  O  O8  1  0.785849  0.371511  0.940933  1
  O  O9  1  0.287101  0.628668  0.560051  1
  O  O10  1  0.214151  0.628489  0.059067  1
  O  O11  1  0.712899  0.371332  0.439949  1
  O  O12  1  0.308139  0.265248  0.946830  1
  O  O13  1  0.806537  0.736389  0.553585  1
  O  O14  1  0.691861  0.734752  0.053170  1
  O  O15  1  0.193463  0.263611  0.446415  1
  O  O16  1  0.455553  0.845455  0.761170  1
  O  O17  1  0.955874  0.156646  0.737643  1
  O  O18  1  0.544447  0.154545  0.238830  1
  O  O19  1  0.044126  0.843354  0.262357  1
