# generated using pymatgen
data_Ho9Er(CoBi2)2
_symmetry_space_group_name_H-M   'P 1'
_cell_length_a   7.94880520
_cell_length_b   8.85507115
_cell_length_c   12.33794128
_cell_angle_alpha   89.98647655
_cell_angle_beta   90.02054285
_cell_angle_gamma   89.98427639
_symmetry_Int_Tables_number   1
_chemical_formula_structural   Ho9Er(CoBi2)2
_chemical_formula_sum   'Ho18 Er2 Co4 Bi8'
_cell_volume   868.43346710
_cell_formula_units_Z   2
loop_
 _symmetry_equiv_pos_site_id
 _symmetry_equiv_pos_as_xyz
  1  'x, y, z'
loop_
 _atom_site_type_symbol
 _atom_site_label
 _atom_site_symmetry_multiplicity
 _atom_site_fract_x
 _atom_site_fract_y
 _atom_site_fract_z
 _atom_site_occupancy
  Ho  Ho0  1  0.346076  0.749895  0.699700  1
  Ho  Ho1  1  0.653924  0.250105  0.300300  1
  Ho  Ho2  1  0.845864  0.250035  0.800144  1
  Ho  Ho3  1  0.154136  0.749965  0.199856  1
  Ho  Ho4  1  0.885346  0.750012  0.810813  1
  Ho  Ho5  1  0.114654  0.249988  0.189187  1
  Ho  Ho6  1  0.385460  0.250232  0.688945  1
  Ho  Ho7  1  0.614540  0.749768  0.311055  1
  Ho  Ho8  1  0.175444  0.461699  0.937019  1
  Ho  Ho9  1  0.324596  0.038248  0.437065  1
  Ho  Ho10  1  0.824556  0.538301  0.062981  1
  Ho  Ho11  1  0.675404  0.961752  0.562935  1
  Ho  Ho12  1  0.824549  0.961710  0.062961  1
  Ho  Ho13  1  0.175451  0.038290  0.937039  1
  Ho  Ho14  1  0.053046  0.749794  0.498070  1
  Ho  Ho15  1  0.946954  0.250206  0.501930  1
  Ho  Ho16  1  0.552894  0.250025  0.001885  1
  Ho  Ho17  1  0.447106  0.749975  0.998115  1
  Er  Er18  1  0.674404  0.538319  0.562803  1
  Er  Er19  1  0.325596  0.461681  0.437197  1
  Co  Co20  1  0.066883  0.750003  0.991615  1
  Co  Co21  1  0.933117  0.249997  0.008385  1
  Co  Co22  1  0.566695  0.250425  0.508278  1
  Co  Co23  1  0.433305  0.749575  0.491722  1
  Bi  Bi24  1  0.571801  0.509956  0.826452  1
  Bi  Bi25  1  0.428199  0.490044  0.173548  1
  Bi  Bi26  1  0.071378  0.490083  0.673358  1
  Bi  Bi27  1  0.428269  0.009942  0.173465  1
  Bi  Bi28  1  0.928622  0.509917  0.326642  1
  Bi  Bi29  1  0.571731  0.990058  0.826535  1
  Bi  Bi30  1  0.928287  0.990047  0.326564  1
  Bi  Bi31  1  0.071713  0.009953  0.673436  1
