# generated using pymatgen
data_Tb5Y(CoSn6)2
_symmetry_space_group_name_H-M   'P 1'
_cell_length_a   8.52013562
_cell_length_b   8.52013665
_cell_length_c   13.15749428
_cell_angle_alpha   89.99588466
_cell_angle_beta   90.00411465
_cell_angle_gamma   148.85811480
_symmetry_Int_Tables_number   1
_chemical_formula_structural   Tb5Y(CoSn6)2
_chemical_formula_sum   'Tb5 Y1 Co2 Sn12'
_cell_volume   493.95850865
_cell_formula_units_Z   1
loop_
 _symmetry_equiv_pos_site_id
 _symmetry_equiv_pos_as_xyz
  1  'x, y, z'
loop_
 _atom_site_type_symbol
 _atom_site_label
 _atom_site_symmetry_multiplicity
 _atom_site_fract_x
 _atom_site_fract_y
 _atom_site_fract_z
 _atom_site_occupancy
  Tb  Tb0  1  0.898790  0.101210  0.093067  1
  Tb  Tb1  1  0.101039  0.898961  0.593477  1
  Tb  Tb2  1  0.900164  0.099836  0.750930  1
  Tb  Tb3  1  0.100587  0.899413  0.907105  1
  Tb  Tb4  1  0.099963  0.900037  0.249686  1
  Y  Y5  1  0.899062  0.100938  0.406088  1
  Co  Co6  1  0.299712  0.700288  0.250188  1
  Co  Co7  1  0.700235  0.299765  0.749637  1
  Sn  Sn8  1  0.756237  0.243763  0.571831  1
  Sn  Sn9  1  0.428644  0.571356  0.576301  1
  Sn  Sn10  1  0.572283  0.427717  0.423564  1
  Sn  Sn11  1  0.734354  0.265646  0.249421  1
  Sn  Sn12  1  0.265489  0.734511  0.750342  1
  Sn  Sn13  1  0.244175  0.755825  0.071660  1
  Sn  Sn14  1  0.244403  0.755597  0.428351  1
  Sn  Sn15  1  0.571608  0.428392  0.076083  1
  Sn  Sn16  1  0.453593  0.546407  0.249568  1
  Sn  Sn17  1  0.546473  0.453527  0.750418  1
  Sn  Sn18  1  0.755486  0.244514  0.928078  1
  Sn  Sn19  1  0.427705  0.572295  0.924206  1
