# generated using pymatgen
data_Y6Ho2Sc12Si15Hg
_symmetry_space_group_name_H-M   'P 1'
_cell_length_a   7.13269923
_cell_length_b   7.39578591
_cell_length_c   14.08794924
_cell_angle_alpha   89.90650709
_cell_angle_beta   89.55606847
_cell_angle_gamma   90.15601914
_symmetry_Int_Tables_number   1
_chemical_formula_structural   Y6Ho2Sc12Si15Hg
_chemical_formula_sum   'Y6 Ho2 Sc12 Si15 Hg1'
_cell_volume   743.14024365
_cell_formula_units_Z   1
loop_
 _symmetry_equiv_pos_site_id
 _symmetry_equiv_pos_as_xyz
  1  'x, y, z'
loop_
 _atom_site_type_symbol
 _atom_site_label
 _atom_site_symmetry_multiplicity
 _atom_site_fract_x
 _atom_site_fract_y
 _atom_site_fract_z
 _atom_site_occupancy
  Y  Y0  1  0.011884  0.175423  0.097298  1
  Y  Y1  1  0.987665  0.825420  0.904316  1
  Y  Y2  1  0.487629  0.676647  0.903893  1
  Y  Y3  1  0.989047  0.831525  0.598279  1
  Y  Y4  1  0.511712  0.323834  0.096436  1
  Y  Y5  1  0.007422  0.170990  0.398258  1
  Ho  Ho6  1  0.511625  0.322055  0.398930  1
  Ho  Ho7  1  0.496402  0.681851  0.600406  1
  Sc  Sc8  1  0.162755  0.501164  0.754240  1
  Sc  Sc9  1  0.836737  0.498685  0.250084  1
  Sc  Sc10  1  0.337407  0.000737  0.248860  1
  Sc  Sc11  1  0.664920  0.996997  0.751608  1
  Sc  Sc12  1  0.342630  0.168228  0.628978  1
  Sc  Sc13  1  0.663928  0.824314  0.372941  1
  Sc  Sc14  1  0.166596  0.677856  0.370523  1
  Sc  Sc15  1  0.669255  0.823650  0.124413  1
  Sc  Sc16  1  0.825417  0.325176  0.626399  1
  Sc  Sc17  1  0.329110  0.175177  0.876023  1
  Sc  Sc18  1  0.830326  0.322799  0.876063  1
  Sc  Sc19  1  0.168798  0.676794  0.125087  1
  Si  Si20  1  0.035723  0.120866  0.751447  1
  Si  Si21  1  0.964008  0.883415  0.247872  1
  Si  Si22  1  0.466030  0.615380  0.248027  1
  Si  Si23  1  0.533840  0.385967  0.752036  1
  Si  Si24  1  0.285194  0.872221  0.751600  1
  Si  Si25  1  0.712200  0.127534  0.247981  1
  Si  Si26  1  0.213521  0.371603  0.248235  1
  Si  Si27  1  0.788595  0.627914  0.752527  1
  Si  Si28  1  0.832189  0.538317  0.459008  1
  Si  Si29  1  0.339083  0.962159  0.459985  1
  Si  Si30  1  0.843801  0.535518  0.038929  1
  Si  Si31  1  0.659866  0.037524  0.537553  1
  Si  Si32  1  0.156029  0.463918  0.962110  1
  Si  Si33  1  0.655906  0.035089  0.960517  1
  Si  Si34  1  0.343003  0.964756  0.039857  1
  Hg  Hg35  1  0.169749  0.458496  0.539283  1
