# generated using pymatgen
data_ScTi5FeCo9B4
_symmetry_space_group_name_H-M   'P 1'
_cell_length_a   8.55987454
_cell_length_b   8.55987391
_cell_length_c   3.02861700
_cell_angle_alpha   90.00000000
_cell_angle_beta   90.00000000
_cell_angle_gamma   89.19618184
_symmetry_Int_Tables_number   1
_chemical_formula_structural   ScTi5FeCo9B4
_chemical_formula_sum   'Sc1 Ti5 Fe1 Co9 B4'
_cell_volume   221.88931129
_cell_formula_units_Z   1
loop_
 _symmetry_equiv_pos_site_id
 _symmetry_equiv_pos_as_xyz
  1  'x, y, z'
loop_
 _atom_site_type_symbol
 _atom_site_label
 _atom_site_symmetry_multiplicity
 _atom_site_fract_x
 _atom_site_fract_y
 _atom_site_fract_z
 _atom_site_occupancy
  Sc  Sc0  1  0.825961  0.325961  0.000000  1
  Ti  Ti1  1  0.000030  0.000487  0.000000  1
  Ti  Ti2  1  0.500487  0.500030  0.000000  1
  Ti  Ti3  1  0.327419  0.171492  0.000000  1
  Ti  Ti4  1  0.671492  0.827419  0.000000  1
  Ti  Ti5  1  0.174339  0.674339  0.000000  1
  Fe  Fe6  1  0.496439  0.996439  0.500000  1
  Co  Co7  1  0.006287  0.506287  0.500000  1
  Co  Co8  1  0.079805  0.221463  0.500000  1
  Co  Co9  1  0.218141  0.926379  0.500000  1
  Co  Co10  1  0.775488  0.062922  0.500000  1
  Co  Co11  1  0.930270  0.781675  0.500000  1
  Co  Co12  1  0.426379  0.718141  0.500000  1
  Co  Co13  1  0.562922  0.275488  0.500000  1
  Co  Co14  1  0.721463  0.579805  0.500000  1
  Co  Co15  1  0.281675  0.430270  0.500000  1
  B  B16  1  0.618097  0.118097  0.000000  1
  B  B17  1  0.125895  0.381465  0.000000  1
  B  B18  1  0.881465  0.625895  0.000000  1
  B  B19  1  0.375944  0.875944  0.000000  1
