# generated using pymatgen
data_Ho2Mn3Fe8NiP7
_symmetry_space_group_name_H-M   'P 1'
_cell_length_a   9.04537556
_cell_length_b   9.00985430
_cell_length_c   3.61784200
_cell_angle_alpha   90.00000000
_cell_angle_beta   90.00000000
_cell_angle_gamma   119.69687634
_symmetry_Int_Tables_number   1
_chemical_formula_structural   Ho2Mn3Fe8NiP7
_chemical_formula_sum   'Ho2 Mn3 Fe8 Ni1 P7'
_cell_volume   256.11974076
_cell_formula_units_Z   1
loop_
 _symmetry_equiv_pos_site_id
 _symmetry_equiv_pos_as_xyz
  1  'x, y, z'
loop_
 _atom_site_type_symbol
 _atom_site_label
 _atom_site_symmetry_multiplicity
 _atom_site_fract_x
 _atom_site_fract_y
 _atom_site_fract_z
 _atom_site_occupancy
  Ho  Ho0  1  0.664037  0.331660  0.000000  1
  Ho  Ho1  1  0.336186  0.668723  0.500000  1
  Mn  Mn2  1  0.103648  0.219057  0.500000  1
  Mn  Mn3  1  0.782086  0.883806  0.500000  1
  Mn  Mn4  1  0.118402  0.898220  0.500000  1
  Fe  Fe5  1  0.057232  0.429094  0.000000  1
  Fe  Fe6  1  0.573712  0.632032  0.000000  1
  Fe  Fe7  1  0.370279  0.945712  0.000000  1
  Fe  Fe8  1  0.272409  0.153606  0.000000  1
  Fe  Fe9  1  0.846583  0.120078  0.000000  1
  Fe  Fe10  1  0.881593  0.722721  0.000000  1
  Fe  Fe11  1  0.433528  0.383547  0.500000  1
  Fe  Fe12  1  0.615099  0.051210  0.500000  1
  Ni  Ni13  1  0.946065  0.559484  0.500000  1
  P  P14  1  0.303175  0.415158  0.000000  1
  P  P15  1  0.587564  0.890224  0.000000  1
  P  P16  1  0.117509  0.704207  0.000000  1
  P  P17  1  0.406861  0.117319  0.500000  1
  P  P18  1  0.880786  0.282080  0.500000  1
  P  P19  1  0.703970  0.594125  0.500000  1
  P  P20  1  0.999276  0.997938  0.000000  1
