# generated using pymatgen
data_Er2Ti(Ge2Mo)2
_symmetry_space_group_name_H-M   'P 1'
_cell_length_a   7.02502700
_cell_length_b   6.92804248
_cell_length_c   7.01751146
_cell_angle_alpha   70.66748804
_cell_angle_beta   90.00000000
_cell_angle_gamma   90.00000000
_symmetry_Int_Tables_number   1
_chemical_formula_structural   Er2Ti(Ge2Mo)2
_chemical_formula_sum   'Er4 Ti2 Ge8 Mo4'
_cell_volume   322.28174165
_cell_formula_units_Z   2
loop_
 _symmetry_equiv_pos_site_id
 _symmetry_equiv_pos_as_xyz
  1  'x, y, z'
loop_
 _atom_site_type_symbol
 _atom_site_label
 _atom_site_symmetry_multiplicity
 _atom_site_fract_x
 _atom_site_fract_y
 _atom_site_fract_z
 _atom_site_occupancy
  Er  Er0  1  0.328153  0.554900  0.812242  1
  Er  Er1  1  0.828153  0.945100  0.187758  1
  Er  Er2  1  0.674770  0.441435  0.191467  1
  Er  Er3  1  0.174770  0.058565  0.808533  1
  Ti  Ti4  1  0.833476  0.745855  0.746836  1
  Ti  Ti5  1  0.333476  0.754145  0.253164  1
  Ge  Ge6  1  0.542766  0.856554  0.910627  1
  Ge  Ge7  1  0.042766  0.643446  0.089373  1
  Ge  Ge8  1  0.456378  0.143481  0.088448  1
  Ge  Ge9  1  0.956378  0.356519  0.911552  1
  Ge  Ge10  1  0.133838  0.864764  0.503150  1
  Ge  Ge11  1  0.633838  0.635236  0.496850  1
  Ge  Ge12  1  0.865773  0.134860  0.500995  1
  Ge  Ge13  1  0.365773  0.365140  0.499005  1
  Mo  Mo14  1  0.499510  0.998593  0.499460  1
  Mo  Mo15  1  0.999510  0.501407  0.500540  1
  Mo  Mo16  1  0.165336  0.251944  0.248919  1
  Mo  Mo17  1  0.665336  0.248056  0.751081  1
