# generated using pymatgen
data_Tb7TmHf9Si16W3
_symmetry_space_group_name_H-M   'P 1'
_cell_length_a   7.19098192
_cell_length_b   7.19002283
_cell_length_c   13.16657265
_cell_angle_alpha   90.14999882
_cell_angle_beta   90.11917416
_cell_angle_gamma   90.08953888
_symmetry_Int_Tables_number   1
_chemical_formula_structural   Tb7TmHf9Si16W3
_chemical_formula_sum   'Tb7 Tm1 Hf9 Si16 W3'
_cell_volume   680.75093166
_cell_formula_units_Z   1
loop_
 _symmetry_equiv_pos_site_id
 _symmetry_equiv_pos_as_xyz
  1  'x, y, z'
loop_
 _atom_site_type_symbol
 _atom_site_label
 _atom_site_symmetry_multiplicity
 _atom_site_fract_x
 _atom_site_fract_y
 _atom_site_fract_z
 _atom_site_occupancy
  Tb  Tb0  1  0.003571  0.656618  0.714762  1
  Tb  Tb1  1  0.154704  0.499369  0.463790  1
  Tb  Tb2  1  0.500511  0.845066  0.036136  1
  Tb  Tb3  1  0.846078  0.502077  0.967973  1
  Tb  Tb4  1  0.497875  0.153973  0.532156  1
  Tb  Tb5  1  0.343360  0.996405  0.785256  1
  Tb  Tb6  1  0.655923  0.001079  0.284459  1
  Tm  Tm7  1  0.000235  0.344711  0.215168  1
  Hf  Hf8  1  0.675493  0.324545  0.750023  1
  Hf  Hf9  1  0.146561  0.992876  0.373122  1
  Hf  Hf10  1  0.854518  0.004880  0.876672  1
  Hf  Hf11  1  0.505932  0.649616  0.621139  1
  Hf  Hf12  1  0.350248  0.494105  0.878955  1
  Hf  Hf13  1  0.492932  0.352316  0.125543  1
  Hf  Hf14  1  0.647817  0.506784  0.374286  1
  Hf  Hf15  1  0.995308  0.145551  0.623448  1
  Hf  Hf16  1  0.007079  0.853405  0.126662  1
  Si  Si17  1  0.359439  0.298393  0.316086  1
  Si  Si18  1  0.638002  0.704908  0.817084  1
  Si  Si19  1  0.202902  0.861360  0.565373  1
  Si  Si20  1  0.138544  0.796998  0.934585  1
  Si  Si21  1  0.798741  0.139573  0.067865  1
  Si  Si22  1  0.861610  0.202576  0.432707  1
  Si  Si23  1  0.295106  0.362071  0.682972  1
  Si  Si24  1  0.702823  0.638525  0.183462  1
  Si  Si25  1  0.295276  0.051536  0.184111  1
  Si  Si26  1  0.705060  0.947352  0.682007  1
  Si  Si27  1  0.449019  0.795282  0.432078  1
  Si  Si28  1  0.203883  0.550067  0.068393  1
  Si  Si29  1  0.547469  0.203045  0.936258  1
  Si  Si30  1  0.797059  0.452757  0.563741  1
  Si  Si31  1  0.052600  0.295037  0.818001  1
  Si  Si32  1  0.949658  0.702845  0.315457  1
  W  W33  1  0.176555  0.175799  0.001963  1
  W  W34  1  0.824628  0.823037  0.498360  1
  W  W35  1  0.323482  0.675461  0.249946  1
