# generated using pymatgen
data_YbErGaS4
_symmetry_space_group_name_H-M   'P 1'
_cell_length_a   6.30197200
_cell_length_b   7.93797800
_cell_length_c   13.87147800
_cell_angle_alpha   90.00000000
_cell_angle_beta   90.00000000
_cell_angle_gamma   90.00000000
_symmetry_Int_Tables_number   1
_chemical_formula_structural   YbErGaS4
_chemical_formula_sum   'Yb4 Er4 Ga4 S16'
_cell_volume   693.91950916
_cell_formula_units_Z   4
loop_
 _symmetry_equiv_pos_site_id
 _symmetry_equiv_pos_as_xyz
  1  'x, y, z'
loop_
 _atom_site_type_symbol
 _atom_site_label
 _atom_site_symmetry_multiplicity
 _atom_site_fract_x
 _atom_site_fract_y
 _atom_site_fract_z
 _atom_site_occupancy
  Yb  Yb0  1  0.492116  0.500000  0.236069  1
  Yb  Yb1  1  0.992117  0.000000  0.263931  1
  Yb  Yb2  1  0.007885  0.500000  0.736069  1
  Yb  Yb3  1  0.507884  0.000000  0.763931  1
  Er  Er4  1  0.000000  0.250000  0.000000  1
  Er  Er5  1  0.000000  0.750001  0.000000  1
  Er  Er6  1  0.500001  0.250000  0.500000  1
  Er  Er7  1  0.500001  0.750001  0.500000  1
  Ga  Ga8  1  0.401665  0.000000  0.084682  1
  Ga  Ga9  1  0.901668  0.500000  0.415318  1
  Ga  Ga10  1  0.098334  0.000000  0.584682  1
  Ga  Ga11  1  0.598334  0.500000  0.915319  1
  S  S12  1  0.751942  0.500000  0.069382  1
  S  S13  1  0.763656  0.000000  0.085905  1
  S  S14  1  0.249085  0.229394  0.158637  1
  S  S15  1  0.249085  0.770607  0.158637  1
  S  S16  1  0.749086  0.270605  0.341362  1
  S  S17  1  0.749086  0.729395  0.341362  1
  S  S18  1  0.263657  0.500000  0.414095  1
  S  S19  1  0.251941  0.000000  0.430618  1
  S  S20  1  0.748059  0.500000  0.569382  1
  S  S21  1  0.736345  0.000000  0.585905  1
  S  S22  1  0.250916  0.229394  0.658637  1
  S  S23  1  0.250916  0.770607  0.658637  1
  S  S24  1  0.750915  0.270605  0.841362  1
  S  S25  1  0.750915  0.729395  0.841362  1
  S  S26  1  0.236344  0.500000  0.914095  1
  S  S27  1  0.248060  0.000000  0.930618  1
