# generated using pymatgen
data_Sc8Ti7Nb2Si16W3
_symmetry_space_group_name_H-M   'P 1'
_cell_length_a   6.64726372
_cell_length_b   6.79149155
_cell_length_c   12.97994826
_cell_angle_alpha   89.97714832
_cell_angle_beta   90.00149207
_cell_angle_gamma   89.99579170
_symmetry_Int_Tables_number   1
_chemical_formula_structural   Sc8Ti7Nb2Si16W3
_chemical_formula_sum   'Sc8 Ti7 Nb2 Si16 W3'
_cell_volume   585.97757978
_cell_formula_units_Z   1
loop_
 _symmetry_equiv_pos_site_id
 _symmetry_equiv_pos_as_xyz
  1  'x, y, z'
loop_
 _atom_site_type_symbol
 _atom_site_label
 _atom_site_symmetry_multiplicity
 _atom_site_fract_x
 _atom_site_fract_y
 _atom_site_fract_z
 _atom_site_occupancy
  Sc  Sc0  1  0.501417  0.675707  0.595439  1
  Sc  Sc1  1  0.001127  0.826120  0.904922  1
  Sc  Sc2  1  0.499544  0.325477  0.096507  1
  Sc  Sc3  1  0.999005  0.174164  0.403644  1
  Sc  Sc4  1  0.499832  0.325194  0.404025  1
  Sc  Sc5  1  0.999347  0.174263  0.096655  1
  Sc  Sc6  1  0.500958  0.675049  0.904672  1
  Sc  Sc7  1  0.000201  0.827238  0.595194  1
  Ti  Ti8  1  0.164699  0.325736  0.873865  1
  Ti  Ti9  1  0.334060  0.826333  0.126895  1
  Ti  Ti10  1  0.835780  0.672399  0.372185  1
  Ti  Ti11  1  0.334507  0.826287  0.372817  1
  Ti  Ti12  1  0.834582  0.673088  0.127200  1
  Ti  Ti13  1  0.664917  0.172191  0.874260  1
  Ti  Ti14  1  0.165283  0.325043  0.626009  1
  Nb  Nb15  1  0.665094  0.173258  0.625388  1
  Nb  Nb16  1  0.838083  0.493074  0.750098  1
  Si  Si17  1  0.666654  0.962256  0.457376  1
  Si  Si18  1  0.165291  0.534771  0.041646  1
  Si  Si19  1  0.334519  0.035660  0.959595  1
  Si  Si20  1  0.834818  0.468016  0.537979  1
  Si  Si21  1  0.331625  0.033986  0.539518  1
  Si  Si22  1  0.833839  0.464290  0.961590  1
  Si  Si23  1  0.666439  0.964211  0.041232  1
  Si  Si24  1  0.166037  0.534089  0.458321  1
  Si  Si25  1  0.459155  0.384240  0.751263  1
  Si  Si26  1  0.965042  0.113926  0.751278  1
  Si  Si27  1  0.537207  0.616290  0.249806  1
  Si  Si28  1  0.036587  0.884430  0.249822  1
  Si  Si29  1  0.703219  0.863257  0.750964  1
  Si  Si30  1  0.206953  0.640041  0.749909  1
  Si  Si31  1  0.296289  0.138602  0.249944  1
  Si  Si32  1  0.796437  0.361384  0.250104  1
  W  W33  1  0.338261  0.008853  0.750427  1
  W  W34  1  0.161738  0.509183  0.249881  1
  W  W35  1  0.661450  0.991897  0.249569  1
