# generated using pymatgen
data_LiLuTi3Pt11
_symmetry_space_group_name_H-M   'P 1'
_cell_length_a   5.66192600
_cell_length_b   5.61599266
_cell_length_c   9.14016600
_cell_angle_alpha   90.00000000
_cell_angle_beta   90.00000000
_cell_angle_gamma   120.27093077
_symmetry_Int_Tables_number   1
_chemical_formula_structural   LiLuTi3Pt11
_chemical_formula_sum   'Li1 Lu1 Ti3 Pt11'
_cell_volume   251.00553132
_cell_formula_units_Z   1
loop_
 _symmetry_equiv_pos_site_id
 _symmetry_equiv_pos_as_xyz
  1  'x, y, z'
loop_
 _atom_site_type_symbol
 _atom_site_label
 _atom_site_symmetry_multiplicity
 _atom_site_fract_x
 _atom_site_fract_y
 _atom_site_fract_z
 _atom_site_occupancy
  Li  Li0  1  0.178011  0.356022  0.750000  1
  Lu  Lu1  1  0.331787  0.663574  0.250000  1
  Ti  Ti2  1  0.993926  0.987851  0.491248  1
  Ti  Ti3  1  0.993926  0.987851  0.008752  1
  Ti  Ti4  1  0.672629  0.345257  0.750000  1
  Pt  Pt5  1  0.493807  0.488947  0.513930  1
  Pt  Pt6  1  0.501751  0.003500  0.508803  1
  Pt  Pt7  1  0.995141  0.488947  0.513930  1
  Pt  Pt8  1  0.493807  0.488947  0.986070  1
  Pt  Pt9  1  0.501751  0.003500  0.991197  1
  Pt  Pt10  1  0.995141  0.488947  0.986070  1
  Pt  Pt11  1  0.833627  0.667256  0.250000  1
  Pt  Pt12  1  0.336309  0.167008  0.250000  1
  Pt  Pt13  1  0.830698  0.167008  0.250000  1
  Pt  Pt14  1  0.675958  0.847691  0.750000  1
  Pt  Pt15  1  0.171733  0.847691  0.750000  1
