# generated using pymatgen
data_Er10Al5C8Se
_symmetry_space_group_name_H-M   'P 1'
_cell_length_a   10.71567600
_cell_length_b   10.71567600
_cell_length_c   3.49509400
_cell_angle_alpha   90.00000000
_cell_angle_beta   90.00000000
_cell_angle_gamma   90.00000000
_symmetry_Int_Tables_number   1
_chemical_formula_structural   Er10Al5C8Se
_chemical_formula_sum   'Er10 Al5 C8 Se1'
_cell_volume   401.32665754
_cell_formula_units_Z   1
loop_
 _symmetry_equiv_pos_site_id
 _symmetry_equiv_pos_as_xyz
  1  'x, y, z'
loop_
 _atom_site_type_symbol
 _atom_site_label
 _atom_site_symmetry_multiplicity
 _atom_site_fract_x
 _atom_site_fract_y
 _atom_site_fract_z
 _atom_site_occupancy
  Er  Er0  1  0.549419  0.729429  0.500000  1
  Er  Er1  1  0.450581  0.270571  0.500000  1
  Er  Er2  1  0.051101  0.770278  0.500000  1
  Er  Er3  1  0.948899  0.229722  0.500000  1
  Er  Er4  1  0.270571  0.549419  0.500000  1
  Er  Er5  1  0.729429  0.450581  0.500000  1
  Er  Er6  1  0.229722  0.051101  0.500000  1
  Er  Er7  1  0.770278  0.948899  0.500000  1
  Er  Er8  1  0.500000  0.000000  0.000000  1
  Er  Er9  1  0.000000  0.500000  0.000000  1
  Al  Al10  1  0.711100  0.193861  0.000000  1
  Al  Al11  1  0.288900  0.806139  0.000000  1
  Al  Al12  1  0.193861  0.288900  0.000000  1
  Al  Al13  1  0.806139  0.711100  0.000000  1
  Al  Al14  1  0.000000  0.000000  0.000000  1
  C  C15  1  0.628621  0.130995  0.500000  1
  C  C16  1  0.371379  0.869005  0.500000  1
  C  C17  1  0.130995  0.371379  0.500000  1
  C  C18  1  0.869005  0.628621  0.500000  1
  C  C19  1  0.167565  0.658399  0.000000  1
  C  C20  1  0.832435  0.341601  0.000000  1
  C  C21  1  0.658399  0.832435  0.000000  1
  C  C22  1  0.341601  0.167565  0.000000  1
  Se  Se23  1  0.500000  0.500000  0.000000  1
