# generated using pymatgen
data_La4InSn7Pd12
_symmetry_space_group_name_H-M   'P 1'
_cell_length_a   4.82021500
_cell_length_b   10.33170384
_cell_length_c   9.84794800
_cell_angle_alpha   89.83119640
_cell_angle_beta   90.00000000
_cell_angle_gamma   90.00000000
_symmetry_Int_Tables_number   1
_chemical_formula_structural   La4InSn7Pd12
_chemical_formula_sum   'La4 In1 Sn7 Pd12'
_cell_volume   490.43586294
_cell_formula_units_Z   1
loop_
 _symmetry_equiv_pos_site_id
 _symmetry_equiv_pos_as_xyz
  1  'x, y, z'
loop_
 _atom_site_type_symbol
 _atom_site_label
 _atom_site_symmetry_multiplicity
 _atom_site_fract_x
 _atom_site_fract_y
 _atom_site_fract_z
 _atom_site_occupancy
  La  La0  1  0.250000  0.433018  0.738124  1
  La  La1  1  0.250000  0.067022  0.238575  1
  La  La2  1  0.750000  0.567226  0.262884  1
  La  La3  1  0.750000  0.933624  0.761644  1
  In  In4  1  0.750000  0.649568  0.614550  1
  Sn  Sn5  1  0.250000  0.868851  0.520426  1
  Sn  Sn6  1  0.250000  0.626728  0.021540  1
  Sn  Sn7  1  0.750000  0.128011  0.479882  1
  Sn  Sn8  1  0.750000  0.373662  0.978353  1
  Sn  Sn9  1  0.250000  0.150920  0.888689  1
  Sn  Sn10  1  0.250000  0.348782  0.388104  1
  Sn  Sn11  1  0.750000  0.848960  0.110627  1
  Pd  Pd12  1  0.250000  0.137370  0.601857  1
  Pd  Pd13  1  0.250000  0.358923  0.101641  1
  Pd  Pd14  1  0.750000  0.867301  0.394305  1
  Pd  Pd15  1  0.750000  0.643810  0.901791  1
  Pd  Pd16  1  0.250000  0.726798  0.753115  1
  Pd  Pd17  1  0.250000  0.772491  0.252432  1
  Pd  Pd18  1  0.750000  0.272291  0.245777  1
  Pd  Pd19  1  0.750000  0.227595  0.747357  1
  Pd  Pd20  1  0.250000  0.904806  0.982008  1
  Pd  Pd21  1  0.250000  0.594580  0.481036  1
  Pd  Pd22  1  0.750000  0.095176  0.017734  1
  Pd  Pd23  1  0.750000  0.402492  0.517546  1
