# generated using pymatgen
data_Nd5Sb11AsRh19
_symmetry_space_group_name_H-M   'P 1'
_cell_length_a   13.78542200
_cell_length_b   13.76812447
_cell_length_c   4.20825500
_cell_angle_alpha   90.00000000
_cell_angle_beta   90.00000000
_cell_angle_gamma   120.04156831
_symmetry_Int_Tables_number   1
_chemical_formula_structural   Nd5Sb11AsRh19
_chemical_formula_sum   'Nd5 Sb11 As1 Rh19'
_cell_volume   691.42561277
_cell_formula_units_Z   1
loop_
 _symmetry_equiv_pos_site_id
 _symmetry_equiv_pos_as_xyz
  1  'x, y, z'
loop_
 _atom_site_type_symbol
 _atom_site_label
 _atom_site_symmetry_multiplicity
 _atom_site_fract_x
 _atom_site_fract_y
 _atom_site_fract_z
 _atom_site_occupancy
  Nd  Nd0  1  0.991706  0.182843  0.500000  1
  Nd  Nd1  1  0.808864  0.817157  0.500000  1
  Nd  Nd2  1  0.193573  0.000000  0.500000  1
  Nd  Nd3  1  0.665637  0.330945  0.000000  1
  Nd  Nd4  1  0.334690  0.669055  0.000000  1
  Sb  Sb5  1  0.481624  0.321247  0.500000  1
  Sb  Sb6  1  0.173765  0.175277  0.000000  1
  Sb  Sb7  1  0.998488  0.824723  0.000000  1
  Sb  Sb8  1  0.374110  0.000000  0.000000  1
  Sb  Sb9  1  0.678434  0.158183  0.500000  1
  Sb  Sb10  1  0.839727  0.516288  0.500000  1
  Sb  Sb11  1  0.520251  0.841817  0.500000  1
  Sb  Sb12  1  0.160376  0.678753  0.500000  1
  Sb  Sb13  1  0.323439  0.483712  0.500000  1
  Sb  Sb14  1  0.000539  0.372053  0.000000  1
  Sb  Sb15  1  0.628486  0.627947  0.000000  1
  As  As16  1  0.816875  0.000000  0.000000  1
  Rh  Rh17  1  0.804929  0.173001  0.000000  1
  Rh  Rh18  1  0.373297  0.194794  0.000000  1
  Rh  Rh19  1  0.649895  0.520960  0.500000  1
  Rh  Rh20  1  0.871120  0.347387  0.500000  1
  Rh  Rh21  1  0.350739  0.871702  0.500000  1
  Rh  Rh22  1  0.523733  0.652613  0.500000  1
  Rh  Rh23  1  0.128936  0.479040  0.500000  1
  Rh  Rh24  1  0.821338  0.623274  0.000000  1
  Rh  Rh25  1  0.631928  0.826999  0.000000  1
  Rh  Rh26  1  0.178503  0.805206  0.000000  1
  Rh  Rh27  1  0.198064  0.376726  0.000000  1
  Rh  Rh28  1  0.999505  0.722328  0.500000  1
  Rh  Rh29  1  0.277177  0.277672  0.500000  1
  Rh  Rh30  1  0.728937  0.000000  0.500000  1
  Rh  Rh31  1  0.002951  0.563860  0.000000  1
  Rh  Rh32  1  0.439091  0.436140  0.000000  1
  Rh  Rh33  1  0.563963  0.000000  0.000000  1
  Rh  Rh34  1  0.986272  0.000000  0.000000  1
  Rh  Rh35  1  0.479037  0.128298  0.500000  1
