# generated using pymatgen
data_Sc10Ga4AsSe
_symmetry_space_group_name_H-M   'P 1'
_cell_length_a   8.01701924
_cell_length_b   7.99519067
_cell_length_c   5.95986200
_cell_angle_alpha   90.00000000
_cell_angle_beta   90.00000000
_cell_angle_gamma   120.02673982
_symmetry_Int_Tables_number   1
_chemical_formula_structural   Sc10Ga4AsSe
_chemical_formula_sum   'Sc10 Ga4 As1 Se1'
_cell_volume   330.74364118
_cell_formula_units_Z   1
loop_
 _symmetry_equiv_pos_site_id
 _symmetry_equiv_pos_as_xyz
  1  'x, y, z'
loop_
 _atom_site_type_symbol
 _atom_site_label
 _atom_site_symmetry_multiplicity
 _atom_site_fract_x
 _atom_site_fract_y
 _atom_site_fract_z
 _atom_site_occupancy
  Sc  Sc0  1  0.330247  0.664290  0.998262  1
  Sc  Sc1  1  0.666164  0.335165  0.501818  1
  Sc  Sc2  1  0.666164  0.335165  0.998182  1
  Sc  Sc3  1  0.330247  0.664290  0.501738  1
  Sc  Sc4  1  0.233991  0.999319  0.250000  1
  Sc  Sc5  1  0.237394  0.239337  0.750000  1
  Sc  Sc6  1  0.999699  0.761252  0.750000  1
  Sc  Sc7  1  0.005951  0.242338  0.250000  1
  Sc  Sc8  1  0.762704  0.755364  0.250000  1
  Sc  Sc9  1  0.762221  0.002228  0.750000  1
  Ga  Ga10  1  0.996833  0.396612  0.750000  1
  Ga  Ga11  1  0.999011  0.599844  0.250000  1
  Ga  Ga12  1  0.397895  0.397211  0.250000  1
  Ga  Ga13  1  0.394959  0.000298  0.750000  1
  As  As14  1  0.605415  0.608319  0.750000  1
  Se  Se15  1  0.611105  0.998965  0.250000  1
