# generated using pymatgen
data_Yb8Cu7Si6Pt
_symmetry_space_group_name_H-M   'P 1'
_cell_length_a   10.46215310
_cell_length_b   10.44801750
_cell_length_c   7.60097500
_cell_angle_alpha   70.81602321
_cell_angle_beta   70.91550090
_cell_angle_gamma   30.93069603
_symmetry_Int_Tables_number   1
_chemical_formula_structural   Yb8Cu7Si6Pt
_chemical_formula_sum   'Yb8 Cu7 Si6 Pt1'
_cell_volume   401.60030909
_cell_formula_units_Z   1
loop_
 _symmetry_equiv_pos_site_id
 _symmetry_equiv_pos_as_xyz
  1  'x, y, z'
loop_
 _atom_site_type_symbol
 _atom_site_label
 _atom_site_symmetry_multiplicity
 _atom_site_fract_x
 _atom_site_fract_y
 _atom_site_fract_z
 _atom_site_occupancy
  Yb  Yb0  1  0.932714  0.201921  0.330138  1
  Yb  Yb1  1  0.069203  0.796400  0.666375  1
  Yb  Yb2  1  0.794601  0.072620  0.166349  1
  Yb  Yb3  1  0.450194  0.208706  0.900081  1
  Yb  Yb4  1  0.796964  0.543865  0.599546  1
  Yb  Yb5  1  0.205960  0.452686  0.401699  1
  Yb  Yb6  1  0.201180  0.930907  0.835737  1
  Yb  Yb7  1  0.549634  0.793331  0.096681  1
  Cu  Cu8  1  0.700559  0.433910  0.980046  1
  Cu  Cu9  1  0.295858  0.572013  0.020397  1
  Cu  Cu10  1  0.432396  0.693548  0.481054  1
  Cu  Cu11  1  0.638911  0.914711  0.302430  1
  Cu  Cu12  1  0.915335  0.639725  0.802844  1
  Cu  Cu13  1  0.362846  0.080121  0.697886  1
  Cu  Cu14  1  0.086653  0.357696  0.198642  1
  Si  Si15  1  0.307157  0.036002  0.446297  1
  Si  Si16  1  0.367702  0.637936  0.241033  1
  Si  Si17  1  0.045492  0.302511  0.944742  1
  Si  Si18  1  0.693709  0.958596  0.556315  1
  Si  Si19  1  0.955840  0.696646  0.055539  1
  Si  Si20  1  0.626519  0.374217  0.757808  1
  Pt  Pt21  1  0.570577  0.301932  0.518363  1
