# generated using pymatgen
data_GdYS2
_symmetry_space_group_name_H-M   'P 1'
_cell_length_a   6.83002777
_cell_length_b   6.83002803
_cell_length_c   6.83002961
_cell_angle_alpha   33.57342816
_cell_angle_beta   33.57342193
_cell_angle_gamma   33.57342485
_symmetry_Int_Tables_number   1
_chemical_formula_structural   GdYS2
_chemical_formula_sum   'Gd1 Y1 S2'
_cell_volume   86.79213204
_cell_formula_units_Z   1
loop_
 _symmetry_equiv_pos_site_id
 _symmetry_equiv_pos_as_xyz
  1  'x, y, z'
loop_
 _atom_site_type_symbol
 _atom_site_label
 _atom_site_symmetry_multiplicity
 _atom_site_fract_x
 _atom_site_fract_y
 _atom_site_fract_z
 _atom_site_occupancy
  Gd  Gd0  1  0.500000  0.500000  0.500000  1
  Y  Y1  1  0.000000  0.000000  0.000000  1
  S  S2  1  0.250767  0.250767  0.250767  1
  S  S3  1  0.749233  0.749233  0.749233  1
