# generated using pymatgen
data_La2Y4Tm14Si15Pt
_symmetry_space_group_name_H-M   'P 1'
_cell_length_a   7.35647326
_cell_length_b   7.70914196
_cell_length_c   14.52392335
_cell_angle_alpha   89.55391418
_cell_angle_beta   89.90919098
_cell_angle_gamma   89.96967517
_symmetry_Int_Tables_number   1
_chemical_formula_structural   La2Y4Tm14Si15Pt
_chemical_formula_sum   'La2 Y4 Tm14 Si15 Pt1'
_cell_volume   823.65603592
_cell_formula_units_Z   1
loop_
 _symmetry_equiv_pos_site_id
 _symmetry_equiv_pos_as_xyz
  1  'x, y, z'
loop_
 _atom_site_type_symbol
 _atom_site_label
 _atom_site_symmetry_multiplicity
 _atom_site_fract_x
 _atom_site_fract_y
 _atom_site_fract_z
 _atom_site_occupancy
  La  La0  1  0.520422  0.572265  0.341917  1
  La  La1  1  0.021306  0.425530  0.657454  1
  Y  Y2  1  0.477953  0.932966  0.153320  1
  Y  Y3  1  0.976984  0.069805  0.847075  1
  Y  Y4  1  0.523524  0.567694  0.653166  1
  Y  Y5  1  0.023343  0.431241  0.346466  1
  Tm  Tm6  1  0.810675  0.577332  0.876088  1
  Tm  Tm7  1  0.320477  0.426817  0.124275  1
  Tm  Tm8  1  0.181618  0.926980  0.373346  1
  Tm  Tm9  1  0.680598  0.069400  0.627282  1
  Tm  Tm10  1  0.182152  0.925312  0.627358  1
  Tm  Tm11  1  0.681214  0.072076  0.372075  1
  Tm  Tm12  1  0.814919  0.573624  0.124368  1
  Tm  Tm13  1  0.324317  0.431449  0.875325  1
  Tm  Tm14  1  0.646852  0.236248  0.998782  1
  Tm  Tm15  1  0.157374  0.760122  0.000727  1
  Tm  Tm16  1  0.348669  0.260717  0.499985  1
  Tm  Tm17  1  0.848644  0.738262  0.499721  1
  Tm  Tm18  1  0.479108  0.929579  0.848203  1
  Tm  Tm19  1  0.976068  0.067691  0.151677  1
  Si  Si20  1  0.020047  0.353070  0.000835  1
  Si  Si21  1  0.477808  0.862841  0.501063  1
  Si  Si22  1  0.976941  0.135620  0.499011  1
  Si  Si23  1  0.651396  0.276039  0.791339  1
  Si  Si24  1  0.150387  0.721817  0.208451  1
  Si  Si25  1  0.348593  0.214979  0.286998  1
  Si  Si26  1  0.849828  0.784068  0.713141  1
  Si  Si27  1  0.356436  0.214788  0.712802  1
  Si  Si28  1  0.857938  0.784297  0.287119  1
  Si  Si29  1  0.651878  0.271184  0.206784  1
  Si  Si30  1  0.149246  0.727014  0.793214  1
  Si  Si31  1  0.774851  0.882722  0.000941  1
  Si  Si32  1  0.263062  0.125435  0.999772  1
  Si  Si33  1  0.228738  0.624823  0.501788  1
  Si  Si34  1  0.728404  0.374345  0.498767  1
  Pt  Pt35  1  0.518229  0.651847  0.999366  1
