# generated using pymatgen
data_SrTh(Co5P3)2
_symmetry_space_group_name_H-M   'P 1'
_cell_length_a   6.01628046
_cell_length_b   6.01628065
_cell_length_c   11.45893600
_cell_angle_alpha   90.00000000
_cell_angle_beta   90.00000000
_cell_angle_gamma   144.96237883
_symmetry_Int_Tables_number   1
_chemical_formula_structural   SrTh(Co5P3)2
_chemical_formula_sum   'Sr1 Th1 Co10 P6'
_cell_volume   238.12156430
_cell_formula_units_Z   1
loop_
 _symmetry_equiv_pos_site_id
 _symmetry_equiv_pos_as_xyz
  1  'x, y, z'
loop_
 _atom_site_type_symbol
 _atom_site_label
 _atom_site_symmetry_multiplicity
 _atom_site_fract_x
 _atom_site_fract_y
 _atom_site_fract_z
 _atom_site_occupancy
  Sr  Sr0  1  0.663032  0.336968  0.750000  1
  Th  Th1  1  0.339229  0.660771  0.250000  1
  Co  Co2  1  0.052503  0.947497  0.142595  1
  Co  Co3  1  0.052503  0.947497  0.357405  1
  Co  Co4  1  0.699016  0.300984  0.426609  1
  Co  Co5  1  0.302394  0.697606  0.563168  1
  Co  Co6  1  0.302394  0.697606  0.936832  1
  Co  Co7  1  0.699016  0.300984  0.073391  1
  Co  Co8  1  0.500917  0.499083  0.498216  1
  Co  Co9  1  0.500917  0.499083  0.001784  1
  Co  Co10  1  0.944400  0.055600  0.642060  1
  Co  Co11  1  0.944400  0.055600  0.857940  1
  P  P12  1  0.609164  0.390836  0.250000  1
  P  P13  1  0.391978  0.608022  0.750000  1
  P  P14  1  0.116510  0.883490  0.537527  1
  P  P15  1  0.882557  0.117443  0.461976  1
  P  P16  1  0.882557  0.117443  0.038024  1
  P  P17  1  0.116510  0.883490  0.962473  1
