# generated using pymatgen
data_In7PIrO8
_symmetry_space_group_name_H-M   'P 1'
_cell_length_a   7.31763542
_cell_length_b   7.31763602
_cell_length_c   7.31763500
_cell_angle_alpha   60.00000011
_cell_angle_beta   59.99999737
_cell_angle_gamma   60.00000359
_symmetry_Int_Tables_number   1
_chemical_formula_structural   In7PIrO8
_chemical_formula_sum   'In7 P1 Ir1 O8'
_cell_volume   277.07498674
_cell_formula_units_Z   1
loop_
 _symmetry_equiv_pos_site_id
 _symmetry_equiv_pos_as_xyz
  1  'x, y, z'
loop_
 _atom_site_type_symbol
 _atom_site_label
 _atom_site_symmetry_multiplicity
 _atom_site_fract_x
 _atom_site_fract_y
 _atom_site_fract_z
 _atom_site_occupancy
  In  In0  1  0.250110  0.749890  0.749890  1
  In  In1  1  0.749890  0.250110  0.250110  1
  In  In2  1  0.250110  0.250110  0.749890  1
  In  In3  1  0.250110  0.749890  0.250110  1
  In  In4  1  0.749890  0.749890  0.250110  1
  In  In5  1  0.749890  0.250110  0.749890  1
  In  In6  1  0.750000  0.750000  0.750000  1
  P  P7  1  0.250000  0.250000  0.250000  1
  Ir  Ir8  1  0.000000  0.000000  0.000000  1
  O  O9  1  0.337391  0.987828  0.337391  1
  O  O10  1  0.617336  0.617336  0.617336  1
  O  O11  1  0.987828  0.337391  0.337391  1
  O  O12  1  0.617336  0.147993  0.617336  1
  O  O13  1  0.337391  0.337391  0.337391  1
  O  O14  1  0.147993  0.617336  0.617336  1
  O  O15  1  0.337391  0.337391  0.987828  1
  O  O16  1  0.617336  0.617336  0.147993  1
