# generated using pymatgen
data_VFe2MoP8(Pb3O16)2
_symmetry_space_group_name_H-M   'P 1'
_cell_length_a   9.26531454
_cell_length_b   9.21815582
_cell_length_c   9.50959400
_cell_angle_alpha   62.93003244
_cell_angle_beta   90.09427978
_cell_angle_gamma   89.95811243
_symmetry_Int_Tables_number   1
_chemical_formula_structural   VFe2MoP8(Pb3O16)2
_chemical_formula_sum   'V1 Fe2 Mo1 P8 Pb6 O32'
_cell_volume   723.22803436
_cell_formula_units_Z   1
loop_
 _symmetry_equiv_pos_site_id
 _symmetry_equiv_pos_as_xyz
  1  'x, y, z'
loop_
 _atom_site_type_symbol
 _atom_site_label
 _atom_site_symmetry_multiplicity
 _atom_site_fract_x
 _atom_site_fract_y
 _atom_site_fract_z
 _atom_site_occupancy
  V  V0  1  0.867186  0.248929  0.256784  1
  Fe  Fe1  1  0.633723  0.246676  0.756187  1
  Fe  Fe2  1  0.132471  0.754234  0.743636  1
  Mo  Mo3  1  0.367714  0.752417  0.243077  1
  P  P4  1  0.085115  0.572366  0.139820  1
  P  P5  1  0.642797  0.022518  0.154120  1
  P  P6  1  0.362905  0.985407  0.836825  1
  P  P7  1  0.409998  0.573951  0.645311  1
  P  P8  1  0.910883  0.424963  0.859578  1
  P  P9  1  0.590852  0.420952  0.361723  1
  P  P10  1  0.861382  0.017823  0.658239  1
  P  P11  1  0.135086  0.982697  0.344424  1
  Pb  Pb12  1  0.207502  0.296027  0.464965  1
  Pb  Pb13  1  0.711888  0.699191  0.035195  1
  Pb  Pb14  1  0.790515  0.699221  0.538309  1
  Pb  Pb15  1  0.999365  0.000712  0.999949  1
  Pb  Pb16  1  0.290591  0.298041  0.964954  1
  Pb  Pb17  1  0.500126  0.000988  0.498453  1
  O  O18  1  0.910974  0.154502  0.497874  1
  O  O19  1  0.792675  0.088653  0.764713  1
  O  O20  1  0.957366  0.607329  0.756556  1
  O  O21  1  0.710233  0.095495  0.258321  1
  O  O22  1  0.491716  0.088933  0.734721  1
  O  O23  1  0.551504  0.605389  0.259765  1
  O  O24  1  0.595173  0.156387  0.990234  1
  O  O25  1  0.002156  0.080482  0.247627  1
  O  O26  1  0.715794  0.404186  0.260459  1
  O  O27  1  0.458231  0.392628  0.747810  1
  O  O28  1  0.246733  0.098336  0.363974  1
  O  O29  1  0.418327  0.848450  0.994862  1
  O  O30  1  0.849159  0.399312  0.018275  1
  O  O31  1  0.092548  0.844226  0.507978  1
  O  O32  1  0.509574  0.929025  0.254522  1
  O  O33  1  0.344589  0.596286  0.488527  1
  O  O34  1  0.647901  0.390698  0.524139  1
  O  O35  1  0.751768  0.902856  0.634102  1
  O  O36  1  0.958501  0.685966  0.128952  1
  O  O37  1  0.287614  0.593564  0.748392  1
  O  O38  1  0.252939  0.096241  0.866434  1
  O  O39  1  0.787306  0.406719  0.756299  1
  O  O40  1  0.292783  0.913341  0.732053  1
  O  O41  1  0.750024  0.902704  0.135412  1
  O  O42  1  0.210148  0.581520  0.245576  1
  O  O43  1  0.145359  0.608338  0.977410  1
  O  O44  1  0.461196  0.311507  0.372384  1
  O  O45  1  0.038985  0.309698  0.877327  1
  O  O46  1  0.041031  0.388784  0.238940  1
  O  O47  1  0.196967  0.913389  0.234206  1
  O  O48  1  0.537423  0.690822  0.622201  1
  O  O49  1  0.993204  0.917121  0.758409  1
