# generated using pymatgen
data_Tb9Mg(SiB4)4
_symmetry_space_group_name_H-M   'P 1'
_cell_length_a   7.21409000
_cell_length_b   7.21409000
_cell_length_c   8.07398900
_cell_angle_alpha   90.00000000
_cell_angle_beta   90.00000000
_cell_angle_gamma   90.00000000
_symmetry_Int_Tables_number   1
_chemical_formula_structural   Tb9Mg(SiB4)4
_chemical_formula_sum   'Tb9 Mg1 Si4 B16'
_cell_volume   420.19537275
_cell_formula_units_Z   1
loop_
 _symmetry_equiv_pos_site_id
 _symmetry_equiv_pos_as_xyz
  1  'x, y, z'
loop_
 _atom_site_type_symbol
 _atom_site_label
 _atom_site_symmetry_multiplicity
 _atom_site_fract_x
 _atom_site_fract_y
 _atom_site_fract_z
 _atom_site_occupancy
  Tb  Tb0  1  0.682119  0.179923  0.228438  1
  Tb  Tb1  1  0.317881  0.820077  0.771562  1
  Tb  Tb2  1  0.317881  0.820077  0.228438  1
  Tb  Tb3  1  0.820077  0.682119  0.228438  1
  Tb  Tb4  1  0.820077  0.682119  0.771562  1
  Tb  Tb5  1  0.682119  0.179923  0.771562  1
  Tb  Tb6  1  0.179923  0.317881  0.771562  1
  Tb  Tb7  1  0.179923  0.317881  0.228438  1
  Tb  Tb8  1  0.500000  0.500000  0.500000  1
  Mg  Mg9  1  0.000000  0.000000  0.500000  1
  Si  Si10  1  0.114436  0.616204  0.500000  1
  Si  Si11  1  0.885564  0.383796  0.500000  1
  Si  Si12  1  0.383796  0.114436  0.500000  1
  Si  Si13  1  0.616204  0.885564  0.500000  1
  B  B14  1  0.174158  0.038483  0.000000  1
  B  B15  1  0.825842  0.961517  0.000000  1
  B  B16  1  0.961517  0.174158  0.000000  1
  B  B17  1  0.327374  0.539759  0.000000  1
  B  B18  1  0.038483  0.825842  0.000000  1
  B  B19  1  0.672626  0.460241  0.000000  1
  B  B20  1  0.539759  0.672626  0.000000  1
  B  B21  1  0.460241  0.327374  0.000000  1
  B  B22  1  0.089527  0.588590  0.000000  1
  B  B23  1  0.910473  0.411410  0.000000  1
  B  B24  1  0.411410  0.089527  0.000000  1
  B  B25  1  0.588590  0.910473  0.000000  1
  B  B26  1  0.000000  0.000000  0.156939  1
  B  B27  1  0.000000  0.000000  0.843061  1
  B  B28  1  0.500000  0.500000  0.838806  1
  B  B29  1  0.500000  0.500000  0.161194  1
