# generated using pymatgen
data_Dy8Ta4Ti7Si16W
_symmetry_space_group_name_H-M   'P 1'
_cell_length_a   7.03919761
_cell_length_b   7.02913468
_cell_length_c   12.94863293
_cell_angle_alpha   90.03167090
_cell_angle_beta   90.02243614
_cell_angle_gamma   90.00281666
_symmetry_Int_Tables_number   1
_chemical_formula_structural   Dy8Ta4Ti7Si16W
_chemical_formula_sum   'Dy8 Ta4 Ti7 Si16 W1'
_cell_volume   640.69132141
_cell_formula_units_Z   1
loop_
 _symmetry_equiv_pos_site_id
 _symmetry_equiv_pos_as_xyz
  1  'x, y, z'
loop_
 _atom_site_type_symbol
 _atom_site_label
 _atom_site_symmetry_multiplicity
 _atom_site_fract_x
 _atom_site_fract_y
 _atom_site_fract_z
 _atom_site_occupancy
  Dy  Dy0  1  0.999001  0.659401  0.032517  1
  Dy  Dy1  1  0.002263  0.340187  0.532712  1
  Dy  Dy2  1  0.659486  0.998781  0.967192  1
  Dy  Dy3  1  0.159439  0.501245  0.784188  1
  Dy  Dy4  1  0.841493  0.497428  0.282145  1
  Dy  Dy5  1  0.501000  0.161015  0.216186  1
  Dy  Dy6  1  0.497859  0.840463  0.717960  1
  Dy  Dy7  1  0.339733  0.002634  0.467386  1
  Ta  Ta8  1  0.347793  0.509181  0.373759  1
  Ta  Ta9  1  0.671105  0.671676  0.499652  1
  Ta  Ta10  1  0.826854  0.172968  0.750755  1
  Ta  Ta11  1  0.174137  0.826461  0.249455  1
  Ti  Ti12  1  0.846969  0.991657  0.375173  1
  Ti  Ti13  1  0.008846  0.153276  0.124882  1
  Ti  Ti14  1  0.991263  0.846736  0.624744  1
  Ti  Ti15  1  0.508225  0.346500  0.625754  1
  Ti  Ti16  1  0.153503  0.008742  0.875692  1
  Ti  Ti17  1  0.491298  0.652522  0.124923  1
  Ti  Ti18  1  0.653919  0.490481  0.875133  1
  Si  Si19  1  0.045148  0.708808  0.436135  1
  Si  Si20  1  0.955411  0.291358  0.936501  1
  Si  Si21  1  0.706811  0.045142  0.564719  1
  Si  Si22  1  0.207089  0.452384  0.183230  1
  Si  Si23  1  0.791888  0.545913  0.685911  1
  Si  Si24  1  0.452386  0.208779  0.815728  1
  Si  Si25  1  0.547985  0.795602  0.313681  1
  Si  Si26  1  0.291759  0.955592  0.063419  1
  Si  Si27  1  0.798235  0.869909  0.183919  1
  Si  Si28  1  0.295805  0.630665  0.566645  1
  Si  Si29  1  0.700541  0.370277  0.065074  1
  Si  Si30  1  0.632674  0.295957  0.433783  1
  Si  Si31  1  0.370648  0.700177  0.934883  1
  Si  Si32  1  0.129967  0.202491  0.315823  1
  Si  Si33  1  0.201884  0.129963  0.684884  1
  Si  Si34  1  0.869831  0.798033  0.815535  1
  W  W35  1  0.327752  0.327595  0.999921  1
