# generated using pymatgen
data_YbPr8ZrIr6
_symmetry_space_group_name_H-M   'P 1'
_cell_length_a   11.29006000
_cell_length_b   11.29006000
_cell_length_c   6.45072600
_cell_angle_alpha   90.00000000
_cell_angle_beta   90.00000000
_cell_angle_gamma   90.00000000
_symmetry_Int_Tables_number   1
_chemical_formula_structural   YbPr8ZrIr6
_chemical_formula_sum   'Yb2 Pr16 Zr2 Ir12'
_cell_volume   822.24472340
_cell_formula_units_Z   2
loop_
 _symmetry_equiv_pos_site_id
 _symmetry_equiv_pos_as_xyz
  1  'x, y, z'
loop_
 _atom_site_type_symbol
 _atom_site_label
 _atom_site_symmetry_multiplicity
 _atom_site_fract_x
 _atom_site_fract_y
 _atom_site_fract_z
 _atom_site_occupancy
  Yb  Yb0  1  0.500000  0.500000  0.000000  1
  Yb  Yb1  1  0.500000  0.500000  0.500000  1
  Pr  Pr2  1  0.285286  0.088035  0.379633  1
  Pr  Pr3  1  0.285286  0.911965  0.879633  1
  Pr  Pr4  1  0.714714  0.088035  0.879633  1
  Pr  Pr5  1  0.714714  0.911965  0.379633  1
  Pr  Pr6  1  0.587115  0.789679  0.881465  1
  Pr  Pr7  1  0.587115  0.210321  0.381465  1
  Pr  Pr8  1  0.412885  0.789679  0.381465  1
  Pr  Pr9  1  0.412885  0.210321  0.881465  1
  Pr  Pr10  1  0.210321  0.412885  0.618535  1
  Pr  Pr11  1  0.210321  0.587115  0.118535  1
  Pr  Pr12  1  0.789679  0.412885  0.118535  1
  Pr  Pr13  1  0.789679  0.587115  0.618535  1
  Pr  Pr14  1  0.911965  0.714714  0.120367  1
  Pr  Pr15  1  0.911965  0.285286  0.620367  1
  Pr  Pr16  1  0.088035  0.714714  0.620367  1
  Pr  Pr17  1  0.088035  0.285286  0.120367  1
  Zr  Zr18  1  0.000000  0.000000  0.500000  1
  Zr  Zr19  1  0.000000  0.000000  0.000000  1
  Ir  Ir20  1  0.863755  0.136245  0.250000  1
  Ir  Ir21  1  0.863755  0.863755  0.750000  1
  Ir  Ir22  1  0.136245  0.136245  0.750000  1
  Ir  Ir23  1  0.136245  0.863755  0.250000  1
  Ir  Ir24  1  0.655764  0.344236  0.750000  1
  Ir  Ir25  1  0.655764  0.655764  0.250000  1
  Ir  Ir26  1  0.344236  0.344236  0.250000  1
  Ir  Ir27  1  0.344236  0.655764  0.750000  1
  Ir  Ir28  1  0.500000  0.000000  0.116099  1
  Ir  Ir29  1  0.500000  0.000000  0.616099  1
  Ir  Ir30  1  0.000000  0.500000  0.883901  1
  Ir  Ir31  1  0.000000  0.500000  0.383901  1
