# generated using pymatgen
data_Y3Ni8As6Ru
_symmetry_space_group_name_H-M   'P 1'
_cell_length_a   3.89835100
_cell_length_b   10.93980200
_cell_length_c   12.86858600
_cell_angle_alpha   90.00000000
_cell_angle_beta   90.00000000
_cell_angle_gamma   90.00000000
_symmetry_Int_Tables_number   1
_chemical_formula_structural   Y3Ni8As6Ru
_chemical_formula_sum   'Y6 Ni16 As12 Ru2'
_cell_volume   548.80900729
_cell_formula_units_Z   2
loop_
 _symmetry_equiv_pos_site_id
 _symmetry_equiv_pos_as_xyz
  1  'x, y, z'
loop_
 _atom_site_type_symbol
 _atom_site_label
 _atom_site_symmetry_multiplicity
 _atom_site_fract_x
 _atom_site_fract_y
 _atom_site_fract_z
 _atom_site_occupancy
  Y  Y0  1  0.000000  0.500000  0.523444  1
  Y  Y1  1  0.500000  0.000000  0.476556  1
  Y  Y2  1  0.500000  0.815396  0.207804  1
  Y  Y3  1  0.500000  0.184604  0.207804  1
  Y  Y4  1  0.000000  0.684604  0.792196  1
  Y  Y5  1  0.000000  0.315396  0.792196  1
  Ni  Ni6  1  0.500000  0.500000  0.698595  1
  Ni  Ni7  1  0.000000  0.000000  0.301405  1
  Ni  Ni8  1  0.000000  0.500000  0.979660  1
  Ni  Ni9  1  0.500000  0.000000  0.020340  1
  Ni  Ni10  1  0.500000  0.331946  0.991396  1
  Ni  Ni11  1  0.500000  0.668054  0.991396  1
  Ni  Ni12  1  0.000000  0.168054  0.008604  1
  Ni  Ni13  1  0.000000  0.831946  0.008604  1
  Ni  Ni14  1  0.500000  0.304131  0.426614  1
  Ni  Ni15  1  0.500000  0.695869  0.426614  1
  Ni  Ni16  1  0.000000  0.195869  0.573386  1
  Ni  Ni17  1  0.000000  0.804131  0.573386  1
  Ni  Ni18  1  0.500000  0.879480  0.708639  1
  Ni  Ni19  1  0.500000  0.120520  0.708639  1
  Ni  Ni20  1  0.000000  0.620520  0.291361  1
  Ni  Ni21  1  0.000000  0.379480  0.291361  1
  As  As22  1  0.500000  0.500000  0.875222  1
  As  As23  1  0.000000  0.000000  0.124778  1
  As  As24  1  0.500000  0.500000  0.348011  1
  As  As25  1  0.000000  0.000000  0.651989  1
  As  As26  1  0.500000  0.313850  0.613517  1
  As  As27  1  0.500000  0.686150  0.613517  1
  As  As28  1  0.000000  0.186150  0.386483  1
  As  As29  1  0.000000  0.813850  0.386483  1
  As  As30  1  0.500000  0.849513  0.891309  1
  As  As31  1  0.500000  0.150487  0.891309  1
  As  As32  1  0.000000  0.650487  0.108691  1
  As  As33  1  0.000000  0.349513  0.108691  1
  Ru  Ru34  1  0.500000  0.500000  0.155862  1
  Ru  Ru35  1  0.000000  0.000000  0.844138  1
