# generated using pymatgen
data_Sr6Sn8BiS
_symmetry_space_group_name_H-M   'P 1'
_cell_length_a   8.93186868
_cell_length_b   8.93186898
_cell_length_c   8.93186907
_cell_angle_alpha   119.87956739
_cell_angle_beta   119.87957199
_cell_angle_gamma   90.20871785
_symmetry_Int_Tables_number   1
_chemical_formula_structural   Sr6Sn8BiS
_chemical_formula_sum   'Sr6 Sn8 Bi1 S1'
_cell_volume   504.77604146
_cell_formula_units_Z   1
loop_
 _symmetry_equiv_pos_site_id
 _symmetry_equiv_pos_as_xyz
  1  'x, y, z'
loop_
 _atom_site_type_symbol
 _atom_site_label
 _atom_site_symmetry_multiplicity
 _atom_site_fract_x
 _atom_site_fract_y
 _atom_site_fract_z
 _atom_site_occupancy
  Sr  Sr0  1  0.267468  0.267468  0.000000  1
  Sr  Sr1  1  0.732532  0.732532  0.000000  1
  Sr  Sr2  1  0.180556  0.653011  0.833568  1
  Sr  Sr3  1  0.819444  0.346989  0.166432  1
  Sr  Sr4  1  0.653011  0.819444  0.472454  1
  Sr  Sr5  1  0.346989  0.180556  0.527546  1
  Sn  Sn6  1  0.836690  0.327168  0.785636  1
  Sn  Sn7  1  0.163310  0.672832  0.214364  1
  Sn  Sn8  1  0.541532  0.051054  0.214364  1
  Sn  Sn9  1  0.327168  0.541532  0.490478  1
  Sn  Sn10  1  0.948946  0.163310  0.490478  1
  Sn  Sn11  1  0.458468  0.948946  0.785636  1
  Sn  Sn12  1  0.672832  0.458468  0.509522  1
  Sn  Sn13  1  0.051054  0.836690  0.509522  1
  Bi  Bi14  1  0.000000  0.000000  0.000000  1
  S  S15  1  0.500000  0.500000  0.000000  1
