# generated using pymatgen
data_ScPa7(SnPt2)4
_symmetry_space_group_name_H-M   'P 1'
_cell_length_a   7.73709600
_cell_length_b   7.73709464
_cell_length_c   7.39395000
_cell_angle_alpha   90.00000000
_cell_angle_beta   90.00000000
_cell_angle_gamma   89.83876342
_symmetry_Int_Tables_number   1
_chemical_formula_structural   ScPa7(SnPt2)4
_chemical_formula_sum   'Sc1 Pa7 Sn4 Pt8'
_cell_volume   442.61964369
_cell_formula_units_Z   1
loop_
 _symmetry_equiv_pos_site_id
 _symmetry_equiv_pos_as_xyz
  1  'x, y, z'
loop_
 _atom_site_type_symbol
 _atom_site_label
 _atom_site_symmetry_multiplicity
 _atom_site_fract_x
 _atom_site_fract_y
 _atom_site_fract_z
 _atom_site_occupancy
  Sc  Sc0  1  0.682200  0.317800  0.500000  1
  Pa  Pa1  1  0.317718  0.682282  0.500000  1
  Pa  Pa2  1  0.187227  0.183538  0.000000  1
  Pa  Pa3  1  0.816462  0.812773  0.000000  1
  Pa  Pa4  1  0.852802  0.856906  0.500000  1
  Pa  Pa5  1  0.143094  0.147198  0.500000  1
  Pa  Pa6  1  0.357087  0.642913  0.000000  1
  Pa  Pa7  1  0.646821  0.353179  0.000000  1
  Sn  Sn8  1  0.503565  0.006444  0.255926  1
  Sn  Sn9  1  0.993556  0.496435  0.744074  1
  Sn  Sn10  1  0.503565  0.006444  0.744074  1
  Sn  Sn11  1  0.993556  0.496435  0.255926  1
  Pt  Pt12  1  0.867099  0.132901  0.212906  1
  Pt  Pt13  1  0.135219  0.864781  0.214101  1
  Pt  Pt14  1  0.365530  0.366675  0.713934  1
  Pt  Pt15  1  0.633325  0.634470  0.713934  1
  Pt  Pt16  1  0.135219  0.864781  0.785899  1
  Pt  Pt17  1  0.867099  0.132901  0.787094  1
  Pt  Pt18  1  0.633325  0.634470  0.286066  1
  Pt  Pt19  1  0.365530  0.366675  0.286066  1
