# generated using pymatgen
data_PrScSe3
_symmetry_space_group_name_H-M   'P 1'
_cell_length_a   6.82790400
_cell_length_b   7.53452800
_cell_length_c   10.06246900
_cell_angle_alpha   90.00000000
_cell_angle_beta   90.00000000
_cell_angle_gamma   90.00000000
_symmetry_Int_Tables_number   1
_chemical_formula_structural   PrScSe3
_chemical_formula_sum   'Pr4 Sc4 Se12'
_cell_volume   517.66405851
_cell_formula_units_Z   4
loop_
 _symmetry_equiv_pos_site_id
 _symmetry_equiv_pos_as_xyz
  1  'x, y, z'
loop_
 _atom_site_type_symbol
 _atom_site_label
 _atom_site_symmetry_multiplicity
 _atom_site_fract_x
 _atom_site_fract_y
 _atom_site_fract_z
 _atom_site_occupancy
  Pr  Pr0  1  0.960514  0.898558  0.750000  1
  Pr  Pr1  1  0.460514  0.601442  0.250000  1
  Pr  Pr2  1  0.539486  0.398558  0.750000  1
  Pr  Pr3  1  0.039486  0.101442  0.250000  1
  Sc  Sc4  1  0.500000  0.000000  0.500000  1
  Sc  Sc5  1  0.000000  0.500000  0.500000  1
  Sc  Sc6  1  0.000000  0.500000  0.000000  1
  Sc  Sc7  1  0.500000  0.000000  0.000000  1
  Se  Se8  1  0.823494  0.186278  0.562418  1
  Se  Se9  1  0.323494  0.313722  0.437582  1
  Se  Se10  1  0.676506  0.686278  0.937582  1
  Se  Se11  1  0.176506  0.813722  0.062418  1
  Se  Se12  1  0.176506  0.813722  0.437582  1
  Se  Se13  1  0.676506  0.686278  0.562418  1
  Se  Se14  1  0.323494  0.313722  0.062418  1
  Se  Se15  1  0.823494  0.186278  0.937582  1
  Se  Se16  1  0.630797  0.964131  0.250000  1
  Se  Se17  1  0.130797  0.535869  0.750000  1
  Se  Se18  1  0.869203  0.464131  0.250000  1
  Se  Se19  1  0.369203  0.035869  0.750000  1
