# generated using pymatgen
data_Zr4TiSi2Ge2Mo3
_symmetry_space_group_name_H-M   'P 1'
_cell_length_a   3.56610900
_cell_length_b   7.03743533
_cell_length_c   8.37338037
_cell_angle_alpha   89.73416040
_cell_angle_beta   90.00000000
_cell_angle_gamma   90.00000000
_symmetry_Int_Tables_number   1
_chemical_formula_structural   Zr4TiSi2Ge2Mo3
_chemical_formula_sum   'Zr4 Ti1 Si2 Ge2 Mo3'
_cell_volume   210.13828134
_cell_formula_units_Z   1
loop_
 _symmetry_equiv_pos_site_id
 _symmetry_equiv_pos_as_xyz
  1  'x, y, z'
loop_
 _atom_site_type_symbol
 _atom_site_label
 _atom_site_symmetry_multiplicity
 _atom_site_fract_x
 _atom_site_fract_y
 _atom_site_fract_z
 _atom_site_occupancy
  Zr  Zr0  1  0.250000  0.050626  0.336662  1
  Zr  Zr1  1  0.250000  0.549614  0.162542  1
  Zr  Zr2  1  0.750000  0.954866  0.669003  1
  Zr  Zr3  1  0.750000  0.460866  0.827650  1
  Ti  Ti4  1  0.250000  0.121229  0.937053  1
  Si  Si5  1  0.250000  0.253991  0.640069  1
  Si  Si6  1  0.250000  0.754381  0.861870  1
  Ge  Ge7  1  0.750000  0.746622  0.363120  1
  Ge  Ge8  1  0.750000  0.246245  0.137246  1
  Mo  Mo9  1  0.250000  0.625265  0.564612  1
  Mo  Mo10  1  0.750000  0.866473  0.056165  1
  Mo  Mo11  1  0.750000  0.369821  0.444008  1
