# generated using pymatgen
data_TbNd4YSi4
_symmetry_space_group_name_H-M   'P 1'
_cell_length_a   7.63569500
_cell_length_b   7.63569500
_cell_length_c   4.39763700
_cell_angle_alpha   90.00000000
_cell_angle_beta   90.00000000
_cell_angle_gamma   90.00000000
_symmetry_Int_Tables_number   1
_chemical_formula_structural   TbNd4YSi4
_chemical_formula_sum   'Tb1 Nd4 Y1 Si4'
_cell_volume   256.39911582
_cell_formula_units_Z   1
loop_
 _symmetry_equiv_pos_site_id
 _symmetry_equiv_pos_as_xyz
  1  'x, y, z'
loop_
 _atom_site_type_symbol
 _atom_site_label
 _atom_site_symmetry_multiplicity
 _atom_site_fract_x
 _atom_site_fract_y
 _atom_site_fract_z
 _atom_site_occupancy
  Tb  Tb0  1  0.000000  0.000000  0.000000  1
  Nd  Nd1  1  0.676907  0.176859  0.500000  1
  Nd  Nd2  1  0.323093  0.823141  0.500000  1
  Nd  Nd3  1  0.176859  0.323093  0.500000  1
  Nd  Nd4  1  0.823141  0.676907  0.500000  1
  Y  Y5  1  0.500000  0.500000  0.000000  1
  Si  Si6  1  0.113526  0.613442  0.000000  1
  Si  Si7  1  0.886474  0.386558  0.000000  1
  Si  Si8  1  0.613442  0.886474  0.000000  1
  Si  Si9  1  0.386558  0.113526  0.000000  1
