# generated using pymatgen
data_Dy3ErCo16(P3Rh)4
_symmetry_space_group_name_H-M   'P 1'
_cell_length_a   3.69754600
_cell_length_b   10.39561069
_cell_length_c   11.84302882
_cell_angle_alpha   89.95774562
_cell_angle_beta   90.00000000
_cell_angle_gamma   90.00000000
_symmetry_Int_Tables_number   1
_chemical_formula_structural   Dy3ErCo16(P3Rh)4
_chemical_formula_sum   'Dy3 Er1 Co16 P12 Rh4'
_cell_volume   455.22516381
_cell_formula_units_Z   1
loop_
 _symmetry_equiv_pos_site_id
 _symmetry_equiv_pos_as_xyz
  1  'x, y, z'
loop_
 _atom_site_type_symbol
 _atom_site_label
 _atom_site_symmetry_multiplicity
 _atom_site_fract_x
 _atom_site_fract_y
 _atom_site_fract_z
 _atom_site_occupancy
  Dy  Dy0  1  0.250000  0.915016  0.203827  1
  Dy  Dy1  1  0.750000  0.415250  0.296148  1
  Dy  Dy2  1  0.750000  0.084728  0.796370  1
  Er  Er3  1  0.250000  0.584942  0.703491  1
  Co  Co4  1  0.250000  0.409428  0.488066  1
  Co  Co5  1  0.250000  0.090971  0.987838  1
  Co  Co6  1  0.750000  0.591397  0.513301  1
  Co  Co7  1  0.750000  0.909011  0.012279  1
  Co  Co8  1  0.250000  0.221597  0.175619  1
  Co  Co9  1  0.250000  0.278625  0.675672  1
  Co  Co10  1  0.750000  0.777984  0.824262  1
  Co  Co11  1  0.750000  0.721230  0.324550  1
  Co  Co12  1  0.250000  0.884723  0.702375  1
  Co  Co13  1  0.250000  0.614499  0.202130  1
  Co  Co14  1  0.750000  0.114666  0.297852  1
  Co  Co15  1  0.750000  0.386147  0.797234  1
  Co  Co16  1  0.250000  0.465809  0.929474  1
  Co  Co17  1  0.250000  0.034729  0.430419  1
  Co  Co18  1  0.750000  0.534835  0.069167  1
  Co  Co19  1  0.750000  0.964706  0.570022  1
  P  P20  1  0.250000  0.421561  0.112176  1
  P  P21  1  0.250000  0.078200  0.612826  1
  P  P22  1  0.750000  0.578640  0.886417  1
  P  P23  1  0.750000  0.921388  0.387507  1
  P  P24  1  0.250000  0.271824  0.864782  1
  P  P25  1  0.250000  0.228406  0.364880  1
  P  P26  1  0.750000  0.728109  0.135329  1
  P  P27  1  0.750000  0.770775  0.635522  1
  P  P28  1  0.250000  0.595168  0.389823  1
  P  P29  1  0.250000  0.904826  0.889955  1
  P  P30  1  0.750000  0.405578  0.610251  1
  P  P31  1  0.750000  0.095181  0.110230  1
  Rh  Rh32  1  0.250000  0.717312  0.992012  1
  Rh  Rh33  1  0.250000  0.782759  0.491996  1
  Rh  Rh34  1  0.750000  0.282757  0.007892  1
  Rh  Rh35  1  0.750000  0.217221  0.508304  1
