# generated using pymatgen
data_Cs4Na2YInP4
_symmetry_space_group_name_H-M   'P 1'
_cell_length_a   9.71710747
_cell_length_b   9.71710748
_cell_length_c   9.71710864
_cell_angle_alpha   137.81692820
_cell_angle_beta   60.30373940
_cell_angle_gamma   138.97287614
_symmetry_Int_Tables_number   1
_chemical_formula_structural   Cs4Na2YInP4
_chemical_formula_sum   'Cs4 Na2 Y1 In1 P4'
_cell_volume   400.19119390
_cell_formula_units_Z   1
loop_
 _symmetry_equiv_pos_site_id
 _symmetry_equiv_pos_as_xyz
  1  'x, y, z'
loop_
 _atom_site_type_symbol
 _atom_site_label
 _atom_site_symmetry_multiplicity
 _atom_site_fract_x
 _atom_site_fract_y
 _atom_site_fract_z
 _atom_site_occupancy
  Cs  Cs0  1  0.318841  0.724501  0.053325  1
  Cs  Cs1  1  0.181159  0.234484  0.405659  1
  Cs  Cs2  1  0.828825  0.775499  0.594340  1
  Cs  Cs3  1  0.671175  0.265516  0.946675  1
  Na  Na4  1  0.249999  0.249999  0.000000  1
  Na  Na5  1  0.750000  0.750000  0.000000  1
  Y  Y6  1  0.749999  0.249999  0.500000  1
  In  In7  1  0.249999  0.749999  0.500000  1
  P  P8  1  0.917513  0.289038  0.194780  1
  P  P9  1  0.582488  0.777268  0.371525  1
  P  P10  1  0.405742  0.210962  0.628475  1
  P  P11  1  0.094257  0.722732  0.805219  1
