# generated using pymatgen
data_Ta2Zn(Fe10B3)2
_symmetry_space_group_name_H-M   'P 1'
_cell_length_a   7.55262273
_cell_length_b   7.55337189
_cell_length_c   7.55294001
_cell_angle_alpha   59.99291428
_cell_angle_beta   59.99672845
_cell_angle_gamma   59.98824628
_symmetry_Int_Tables_number   1
_chemical_formula_structural   Ta2Zn(Fe10B3)2
_chemical_formula_sum   'Ta2 Zn1 Fe20 B6'
_cell_volume   304.62609966
_cell_formula_units_Z   1
loop_
 _symmetry_equiv_pos_site_id
 _symmetry_equiv_pos_as_xyz
  1  'x, y, z'
loop_
 _atom_site_type_symbol
 _atom_site_label
 _atom_site_symmetry_multiplicity
 _atom_site_fract_x
 _atom_site_fract_y
 _atom_site_fract_z
 _atom_site_occupancy
  Ta  Ta0  1  0.249933  0.249977  0.250031  1
  Ta  Ta1  1  0.750067  0.750023  0.749969  1
  Zn  Zn2  1  0.000000  0.000000  0.000000  1
  Fe  Fe3  1  0.343253  0.656855  0.999956  1
  Fe  Fe4  1  0.343130  0.999974  0.656902  1
  Fe  Fe5  1  0.999985  0.656922  0.343149  1
  Fe  Fe6  1  0.616195  0.151463  0.616180  1
  Fe  Fe7  1  0.383800  0.383809  0.848572  1
  Fe  Fe8  1  0.848527  0.383810  0.383826  1
  Fe  Fe9  1  0.383797  0.383806  0.383804  1
  Fe  Fe10  1  0.151473  0.616190  0.616174  1
  Fe  Fe11  1  0.616203  0.616194  0.616196  1
  Fe  Fe12  1  0.616200  0.616191  0.151428  1
  Fe  Fe13  1  0.383805  0.848537  0.383820  1
  Fe  Fe14  1  0.656747  0.343145  0.000044  1
  Fe  Fe15  1  0.000015  0.343078  0.656851  1
  Fe  Fe16  1  0.656734  0.000106  0.000063  1
  Fe  Fe17  1  0.999941  0.999918  0.343291  1
  Fe  Fe18  1  0.000059  0.000082  0.656709  1
  Fe  Fe19  1  0.999956  0.343233  0.999978  1
  Fe  Fe20  1  0.656870  0.000026  0.343098  1
  Fe  Fe21  1  0.343266  0.999894  0.999937  1
  Fe  Fe22  1  0.000044  0.656767  0.000022  1
  B  B23  1  0.276289  0.276341  0.723719  1
  B  B24  1  0.723711  0.723659  0.276281  1
  B  B25  1  0.723767  0.276226  0.723649  1
  B  B26  1  0.276233  0.723774  0.276351  1
  B  B27  1  0.276187  0.723755  0.723685  1
  B  B28  1  0.723813  0.276245  0.276315  1
