# generated using pymatgen
data_Dy3YTm4(B6Os)4
_symmetry_space_group_name_H-M   'P 1'
_cell_length_a   3.63332600
_cell_length_b   9.10439213
_cell_length_c   11.49352186
_cell_angle_alpha   90.00409247
_cell_angle_beta   90.00000000
_cell_angle_gamma   90.00000000
_symmetry_Int_Tables_number   1
_chemical_formula_structural   Dy3YTm4(B6Os)4
_chemical_formula_sum   'Dy3 Y1 Tm4 B24 Os4'
_cell_volume   380.19679066
_cell_formula_units_Z   1
loop_
 _symmetry_equiv_pos_site_id
 _symmetry_equiv_pos_as_xyz
  1  'x, y, z'
loop_
 _atom_site_type_symbol
 _atom_site_label
 _atom_site_symmetry_multiplicity
 _atom_site_fract_x
 _atom_site_fract_y
 _atom_site_fract_z
 _atom_site_occupancy
  Dy  Dy0  1  0.000000  0.321414  0.414210  1
  Dy  Dy1  1  0.000000  0.678522  0.585816  1
  Dy  Dy2  1  0.000000  0.821444  0.085793  1
  Y  Y3  1  0.000000  0.178945  0.914179  1
  Tm  Tm4  1  0.000000  0.943721  0.372895  1
  Tm  Tm5  1  0.000000  0.056198  0.627023  1
  Tm  Tm6  1  0.000000  0.443820  0.127177  1
  Tm  Tm7  1  0.000000  0.556308  0.872932  1
  B  B8  1  0.500000  0.554075  0.432962  1
  B  B9  1  0.500000  0.445930  0.567079  1
  B  B10  1  0.500000  0.054017  0.067154  1
  B  B11  1  0.500000  0.945777  0.932898  1
  B  B12  1  0.500000  0.748864  0.419325  1
  B  B13  1  0.500000  0.251091  0.580615  1
  B  B14  1  0.500000  0.248996  0.080868  1
  B  B15  1  0.500000  0.751079  0.919324  1
  B  B16  1  0.500000  0.791078  0.265939  1
  B  B17  1  0.500000  0.208887  0.733919  1
  B  B18  1  0.500000  0.291148  0.234148  1
  B  B19  1  0.500000  0.708815  0.765907  1
  B  B20  1  0.500000  0.630750  0.184754  1
  B  B21  1  0.500000  0.369378  0.815190  1
  B  B22  1  0.500000  0.130745  0.315279  1
  B  B23  1  0.500000  0.869127  0.684644  1
  B  B24  1  0.500000  0.982535  0.213292  1
  B  B25  1  0.500000  0.017294  0.786547  1
  B  B26  1  0.500000  0.482567  0.286779  1
  B  B27  1  0.500000  0.517442  0.713306  1
  B  B28  1  0.500000  0.604862  0.028944  1
  B  B29  1  0.500000  0.395346  0.971178  1
  B  B30  1  0.500000  0.104879  0.471043  1
  B  B31  1  0.500000  0.895034  0.528866  1
  Os  Os32  1  0.000000  0.637587  0.320739  1
  Os  Os33  1  0.000000  0.362450  0.679215  1
  Os  Os34  1  0.000000  0.137608  0.179439  1
  Os  Os35  1  0.000000  0.862260  0.820621  1
