# generated using pymatgen
data_Y3HoAlIr
_symmetry_space_group_name_H-M   'P 1'
_cell_length_a   9.55765969
_cell_length_b   9.55765948
_cell_length_c   9.55766000
_cell_angle_alpha   59.99999820
_cell_angle_beta   59.99999892
_cell_angle_gamma   59.99999656
_symmetry_Int_Tables_number   1
_chemical_formula_structural   Y3HoAlIr
_chemical_formula_sum   'Y12 Ho4 Al4 Ir4'
_cell_volume   617.36168816
_cell_formula_units_Z   4
loop_
 _symmetry_equiv_pos_site_id
 _symmetry_equiv_pos_as_xyz
  1  'x, y, z'
loop_
 _atom_site_type_symbol
 _atom_site_label
 _atom_site_symmetry_multiplicity
 _atom_site_fract_x
 _atom_site_fract_y
 _atom_site_fract_z
 _atom_site_occupancy
  Y  Y0  1  0.806402  0.193598  0.193598  1
  Y  Y1  1  0.193598  0.806402  0.806402  1
  Y  Y2  1  0.193598  0.806402  0.193598  1
  Y  Y3  1  0.806402  0.193598  0.806402  1
  Y  Y4  1  0.193598  0.193598  0.806402  1
  Y  Y5  1  0.806402  0.806402  0.193598  1
  Y  Y6  1  0.939089  0.560911  0.560911  1
  Y  Y7  1  0.560911  0.939089  0.939089  1
  Y  Y8  1  0.560911  0.939089  0.560911  1
  Y  Y9  1  0.939089  0.560911  0.939089  1
  Y  Y10  1  0.560911  0.560911  0.939089  1
  Y  Y11  1  0.939089  0.939089  0.560911  1
  Ho  Ho12  1  0.352071  0.352071  0.352071  1
  Ho  Ho13  1  0.352071  0.352071  0.943785  1
  Ho  Ho14  1  0.352071  0.943785  0.352071  1
  Ho  Ho15  1  0.943785  0.352071  0.352071  1
  Al  Al16  1  0.578322  0.578322  0.578322  1
  Al  Al17  1  0.578322  0.578322  0.265033  1
  Al  Al18  1  0.578322  0.265033  0.578322  1
  Al  Al19  1  0.265033  0.578322  0.578322  1
  Ir  Ir20  1  0.142946  0.142946  0.142946  1
  Ir  Ir21  1  0.142946  0.142946  0.571161  1
  Ir  Ir22  1  0.142946  0.571161  0.142946  1
  Ir  Ir23  1  0.571161  0.142946  0.142946  1
