# generated using pymatgen
data_Ba2Ag3(PdO2)7
_symmetry_space_group_name_H-M   'P 1'
_cell_length_a   6.17780342
_cell_length_b   6.17780331
_cell_length_c   11.11068000
_cell_angle_alpha   89.91990585
_cell_angle_beta   89.91990395
_cell_angle_gamma   61.19373420
_symmetry_Int_Tables_number   1
_chemical_formula_structural   Ba2Ag3(PdO2)7
_chemical_formula_sum   'Ba2 Ag3 Pd7 O14'
_cell_volume   371.56794245
_cell_formula_units_Z   1
loop_
 _symmetry_equiv_pos_site_id
 _symmetry_equiv_pos_as_xyz
  1  'x, y, z'
loop_
 _atom_site_type_symbol
 _atom_site_label
 _atom_site_symmetry_multiplicity
 _atom_site_fract_x
 _atom_site_fract_y
 _atom_site_fract_z
 _atom_site_occupancy
  Ba  Ba0  1  0.500109  0.500109  0.711082  1
  Ba  Ba1  1  0.499891  0.499891  0.288918  1
  Ag  Ag2  1  0.831738  0.831738  0.196806  1
  Ag  Ag3  1  0.168262  0.168262  0.803194  1
  Ag  Ag4  1  0.000000  0.000000  0.500000  1
  Pd  Pd5  1  0.000000  0.000000  0.000000  1
  Pd  Pd6  1  0.833429  0.833429  0.775296  1
  Pd  Pd7  1  0.166571  0.166571  0.224704  1
  Pd  Pd8  1  0.000000  0.500000  0.000000  1
  Pd  Pd9  1  0.500000  0.000000  0.500000  1
  Pd  Pd10  1  0.000000  0.500000  0.500000  1
  Pd  Pd11  1  0.500000  0.000000  0.000000  1
  O  O12  1  0.689578  0.125259  0.896533  1
  O  O13  1  0.686573  0.686573  0.898821  1
  O  O14  1  0.483211  0.004697  0.318391  1
  O  O15  1  0.362750  0.362750  0.501553  1
  O  O16  1  0.995303  0.516789  0.681609  1
  O  O17  1  0.005057  0.005057  0.316280  1
  O  O18  1  0.516789  0.995303  0.681609  1
  O  O19  1  0.125259  0.689578  0.896533  1
  O  O20  1  0.310422  0.874741  0.103467  1
  O  O21  1  0.637250  0.637250  0.498447  1
  O  O22  1  0.313427  0.313427  0.101179  1
  O  O23  1  0.004697  0.483211  0.318391  1
  O  O24  1  0.994943  0.994943  0.683720  1
  O  O25  1  0.874741  0.310422  0.103467  1
