# generated using pymatgen
data_Tm9LuGa3Bi2Pt
_symmetry_space_group_name_H-M   'P 1'
_cell_length_a   8.52948629
_cell_length_b   8.52948591
_cell_length_c   8.65850142
_cell_angle_alpha   124.56497667
_cell_angle_beta   124.56463182
_cell_angle_gamma   81.26648648
_symmetry_Int_Tables_number   1
_chemical_formula_structural   Tm9LuGa3Bi2Pt
_chemical_formula_sum   'Tm9 Lu1 Ga3 Bi2 Pt1'
_cell_volume   413.52305174
_cell_formula_units_Z   1
loop_
 _symmetry_equiv_pos_site_id
 _symmetry_equiv_pos_as_xyz
  1  'x, y, z'
loop_
 _atom_site_type_symbol
 _atom_site_label
 _atom_site_symmetry_multiplicity
 _atom_site_fract_x
 _atom_site_fract_y
 _atom_site_fract_z
 _atom_site_occupancy
  Tm  Tm0  1  0.500302  0.502141  0.002443  1
  Tm  Tm1  1  0.784331  0.295526  0.798950  1
  Tm  Tm2  1  0.204380  0.715712  0.201024  1
  Tm  Tm3  1  0.485312  0.996644  0.201024  1
  Tm  Tm4  1  0.298656  0.468733  0.499932  1
  Tm  Tm5  1  0.031199  0.201276  0.499932  1
  Tm  Tm6  1  0.503424  0.014619  0.798950  1
  Tm  Tm7  1  0.705516  0.513315  0.500063  1
  Tm  Tm8  1  0.986748  0.794547  0.500063  1
  Lu  Lu9  1  0.997917  0.999729  0.997647  1
  Ga  Ga10  1  0.144409  0.645487  0.789897  1
  Ga  Ga11  1  0.854612  0.355516  0.210127  1
  Ga  Ga12  1  0.639944  0.860142  0.500085  1
  Bi  Bi13  1  0.246104  0.253782  0.999996  1
  Bi  Bi14  1  0.746214  0.753893  0.999996  1
  Pt  Pt15  1  0.370934  0.128938  0.499871  1
