# generated using pymatgen
data_Sm4Lu(GaTe)2
_symmetry_space_group_name_H-M   'P 1'
_cell_length_a   8.77554929
_cell_length_b   8.77554965
_cell_length_c   8.02531200
_cell_angle_alpha   90.00000000
_cell_angle_beta   90.00000000
_cell_angle_gamma   125.83238679
_symmetry_Int_Tables_number   1
_chemical_formula_structural   Sm4Lu(GaTe)2
_chemical_formula_sum   'Sm8 Lu2 Ga4 Te4'
_cell_volume   501.05850107
_cell_formula_units_Z   2
loop_
 _symmetry_equiv_pos_site_id
 _symmetry_equiv_pos_as_xyz
  1  'x, y, z'
loop_
 _atom_site_type_symbol
 _atom_site_label
 _atom_site_symmetry_multiplicity
 _atom_site_fract_x
 _atom_site_fract_y
 _atom_site_fract_z
 _atom_site_occupancy
  Sm  Sm0  1  0.793169  0.537718  0.165217  1
  Sm  Sm1  1  0.462282  0.206831  0.834783  1
  Sm  Sm2  1  0.962282  0.706831  0.665217  1
  Sm  Sm3  1  0.293169  0.037718  0.334783  1
  Sm  Sm4  1  0.206831  0.462282  0.834783  1
  Sm  Sm5  1  0.537718  0.793169  0.165217  1
  Sm  Sm6  1  0.037718  0.293169  0.334783  1
  Sm  Sm7  1  0.706831  0.962282  0.665217  1
  Lu  Lu8  1  0.000000  0.000000  0.000000  1
  Lu  Lu9  1  0.500000  0.500000  0.500000  1
  Ga  Ga10  1  0.865311  0.865311  0.366109  1
  Ga  Ga11  1  0.134689  0.134689  0.633891  1
  Ga  Ga12  1  0.634689  0.634689  0.866109  1
  Ga  Ga13  1  0.365311  0.365311  0.133891  1
  Te  Te14  1  0.201816  0.798184  0.000000  1
  Te  Te15  1  0.701816  0.298184  0.500000  1
  Te  Te16  1  0.798184  0.201816  0.000000  1
  Te  Te17  1  0.298184  0.701816  0.500000  1
