# generated using pymatgen
data_U4Mn6Si4As2Ru
_symmetry_space_group_name_H-M   'P 1'
_cell_length_a   6.93272737
_cell_length_b   6.92877449
_cell_length_c   6.92999973
_cell_angle_alpha   109.60421025
_cell_angle_beta   109.39461657
_cell_angle_gamma   109.38723021
_symmetry_Int_Tables_number   1
_chemical_formula_structural   U4Mn6Si4As2Ru
_chemical_formula_sum   'U4 Mn6 Si4 As2 Ru1'
_cell_volume   256.34109590
_cell_formula_units_Z   1
loop_
 _symmetry_equiv_pos_site_id
 _symmetry_equiv_pos_as_xyz
  1  'x, y, z'
loop_
 _atom_site_type_symbol
 _atom_site_label
 _atom_site_symmetry_multiplicity
 _atom_site_fract_x
 _atom_site_fract_y
 _atom_site_fract_z
 _atom_site_occupancy
  U  U0  1  0.006551  0.003342  0.503307  1
  U  U1  1  0.498183  0.003108  0.003152  1
  U  U2  1  0.006582  0.503276  0.003242  1
  U  U3  1  0.498174  0.495044  0.495092  1
  Mn  Mn4  1  0.746660  0.497099  0.249788  1
  Mn  Mn5  1  0.493696  0.746744  0.246948  1
  Mn  Mn6  1  0.493409  0.246764  0.746644  1
  Mn  Mn7  1  0.746612  0.249761  0.497007  1
  Mn  Mn8  1  0.245939  0.748898  0.496885  1
  Mn  Mn9  1  0.245971  0.496842  0.748821  1
  Si  Si10  1  0.321944  0.000321  0.321700  1
  Si  Si11  1  0.000487  0.326279  0.326365  1
  Si  Si12  1  0.000411  0.674117  0.674115  1
  Si  Si13  1  0.321913  0.321669  0.000270  1
  As  As14  1  0.680934  0.680736  0.000209  1
  As  As15  1  0.681014  0.000230  0.680681  1
  Ru  Ru16  1  0.011520  0.005772  0.005777  1
