# generated using pymatgen
data_Y7Lu3(Bi2Sb)2
_symmetry_space_group_name_H-M   'P 1'
_cell_length_a   8.14055500
_cell_length_b   9.42072702
_cell_length_c   11.97007402
_cell_angle_alpha   89.99274218
_cell_angle_beta   90.00000000
_cell_angle_gamma   90.00000000
_symmetry_Int_Tables_number   1
_chemical_formula_structural   Y7Lu3(Bi2Sb)2
_chemical_formula_sum   'Y14 Lu6 Bi8 Sb4'
_cell_volume   917.98432839
_cell_formula_units_Z   2
loop_
 _symmetry_equiv_pos_site_id
 _symmetry_equiv_pos_as_xyz
  1  'x, y, z'
loop_
 _atom_site_type_symbol
 _atom_site_label
 _atom_site_symmetry_multiplicity
 _atom_site_fract_x
 _atom_site_fract_y
 _atom_site_fract_z
 _atom_site_occupancy
  Y  Y0  1  0.183503  0.749990  0.718275  1
  Y  Y1  1  0.683503  0.750010  0.781725  1
  Y  Y2  1  0.817122  0.249454  0.282056  1
  Y  Y3  1  0.317122  0.250546  0.217944  1
  Y  Y4  1  0.689972  0.938455  0.058234  1
  Y  Y5  1  0.189972  0.561545  0.441766  1
  Y  Y6  1  0.690540  0.561290  0.058497  1
  Y  Y7  1  0.190540  0.938710  0.441503  1
  Y  Y8  1  0.309350  0.061978  0.941543  1
  Y  Y9  1  0.809350  0.438022  0.558457  1
  Y  Y10  1  0.354507  0.750291  0.213170  1
  Y  Y11  1  0.854507  0.749709  0.286830  1
  Y  Y12  1  0.646372  0.249790  0.786637  1
  Y  Y13  1  0.146372  0.250210  0.713363  1
  Lu  Lu14  1  0.028656  0.749644  0.988717  1
  Lu  Lu15  1  0.528656  0.750356  0.511283  1
  Lu  Lu16  1  0.972546  0.250660  0.010889  1
  Lu  Lu17  1  0.472546  0.249340  0.489111  1
  Lu  Lu18  1  0.309216  0.434867  0.941292  1
  Lu  Lu19  1  0.809216  0.065133  0.558708  1
  Bi  Bi20  1  0.434761  0.003447  0.671840  1
  Bi  Bi21  1  0.934761  0.496553  0.828160  1
  Bi  Bi22  1  0.565681  0.503367  0.327990  1
  Bi  Bi23  1  0.065681  0.996633  0.172010  1
  Bi  Bi24  1  0.565602  0.996360  0.328349  1
  Bi  Bi25  1  0.065602  0.503640  0.171651  1
  Bi  Bi26  1  0.434048  0.496312  0.672048  1
  Bi  Bi27  1  0.934048  0.003688  0.827952  1
  Sb  Sb28  1  0.406043  0.746764  0.958179  1
  Sb  Sb29  1  0.906043  0.753236  0.541821  1
  Sb  Sb30  1  0.592080  0.250720  0.040190  1
  Sb  Sb31  1  0.092080  0.249280  0.459810  1
