# generated using pymatgen
data_CoBi2Pd3O8
_symmetry_space_group_name_H-M   'P 1'
_cell_length_a   5.49771623
_cell_length_b   6.00014840
_cell_length_c   6.58974130
_cell_angle_alpha   114.99570851
_cell_angle_beta   96.62770130
_cell_angle_gamma   109.24499705
_symmetry_Int_Tables_number   1
_chemical_formula_structural   CoBi2Pd3O8
_chemical_formula_sum   'Co1 Bi2 Pd3 O8'
_cell_volume   177.57663385
_cell_formula_units_Z   1
loop_
 _symmetry_equiv_pos_site_id
 _symmetry_equiv_pos_as_xyz
  1  'x, y, z'
loop_
 _atom_site_type_symbol
 _atom_site_label
 _atom_site_symmetry_multiplicity
 _atom_site_fract_x
 _atom_site_fract_y
 _atom_site_fract_z
 _atom_site_occupancy
  Co  Co0  1  0.500000  0.500000  0.000000  1
  Bi  Bi1  1  0.862196  0.253592  0.658746  1
  Bi  Bi2  1  0.137804  0.746408  0.341254  1
  Pd  Pd3  1  0.500000  0.500000  0.500000  1
  Pd  Pd4  1  0.500000  0.000000  0.000000  1
  Pd  Pd5  1  0.000000  0.000000  0.000000  1
  O  O6  1  0.639671  0.404909  0.220213  1
  O  O7  1  0.360329  0.595091  0.779787  1
  O  O8  1  0.863858  0.642868  0.993031  1
  O  O9  1  0.136142  0.357132  0.006969  1
  O  O10  1  0.522546  0.855022  0.231289  1
  O  O11  1  0.477454  0.144978  0.768711  1
  O  O12  1  0.843932  0.856618  0.650246  1
  O  O13  1  0.156068  0.143382  0.349754  1
