# generated using pymatgen
data_Sm2Mn2Fe10P7
_symmetry_space_group_name_H-M   'P 1'
_cell_length_a   9.05964282
_cell_length_b   9.08406850
_cell_length_c   3.65252100
_cell_angle_alpha   90.00000000
_cell_angle_beta   90.00000000
_cell_angle_gamma   120.07438942
_symmetry_Int_Tables_number   1
_chemical_formula_structural   Sm2Mn2Fe10P7
_chemical_formula_sum   'Sm2 Mn2 Fe10 P7'
_cell_volume   260.12901440
_cell_formula_units_Z   1
loop_
 _symmetry_equiv_pos_site_id
 _symmetry_equiv_pos_as_xyz
  1  'x, y, z'
loop_
 _atom_site_type_symbol
 _atom_site_label
 _atom_site_symmetry_multiplicity
 _atom_site_fract_x
 _atom_site_fract_y
 _atom_site_fract_z
 _atom_site_occupancy
  Sm  Sm0  1  0.665210  0.331486  0.000000  1
  Sm  Sm1  1  0.334180  0.668844  0.500000  1
  Mn  Mn2  1  0.899269  0.115857  0.000000  1
  Mn  Mn3  1  0.888450  0.783074  0.000000  1
  Fe  Fe4  1  0.422966  0.056493  0.500000  1
  Fe  Fe5  1  0.944858  0.368244  0.500000  1
  Fe  Fe6  1  0.630697  0.575444  0.500000  1
  Fe  Fe7  1  0.152613  0.272021  0.500000  1
  Fe  Fe8  1  0.728640  0.880247  0.500000  1
  Fe  Fe9  1  0.119509  0.847056  0.500000  1
  Fe  Fe10  1  0.382673  0.432098  0.000000  1
  Fe  Fe11  1  0.566457  0.950632  0.000000  1
  Fe  Fe12  1  0.049969  0.617105  0.000000  1
  Fe  Fe13  1  0.213661  0.097796  0.000000  1
  P  P14  1  0.115172  0.405098  0.000000  1
  P  P15  1  0.597027  0.709653  0.000000  1
  P  P16  1  0.289792  0.893126  0.000000  1
  P  P17  1  0.003511  0.001013  0.500000  1
  P  P18  1  0.407373  0.299443  0.500000  1
  P  P19  1  0.695435  0.106577  0.500000  1
  P  P20  1  0.892535  0.588694  0.500000  1
