# generated using pymatgen
data_Sc4Co4Si6Ni2Ir
_symmetry_space_group_name_H-M   'P 1'
_cell_length_a   6.71139697
_cell_length_b   6.71300579
_cell_length_c   6.71300532
_cell_angle_alpha   109.50655717
_cell_angle_beta   109.45841010
_cell_angle_gamma   109.45841082
_symmetry_Int_Tables_number   1
_chemical_formula_structural   Sc4Co4Si6Ni2Ir
_chemical_formula_sum   'Sc4 Co4 Si6 Ni2 Ir1'
_cell_volume   232.79459133
_cell_formula_units_Z   1
loop_
 _symmetry_equiv_pos_site_id
 _symmetry_equiv_pos_as_xyz
  1  'x, y, z'
loop_
 _atom_site_type_symbol
 _atom_site_label
 _atom_site_symmetry_multiplicity
 _atom_site_fract_x
 _atom_site_fract_y
 _atom_site_fract_z
 _atom_site_occupancy
  Sc  Sc0  1  0.002543  0.001271  0.501271  1
  Sc  Sc1  1  0.002543  0.501271  0.001271  1
  Sc  Sc2  1  0.497355  0.995979  0.995979  1
  Sc  Sc3  1  0.497355  0.501375  0.501375  1
  Co  Co4  1  0.501350  0.250675  0.750675  1
  Co  Co5  1  0.248729  0.499419  0.749310  1
  Co  Co6  1  0.248729  0.749310  0.499419  1
  Co  Co7  1  0.501350  0.750675  0.250675  1
  Si  Si8  1  0.669174  0.671476  0.997698  1
  Si  Si9  1  0.326546  0.997905  0.328641  1
  Si  Si10  1  0.004248  0.330012  0.330012  1
  Si  Si11  1  0.326546  0.328641  0.997905  1
  Si  Si12  1  0.669174  0.997698  0.671476  1
  Si  Si13  1  0.004248  0.674236  0.674236  1
  Ni  Ni14  1  0.750178  0.250487  0.499691  1
  Ni  Ni15  1  0.750178  0.499691  0.250487  1
  Ir  Ir16  1  0.999755  0.999877  0.999877  1
