# generated using pymatgen
data_SmPa3(CdPt2)2
_symmetry_space_group_name_H-M   'P 1'
_cell_length_a   7.87209232
_cell_length_b   7.87209243
_cell_length_c   3.66385900
_cell_angle_alpha   90.00000000
_cell_angle_beta   90.00000000
_cell_angle_gamma   91.60766765
_symmetry_Int_Tables_number   1
_chemical_formula_structural   SmPa3(CdPt2)2
_chemical_formula_sum   'Sm1 Pa3 Cd2 Pt4'
_cell_volume   226.95937647
_cell_formula_units_Z   1
loop_
 _symmetry_equiv_pos_site_id
 _symmetry_equiv_pos_as_xyz
  1  'x, y, z'
loop_
 _atom_site_type_symbol
 _atom_site_label
 _atom_site_symmetry_multiplicity
 _atom_site_fract_x
 _atom_site_fract_y
 _atom_site_fract_z
 _atom_site_occupancy
  Sm  Sm0  1  0.826985  0.673015  0.500000  1
  Pa  Pa1  1  0.670042  0.171033  0.500000  1
  Pa  Pa2  1  0.328967  0.829958  0.500000  1
  Pa  Pa3  1  0.168571  0.331429  0.500000  1
  Cd  Cd4  1  0.999058  0.992829  0.000000  1
  Cd  Cd5  1  0.507171  0.500942  0.000000  1
  Pt  Pt6  1  0.145633  0.624509  0.000000  1
  Pt  Pt7  1  0.875491  0.354367  0.000000  1
  Pt  Pt8  1  0.616572  0.883428  0.000000  1
  Pt  Pt9  1  0.361510  0.138490  0.000000  1
