# generated using pymatgen
data_Nd5Np2PaH24
_symmetry_space_group_name_H-M   'P 1'
_cell_length_a   6.79109900
_cell_length_b   6.79525600
_cell_length_c   6.77794100
_cell_angle_alpha   90.00000000
_cell_angle_beta   90.00000000
_cell_angle_gamma   90.00000000
_symmetry_Int_Tables_number   1
_chemical_formula_structural   Nd5Np2PaH24
_chemical_formula_sum   'Nd5 Np2 Pa1 H24'
_cell_volume   312.78338001
_cell_formula_units_Z   1
loop_
 _symmetry_equiv_pos_site_id
 _symmetry_equiv_pos_as_xyz
  1  'x, y, z'
loop_
 _atom_site_type_symbol
 _atom_site_label
 _atom_site_symmetry_multiplicity
 _atom_site_fract_x
 _atom_site_fract_y
 _atom_site_fract_z
 _atom_site_occupancy
  Nd  Nd0  1  0.247106  0.999826  0.500000  1
  Nd  Nd1  1  0.752894  0.999826  0.500000  1
  Nd  Nd2  1  0.000000  0.499991  0.247318  1
  Nd  Nd3  1  0.000000  0.499991  0.752682  1
  Nd  Nd4  1  0.500000  0.755018  0.000000  1
  Np  Np5  1  0.000000  0.001884  0.000000  1
  Np  Np6  1  0.500000  0.250664  0.000000  1
  Pa  Pa7  1  0.500000  0.496230  0.500000  1
  H  H8  1  0.000000  0.153342  0.299065  1
  H  H9  1  0.500000  0.208344  0.659404  1
  H  H10  1  0.500000  0.789322  0.348364  1
  H  H11  1  0.791298  0.651145  0.500000  1
  H  H12  1  0.208702  0.651145  0.500000  1
  H  H13  1  0.350610  0.492468  0.796923  1
  H  H14  1  0.649390  0.492468  0.796923  1
  H  H15  1  0.303016  0.008013  0.151234  1
  H  H16  1  0.159426  0.297347  0.000000  1
  H  H17  1  0.847020  0.703655  0.000000  1
  H  H18  1  0.303016  0.008013  0.848766  1
  H  H19  1  0.840574  0.297347  0.000000  1
  H  H20  1  0.696984  0.008013  0.151234  1
  H  H21  1  0.696984  0.008013  0.848766  1
  H  H22  1  0.152980  0.703655  0.000000  1
  H  H23  1  0.000000  0.846470  0.702287  1
  H  H24  1  0.000000  0.153342  0.700935  1
  H  H25  1  0.000000  0.846470  0.297713  1
  H  H26  1  0.649390  0.492468  0.203077  1
  H  H27  1  0.350610  0.492468  0.203077  1
  H  H28  1  0.792386  0.347699  0.500000  1
  H  H29  1  0.207614  0.347699  0.500000  1
  H  H30  1  0.500000  0.789322  0.651636  1
  H  H31  1  0.500000  0.208344  0.340596  1
