# generated using pymatgen
data_Nd2Zn2SiPIr4
_symmetry_space_group_name_H-M   'P 1'
_cell_length_a   4.08856200
_cell_length_b   4.08856700
_cell_length_c   10.64034200
_cell_angle_alpha   90.00000000
_cell_angle_beta   90.00000000
_cell_angle_gamma   90.00000000
_symmetry_Int_Tables_number   1
_chemical_formula_structural   Nd2Zn2SiPIr4
_chemical_formula_sum   'Nd2 Zn2 Si1 P1 Ir4'
_cell_volume   177.86778389
_cell_formula_units_Z   1
loop_
 _symmetry_equiv_pos_site_id
 _symmetry_equiv_pos_as_xyz
  1  'x, y, z'
loop_
 _atom_site_type_symbol
 _atom_site_label
 _atom_site_symmetry_multiplicity
 _atom_site_fract_x
 _atom_site_fract_y
 _atom_site_fract_z
 _atom_site_occupancy
  Nd  Nd0  1  0.000000  0.500000  0.249861  1
  Nd  Nd1  1  0.500000  0.000000  0.752427  1
  Zn  Zn2  1  0.000000  0.000000  0.501418  1
  Zn  Zn3  1  0.500000  0.500000  0.501420  1
  Si  Si4  1  0.500000  0.000000  0.123199  1
  P  P5  1  0.000000  0.500000  0.876285  1
  Ir  Ir6  1  0.000000  0.000000  0.995693  1
  Ir  Ir7  1  0.500000  0.500000  0.995693  1
  Ir  Ir8  1  0.000000  0.500000  0.658487  1
  Ir  Ir9  1  0.500000  0.000000  0.345516  1
