# generated using pymatgen
data_Nb6VSnSe12
_symmetry_space_group_name_H-M   'P 1'
_cell_length_a   6.07055900
_cell_length_b   6.07056021
_cell_length_c   14.02383100
_cell_angle_alpha   90.00000000
_cell_angle_beta   90.00000000
_cell_angle_gamma   119.99998793
_symmetry_Int_Tables_number   1
_chemical_formula_structural   Nb6VSnSe12
_chemical_formula_sum   'Nb6 V1 Sn1 Se12'
_cell_volume   447.56365273
_cell_formula_units_Z   1
loop_
 _symmetry_equiv_pos_site_id
 _symmetry_equiv_pos_as_xyz
  1  'x, y, z'
loop_
 _atom_site_type_symbol
 _atom_site_label
 _atom_site_symmetry_multiplicity
 _atom_site_fract_x
 _atom_site_fract_y
 _atom_site_fract_z
 _atom_site_occupancy
  Nb  Nb0  1  0.000000  0.000000  0.522205  1
  Nb  Nb1  1  0.000000  0.000000  0.977795  1
  Nb  Nb2  1  0.333333  0.666667  0.978626  1
  Nb  Nb3  1  0.666667  0.333333  0.977900  1
  Nb  Nb4  1  0.666667  0.333333  0.522100  1
  Nb  Nb5  1  0.333333  0.666667  0.521374  1
  V  V6  1  0.666667  0.333333  0.750000  1
  Sn  Sn7  1  0.333333  0.666667  0.250000  1
  Se  Se8  1  0.332947  0.328858  0.401716  1
  Se  Se9  1  0.671142  0.004089  0.401716  1
  Se  Se10  1  0.995911  0.667053  0.401716  1
  Se  Se11  1  0.330698  0.333440  0.640737  1
  Se  Se12  1  0.002742  0.669302  0.640737  1
  Se  Se13  1  0.666560  0.997258  0.640737  1
  Se  Se14  1  0.666560  0.669302  0.859263  1
  Se  Se15  1  0.330698  0.997258  0.859263  1
  Se  Se16  1  0.002742  0.333440  0.859263  1
  Se  Se17  1  0.671142  0.667053  0.098284  1
  Se  Se18  1  0.995911  0.328858  0.098284  1
  Se  Se19  1  0.332947  0.004089  0.098284  1
