# generated using pymatgen
data_Sr4TiCo(IrO6)2
_symmetry_space_group_name_H-M   'P 1'
_cell_length_a   5.64707031
_cell_length_b   5.61200935
_cell_length_c   7.90543067
_cell_angle_alpha   90.15694547
_cell_angle_beta   89.99516793
_cell_angle_gamma   90.01515258
_symmetry_Int_Tables_number   1
_chemical_formula_structural   Sr4TiCo(IrO6)2
_chemical_formula_sum   'Sr4 Ti1 Co1 Ir2 O12'
_cell_volume   250.53330589
_cell_formula_units_Z   1
loop_
 _symmetry_equiv_pos_site_id
 _symmetry_equiv_pos_as_xyz
  1  'x, y, z'
loop_
 _atom_site_type_symbol
 _atom_site_label
 _atom_site_symmetry_multiplicity
 _atom_site_fract_x
 _atom_site_fract_y
 _atom_site_fract_z
 _atom_site_occupancy
  Sr  Sr0  1  0.997567  0.513016  0.255889  1
  Sr  Sr1  1  0.503395  0.014769  0.257140  1
  Sr  Sr2  1  0.496605  0.985231  0.742859  1
  Sr  Sr3  1  0.002434  0.486986  0.744111  1
  Ti  Ti4  1  0.000000  0.000000  0.000000  1
  Co  Co5  1  0.500001  0.500001  0.500001  1
  Ir  Ir6  1  0.500000  0.500001  0.000000  1
  Ir  Ir7  1  0.000000  0.000000  0.499999  1
  O  O8  1  0.737179  0.767155  0.026459  1
  O  O9  1  0.767885  0.263879  0.026902  1
  O  O10  1  0.448287  0.497556  0.243863  1
  O  O11  1  0.050221  0.996775  0.247520  1
  O  O12  1  0.737483  0.772083  0.472158  1
  O  O13  1  0.774636  0.262321  0.472797  1
  O  O14  1  0.225364  0.737681  0.527203  1
  O  O15  1  0.262517  0.227917  0.527841  1
  O  O16  1  0.949777  0.003225  0.752478  1
  O  O17  1  0.551713  0.502443  0.756137  1
  O  O18  1  0.232115  0.736121  0.973098  1
  O  O19  1  0.262821  0.232845  0.973540  1
