# generated using pymatgen
data_Tb5Dy3Re(B8Os)3
_symmetry_space_group_name_H-M   'P 1'
_cell_length_a   3.67629600
_cell_length_b   9.18045813
_cell_length_c   11.56728605
_cell_angle_alpha   90.09472142
_cell_angle_beta   90.00000000
_cell_angle_gamma   90.00000000
_symmetry_Int_Tables_number   1
_chemical_formula_structural   Tb5Dy3Re(B8Os)3
_chemical_formula_sum   'Tb5 Dy3 Re1 B24 Os3'
_cell_volume   390.39631341
_cell_formula_units_Z   1
loop_
 _symmetry_equiv_pos_site_id
 _symmetry_equiv_pos_as_xyz
  1  'x, y, z'
loop_
 _atom_site_type_symbol
 _atom_site_label
 _atom_site_symmetry_multiplicity
 _atom_site_fract_x
 _atom_site_fract_y
 _atom_site_fract_z
 _atom_site_occupancy
  Tb  Tb0  1  0.000000  0.322969  0.414791  1
  Tb  Tb1  1  0.000000  0.679492  0.588234  1
  Tb  Tb2  1  0.000000  0.822998  0.083809  1
  Tb  Tb3  1  0.000000  0.176106  0.913087  1
  Tb  Tb4  1  0.000000  0.943329  0.371897  1
  Dy  Dy5  1  0.000000  0.055988  0.627795  1
  Dy  Dy6  1  0.000000  0.443009  0.127809  1
  Dy  Dy7  1  0.000000  0.556451  0.872799  1
  Re  Re8  1  0.000000  0.862319  0.821299  1
  B  B9  1  0.500000  0.553908  0.432837  1
  B  B10  1  0.500000  0.446148  0.567560  1
  B  B11  1  0.500000  0.053790  0.067655  1
  B  B12  1  0.500000  0.946940  0.932687  1
  B  B13  1  0.500000  0.747595  0.419186  1
  B  B14  1  0.500000  0.252256  0.580686  1
  B  B15  1  0.500000  0.247663  0.080959  1
  B  B16  1  0.500000  0.752049  0.919041  1
  B  B17  1  0.500000  0.789740  0.266517  1
  B  B18  1  0.500000  0.209473  0.732674  1
  B  B19  1  0.500000  0.290596  0.233427  1
  B  B20  1  0.500000  0.708851  0.766560  1
  B  B21  1  0.500000  0.631226  0.185895  1
  B  B22  1  0.500000  0.368233  0.813724  1
  B  B23  1  0.500000  0.132162  0.314131  1
  B  B24  1  0.500000  0.868401  0.686035  1
  B  B25  1  0.500000  0.984229  0.212537  1
  B  B26  1  0.500000  0.016985  0.787122  1
  B  B27  1  0.500000  0.483697  0.287694  1
  B  B28  1  0.500000  0.516272  0.712892  1
  B  B29  1  0.500000  0.606594  0.030283  1
  B  B30  1  0.500000  0.391854  0.970386  1
  B  B31  1  0.500000  0.108389  0.469858  1
  B  B32  1  0.500000  0.892452  0.529582  1
  Os  Os33  1  0.000000  0.637122  0.321451  1
  Os  Os34  1  0.000000  0.362598  0.678123  1
  Os  Os35  1  0.000000  0.138120  0.178977  1
