# generated using pymatgen
data_PrIrF7
_symmetry_space_group_name_H-M   'P 1'
_cell_length_a   5.71992300
_cell_length_b   9.25588337
_cell_length_c   12.33909611
_cell_angle_alpha   62.18701719
_cell_angle_beta   90.00000000
_cell_angle_gamma   90.00000000
_symmetry_Int_Tables_number   1
_chemical_formula_structural   PrIrF7
_chemical_formula_sum   'Pr4 Ir4 F28'
_cell_volume   577.79941650
_cell_formula_units_Z   4
loop_
 _symmetry_equiv_pos_site_id
 _symmetry_equiv_pos_as_xyz
  1  'x, y, z'
loop_
 _atom_site_type_symbol
 _atom_site_label
 _atom_site_symmetry_multiplicity
 _atom_site_fract_x
 _atom_site_fract_y
 _atom_site_fract_z
 _atom_site_occupancy
  Pr  Pr0  1  0.759670  0.810836  0.765400  1
  Pr  Pr1  1  0.259670  0.189164  0.734600  1
  Pr  Pr2  1  0.240330  0.189164  0.234600  1
  Pr  Pr3  1  0.740330  0.810836  0.265400  1
  Ir  Ir4  1  0.755960  0.273747  0.956997  1
  Ir  Ir5  1  0.255960  0.726253  0.543003  1
  Ir  Ir6  1  0.244040  0.726253  0.043003  1
  Ir  Ir7  1  0.744040  0.273747  0.456997  1
  F  F8  1  0.434711  0.708626  0.916620  1
  F  F9  1  0.934711  0.291374  0.583380  1
  F  F10  1  0.565289  0.291374  0.083380  1
  F  F11  1  0.065289  0.708626  0.416620  1
  F  F12  1  0.452052  0.281028  0.540743  1
  F  F13  1  0.952052  0.718972  0.959257  1
  F  F14  1  0.547948  0.718972  0.459257  1
  F  F15  1  0.047948  0.281028  0.040743  1
  F  F16  1  0.765154  0.511359  0.863253  1
  F  F17  1  0.265154  0.488641  0.636747  1
  F  F18  1  0.234846  0.488641  0.136747  1
  F  F19  1  0.734846  0.511359  0.363253  1
  F  F20  1  0.758730  0.036110  0.048487  1
  F  F21  1  0.258730  0.963890  0.451513  1
  F  F22  1  0.241270  0.963890  0.951513  1
  F  F23  1  0.741270  0.036110  0.548487  1
  F  F24  1  0.969074  0.729908  0.630826  1
  F  F25  1  0.469074  0.270092  0.869174  1
  F  F26  1  0.030926  0.270092  0.369174  1
  F  F27  1  0.530926  0.729908  0.130826  1
  F  F28  1  0.056343  0.742637  0.170906  1
  F  F29  1  0.556343  0.257363  0.329094  1
  F  F30  1  0.943657  0.257363  0.829094  1
  F  F31  1  0.443657  0.742637  0.670906  1
  F  F32  1  0.407207  0.966902  0.230408  1
  F  F33  1  0.907207  0.033098  0.269592  1
  F  F34  1  0.592793  0.033098  0.769592  1
  F  F35  1  0.092793  0.966902  0.730408  1
