# generated using pymatgen
data_Er3Al12IrOs3
_symmetry_space_group_name_H-M   'P 1'
_cell_length_a   8.80161949
_cell_length_b   8.80161892
_cell_length_c   9.52042500
_cell_angle_alpha   90.00000000
_cell_angle_beta   90.00000000
_cell_angle_gamma   119.65671604
_symmetry_Int_Tables_number   1
_chemical_formula_structural   Er3Al12IrOs3
_chemical_formula_sum   'Er6 Al24 Ir2 Os6'
_cell_volume   640.92032100
_cell_formula_units_Z   2
loop_
 _symmetry_equiv_pos_site_id
 _symmetry_equiv_pos_as_xyz
  1  'x, y, z'
loop_
 _atom_site_type_symbol
 _atom_site_label
 _atom_site_symmetry_multiplicity
 _atom_site_fract_x
 _atom_site_fract_y
 _atom_site_fract_z
 _atom_site_occupancy
  Er  Er0  1  0.190404  0.388547  0.250000  1
  Er  Er1  1  0.809596  0.611453  0.750000  1
  Er  Er2  1  0.611453  0.809596  0.250000  1
  Er  Er3  1  0.388547  0.190404  0.750000  1
  Er  Er4  1  0.195750  0.804250  0.250000  1
  Er  Er5  1  0.804250  0.195750  0.750000  1
  Al  Al6  1  0.332715  0.667285  0.019663  1
  Al  Al7  1  0.667285  0.332715  0.980337  1
  Al  Al8  1  0.667285  0.332715  0.519663  1
  Al  Al9  1  0.332715  0.667285  0.480337  1
  Al  Al10  1  0.162065  0.325065  0.577046  1
  Al  Al11  1  0.837935  0.674935  0.422954  1
  Al  Al12  1  0.674935  0.837935  0.577046  1
  Al  Al13  1  0.837935  0.674935  0.077046  1
  Al  Al14  1  0.325065  0.162065  0.422954  1
  Al  Al15  1  0.162065  0.325065  0.922954  1
  Al  Al16  1  0.163506  0.836494  0.575423  1
  Al  Al17  1  0.325065  0.162065  0.077046  1
  Al  Al18  1  0.836494  0.163506  0.424577  1
  Al  Al19  1  0.674935  0.837935  0.922954  1
  Al  Al20  1  0.836494  0.163506  0.075423  1
  Al  Al21  1  0.163506  0.836494  0.924577  1
  Al  Al22  1  0.559960  0.122032  0.250000  1
  Al  Al23  1  0.440040  0.877968  0.750000  1
  Al  Al24  1  0.877968  0.440040  0.250000  1
  Al  Al25  1  0.122032  0.559960  0.750000  1
  Al  Al26  1  0.560669  0.439331  0.250000  1
  Al  Al27  1  0.439331  0.560669  0.750000  1
  Al  Al28  1  0.999653  0.000347  0.250000  1
  Al  Al29  1  0.000347  0.999653  0.750000  1
  Ir  Ir30  1  0.500000  0.500000  0.000000  1
  Ir  Ir31  1  0.500000  0.500000  0.500000  1
  Os  Os32  1  0.500000  0.000000  0.000000  1
  Os  Os33  1  0.000000  0.500000  0.000000  1
  Os  Os34  1  0.500000  0.000000  0.500000  1
  Os  Os35  1  0.000000  0.500000  0.500000  1
  Os  Os36  1  0.000000  0.000000  0.000000  1
  Os  Os37  1  0.000000  0.000000  0.500000  1
