# generated using pymatgen
data_HoEr9(In2Pt)4
_symmetry_space_group_name_H-M   'P 1'
_cell_length_a   3.59384600
_cell_length_b   8.14044342
_cell_length_c   18.19468574
_cell_angle_alpha   89.98884497
_cell_angle_beta   90.00000000
_cell_angle_gamma   90.00000000
_symmetry_Int_Tables_number   1
_chemical_formula_structural   HoEr9(In2Pt)4
_chemical_formula_sum   'Ho1 Er9 In8 Pt4'
_cell_volume   532.29461863
_cell_formula_units_Z   1
loop_
 _symmetry_equiv_pos_site_id
 _symmetry_equiv_pos_as_xyz
  1  'x, y, z'
loop_
 _atom_site_type_symbol
 _atom_site_label
 _atom_site_symmetry_multiplicity
 _atom_site_fract_x
 _atom_site_fract_y
 _atom_site_fract_z
 _atom_site_occupancy
  Ho  Ho0  1  0.000000  0.000000  0.000000  1
  Er  Er1  1  0.000000  0.116518  0.414677  1
  Er  Er2  1  0.000000  0.883482  0.585323  1
  Er  Er3  1  0.000000  0.382374  0.914336  1
  Er  Er4  1  0.000000  0.617626  0.085664  1
  Er  Er5  1  0.000000  0.243026  0.220946  1
  Er  Er6  1  0.000000  0.756974  0.779054  1
  Er  Er7  1  0.000000  0.256946  0.720741  1
  Er  Er8  1  0.000000  0.743054  0.279259  1
  Er  Er9  1  0.000000  0.500000  0.500000  1
  In  In10  1  0.500000  0.424200  0.352042  1
  In  In11  1  0.500000  0.575800  0.647958  1
  In  In12  1  0.500000  0.074430  0.851421  1
  In  In13  1  0.500000  0.925570  0.148579  1
  In  In14  1  0.500000  0.293400  0.066956  1
  In  In15  1  0.500000  0.706600  0.933044  1
  In  In16  1  0.500000  0.208365  0.566428  1
  In  In17  1  0.500000  0.791635  0.433572  1
  Pt  Pt18  1  0.500000  0.024241  0.303803  1
  Pt  Pt19  1  0.500000  0.975759  0.696197  1
  Pt  Pt20  1  0.500000  0.476345  0.803207  1
  Pt  Pt21  1  0.500000  0.523655  0.196793  1
