# generated using pymatgen
data_Nb12Ga8Co3AuC4
_symmetry_space_group_name_H-M   'P 1'
_cell_length_a   8.30033003
_cell_length_b   8.30033027
_cell_length_c   8.30032907
_cell_angle_alpha   60.02936656
_cell_angle_beta   60.02936277
_cell_angle_gamma   60.02936446
_symmetry_Int_Tables_number   1
_chemical_formula_structural   Nb12Ga8Co3AuC4
_chemical_formula_sum   'Nb12 Ga8 Co3 Au1 C4'
_cell_volume   404.63182404
_cell_formula_units_Z   1
loop_
 _symmetry_equiv_pos_site_id
 _symmetry_equiv_pos_as_xyz
  1  'x, y, z'
loop_
 _atom_site_type_symbol
 _atom_site_label
 _atom_site_symmetry_multiplicity
 _atom_site_fract_x
 _atom_site_fract_y
 _atom_site_fract_z
 _atom_site_occupancy
  Nb  Nb0  1  0.687487  0.312708  0.687487  1
  Nb  Nb1  1  0.937292  0.562513  0.562513  1
  Nb  Nb2  1  0.567873  0.935131  0.935131  1
  Nb  Nb3  1  0.935131  0.567873  0.935131  1
  Nb  Nb4  1  0.562513  0.562513  0.937292  1
  Nb  Nb5  1  0.935131  0.935131  0.567873  1
  Nb  Nb6  1  0.687487  0.687487  0.312708  1
  Nb  Nb7  1  0.312708  0.687487  0.687487  1
  Nb  Nb8  1  0.682127  0.314869  0.314869  1
  Nb  Nb9  1  0.314869  0.314869  0.682127  1
  Nb  Nb10  1  0.562513  0.937292  0.562513  1
  Nb  Nb11  1  0.314869  0.682127  0.314869  1
  Ga  Ga12  1  0.333157  0.333157  0.333157  1
  Ga  Ga13  1  0.253437  0.907579  0.907579  1
  Ga  Ga14  1  0.907579  0.253437  0.907579  1
  Ga  Ga15  1  0.907579  0.907579  0.253437  1
  Ga  Ga16  1  0.342421  0.996563  0.342421  1
  Ga  Ga17  1  0.342421  0.342421  0.996563  1
  Ga  Ga18  1  0.996563  0.342421  0.342421  1
  Ga  Ga19  1  0.916843  0.916843  0.916843  1
  Co  Co20  1  0.625000  0.125000  0.125000  1
  Co  Co21  1  0.125000  0.625000  0.125000  1
  Co  Co22  1  0.125000  0.125000  0.625000  1
  Au  Au23  1  0.125000  0.125000  0.125000  1
  C  C24  1  0.625000  0.625000  0.625000  1
  C  C25  1  0.125000  0.625000  0.625000  1
  C  C26  1  0.625000  0.125000  0.625000  1
  C  C27  1  0.625000  0.625000  0.125000  1
