# generated using pymatgen
data_Nd4PtPb3O14
_symmetry_space_group_name_H-M   'P 1'
_cell_length_a   7.68709040
_cell_length_b   7.69957396
_cell_length_c   7.69957400
_cell_angle_alpha   59.99999985
_cell_angle_beta   59.94626495
_cell_angle_gamma   59.94626532
_symmetry_Int_Tables_number   1
_chemical_formula_structural   Nd4PtPb3O14
_chemical_formula_sum   'Nd4 Pt1 Pb3 O14'
_cell_volume   321.97872000
_cell_formula_units_Z   1
loop_
 _symmetry_equiv_pos_site_id
 _symmetry_equiv_pos_as_xyz
  1  'x, y, z'
loop_
 _atom_site_type_symbol
 _atom_site_label
 _atom_site_symmetry_multiplicity
 _atom_site_fract_x
 _atom_site_fract_y
 _atom_site_fract_z
 _atom_site_occupancy
  Nd  Nd0  1  0.625000  0.625000  0.125000  1
  Nd  Nd1  1  0.625000  0.125000  0.625000  1
  Nd  Nd2  1  0.125000  0.625000  0.625000  1
  Nd  Nd3  1  0.625000  0.625000  0.625000  1
  Pt  Pt4  1  0.625000  0.125000  0.125000  1
  Pb  Pb5  1  0.125000  0.125000  0.625000  1
  Pb  Pb6  1  0.125000  0.625000  0.125000  1
  Pb  Pb7  1  0.125000  0.125000  0.125000  1
  O  O8  1  0.502852  0.499049  0.499049  1
  O  O9  1  0.747148  0.750951  0.750951  1
  O  O10  1  0.473454  0.038275  0.449995  1
  O  O11  1  0.227333  0.778294  0.216078  1
  O  O12  1  0.473454  0.449995  0.038275  1
  O  O13  1  0.022667  0.471706  0.471706  1
  O  O14  1  0.473454  0.038275  0.038275  1
  O  O15  1  0.022667  0.033922  0.471706  1
  O  O16  1  0.022667  0.471706  0.033922  1
  O  O17  1  0.776546  0.211725  0.211725  1
  O  O18  1  0.227333  0.778294  0.778294  1
  O  O19  1  0.776546  0.211725  0.800005  1
  O  O20  1  0.227333  0.216078  0.778294  1
  O  O21  1  0.776546  0.800005  0.211725  1
