# generated using pymatgen
data_NaPrCr2O8
_symmetry_space_group_name_H-M   'P 1'
_cell_length_a   5.35906329
_cell_length_b   5.35906386
_cell_length_c   7.61912776
_cell_angle_alpha   90.57779366
_cell_angle_beta   90.57779726
_cell_angle_gamma   66.46333890
_symmetry_Int_Tables_number   1
_chemical_formula_structural   NaPrCr2O8
_chemical_formula_sum   'Na1 Pr1 Cr2 O8'
_cell_volume   200.59881490
_cell_formula_units_Z   1
loop_
 _symmetry_equiv_pos_site_id
 _symmetry_equiv_pos_as_xyz
  1  'x, y, z'
loop_
 _atom_site_type_symbol
 _atom_site_label
 _atom_site_symmetry_multiplicity
 _atom_site_fract_x
 _atom_site_fract_y
 _atom_site_fract_z
 _atom_site_occupancy
  Na  Na0  1  0.000000  0.000000  0.500000  1
  Pr  Pr1  1  0.000000  0.000000  0.000000  1
  Cr  Cr2  1  0.633509  0.633509  0.244400  1
  Cr  Cr3  1  0.366491  0.366491  0.755600  1
  O  O4  1  0.738776  0.738776  0.418187  1
  O  O5  1  0.261224  0.261224  0.581813  1
  O  O6  1  0.289591  0.764878  0.240607  1
  O  O7  1  0.710409  0.235122  0.759393  1
  O  O8  1  0.235122  0.710409  0.759393  1
  O  O9  1  0.764878  0.289591  0.240607  1
  O  O10  1  0.737812  0.737812  0.063767  1
  O  O11  1  0.262188  0.262188  0.936233  1
