# generated using pymatgen
data_Pr2Nd6Sc12Ga11Si5
_symmetry_space_group_name_H-M   'P 1'
_cell_length_a   7.36344375
_cell_length_b   7.67475941
_cell_length_c   14.50576705
_cell_angle_alpha   89.96244117
_cell_angle_beta   90.12993332
_cell_angle_gamma   90.18144883
_symmetry_Int_Tables_number   1
_chemical_formula_structural   Pr2Nd6Sc12Ga11Si5
_chemical_formula_sum   'Pr2 Nd6 Sc12 Ga11 Si5'
_cell_volume   819.75307909
_cell_formula_units_Z   1
loop_
 _symmetry_equiv_pos_site_id
 _symmetry_equiv_pos_as_xyz
  1  'x, y, z'
loop_
 _atom_site_type_symbol
 _atom_site_label
 _atom_site_symmetry_multiplicity
 _atom_site_fract_x
 _atom_site_fract_y
 _atom_site_fract_z
 _atom_site_occupancy
  Pr  Pr0  1  0.510650  0.324128  0.095209  1
  Pr  Pr1  1  0.010976  0.176944  0.095914  1
  Nd  Nd2  1  0.014849  0.176065  0.404274  1
  Nd  Nd3  1  0.512952  0.325361  0.405498  1
  Nd  Nd4  1  0.489320  0.676700  0.904155  1
  Nd  Nd5  1  0.489294  0.677644  0.593699  1
  Nd  Nd6  1  0.987869  0.820615  0.594520  1
  Nd  Nd7  1  0.985352  0.824852  0.903730  1
  Sc  Sc8  1  0.328159  0.171438  0.622012  1
  Sc  Sc9  1  0.670854  0.824112  0.377744  1
  Sc  Sc10  1  0.665197  0.994689  0.752033  1
  Sc  Sc11  1  0.172816  0.674335  0.376849  1
  Sc  Sc12  1  0.823900  0.326104  0.876234  1
  Sc  Sc13  1  0.826299  0.329882  0.622871  1
  Sc  Sc14  1  0.839912  0.498134  0.252265  1
  Sc  Sc15  1  0.336385  0.004016  0.252575  1
  Sc  Sc16  1  0.332680  0.173705  0.875439  1
  Sc  Sc17  1  0.171509  0.670575  0.124991  1
  Sc  Sc18  1  0.671472  0.827470  0.122991  1
  Sc  Sc19  1  0.159104  0.502278  0.750606  1
  Ga  Ga20  1  0.286248  0.880197  0.749355  1
  Ga  Ga21  1  0.467961  0.620292  0.251187  1
  Ga  Ga22  1  0.031473  0.124350  0.749098  1
  Ga  Ga23  1  0.531323  0.381523  0.748976  1
  Ga  Ga24  1  0.154497  0.463976  0.541223  1
  Ga  Ga25  1  0.967960  0.876308  0.250442  1
  Ga  Ga26  1  0.712803  0.119301  0.251339  1
  Ga  Ga27  1  0.844667  0.537969  0.041941  1
  Ga  Ga28  1  0.343747  0.960599  0.040842  1
  Ga  Ga29  1  0.155387  0.463371  0.957145  1
  Ga  Ga30  1  0.656239  0.037619  0.540978  1
  Si  Si31  1  0.346050  0.963280  0.457781  1
  Si  Si32  1  0.848241  0.535128  0.457050  1
  Si  Si33  1  0.785048  0.616980  0.749286  1
  Si  Si34  1  0.215397  0.383547  0.251405  1
  Si  Si35  1  0.653414  0.036516  0.958343  1
