# generated using pymatgen
data_NdEu3Si10PdPt5
_symmetry_space_group_name_H-M   'P 1'
_cell_length_a   8.31794881
_cell_length_b   8.32334150
_cell_length_c   8.32459682
_cell_angle_alpha   137.38481131
_cell_angle_beta   105.13956326
_cell_angle_gamma   90.18003583
_symmetry_Int_Tables_number   1
_chemical_formula_structural   NdEu3Si10PdPt5
_chemical_formula_sum   'Nd1 Eu3 Si10 Pd1 Pt5'
_cell_volume   359.45984066
_cell_formula_units_Z   1
loop_
 _symmetry_equiv_pos_site_id
 _symmetry_equiv_pos_as_xyz
  1  'x, y, z'
loop_
 _atom_site_type_symbol
 _atom_site_label
 _atom_site_symmetry_multiplicity
 _atom_site_fract_x
 _atom_site_fract_y
 _atom_site_fract_z
 _atom_site_occupancy
  Nd  Nd0  1  0.105126  0.870716  0.232893  1
  Eu  Eu1  1  0.893771  0.127234  0.764249  1
  Eu  Eu2  1  0.637078  0.371844  0.266568  1
  Eu  Eu3  1  0.363756  0.630500  0.735711  1
  Si  Si4  1  0.999850  0.748529  0.747537  1
  Si  Si5  1  0.000150  0.252585  0.251500  1
  Si  Si6  1  0.271169  0.020163  0.750552  1
  Si  Si7  1  0.729181  0.478462  0.748662  1
  Si  Si8  1  0.729481  0.980120  0.250495  1
  Si  Si9  1  0.270792  0.520481  0.251340  1
  Si  Si10  1  0.761080  0.610199  0.146813  1
  Si  Si11  1  0.238534  0.386821  0.850228  1
  Si  Si12  1  0.462864  0.114548  0.351512  1
  Si  Si13  1  0.538158  0.888434  0.652093  1
  Pd  Pd14  1  0.498795  0.751091  0.250561  1
  Pt  Pt15  1  0.497548  0.247058  0.747365  1
  Pt  Pt16  1  0.023625  0.635863  0.386962  1
  Pt  Pt17  1  0.977180  0.364023  0.612089  1
  Pt  Pt18  1  0.246934  0.135795  0.112290  1
  Pt  Pt19  1  0.754924  0.865532  0.890580  1
