# generated using pymatgen
data_Pr10Ga3Si2Sn
_symmetry_space_group_name_H-M   'P 1'
_cell_length_a   7.97423045
_cell_length_b   7.97423078
_cell_length_c   9.25724954
_cell_angle_alpha   115.46717197
_cell_angle_beta   115.46716386
_cell_angle_gamma   90.09421993
_symmetry_Int_Tables_number   1
_chemical_formula_structural   Pr10Ga3Si2Sn
_chemical_formula_sum   'Pr10 Ga3 Si2 Sn1'
_cell_volume   467.08062586
_cell_formula_units_Z   1
loop_
 _symmetry_equiv_pos_site_id
 _symmetry_equiv_pos_as_xyz
  1  'x, y, z'
loop_
 _atom_site_type_symbol
 _atom_site_label
 _atom_site_symmetry_multiplicity
 _atom_site_fract_x
 _atom_site_fract_y
 _atom_site_fract_z
 _atom_site_occupancy
  Pr  Pr0  1  0.523145  0.523145  0.046290  1
  Pr  Pr1  1  0.976855  0.976855  0.953710  1
  Pr  Pr2  1  0.985761  0.822138  0.290393  1
  Pr  Pr3  1  0.304632  0.468255  0.290393  1
  Pr  Pr4  1  0.830490  0.310056  0.280707  1
  Pr  Pr5  1  0.450216  0.970650  0.280707  1
  Pr  Pr6  1  0.031745  0.195368  0.709607  1
  Pr  Pr7  1  0.677862  0.514239  0.709607  1
  Pr  Pr8  1  0.189944  0.669510  0.719293  1
  Pr  Pr9  1  0.529350  0.049784  0.719293  1
  Ga  Ga10  1  0.250000  0.250000  0.500000  1
  Ga  Ga11  1  0.622171  0.877829  0.000000  1
  Ga  Ga12  1  0.377829  0.122171  0.000000  1
  Si  Si13  1  0.885599  0.385599  0.000000  1
  Si  Si14  1  0.114401  0.614401  0.000000  1
  Sn  Sn15  1  0.750000  0.750000  0.500000  1
