# generated using pymatgen
data_Pa6MnCu5Sn8
_symmetry_space_group_name_H-M   'P 1'
_cell_length_a   8.29905305
_cell_length_b   8.29785827
_cell_length_c   8.29870600
_cell_angle_alpha   109.01155772
_cell_angle_beta   109.69041276
_cell_angle_gamma   109.70220650
_symmetry_Int_Tables_number   1
_chemical_formula_structural   Pa6MnCu5Sn8
_chemical_formula_sum   'Pa6 Mn1 Cu5 Sn8'
_cell_volume   439.96525949
_cell_formula_units_Z   1
loop_
 _symmetry_equiv_pos_site_id
 _symmetry_equiv_pos_as_xyz
  1  'x, y, z'
loop_
 _atom_site_type_symbol
 _atom_site_label
 _atom_site_symmetry_multiplicity
 _atom_site_fract_x
 _atom_site_fract_y
 _atom_site_fract_z
 _atom_site_occupancy
  Pa  Pa0  1  0.870901  0.732761  0.124101  1
  Pa  Pa1  1  0.108766  0.375962  0.246845  1
  Pa  Pa2  1  0.629071  0.253244  0.361637  1
  Pa  Pa3  1  0.749922  0.875027  0.625033  1
  Pa  Pa4  1  0.391434  0.138131  0.767416  1
  Pa  Pa5  1  0.250010  0.624913  0.874977  1
  Mn  Mn6  1  0.749585  0.374790  0.124817  1
  Cu  Cu7  1  0.625241  0.875707  0.249807  1
  Cu  Cu8  1  0.250016  0.125032  0.375116  1
  Cu  Cu9  1  0.374161  0.749655  0.624351  1
  Cu  Cu10  1  0.874815  0.624600  0.750467  1
  Cu  Cu11  1  0.125928  0.250203  0.875455  1
  Sn  Sn12  1  0.167350  0.999331  0.000754  1
  Sn  Sn13  1  0.671398  0.998355  0.998669  1
  Sn  Sn14  1  0.499690  0.501497  0.172616  1
  Sn  Sn15  1  0.332647  0.833438  0.332065  1
  Sn  Sn16  1  0.000193  0.672863  0.501581  1
  Sn  Sn17  1  0.001329  0.167846  0.500511  1
  Sn  Sn18  1  0.498739  0.499308  0.666689  1
  Sn  Sn19  1  0.828805  0.327338  0.827093  1
