# generated using pymatgen
data_Tb7Ho(GeI6)2
_symmetry_space_group_name_H-M   'P 1'
_cell_length_a   4.23534200
_cell_length_b   14.06926830
_cell_length_c   14.84226932
_cell_angle_alpha   89.97615942
_cell_angle_beta   90.00000000
_cell_angle_gamma   90.00000000
_symmetry_Int_Tables_number   1
_chemical_formula_structural   Tb7Ho(GeI6)2
_chemical_formula_sum   'Tb7 Ho1 Ge2 I12'
_cell_volume   884.42348644
_cell_formula_units_Z   1
loop_
 _symmetry_equiv_pos_site_id
 _symmetry_equiv_pos_as_xyz
  1  'x, y, z'
loop_
 _atom_site_type_symbol
 _atom_site_label
 _atom_site_symmetry_multiplicity
 _atom_site_fract_x
 _atom_site_fract_y
 _atom_site_fract_z
 _atom_site_occupancy
  Tb  Tb0  1  0.500000  0.885245  0.653309  1
  Tb  Tb1  1  0.500000  0.614942  0.153565  1
  Tb  Tb2  1  0.500000  0.385064  0.846443  1
  Tb  Tb3  1  0.000000  0.112281  0.575152  1
  Tb  Tb4  1  0.000000  0.887661  0.424928  1
  Tb  Tb5  1  0.000000  0.612391  0.924818  1
  Tb  Tb6  1  0.000000  0.387596  0.075202  1
  Ho  Ho7  1  0.500000  0.114604  0.346915  1
  Ge  Ge8  1  0.500000  0.000431  0.499414  1
  Ge  Ge9  1  0.500000  0.499995  0.000008  1
  I  I10  1  0.500000  0.244308  0.161995  1
  I  I11  1  0.500000  0.755341  0.838471  1
  I  I12  1  0.500000  0.744739  0.338502  1
  I  I13  1  0.500000  0.255300  0.661431  1
  I  I14  1  0.000000  0.257469  0.413180  1
  I  I15  1  0.000000  0.741600  0.586062  1
  I  I16  1  0.000000  0.758484  0.086090  1
  I  I17  1  0.000000  0.241534  0.913928  1
  I  I18  1  0.000000  0.000264  0.241268  1
  I  I19  1  0.000000  0.000751  0.759306  1
  I  I20  1  0.000000  0.499240  0.259389  1
  I  I21  1  0.000000  0.500759  0.740621  1
