# generated using pymatgen
data_HfTiBe9Mo
_symmetry_space_group_name_H-M   'P 1'
_cell_length_a   7.52971063
_cell_length_b   7.52971048
_cell_length_c   7.52971051
_cell_angle_alpha   34.93723639
_cell_angle_beta   34.93722225
_cell_angle_gamma   34.93722806
_symmetry_Int_Tables_number   1
_chemical_formula_structural   HfTiBe9Mo
_chemical_formula_sum   'Hf1 Ti1 Be9 Mo1'
_cell_volume   124.99819167
_cell_formula_units_Z   1
loop_
 _symmetry_equiv_pos_site_id
 _symmetry_equiv_pos_as_xyz
  1  'x, y, z'
loop_
 _atom_site_type_symbol
 _atom_site_label
 _atom_site_symmetry_multiplicity
 _atom_site_fract_x
 _atom_site_fract_y
 _atom_site_fract_z
 _atom_site_occupancy
  Hf  Hf0  1  0.996521  0.996521  0.996521  1
  Ti  Ti1  1  0.143754  0.143754  0.143754  1
  Be  Be2  1  0.413985  0.920998  0.413985  1
  Be  Be3  1  0.413985  0.413985  0.920998  1
  Be  Be4  1  0.920998  0.413985  0.413985  1
  Be  Be5  1  0.587678  0.075819  0.587678  1
  Be  Be6  1  0.587678  0.587678  0.075819  1
  Be  Be7  1  0.075819  0.587678  0.587678  1
  Be  Be8  1  0.666861  0.666861  0.666861  1
  Be  Be9  1  0.336522  0.336522  0.336522  1
  Be  Be10  1  0.499614  0.499614  0.499614  1
  Mo  Mo11  1  0.856586  0.856586  0.856586  1
