# generated using pymatgen
data_Nd(S8Br)3
_symmetry_space_group_name_H-M   'P 1'
_cell_length_a   14.99009576
_cell_length_b   14.99009586
_cell_length_c   14.99009606
_cell_angle_alpha   119.09787291
_cell_angle_beta   119.09787346
_cell_angle_gamma   119.09786599
_symmetry_Int_Tables_number   1
_chemical_formula_structural   Nd(S8Br)3
_chemical_formula_sum   'Nd1 S24 Br3'
_cell_volume   828.60915329
_cell_formula_units_Z   1
loop_
 _symmetry_equiv_pos_site_id
 _symmetry_equiv_pos_as_xyz
  1  'x, y, z'
loop_
 _atom_site_type_symbol
 _atom_site_label
 _atom_site_symmetry_multiplicity
 _atom_site_fract_x
 _atom_site_fract_y
 _atom_site_fract_z
 _atom_site_occupancy
  Nd  Nd0  1  0.458739  0.458739  0.458739  1
  S  S1  1  0.000084  0.595708  0.595708  1
  S  S2  1  0.595708  0.595708  0.000084  1
  S  S3  1  0.595708  0.000084  0.595708  1
  S  S4  1  0.251702  0.861410  0.732172  1
  S  S5  1  0.861410  0.732172  0.251702  1
  S  S6  1  0.732172  0.251702  0.861410  1
  S  S7  1  0.861410  0.251702  0.732172  1
  S  S8  1  0.251702  0.732172  0.861410  1
  S  S9  1  0.732172  0.861410  0.251702  1
  S  S10  1  0.084081  0.610251  0.427561  1
  S  S11  1  0.610251  0.427561  0.084081  1
  S  S12  1  0.427561  0.084081  0.610251  1
  S  S13  1  0.610251  0.084081  0.427561  1
  S  S14  1  0.084081  0.427561  0.610251  1
  S  S15  1  0.427561  0.610251  0.084081  1
  S  S16  1  0.374279  0.759258  0.628162  1
  S  S17  1  0.759258  0.628162  0.374279  1
  S  S18  1  0.628162  0.374279  0.759258  1
  S  S19  1  0.759258  0.374279  0.628162  1
  S  S20  1  0.374279  0.628162  0.759258  1
  S  S21  1  0.628162  0.759258  0.374279  1
  S  S22  1  0.177289  0.451260  0.451260  1
  S  S23  1  0.451260  0.451260  0.177289  1
  S  S24  1  0.451260  0.177289  0.451260  1
  Br  Br25  1  0.047162  0.906069  0.906069  1
  Br  Br26  1  0.906069  0.906069  0.047162  1
  Br  Br27  1  0.906069  0.047162  0.906069  1
