# generated using pymatgen
data_Hf2Mn3Cr
_symmetry_space_group_name_H-M   'P 1'
_cell_length_a   4.94570485
_cell_length_b   4.86527187
_cell_length_c   8.20738800
_cell_angle_alpha   90.00000000
_cell_angle_beta   90.00000000
_cell_angle_gamma   119.46345890
_symmetry_Int_Tables_number   1
_chemical_formula_structural   Hf2Mn3Cr
_chemical_formula_sum   'Hf4 Mn6 Cr2'
_cell_volume   171.94661820
_cell_formula_units_Z   2
loop_
 _symmetry_equiv_pos_site_id
 _symmetry_equiv_pos_as_xyz
  1  'x, y, z'
loop_
 _atom_site_type_symbol
 _atom_site_label
 _atom_site_symmetry_multiplicity
 _atom_site_fract_x
 _atom_site_fract_y
 _atom_site_fract_z
 _atom_site_occupancy
  Hf  Hf0  1  0.331501  0.667082  0.437085  1
  Hf  Hf1  1  0.668499  0.335580  0.937085  1
  Hf  Hf2  1  0.668499  0.335580  0.562915  1
  Hf  Hf3  1  0.331501  0.667082  0.062915  1
  Mn  Mn4  1  0.342041  0.170214  0.250000  1
  Mn  Mn5  1  0.657959  0.828173  0.750000  1
  Mn  Mn6  1  0.000000  0.003476  0.000000  1
  Mn  Mn7  1  0.000000  0.003476  0.500000  1
  Mn  Mn8  1  0.830713  0.658923  0.250000  1
  Mn  Mn9  1  0.169287  0.828209  0.750000  1
  Cr  Cr10  1  0.167595  0.334901  0.750000  1
  Cr  Cr11  1  0.832405  0.167306  0.250000  1
