# generated using pymatgen
data_Gd5Tm(CI5)2
_symmetry_space_group_name_H-M   'P 1'
_cell_length_a   7.77248816
_cell_length_b   9.59370680
_cell_length_c   9.68710700
_cell_angle_alpha   107.02871463
_cell_angle_beta   96.37185781
_cell_angle_gamma   104.28116613
_symmetry_Int_Tables_number   1
_chemical_formula_structural   Gd5Tm(CI5)2
_chemical_formula_sum   'Gd5 Tm1 C2 I10'
_cell_volume   656.11048272
_cell_formula_units_Z   1
loop_
 _symmetry_equiv_pos_site_id
 _symmetry_equiv_pos_as_xyz
  1  'x, y, z'
loop_
 _atom_site_type_symbol
 _atom_site_label
 _atom_site_symmetry_multiplicity
 _atom_site_fract_x
 _atom_site_fract_y
 _atom_site_fract_z
 _atom_site_occupancy
  Gd  Gd0  1  0.103338  0.038004  0.779515  1
  Gd  Gd1  1  0.372499  0.131559  0.177875  1
  Gd  Gd2  1  0.894564  0.961260  0.218928  1
  Gd  Gd3  1  0.029200  0.740353  0.923837  1
  Gd  Gd4  1  0.969521  0.259428  0.075164  1
  Tm  Tm5  1  0.632813  0.870452  0.825612  1
  C  C6  1  0.909089  0.969961  0.958687  1
  C  C7  1  0.089554  0.029691  0.040608  1
  I  I8  1  0.205886  0.739000  0.652030  1
  I  I9  1  0.087036  0.366315  0.820927  1
  I  I10  1  0.458893  0.810160  0.086705  1
  I  I11  1  0.251466  0.082777  0.458120  1
  I  I12  1  0.544126  0.182873  0.904190  1
  I  I13  1  0.804071  0.263607  0.352336  1
  I  I14  1  0.342833  0.452719  0.270919  1
  I  I15  1  0.911547  0.633337  0.178075  1
  I  I16  1  0.652885  0.553922  0.728863  1
  I  I17  1  0.740681  0.914580  0.547610  1
