# generated using pymatgen
data_ZnPd2PtO6
_symmetry_space_group_name_H-M   'P 1'
_cell_length_a   6.18159434
_cell_length_b   6.17810043
_cell_length_c   3.19186300
_cell_angle_alpha   90.00000000
_cell_angle_beta   90.00000000
_cell_angle_gamma   108.67541484
_symmetry_Int_Tables_number   1
_chemical_formula_structural   ZnPd2PtO6
_chemical_formula_sum   'Zn1 Pd2 Pt1 O6'
_cell_volume   115.48062922
_cell_formula_units_Z   1
loop_
 _symmetry_equiv_pos_site_id
 _symmetry_equiv_pos_as_xyz
  1  'x, y, z'
loop_
 _atom_site_type_symbol
 _atom_site_label
 _atom_site_symmetry_multiplicity
 _atom_site_fract_x
 _atom_site_fract_y
 _atom_site_fract_z
 _atom_site_occupancy
  Zn  Zn0  1  0.500000  0.500000  0.000000  1
  Pd  Pd1  1  0.000000  0.000000  0.000000  1
  Pd  Pd2  1  0.000000  0.500000  0.500000  1
  Pt  Pt3  1  0.500000  0.000000  0.500000  1
  O  O4  1  0.082903  0.336149  0.000000  1
  O  O5  1  0.917097  0.663851  0.000000  1
  O  O6  1  0.339202  0.084128  0.000000  1
  O  O7  1  0.660798  0.915872  0.000000  1
  O  O8  1  0.647763  0.349482  0.500000  1
  O  O9  1  0.352237  0.650518  0.500000  1
