# generated using pymatgen
data_Hf3SiGePRu3
_symmetry_space_group_name_H-M   'P 1'
_cell_length_a   6.61845900
_cell_length_b   6.61845957
_cell_length_c   3.74264100
_cell_angle_alpha   90.00000000
_cell_angle_beta   90.00000000
_cell_angle_gamma   120.00000214
_symmetry_Int_Tables_number   1
_chemical_formula_structural   Hf3SiGePRu3
_chemical_formula_sum   'Hf3 Si1 Ge1 P1 Ru3'
_cell_volume   141.97850422
_cell_formula_units_Z   1
loop_
 _symmetry_equiv_pos_site_id
 _symmetry_equiv_pos_as_xyz
  1  'x, y, z'
loop_
 _atom_site_type_symbol
 _atom_site_label
 _atom_site_symmetry_multiplicity
 _atom_site_fract_x
 _atom_site_fract_y
 _atom_site_fract_z
 _atom_site_occupancy
  Hf  Hf0  1  0.991222  0.412985  0.500000  1
  Hf  Hf1  1  0.587015  0.578237  0.500000  1
  Hf  Hf2  1  0.421763  0.008778  0.500000  1
  Si  Si3  1  0.000000  0.000000  0.500000  1
  Ge  Ge4  1  0.333333  0.666667  0.000000  1
  P  P5  1  0.666667  0.333333  0.000000  1
  Ru  Ru6  1  0.988021  0.749410  0.000000  1
  Ru  Ru7  1  0.250590  0.238611  0.000000  1
  Ru  Ru8  1  0.761389  0.011979  0.000000  1
