# generated using pymatgen
data_Dy13Er3(CoHg)4
_symmetry_space_group_name_H-M   'P 1'
_cell_length_a   9.46155329
_cell_length_b   9.45134719
_cell_length_c   9.45057900
_cell_angle_alpha   60.00269213
_cell_angle_beta   60.03836470
_cell_angle_gamma   60.01743529
_symmetry_Int_Tables_number   1
_chemical_formula_structural   Dy13Er3(CoHg)4
_chemical_formula_sum   'Dy13 Er3 Co4 Hg4'
_cell_volume   597.84886144
_cell_formula_units_Z   1
loop_
 _symmetry_equiv_pos_site_id
 _symmetry_equiv_pos_as_xyz
  1  'x, y, z'
loop_
 _atom_site_type_symbol
 _atom_site_label
 _atom_site_symmetry_multiplicity
 _atom_site_fract_x
 _atom_site_fract_y
 _atom_site_fract_z
 _atom_site_occupancy
  Dy  Dy0  1  0.938626  0.560423  0.561866  1
  Dy  Dy1  1  0.544073  0.152109  0.151909  1
  Dy  Dy2  1  0.151561  0.152781  0.542233  1
  Dy  Dy3  1  0.938032  0.938751  0.561608  1
  Dy  Dy4  1  0.312614  0.688550  0.310107  1
  Dy  Dy5  1  0.560927  0.938969  0.938603  1
  Dy  Dy6  1  0.560927  0.938969  0.561502  1
  Dy  Dy7  1  0.689269  0.687602  0.311565  1
  Dy  Dy8  1  0.561290  0.560392  0.939159  1
  Dy  Dy9  1  0.938626  0.560423  0.939084  1
  Dy  Dy10  1  0.312614  0.688550  0.688729  1
  Dy  Dy11  1  0.151561  0.152781  0.153424  1
  Dy  Dy12  1  0.312492  0.311323  0.688093  1
  Er  Er13  1  0.151596  0.543058  0.152673  1
  Er  Er14  1  0.689119  0.312273  0.687506  1
  Er  Er15  1  0.689119  0.312273  0.311102  1
  Co  Co16  1  0.358086  0.359391  0.923375  1
  Co  Co17  1  0.358154  0.922761  0.359542  1
  Co  Co18  1  0.922556  0.358964  0.359240  1
  Co  Co19  1  0.358086  0.359391  0.359149  1
  Hg  Hg20  1  0.915562  0.252502  0.915968  1
  Hg  Hg21  1  0.916280  0.916218  0.916320  1
  Hg  Hg22  1  0.916280  0.916218  0.251182  1
  Hg  Hg23  1  0.252550  0.915329  0.916061  1
