# generated using pymatgen
data_Pr4Er3Tm(ReB6)4
_symmetry_space_group_name_H-M   'P 1'
_cell_length_a   3.72666600
_cell_length_b   9.24181500
_cell_length_c   11.72459600
_cell_angle_alpha   90.00316423
_cell_angle_beta   90.00000000
_cell_angle_gamma   90.00000000
_symmetry_Int_Tables_number   1
_chemical_formula_structural   Pr4Er3Tm(ReB6)4
_chemical_formula_sum   'Pr4 Er3 Tm1 Re4 B24'
_cell_volume   403.80865995
_cell_formula_units_Z   1
loop_
 _symmetry_equiv_pos_site_id
 _symmetry_equiv_pos_as_xyz
  1  'x, y, z'
loop_
 _atom_site_type_symbol
 _atom_site_label
 _atom_site_symmetry_multiplicity
 _atom_site_fract_x
 _atom_site_fract_y
 _atom_site_fract_z
 _atom_site_occupancy
  Pr  Pr0  1  0.000000  0.322678  0.414679  1
  Pr  Pr1  1  0.000000  0.677301  0.585426  1
  Pr  Pr2  1  0.000000  0.822597  0.085310  1
  Pr  Pr3  1  0.000000  0.177380  0.914619  1
  Er  Er4  1  0.000000  0.942952  0.369179  1
  Er  Er5  1  0.000000  0.057078  0.630876  1
  Er  Er6  1  0.000000  0.443001  0.130674  1
  Tm  Tm7  1  0.000000  0.557076  0.869042  1
  Re  Re8  1  0.000000  0.639818  0.318591  1
  Re  Re9  1  0.000000  0.360361  0.681621  1
  Re  Re10  1  0.000000  0.139849  0.181328  1
  Re  Re11  1  0.000000  0.859826  0.818619  1
  B  B12  1  0.500000  0.555857  0.429503  1
  B  B13  1  0.500000  0.444156  0.570570  1
  B  B14  1  0.500000  0.055832  0.070487  1
  B  B15  1  0.500000  0.944076  0.929475  1
  B  B16  1  0.500000  0.750680  0.414940  1
  B  B17  1  0.500000  0.249381  0.585103  1
  B  B18  1  0.500000  0.250677  0.085055  1
  B  B19  1  0.500000  0.748995  0.914956  1
  B  B20  1  0.500000  0.791732  0.265838  1
  B  B21  1  0.500000  0.208385  0.734181  1
  B  B22  1  0.500000  0.291749  0.234163  1
  B  B23  1  0.500000  0.708006  0.765902  1
  B  B24  1  0.500000  0.629269  0.186137  1
  B  B25  1  0.500000  0.370978  0.814025  1
  B  B26  1  0.500000  0.129271  0.313863  1
  B  B27  1  0.500000  0.870676  0.686186  1
  B  B28  1  0.500000  0.984192  0.213667  1
  B  B29  1  0.500000  0.015744  0.786362  1
  B  B30  1  0.500000  0.484185  0.286330  1
  B  B31  1  0.500000  0.515961  0.713841  1
  B  B32  1  0.500000  0.594972  0.025689  1
  B  B33  1  0.500000  0.405300  0.973757  1
  B  B34  1  0.500000  0.094979  0.474006  1
  B  B35  1  0.500000  0.905028  0.526003  1
