# generated using pymatgen
data_DyTm(GaFe2)2
_symmetry_space_group_name_H-M   'P 1'
_cell_length_a   4.96062900
_cell_length_b   3.93615800
_cell_length_c   6.82927600
_cell_angle_alpha   90.00000000
_cell_angle_beta   90.00000000
_cell_angle_gamma   90.00000000
_symmetry_Int_Tables_number   1
_chemical_formula_structural   DyTm(GaFe2)2
_chemical_formula_sum   'Dy1 Tm1 Ga2 Fe4'
_cell_volume   133.34721065
_cell_formula_units_Z   1
loop_
 _symmetry_equiv_pos_site_id
 _symmetry_equiv_pos_as_xyz
  1  'x, y, z'
loop_
 _atom_site_type_symbol
 _atom_site_label
 _atom_site_symmetry_multiplicity
 _atom_site_fract_x
 _atom_site_fract_y
 _atom_site_fract_z
 _atom_site_occupancy
  Dy  Dy0  1  0.250001  0.499999  0.183669  1
  Tm  Tm1  1  0.750000  0.499999  0.811696  1
  Ga  Ga2  1  0.750000  0.000000  0.166500  1
  Ga  Ga3  1  0.250001  0.000000  0.833562  1
  Fe  Fe4  1  0.750000  0.499999  0.406414  1
  Fe  Fe5  1  0.999647  0.000000  0.501315  1
  Fe  Fe6  1  0.500352  0.000000  0.501315  1
  Fe  Fe7  1  0.250001  0.499999  0.595529  1
