# generated using pymatgen
data_BaCo2(Sb6Os)2
_symmetry_space_group_name_H-M   'P 1'
_cell_length_a   8.11974392
_cell_length_b   8.06649360
_cell_length_c   8.11974387
_cell_angle_alpha   109.48777777
_cell_angle_beta   109.59305675
_cell_angle_gamma   109.59958001
_symmetry_Int_Tables_number   1
_chemical_formula_structural   BaCo2(Sb6Os)2
_chemical_formula_sum   'Ba1 Co2 Sb12 Os2'
_cell_volume   408.04603320
_cell_formula_units_Z   1
loop_
 _symmetry_equiv_pos_site_id
 _symmetry_equiv_pos_as_xyz
  1  'x, y, z'
loop_
 _atom_site_type_symbol
 _atom_site_label
 _atom_site_symmetry_multiplicity
 _atom_site_fract_x
 _atom_site_fract_y
 _atom_site_fract_z
 _atom_site_occupancy
  Ba  Ba0  1  0.000000  0.000000  0.000000  1
  Co  Co1  1  0.000000  0.000000  0.500000  1
  Co  Co2  1  0.500000  0.000000  0.000000  1
  Sb  Sb3  1  0.339100  0.177556  0.838455  1
  Sb  Sb4  1  0.660900  0.822444  0.161545  1
  Sb  Sb5  1  0.657893  0.499561  0.841669  1
  Sb  Sb6  1  0.342107  0.500439  0.158331  1
  Sb  Sb7  1  0.180422  0.844765  0.345350  1
  Sb  Sb8  1  0.819578  0.155235  0.654650  1
  Sb  Sb9  1  0.499414  0.844765  0.664343  1
  Sb  Sb10  1  0.500586  0.155235  0.335657  1
  Sb  Sb11  1  0.835181  0.335933  0.180022  1
  Sb  Sb12  1  0.164819  0.664067  0.819978  1
  Sb  Sb13  1  0.844089  0.664067  0.499247  1
  Sb  Sb14  1  0.155911  0.335933  0.500753  1
  Os  Os15  1  0.000000  0.500000  0.000000  1
  Os  Os16  1  0.500000  0.500000  0.500000  1
