# generated using pymatgen
data_LiTlRuF6
_symmetry_space_group_name_H-M   'P 1'
_cell_length_a   7.92732500
_cell_length_b   10.62285800
_cell_length_c   12.72631100
_cell_angle_alpha   90.00000000
_cell_angle_beta   90.00000000
_cell_angle_gamma   90.00000000
_symmetry_Int_Tables_number   1
_chemical_formula_structural   LiTlRuF6
_chemical_formula_sum   'Li8 Tl8 Ru8 F48'
_cell_volume   1071.69343861
_cell_formula_units_Z   8
loop_
 _symmetry_equiv_pos_site_id
 _symmetry_equiv_pos_as_xyz
  1  'x, y, z'
loop_
 _atom_site_type_symbol
 _atom_site_label
 _atom_site_symmetry_multiplicity
 _atom_site_fract_x
 _atom_site_fract_y
 _atom_site_fract_z
 _atom_site_occupancy
  Li  Li0  1  0.757381  0.076961  0.363007  1
  Li  Li1  1  0.257381  0.923039  0.136993  1
  Li  Li2  1  0.742619  0.576961  0.136993  1
  Li  Li3  1  0.242619  0.423039  0.363007  1
  Li  Li4  1  0.242619  0.923039  0.636993  1
  Li  Li5  1  0.742619  0.076961  0.863007  1
  Li  Li6  1  0.257381  0.423039  0.863007  1
  Li  Li7  1  0.757381  0.576961  0.636993  1
  Tl  Tl8  1  0.500000  0.750000  0.423184  1
  Tl  Tl9  1  0.000000  0.250000  0.076816  1
  Tl  Tl10  1  0.500000  0.250000  0.576816  1
  Tl  Tl11  1  0.000000  0.750000  0.923184  1
  Tl  Tl12  1  0.000000  0.750000  0.375917  1
  Tl  Tl13  1  0.500000  0.250000  0.124083  1
  Tl  Tl14  1  0.000000  0.250000  0.624083  1
  Tl  Tl15  1  0.500000  0.750000  0.875917  1
  Ru  Ru16  1  0.749070  0.426150  0.859287  1
  Ru  Ru17  1  0.249070  0.573850  0.640713  1
  Ru  Ru18  1  0.750930  0.926150  0.640713  1
  Ru  Ru19  1  0.250930  0.073850  0.859287  1
  Ru  Ru20  1  0.250930  0.573850  0.140713  1
  Ru  Ru21  1  0.750930  0.426150  0.359287  1
  Ru  Ru22  1  0.249070  0.073850  0.359287  1
  Ru  Ru23  1  0.749070  0.926150  0.140713  1
  F  F24  1  0.716855  0.876622  0.288779  1
  F  F25  1  0.216855  0.123378  0.211221  1
  F  F26  1  0.783145  0.376622  0.211221  1
  F  F27  1  0.283145  0.623378  0.288779  1
  F  F28  1  0.283145  0.123378  0.711221  1
  F  F29  1  0.783145  0.876622  0.788779  1
  F  F30  1  0.216855  0.623378  0.788779  1
  F  F31  1  0.716855  0.376622  0.711221  1
  F  F32  1  0.789775  0.985153  0.995605  1
  F  F33  1  0.289775  0.014847  0.504395  1
  F  F34  1  0.710225  0.485153  0.504395  1
  F  F35  1  0.210225  0.514847  0.995605  1
  F  F36  1  0.210225  0.014847  0.004395  1
  F  F37  1  0.710225  0.985153  0.495605  1
  F  F38  1  0.289775  0.514847  0.495605  1
  F  F39  1  0.789775  0.485153  0.004395  1
  F  F40  1  0.985524  0.894969  0.156235  1
  F  F41  1  0.512684  0.958336  0.124812  1
  F  F42  1  0.485524  0.105031  0.343765  1
  F  F43  1  0.014476  0.605031  0.156235  1
  F  F44  1  0.014476  0.105031  0.843765  1
  F  F45  1  0.514476  0.894969  0.656235  1
  F  F46  1  0.485524  0.605031  0.656235  1
  F  F47  1  0.985524  0.394969  0.843765  1
  F  F48  1  0.779512  0.753168  0.583730  1
  F  F49  1  0.279512  0.246832  0.916270  1
  F  F50  1  0.720488  0.253168  0.916270  1
  F  F51  1  0.220488  0.746832  0.583730  1
  F  F52  1  0.220488  0.246832  0.416270  1
  F  F53  1  0.720488  0.753168  0.083730  1
  F  F54  1  0.279512  0.746832  0.083730  1
  F  F55  1  0.779512  0.253168  0.416270  1
  F  F56  1  0.776120  0.597234  0.799541  1
  F  F57  1  0.276120  0.402766  0.700459  1
  F  F58  1  0.723880  0.097234  0.700459  1
  F  F59  1  0.223880  0.902766  0.799541  1
  F  F60  1  0.223880  0.402766  0.200459  1
  F  F61  1  0.723880  0.597234  0.299541  1
  F  F62  1  0.276120  0.902766  0.299541  1
  F  F63  1  0.776120  0.097234  0.200459  1
  F  F64  1  0.512684  0.458336  0.875188  1
  F  F65  1  0.012684  0.541664  0.624812  1
  F  F66  1  0.987316  0.958336  0.624812  1
  F  F67  1  0.487316  0.041664  0.875188  1
  F  F68  1  0.487316  0.541664  0.124812  1
  F  F69  1  0.987316  0.458336  0.375188  1
  F  F70  1  0.012684  0.041664  0.375188  1
  F  F71  1  0.514476  0.394969  0.343765  1
