# generated using pymatgen
data_Dy4HgPt
_symmetry_space_group_name_H-M   'P 1'
_cell_length_a   9.65483579
_cell_length_b   9.65483550
_cell_length_c   9.65483500
_cell_angle_alpha   59.99999829
_cell_angle_beta   59.99999927
_cell_angle_gamma   59.99999853
_symmetry_Int_Tables_number   1
_chemical_formula_structural   Dy4HgPt
_chemical_formula_sum   'Dy16 Hg4 Pt4'
_cell_volume   636.38453279
_cell_formula_units_Z   4
loop_
 _symmetry_equiv_pos_site_id
 _symmetry_equiv_pos_as_xyz
  1  'x, y, z'
loop_
 _atom_site_type_symbol
 _atom_site_label
 _atom_site_symmetry_multiplicity
 _atom_site_fract_x
 _atom_site_fract_y
 _atom_site_fract_z
 _atom_site_occupancy
  Dy  Dy0  1  0.354100  0.354100  0.354100  1
  Dy  Dy1  1  0.354100  0.354100  0.937702  1
  Dy  Dy2  1  0.354100  0.937702  0.354100  1
  Dy  Dy3  1  0.937702  0.354100  0.354100  1
  Dy  Dy4  1  0.809962  0.190038  0.190038  1
  Dy  Dy5  1  0.190038  0.809962  0.809962  1
  Dy  Dy6  1  0.190038  0.809962  0.190038  1
  Dy  Dy7  1  0.809962  0.190038  0.809962  1
  Dy  Dy8  1  0.190038  0.190038  0.809962  1
  Dy  Dy9  1  0.809962  0.809962  0.190038  1
  Dy  Dy10  1  0.935591  0.564409  0.564409  1
  Dy  Dy11  1  0.564409  0.935591  0.935591  1
  Dy  Dy12  1  0.564409  0.935591  0.564409  1
  Dy  Dy13  1  0.935591  0.564408  0.935591  1
  Dy  Dy14  1  0.564409  0.564409  0.935591  1
  Dy  Dy15  1  0.935591  0.935591  0.564408  1
  Hg  Hg16  1  0.586771  0.586771  0.586771  1
  Hg  Hg17  1  0.586771  0.586771  0.239685  1
  Hg  Hg18  1  0.586771  0.239685  0.586771  1
  Hg  Hg19  1  0.239685  0.586771  0.586771  1
  Pt  Pt20  1  0.143796  0.143796  0.143796  1
  Pt  Pt21  1  0.143796  0.143796  0.568613  1
  Pt  Pt22  1  0.143796  0.568613  0.143796  1
  Pt  Pt23  1  0.568613  0.143796  0.143796  1
