# generated using pymatgen
data_Tb4Pr6In5BiBr2
_symmetry_space_group_name_H-M   'P 1'
_cell_length_a   9.53042354
_cell_length_b   9.53039978
_cell_length_c   6.86464800
_cell_angle_alpha   90.00000000
_cell_angle_beta   90.00000000
_cell_angle_gamma   120.06272378
_symmetry_Int_Tables_number   1
_chemical_formula_structural   Tb4Pr6In5BiBr2
_chemical_formula_sum   'Tb4 Pr6 In5 Bi1 Br2'
_cell_volume   539.63161224
_cell_formula_units_Z   1
loop_
 _symmetry_equiv_pos_site_id
 _symmetry_equiv_pos_as_xyz
  1  'x, y, z'
loop_
 _atom_site_type_symbol
 _atom_site_label
 _atom_site_symmetry_multiplicity
 _atom_site_fract_x
 _atom_site_fract_y
 _atom_site_fract_z
 _atom_site_occupancy
  Tb  Tb0  1  0.330199  0.666821  0.501892  1
  Tb  Tb1  1  0.666821  0.330199  0.501892  1
  Tb  Tb2  1  0.666821  0.330199  0.998108  1
  Tb  Tb3  1  0.330199  0.666821  0.998108  1
  Pr  Pr4  1  0.270642  0.002973  0.750000  1
  Pr  Pr5  1  0.734263  0.005067  0.250000  1
  Pr  Pr6  1  0.002973  0.270642  0.750000  1
  Pr  Pr7  1  0.005068  0.734263  0.250000  1
  Pr  Pr8  1  0.732178  0.732178  0.750000  1
  Pr  Pr9  1  0.263429  0.263429  0.250000  1
  In  In10  1  0.606114  0.999461  0.750000  1
  In  In11  1  0.395550  0.000481  0.250000  1
  In  In12  1  0.999460  0.606113  0.750000  1
  In  In13  1  0.000481  0.395550  0.250000  1
  In  In14  1  0.390939  0.390940  0.750000  1
  Bi  Bi15  1  0.608107  0.608107  0.250000  1
  Br  Br16  1  0.998377  0.998377  0.499693  1
  Br  Br17  1  0.998377  0.998377  0.000307  1
