# generated using pymatgen
data_Hf8V11CrGe16
_symmetry_space_group_name_H-M   'P 1'
_cell_length_a   6.61111000
_cell_length_b   6.77242479
_cell_length_c   12.85107100
_cell_angle_alpha   90.00000000
_cell_angle_beta   90.00000000
_cell_angle_gamma   89.64255603
_symmetry_Int_Tables_number   1
_chemical_formula_structural   Hf8V11CrGe16
_chemical_formula_sum   'Hf8 V11 Cr1 Ge16'
_cell_volume   575.37295679
_cell_formula_units_Z   1
loop_
 _symmetry_equiv_pos_site_id
 _symmetry_equiv_pos_as_xyz
  1  'x, y, z'
loop_
 _atom_site_type_symbol
 _atom_site_label
 _atom_site_symmetry_multiplicity
 _atom_site_fract_x
 _atom_site_fract_y
 _atom_site_fract_z
 _atom_site_occupancy
  Hf  Hf0  1  0.987848  0.173446  0.092073  1
  Hf  Hf1  1  0.011288  0.827959  0.908621  1
  Hf  Hf2  1  0.512810  0.673118  0.908162  1
  Hf  Hf3  1  0.011288  0.827959  0.591379  1
  Hf  Hf4  1  0.487945  0.327672  0.091937  1
  Hf  Hf5  1  0.987848  0.173446  0.407927  1
  Hf  Hf6  1  0.487945  0.327672  0.408063  1
  Hf  Hf7  1  0.512810  0.673118  0.591838  1
  V  V8  1  0.835536  0.508151  0.250000  1
  V  V9  1  0.338103  0.992025  0.250000  1
  V  V10  1  0.662551  0.006351  0.750000  1
  V  V11  1  0.336949  0.158187  0.625569  1
  V  V12  1  0.663699  0.839267  0.374420  1
  V  V13  1  0.162844  0.660960  0.376355  1
  V  V14  1  0.663699  0.839267  0.125580  1
  V  V15  1  0.834619  0.338061  0.624554  1
  V  V16  1  0.336949  0.158187  0.874431  1
  V  V17  1  0.834619  0.338061  0.875446  1
  V  V18  1  0.162844  0.660960  0.123645  1
  Cr  Cr19  1  0.167355  0.497334  0.750000  1
  Ge  Ge20  1  0.032942  0.130745  0.750000  1
  Ge  Ge21  1  0.969419  0.872960  0.250000  1
  Ge  Ge22  1  0.467230  0.626258  0.250000  1
  Ge  Ge23  1  0.529091  0.373996  0.750000  1
  Ge  Ge24  1  0.308424  0.852396  0.750000  1
  Ge  Ge25  1  0.690611  0.145725  0.250000  1
  Ge  Ge26  1  0.190179  0.355392  0.250000  1
  Ge  Ge27  1  0.813502  0.642771  0.750000  1
  Ge  Ge28  1  0.178338  0.454123  0.544719  1
  Ge  Ge29  1  0.821677  0.545240  0.457288  1
  Ge  Ge30  1  0.322051  0.954819  0.456961  1
  Ge  Ge31  1  0.821677  0.545240  0.042712  1
  Ge  Ge32  1  0.677463  0.045096  0.542561  1
  Ge  Ge33  1  0.178338  0.454123  0.955281  1
  Ge  Ge34  1  0.677463  0.045096  0.957439  1
  Ge  Ge35  1  0.322051  0.954819  0.043039  1
