# generated using pymatgen
data_HoNb8CdS16
_symmetry_space_group_name_H-M   'P 1'
_cell_length_a   6.75337300
_cell_length_b   6.75337188
_cell_length_c   13.82573800
_cell_angle_alpha   90.00000000
_cell_angle_beta   90.00000000
_cell_angle_gamma   120.00001037
_symmetry_Int_Tables_number   1
_chemical_formula_structural   HoNb8CdS16
_chemical_formula_sum   'Ho1 Nb8 Cd1 S16'
_cell_volume   546.08508058
_cell_formula_units_Z   1
loop_
 _symmetry_equiv_pos_site_id
 _symmetry_equiv_pos_as_xyz
  1  'x, y, z'
loop_
 _atom_site_type_symbol
 _atom_site_label
 _atom_site_symmetry_multiplicity
 _atom_site_fract_x
 _atom_site_fract_y
 _atom_site_fract_z
 _atom_site_occupancy
  Ho  Ho0  1  0.000000  0.000000  0.000000  1
  Nb  Nb1  1  0.000000  0.000000  0.243017  1
  Nb  Nb2  1  0.000000  0.000000  0.756983  1
  Nb  Nb3  1  0.504923  0.495077  0.246364  1
  Nb  Nb4  1  0.504923  0.009846  0.246364  1
  Nb  Nb5  1  0.990154  0.495077  0.246364  1
  Nb  Nb6  1  0.495077  0.504923  0.753636  1
  Nb  Nb7  1  0.495077  0.990154  0.753636  1
  Nb  Nb8  1  0.009846  0.504923  0.753636  1
  Cd  Cd9  1  0.000000  0.000000  0.500000  1
  S  S10  1  0.333333  0.666667  0.869303  1
  S  S11  1  0.666667  0.333333  0.130697  1
  S  S12  1  0.666667  0.333333  0.360544  1
  S  S13  1  0.333333  0.666667  0.639456  1
  S  S14  1  0.165645  0.834355  0.357506  1
  S  S15  1  0.165645  0.331290  0.357506  1
  S  S16  1  0.668710  0.834355  0.357506  1
  S  S17  1  0.834355  0.165645  0.642494  1
  S  S18  1  0.834355  0.668710  0.642494  1
  S  S19  1  0.331290  0.165645  0.642494  1
  S  S20  1  0.830253  0.169747  0.867582  1
  S  S21  1  0.830253  0.660507  0.867582  1
  S  S22  1  0.339493  0.169747  0.867582  1
  S  S23  1  0.169747  0.830253  0.132418  1
  S  S24  1  0.169747  0.339493  0.132418  1
  S  S25  1  0.660507  0.830253  0.132418  1
