# generated using pymatgen
data_Y3In3SnPdRu
_symmetry_space_group_name_H-M   'P 1'
_cell_length_a   7.89403400
_cell_length_b   7.89403402
_cell_length_c   3.86537300
_cell_angle_alpha   90.00000000
_cell_angle_beta   90.00000000
_cell_angle_gamma   119.99999994
_symmetry_Int_Tables_number   1
_chemical_formula_structural   Y3In3SnPdRu
_chemical_formula_sum   'Y3 In3 Sn1 Pd1 Ru1'
_cell_volume   208.60274872
_cell_formula_units_Z   1
loop_
 _symmetry_equiv_pos_site_id
 _symmetry_equiv_pos_as_xyz
  1  'x, y, z'
loop_
 _atom_site_type_symbol
 _atom_site_label
 _atom_site_symmetry_multiplicity
 _atom_site_fract_x
 _atom_site_fract_y
 _atom_site_fract_z
 _atom_site_occupancy
  Y  Y0  1  0.421028  0.390061  0.500000  1
  Y  Y1  1  0.609939  0.030966  0.500000  1
  Y  Y2  1  0.969034  0.578972  0.500000  1
  In  In3  1  0.748711  0.735895  0.000000  1
  In  In4  1  0.264105  0.012816  0.000000  1
  In  In5  1  0.987184  0.251289  0.000000  1
  Sn  Sn6  1  0.333333  0.666667  0.000000  1
  Pd  Pd7  1  0.000000  0.000000  0.500000  1
  Ru  Ru8  1  0.666667  0.333333  0.000000  1
