# generated using pymatgen
data_Dy3Tm9Lu8(CoSb2)4
_symmetry_space_group_name_H-M   'P 1'
_cell_length_a   7.73666691
_cell_length_b   8.69883200
_cell_length_c   12.00762900
_cell_angle_alpha   90.00000000
_cell_angle_beta   90.02752605
_cell_angle_gamma   90.00000000
_symmetry_Int_Tables_number   1
_chemical_formula_structural   Dy3Tm9Lu8(CoSb2)4
_chemical_formula_sum   'Dy3 Tm9 Lu8 Co4 Sb8'
_cell_volume   808.11292640
_cell_formula_units_Z   1
loop_
 _symmetry_equiv_pos_site_id
 _symmetry_equiv_pos_as_xyz
  1  'x, y, z'
loop_
 _atom_site_type_symbol
 _atom_site_label
 _atom_site_symmetry_multiplicity
 _atom_site_fract_x
 _atom_site_fract_y
 _atom_site_fract_z
 _atom_site_occupancy
  Dy  Dy0  1  0.878882  0.750000  0.807458  1
  Dy  Dy1  1  0.378994  0.250000  0.692337  1
  Dy  Dy2  1  0.121189  0.250000  0.192481  1
  Tm  Tm3  1  0.155194  0.750000  0.203245  1
  Tm  Tm4  1  0.345056  0.750000  0.703135  1
  Tm  Tm5  1  0.845090  0.250000  0.796892  1
  Tm  Tm6  1  0.654926  0.250000  0.296948  1
  Tm  Tm7  1  0.450444  0.750000  0.998137  1
  Tm  Tm8  1  0.049360  0.750000  0.498104  1
  Tm  Tm9  1  0.549455  0.250000  0.002000  1
  Tm  Tm10  1  0.949879  0.250000  0.501783  1
  Tm  Tm11  1  0.619949  0.750000  0.308681  1
  Lu  Lu12  1  0.823828  0.536382  0.064988  1
  Lu  Lu13  1  0.676203  0.962885  0.564431  1
  Lu  Lu14  1  0.176166  0.036833  0.935110  1
  Lu  Lu15  1  0.324399  0.464496  0.434816  1
  Lu  Lu16  1  0.176166  0.463167  0.935110  1
  Lu  Lu17  1  0.324399  0.035504  0.434816  1
  Lu  Lu18  1  0.823828  0.963618  0.064988  1
  Lu  Lu19  1  0.676203  0.537115  0.564431  1
  Co  Co20  1  0.433448  0.750000  0.490967  1
  Co  Co21  1  0.067030  0.750000  0.991370  1
  Co  Co22  1  0.566935  0.250000  0.508464  1
  Co  Co23  1  0.932863  0.250000  0.008796  1
  Sb  Sb24  1  0.928912  0.509593  0.327910  1
  Sb  Sb25  1  0.570133  0.991116  0.828006  1
  Sb  Sb26  1  0.070051  0.008980  0.671989  1
  Sb  Sb27  1  0.430959  0.491875  0.172351  1
  Sb  Sb28  1  0.070051  0.491020  0.671989  1
  Sb  Sb29  1  0.430959  0.008125  0.172351  1
  Sb  Sb30  1  0.928912  0.990407  0.327910  1
  Sb  Sb31  1  0.570133  0.508884  0.828006  1
