# generated using pymatgen
data_Tb6SmCo2Sn23Rh4
_symmetry_space_group_name_H-M   'P 1'
_cell_length_a   9.81730058
_cell_length_b   9.81978059
_cell_length_c   10.05628680
_cell_angle_alpha   90.00000072
_cell_angle_beta   90.05167129
_cell_angle_gamma   120.00836088
_symmetry_Int_Tables_number   1
_chemical_formula_structural   Tb6SmCo2Sn23Rh4
_chemical_formula_sum   'Tb6 Sm1 Co2 Sn23 Rh4'
_cell_volume   839.50893665
_cell_formula_units_Z   1
loop_
 _symmetry_equiv_pos_site_id
 _symmetry_equiv_pos_as_xyz
  1  'x, y, z'
loop_
 _atom_site_type_symbol
 _atom_site_label
 _atom_site_symmetry_multiplicity
 _atom_site_fract_x
 _atom_site_fract_y
 _atom_site_fract_z
 _atom_site_occupancy
  Tb  Tb0  1  0.478843  0.521382  0.306786  1
  Tb  Tb1  1  0.521157  0.478618  0.693214  1
  Tb  Tb2  1  0.478843  0.957462  0.306786  1
  Tb  Tb3  1  0.521157  0.042538  0.693214  1
  Tb  Tb4  1  0.043397  0.521698  0.306934  1
  Tb  Tb5  1  0.956603  0.478302  0.693066  1
  Sm  Sm6  1  0.000000  0.000000  0.000000  1
  Co  Co7  1  0.336694  0.168347  0.198521  1
  Co  Co8  1  0.663306  0.831653  0.801479  1
  Sn  Sn9  1  0.350823  0.004590  0.004675  1
  Sn  Sn10  1  0.649177  0.995410  0.995325  1
  Sn  Sn11  1  0.000000  0.351549  0.000000  1
  Sn  Sn12  1  0.000000  0.648451  0.000000  1
  Sn  Sn13  1  0.649177  0.653767  0.995325  1
  Sn  Sn14  1  0.350823  0.346233  0.004675  1
  Sn  Sn15  1  0.338264  0.669132  0.818773  1
  Sn  Sn16  1  0.661736  0.330868  0.181227  1
  Sn  Sn17  1  0.000000  0.000000  0.500000  1
  Sn  Sn18  1  0.778980  0.221252  0.456021  1
  Sn  Sn19  1  0.221020  0.778748  0.543979  1
  Sn  Sn20  1  0.778980  0.557727  0.456021  1
  Sn  Sn21  1  0.221020  0.442273  0.543979  1
  Sn  Sn22  1  0.438576  0.219288  0.450662  1
  Sn  Sn23  1  0.561424  0.780712  0.549338  1
  Sn  Sn24  1  0.333381  0.666691  0.117506  1
  Sn  Sn25  1  0.666619  0.333309  0.882494  1
  Sn  Sn26  1  0.123328  0.887178  0.276742  1
  Sn  Sn27  1  0.876672  0.112822  0.723258  1
  Sn  Sn28  1  0.123328  0.236151  0.276742  1
  Sn  Sn29  1  0.876672  0.763849  0.723258  1
  Sn  Sn30  1  0.759323  0.879662  0.281590  1
  Sn  Sn31  1  0.240677  0.120338  0.718410  1
  Rh  Rh32  1  0.831372  0.167495  0.197572  1
  Rh  Rh33  1  0.168628  0.832505  0.802428  1
  Rh  Rh34  1  0.831372  0.663877  0.197572  1
  Rh  Rh35  1  0.168628  0.336123  0.802428  1
