# generated using pymatgen
data_Li2Nd8CoSi12Pd
_symmetry_space_group_name_H-M   'P 1'
_cell_length_a   8.23021100
_cell_length_b   8.23021315
_cell_length_c   8.44839400
_cell_angle_alpha   90.00000000
_cell_angle_beta   90.00000000
_cell_angle_gamma   119.99999537
_symmetry_Int_Tables_number   1
_chemical_formula_structural   Li2Nd8CoSi12Pd
_chemical_formula_sum   'Li2 Nd8 Co1 Si12 Pd1'
_cell_volume   495.59494031
_cell_formula_units_Z   1
loop_
 _symmetry_equiv_pos_site_id
 _symmetry_equiv_pos_as_xyz
  1  'x, y, z'
loop_
 _atom_site_type_symbol
 _atom_site_label
 _atom_site_symmetry_multiplicity
 _atom_site_fract_x
 _atom_site_fract_y
 _atom_site_fract_z
 _atom_site_occupancy
  Li  Li0  1  0.666667  0.333333  0.992330  1
  Li  Li1  1  0.333333  0.666667  0.008521  1
  Nd  Nd2  1  0.495954  0.504046  0.746123  1
  Nd  Nd3  1  0.499079  0.500921  0.254470  1
  Nd  Nd4  1  0.008090  0.504046  0.746123  1
  Nd  Nd5  1  0.001841  0.500921  0.254470  1
  Nd  Nd6  1  0.495954  0.991910  0.746123  1
  Nd  Nd7  1  0.499079  0.998159  0.254470  1
  Nd  Nd8  1  0.000000  0.000000  0.750955  1
  Nd  Nd9  1  0.000000  0.000000  0.248846  1
  Co  Co10  1  0.333333  0.666667  0.492991  1
  Si  Si11  1  0.833549  0.166451  0.000570  1
  Si  Si12  1  0.165927  0.834073  0.999377  1
  Si  Si13  1  0.332901  0.166451  0.000570  1
  Si  Si14  1  0.172953  0.827047  0.499331  1
  Si  Si15  1  0.668147  0.834073  0.999377  1
  Si  Si16  1  0.835311  0.164689  0.500277  1
  Si  Si17  1  0.833549  0.667099  0.000570  1
  Si  Si18  1  0.654093  0.827047  0.499331  1
  Si  Si19  1  0.165927  0.331853  0.999377  1
  Si  Si20  1  0.329379  0.164689  0.500277  1
  Si  Si21  1  0.172953  0.345907  0.499331  1
  Si  Si22  1  0.835311  0.670621  0.500277  1
  Pd  Pd23  1  0.666667  0.333333  0.505910  1
