# generated using pymatgen
data_Ac3P6BrN13
_symmetry_space_group_name_H-M   'P 1'
_cell_length_a   7.65658088
_cell_length_b   7.65658006
_cell_length_c   7.65658100
_cell_angle_alpha   109.18844084
_cell_angle_beta   109.18843871
_cell_angle_gamma   109.18843907
_symmetry_Int_Tables_number   1
_chemical_formula_structural   Ac3P6BrN13
_chemical_formula_sum   'Ac3 P6 Br1 N13'
_cell_volume   349.09826118
_cell_formula_units_Z   1
loop_
 _symmetry_equiv_pos_site_id
 _symmetry_equiv_pos_as_xyz
  1  'x, y, z'
loop_
 _atom_site_type_symbol
 _atom_site_label
 _atom_site_symmetry_multiplicity
 _atom_site_fract_x
 _atom_site_fract_y
 _atom_site_fract_z
 _atom_site_occupancy
  Ac  Ac0  1  0.670394  0.007065  0.007065  1
  Ac  Ac1  1  0.007065  0.007065  0.670394  1
  Ac  Ac2  1  0.007065  0.670394  0.007065  1
  P  P3  1  0.263724  0.762239  0.512662  1
  P  P4  1  0.762239  0.263724  0.512662  1
  P  P5  1  0.762239  0.512662  0.263724  1
  P  P6  1  0.263724  0.512662  0.762239  1
  P  P7  1  0.512662  0.762239  0.263724  1
  P  P8  1  0.512662  0.263724  0.762239  1
  Br  Br9  1  0.186882  0.186882  0.186882  1
  N  N10  1  0.840932  0.840932  0.840932  1
  N  N11  1  0.735874  0.333847  0.333847  1
  N  N12  1  0.333847  0.735874  0.333847  1
  N  N13  1  0.314090  0.640276  0.640276  1
  N  N14  1  0.640276  0.640276  0.314090  1
  N  N15  1  0.388231  0.704493  0.013376  1
  N  N16  1  0.013376  0.704493  0.388231  1
  N  N17  1  0.640276  0.314090  0.640276  1
  N  N18  1  0.704493  0.013376  0.388231  1
  N  N19  1  0.388231  0.013376  0.704493  1
  N  N20  1  0.704493  0.388231  0.013376  1
  N  N21  1  0.333847  0.333847  0.735874  1
  N  N22  1  0.013376  0.388231  0.704493  1
