# generated using pymatgen
data_Tb8Si12PdRh3
_symmetry_space_group_name_H-M   'P 1'
_cell_length_a   8.18592200
_cell_length_b   8.18592201
_cell_length_c   7.95184500
_cell_angle_alpha   90.00000000
_cell_angle_beta   90.00000000
_cell_angle_gamma   119.99999186
_symmetry_Int_Tables_number   1
_chemical_formula_structural   Tb8Si12PdRh3
_chemical_formula_sum   'Tb8 Si12 Pd1 Rh3'
_cell_volume   461.45969898
_cell_formula_units_Z   1
loop_
 _symmetry_equiv_pos_site_id
 _symmetry_equiv_pos_as_xyz
  1  'x, y, z'
loop_
 _atom_site_type_symbol
 _atom_site_label
 _atom_site_symmetry_multiplicity
 _atom_site_fract_x
 _atom_site_fract_y
 _atom_site_fract_z
 _atom_site_occupancy
  Tb  Tb0  1  0.000000  0.000000  0.250217  1
  Tb  Tb1  1  0.000000  0.000000  0.750909  1
  Tb  Tb2  1  0.509900  0.490100  0.247403  1
  Tb  Tb3  1  0.509900  0.019800  0.247403  1
  Tb  Tb4  1  0.980200  0.490100  0.247403  1
  Tb  Tb5  1  0.492471  0.507529  0.751951  1
  Tb  Tb6  1  0.492471  0.984943  0.751951  1
  Tb  Tb7  1  0.015057  0.507529  0.751951  1
  Si  Si8  1  0.164309  0.835691  0.501035  1
  Si  Si9  1  0.164309  0.328617  0.501035  1
  Si  Si10  1  0.671383  0.835691  0.501035  1
  Si  Si11  1  0.832352  0.167648  0.499465  1
  Si  Si12  1  0.832352  0.664704  0.499465  1
  Si  Si13  1  0.335296  0.167648  0.499465  1
  Si  Si14  1  0.833393  0.166607  0.999602  1
  Si  Si15  1  0.833393  0.666787  0.999602  1
  Si  Si16  1  0.333213  0.166607  0.999602  1
  Si  Si17  1  0.166911  0.833089  0.000825  1
  Si  Si18  1  0.166911  0.333823  0.000825  1
  Si  Si19  1  0.666177  0.833089  0.000825  1
  Pd  Pd20  1  0.333333  0.666667  0.466429  1
  Rh  Rh21  1  0.666667  0.333333  0.536070  1
  Rh  Rh22  1  0.666667  0.333333  0.965071  1
  Rh  Rh23  1  0.333333  0.666667  0.030464  1
