# generated using pymatgen
data_Yb3Pa(Pd2O7)2
_symmetry_space_group_name_H-M   'P 1'
_cell_length_a   7.23502040
_cell_length_b   7.23502069
_cell_length_c   7.23502133
_cell_angle_alpha   59.98802346
_cell_angle_beta   59.98802439
_cell_angle_gamma   59.98802415
_symmetry_Int_Tables_number   1
_chemical_formula_structural   Yb3Pa(Pd2O7)2
_chemical_formula_sum   'Yb3 Pa1 Pd4 O14'
_cell_volume   267.72344702
_cell_formula_units_Z   1
loop_
 _symmetry_equiv_pos_site_id
 _symmetry_equiv_pos_as_xyz
  1  'x, y, z'
loop_
 _atom_site_type_symbol
 _atom_site_label
 _atom_site_symmetry_multiplicity
 _atom_site_fract_x
 _atom_site_fract_y
 _atom_site_fract_z
 _atom_site_occupancy
  Yb  Yb0  1  0.625000  0.625000  0.125000  1
  Yb  Yb1  1  0.625000  0.125000  0.625000  1
  Yb  Yb2  1  0.125000  0.625000  0.625000  1
  Pa  Pa3  1  0.625000  0.625000  0.625000  1
  Pd  Pd4  1  0.125000  0.125000  0.625000  1
  Pd  Pd5  1  0.125000  0.625000  0.125000  1
  Pd  Pd6  1  0.625000  0.125000  0.125000  1
  Pd  Pd7  1  0.125000  0.125000  0.125000  1
  O  O8  1  0.740213  0.740213  0.740213  1
  O  O9  1  0.509787  0.509787  0.509787  1
  O  O10  1  0.038144  0.462916  0.038144  1
  O  O11  1  0.786337  0.218740  0.786337  1
  O  O12  1  0.038144  0.038144  0.462916  1
  O  O13  1  0.462916  0.038144  0.038144  1
  O  O14  1  0.031260  0.463663  0.463663  1
  O  O15  1  0.463663  0.463663  0.031260  1
  O  O16  1  0.463663  0.031260  0.463663  1
  O  O17  1  0.218740  0.786337  0.786337  1
  O  O18  1  0.787084  0.211856  0.211856  1
  O  O19  1  0.211856  0.787084  0.211856  1
  O  O20  1  0.786337  0.786337  0.218740  1
  O  O21  1  0.211856  0.211856  0.787084  1
