# generated using pymatgen
data_Er6CoNi15(P6W)2
_symmetry_space_group_name_H-M   'P 1'
_cell_length_a   3.75149600
_cell_length_b   10.64774800
_cell_length_c   12.32084100
_cell_angle_alpha   90.00000000
_cell_angle_beta   90.00000000
_cell_angle_gamma   90.00000000
_symmetry_Int_Tables_number   1
_chemical_formula_structural   Er6CoNi15(P6W)2
_chemical_formula_sum   'Er6 Co1 Ni15 P12 W2'
_cell_volume   492.15579699
_cell_formula_units_Z   1
loop_
 _symmetry_equiv_pos_site_id
 _symmetry_equiv_pos_as_xyz
  1  'x, y, z'
loop_
 _atom_site_type_symbol
 _atom_site_label
 _atom_site_symmetry_multiplicity
 _atom_site_fract_x
 _atom_site_fract_y
 _atom_site_fract_z
 _atom_site_occupancy
  Er  Er0  1  0.750000  0.250000  0.474718  1
  Er  Er1  1  0.250000  0.750000  0.525488  1
  Er  Er2  1  0.250000  0.930337  0.792824  1
  Er  Er3  1  0.250000  0.569663  0.792824  1
  Er  Er4  1  0.750000  0.069241  0.208106  1
  Er  Er5  1  0.750000  0.430759  0.208106  1
  Co  Co6  1  0.250000  0.750000  0.986012  1
  Ni  Ni7  1  0.250000  0.250000  0.299473  1
  Ni  Ni8  1  0.750000  0.750000  0.701475  1
  Ni  Ni9  1  0.750000  0.250000  0.014760  1
  Ni  Ni10  1  0.250000  0.418289  0.013149  1
  Ni  Ni11  1  0.250000  0.081711  0.013149  1
  Ni  Ni12  1  0.750000  0.584162  0.987125  1
  Ni  Ni13  1  0.750000  0.915838  0.987125  1
  Ni  Ni14  1  0.250000  0.447041  0.571918  1
  Ni  Ni15  1  0.250000  0.052959  0.571918  1
  Ni  Ni16  1  0.750000  0.553337  0.427669  1
  Ni  Ni17  1  0.750000  0.946663  0.427669  1
  Ni  Ni18  1  0.250000  0.871166  0.289854  1
  Ni  Ni19  1  0.250000  0.628834  0.289854  1
  Ni  Ni20  1  0.750000  0.128526  0.709308  1
  Ni  Ni21  1  0.750000  0.371474  0.709308  1
  P  P22  1  0.250000  0.250000  0.122179  1
  P  P23  1  0.750000  0.750000  0.878493  1
  P  P24  1  0.250000  0.250000  0.649720  1
  P  P25  1  0.750000  0.750000  0.350055  1
  P  P26  1  0.250000  0.435560  0.385845  1
  P  P27  1  0.250000  0.064440  0.385845  1
  P  P28  1  0.750000  0.564815  0.614047  1
  P  P29  1  0.750000  0.935185  0.614047  1
  P  P30  1  0.250000  0.905049  0.107480  1
  P  P31  1  0.250000  0.594951  0.107480  1
  P  P32  1  0.750000  0.094240  0.891580  1
  P  P33  1  0.750000  0.405760  0.891580  1
  W  W34  1  0.250000  0.250000  0.846145  1
  W  W35  1  0.750000  0.750000  0.153669  1
