# generated using pymatgen
data_Lu16Sc4(SiBi3)3
_symmetry_space_group_name_H-M   'P 1'
_cell_length_a   7.85276406
_cell_length_b   9.12154000
_cell_length_c   11.56923225
_cell_angle_alpha   90.00000000
_cell_angle_beta   89.77537670
_cell_angle_gamma   90.00000000
_symmetry_Int_Tables_number   1
_chemical_formula_structural   Lu16Sc4(SiBi3)3
_chemical_formula_sum   'Lu16 Sc4 Si3 Bi9'
_cell_volume   828.68965663
_cell_formula_units_Z   1
loop_
 _symmetry_equiv_pos_site_id
 _symmetry_equiv_pos_as_xyz
  1  'x, y, z'
loop_
 _atom_site_type_symbol
 _atom_site_label
 _atom_site_symmetry_multiplicity
 _atom_site_fract_x
 _atom_site_fract_y
 _atom_site_fract_z
 _atom_site_occupancy
  Lu  Lu0  1  0.351701  0.250000  0.295481  1
  Lu  Lu1  1  0.650202  0.750000  0.703569  1
  Lu  Lu2  1  0.146054  0.750000  0.794177  1
  Lu  Lu3  1  0.848799  0.250000  0.217361  1
  Lu  Lu4  1  0.195818  0.250000  0.772808  1
  Lu  Lu5  1  0.824224  0.750000  0.214014  1
  Lu  Lu6  1  0.326417  0.750000  0.287511  1
  Lu  Lu7  1  0.669578  0.250000  0.708566  1
  Lu  Lu8  1  0.192627  0.049608  0.059552  1
  Lu  Lu9  1  0.812908  0.926315  0.945648  1
  Lu  Lu10  1  0.315958  0.940354  0.553975  1
  Lu  Lu11  1  0.812908  0.573685  0.945648  1
  Lu  Lu12  1  0.684048  0.058287  0.446652  1
  Lu  Lu13  1  0.192627  0.450392  0.059552  1
  Lu  Lu14  1  0.684048  0.441713  0.446652  1
  Lu  Lu15  1  0.315958  0.559646  0.553975  1
  Sc  Sc16  1  0.037116  0.250000  0.509729  1
  Sc  Sc17  1  0.961199  0.750000  0.488590  1
  Sc  Sc18  1  0.458782  0.750000  0.013269  1
  Sc  Sc19  1  0.521511  0.250000  0.989116  1
  Si  Si20  1  0.401978  0.250000  0.537999  1
  Si  Si21  1  0.593532  0.750000  0.461509  1
  Si  Si22  1  0.091576  0.750000  0.037545  1
  Bi  Bi23  1  0.903930  0.250000  0.954267  1
  Bi  Bi24  1  0.061637  0.000944  0.327126  1
  Bi  Bi25  1  0.938748  0.998536  0.673321  1
  Bi  Bi26  1  0.440004  0.994676  0.826615  1
  Bi  Bi27  1  0.938748  0.501464  0.673321  1
  Bi  Bi28  1  0.562862  0.002638  0.174356  1
  Bi  Bi29  1  0.061637  0.499056  0.327126  1
  Bi  Bi30  1  0.562862  0.497362  0.174356  1
  Bi  Bi31  1  0.440004  0.505324  0.826615  1
