# generated using pymatgen
data_Ba3Sr3(ScAs3)2
_symmetry_space_group_name_H-M   'P 1'
_cell_length_a   4.61467300
_cell_length_b   13.23871244
_cell_length_c   14.85237359
_cell_angle_alpha   90.54523268
_cell_angle_beta   90.00000000
_cell_angle_gamma   90.00000000
_symmetry_Int_Tables_number   1
_chemical_formula_structural   Ba3Sr3(ScAs3)2
_chemical_formula_sum   'Ba6 Sr6 Sc4 As12'
_cell_volume   907.32500798
_cell_formula_units_Z   2
loop_
 _symmetry_equiv_pos_site_id
 _symmetry_equiv_pos_as_xyz
  1  'x, y, z'
loop_
 _atom_site_type_symbol
 _atom_site_label
 _atom_site_symmetry_multiplicity
 _atom_site_fract_x
 _atom_site_fract_y
 _atom_site_fract_z
 _atom_site_occupancy
  Ba  Ba0  1  0.250000  0.848625  0.497820  1
  Ba  Ba1  1  0.250000  0.351219  0.001111  1
  Ba  Ba2  1  0.750000  0.148698  0.504492  1
  Ba  Ba3  1  0.750000  0.231154  0.204160  1
  Ba  Ba4  1  0.750000  0.429523  0.397386  1
  Ba  Ba5  1  0.250000  0.572619  0.604167  1
  Sr  Sr6  1  0.750000  0.926964  0.097748  1
  Sr  Sr7  1  0.250000  0.066860  0.900032  1
  Sr  Sr8  1  0.250000  0.267203  0.715017  1
  Sr  Sr9  1  0.750000  0.732936  0.282468  1
  Sr  Sr10  1  0.250000  0.771774  0.794649  1
  Sr  Sr11  1  0.750000  0.650315  0.000917  1
  Sc  Sc12  1  0.750000  0.949071  0.710128  1
  Sc  Sc13  1  0.250000  0.047001  0.290749  1
  Sc  Sc14  1  0.250000  0.559069  0.200951  1
  Sc  Sc15  1  0.750000  0.447144  0.798149  1
  As  As16  1  0.750000  0.473043  0.147430  1
  As  As17  1  0.250000  0.539255  0.852353  1
  As  As18  1  0.750000  0.961032  0.345251  1
  As  As19  1  0.250000  0.036680  0.657065  1
  As  As20  1  0.750000  0.395319  0.624326  1
  As  As21  1  0.250000  0.606952  0.376010  1
  As  As22  1  0.750000  0.900104  0.884323  1
  As  As23  1  0.250000  0.089498  0.114263  1
  As  As24  1  0.750000  0.260032  0.867756  1
  As  As25  1  0.250000  0.741291  0.126458  1
  As  As26  1  0.750000  0.765051  0.638331  1
  As  As27  1  0.250000  0.231568  0.366490  1
