# generated using pymatgen
data_TbEr8Th3Ru4
_symmetry_space_group_name_H-M   'P 1'
_cell_length_a   6.29964202
_cell_length_b   7.19421426
_cell_length_c   9.43099800
_cell_angle_alpha   90.00000000
_cell_angle_beta   90.00000000
_cell_angle_gamma   90.52977559
_symmetry_Int_Tables_number   1
_chemical_formula_structural   TbEr8Th3Ru4
_chemical_formula_sum   'Tb1 Er8 Th3 Ru4'
_cell_volume   427.40374863
_cell_formula_units_Z   1
loop_
 _symmetry_equiv_pos_site_id
 _symmetry_equiv_pos_as_xyz
  1  'x, y, z'
loop_
 _atom_site_type_symbol
 _atom_site_label
 _atom_site_symmetry_multiplicity
 _atom_site_fract_x
 _atom_site_fract_y
 _atom_site_fract_z
 _atom_site_occupancy
  Tb  Tb0  1  0.362571  0.963205  0.750000  1
  Er  Er1  1  0.334885  0.677542  0.063671  1
  Er  Er2  1  0.164512  0.175738  0.435519  1
  Er  Er3  1  0.667537  0.323463  0.566726  1
  Er  Er4  1  0.829905  0.823479  0.931713  1
  Er  Er5  1  0.667537  0.323463  0.933274  1
  Er  Er6  1  0.829905  0.823479  0.568287  1
  Er  Er7  1  0.334885  0.677542  0.436329  1
  Er  Er8  1  0.164512  0.175738  0.064481  1
  Th  Th9  1  0.851668  0.546983  0.250000  1
  Th  Th10  1  0.646142  0.045481  0.250000  1
  Th  Th11  1  0.149016  0.453740  0.750000  1
  Ru  Ru12  1  0.036295  0.871321  0.250000  1
  Ru  Ru13  1  0.465510  0.369817  0.250000  1
  Ru  Ru14  1  0.960549  0.132167  0.750000  1
  Ru  Ru15  1  0.534572  0.616844  0.750000  1
