# generated using pymatgen
data_Ce3Ho(NbRu3)2
_symmetry_space_group_name_H-M   'P 1'
_cell_length_a   5.83085411
_cell_length_b   5.83101797
_cell_length_c   7.79157424
_cell_angle_alpha   90.00287635
_cell_angle_beta   90.02294842
_cell_angle_gamma   120.00302900
_symmetry_Int_Tables_number   1
_chemical_formula_structural   Ce3Ho(NbRu3)2
_chemical_formula_sum   'Ce3 Ho1 Nb2 Ru6'
_cell_volume   229.41356362
_cell_formula_units_Z   1
loop_
 _symmetry_equiv_pos_site_id
 _symmetry_equiv_pos_as_xyz
  1  'x, y, z'
loop_
 _atom_site_type_symbol
 _atom_site_label
 _atom_site_symmetry_multiplicity
 _atom_site_fract_x
 _atom_site_fract_y
 _atom_site_fract_z
 _atom_site_occupancy
  Ce  Ce0  1  0.666685  0.333358  0.543055  1
  Ce  Ce1  1  0.333322  0.666664  0.439107  1
  Ce  Ce2  1  0.333335  0.666646  0.056049  1
  Ho  Ho3  1  0.666625  0.333284  0.934418  1
  Nb  Nb4  1  0.000014  0.000020  0.505925  1
  Nb  Nb5  1  0.999993  0.999978  0.002200  1
  Ru  Ru6  1  0.171759  0.343512  0.753262  1
  Ru  Ru7  1  0.171716  0.828202  0.753245  1
  Ru  Ru8  1  0.656422  0.828223  0.753157  1
  Ru  Ru9  1  0.829728  0.659484  0.253189  1
  Ru  Ru10  1  0.829772  0.170292  0.253173  1
  Ru  Ru11  1  0.340630  0.170337  0.253221  1
