# generated using pymatgen
data_Hf6Co15Si7Os
_symmetry_space_group_name_H-M   'P 1'
_cell_length_a   8.03859966
_cell_length_b   8.03859807
_cell_length_c   8.07078202
_cell_angle_alpha   60.13181661
_cell_angle_beta   60.13182527
_cell_angle_gamma   60.00000515
_symmetry_Int_Tables_number   1
_chemical_formula_structural   Hf6Co15Si7Os
_chemical_formula_sum   'Hf6 Co15 Si7 Os1'
_cell_volume   369.50796519
_cell_formula_units_Z   1
loop_
 _symmetry_equiv_pos_site_id
 _symmetry_equiv_pos_as_xyz
  1  'x, y, z'
loop_
 _atom_site_type_symbol
 _atom_site_label
 _atom_site_symmetry_multiplicity
 _atom_site_fract_x
 _atom_site_fract_y
 _atom_site_fract_z
 _atom_site_occupancy
  Hf  Hf0  1  0.205272  0.796135  0.793320  1
  Hf  Hf1  1  0.797339  0.797339  0.204746  1
  Hf  Hf2  1  0.797339  0.200576  0.204746  1
  Hf  Hf3  1  0.205272  0.205272  0.793320  1
  Hf  Hf4  1  0.796135  0.205272  0.793320  1
  Hf  Hf5  1  0.200576  0.797339  0.204746  1
  Co  Co6  1  0.169390  0.490701  0.170520  1
  Co  Co7  1  0.860177  0.378031  0.383759  1
  Co  Co8  1  0.513485  0.831153  0.824208  1
  Co  Co9  1  0.490701  0.169390  0.170520  1
  Co  Co10  1  0.827452  0.827452  0.517644  1
  Co  Co11  1  0.169996  0.169996  0.490013  1
  Co  Co12  1  0.139885  0.620179  0.619758  1
  Co  Co13  1  0.169390  0.169390  0.170520  1
  Co  Co14  1  0.379436  0.379436  0.861692  1
  Co  Co15  1  0.620179  0.620179  0.619758  1
  Co  Co16  1  0.378031  0.860177  0.383759  1
  Co  Co17  1  0.378031  0.378031  0.383759  1
  Co  Co18  1  0.831153  0.831153  0.824208  1
  Co  Co19  1  0.620179  0.139885  0.619758  1
  Co  Co20  1  0.831153  0.513485  0.824208  1
  Si  Si21  1  0.499467  0.001626  0.497281  1
  Si  Si22  1  0.498538  0.498538  0.997918  1
  Si  Si23  1  0.495810  0.495810  0.512571  1
  Si  Si24  1  0.001626  0.001626  0.497281  1
  Si  Si25  1  0.005005  0.498538  0.997918  1
  Si  Si26  1  0.001626  0.499467  0.497281  1
  Si  Si27  1  0.498538  0.005005  0.997918  1
  Os  Os28  1  0.618818  0.618818  0.143548  1
