# generated using pymatgen
data_YTh2SnRh3Pb2
_symmetry_space_group_name_H-M   'P 1'
_cell_length_a   7.70651265
_cell_length_b   7.70651268
_cell_length_c   4.05912500
_cell_angle_alpha   90.00000000
_cell_angle_beta   90.00000000
_cell_angle_gamma   120.67960667
_symmetry_Int_Tables_number   1
_chemical_formula_structural   YTh2SnRh3Pb2
_chemical_formula_sum   'Y1 Th2 Sn1 Rh3 Pb2'
_cell_volume   207.33079206
_cell_formula_units_Z   1
loop_
 _symmetry_equiv_pos_site_id
 _symmetry_equiv_pos_as_xyz
  1  'x, y, z'
loop_
 _atom_site_type_symbol
 _atom_site_label
 _atom_site_symmetry_multiplicity
 _atom_site_fract_x
 _atom_site_fract_y
 _atom_site_fract_z
 _atom_site_occupancy
  Y  Y0  1  0.589846  0.589846  0.500000  1
  Th  Th1  1  0.411584  0.004421  0.500000  1
  Th  Th2  1  0.004421  0.411584  0.500000  1
  Sn  Sn3  1  0.265258  0.265258  0.000000  1
  Rh  Rh4  1  0.317654  0.658324  0.000000  1
  Rh  Rh5  1  0.658324  0.317654  0.000000  1
  Rh  Rh6  1  0.020518  0.020518  0.500000  1
  Pb  Pb7  1  0.743228  0.989168  0.000000  1
  Pb  Pb8  1  0.989168  0.743228  0.000000  1
