# generated using pymatgen
data_Tb2Y2Ga18(PdRu)3
_symmetry_space_group_name_H-M   'P 1'
_cell_length_a   7.61396682
_cell_length_b   7.61345582
_cell_length_c   9.60192875
_cell_angle_alpha   89.92462773
_cell_angle_beta   89.91527000
_cell_angle_gamma   119.63693423
_symmetry_Int_Tables_number   1
_chemical_formula_structural   Tb2Y2Ga18(PdRu)3
_chemical_formula_sum   'Tb2 Y2 Ga18 Pd3 Ru3'
_cell_volume   483.79069232
_cell_formula_units_Z   1
loop_
 _symmetry_equiv_pos_site_id
 _symmetry_equiv_pos_as_xyz
  1  'x, y, z'
loop_
 _atom_site_type_symbol
 _atom_site_label
 _atom_site_symmetry_multiplicity
 _atom_site_fract_x
 _atom_site_fract_y
 _atom_site_fract_z
 _atom_site_occupancy
  Tb  Tb0  1  0.996287  0.670435  0.250926  1
  Tb  Tb1  1  0.002210  0.328859  0.748792  1
  Y  Y2  1  0.671262  0.997830  0.251170  1
  Y  Y3  1  0.329591  0.003735  0.748971  1
  Ga  Ga4  1  0.132049  0.129631  0.249937  1
  Ga  Ga5  1  0.870294  0.868054  0.750070  1
  Ga  Ga6  1  0.006926  0.339677  0.081036  1
  Ga  Ga7  1  0.001614  0.664117  0.919084  1
  Ga  Ga8  1  0.998070  0.660130  0.578780  1
  Ga  Ga9  1  0.339922  0.001857  0.421238  1
  Ga  Ga10  1  0.003257  0.340214  0.419894  1
  Ga  Ga11  1  0.659607  0.996770  0.580112  1
  Ga  Ga12  1  0.660250  0.993049  0.919015  1
  Ga  Ga13  1  0.335983  0.998405  0.080901  1
  Ga  Ga14  1  0.339897  0.339399  0.563136  1
  Ga  Ga15  1  0.660516  0.660184  0.436850  1
  Ga  Ga16  1  0.660305  0.665550  0.066786  1
  Ga  Ga17  1  0.334522  0.339745  0.933250  1
  Ga  Ga18  1  0.337382  0.551735  0.250468  1
  Ga  Ga19  1  0.664352  0.452943  0.746617  1
  Ga  Ga20  1  0.547083  0.335692  0.253381  1
  Ga  Ga21  1  0.448287  0.662545  0.749527  1
  Pd  Pd22  1  0.672230  0.327554  0.000012  1
  Pd  Pd23  1  0.000441  0.999561  0.999991  1
  Pd  Pd24  1  0.999618  0.000441  0.500011  1
  Ru  Ru25  1  0.327362  0.672695  0.000003  1
  Ru  Ru26  1  0.327067  0.672790  0.500063  1
  Ru  Ru27  1  0.673617  0.326401  0.499979  1
