# generated using pymatgen
data_Ba4DyHoU2O12
_symmetry_space_group_name_H-M   'P 1'
_cell_length_a   6.19059640
_cell_length_b   6.21303337
_cell_length_c   8.72963065
_cell_angle_alpha   90.06479976
_cell_angle_beta   89.97957922
_cell_angle_gamma   89.99700706
_symmetry_Int_Tables_number   1
_chemical_formula_structural   Ba4DyHoU2O12
_chemical_formula_sum   'Ba4 Dy1 Ho1 U2 O12'
_cell_volume   335.76215270
_cell_formula_units_Z   1
loop_
 _symmetry_equiv_pos_site_id
 _symmetry_equiv_pos_as_xyz
  1  'x, y, z'
loop_
 _atom_site_type_symbol
 _atom_site_label
 _atom_site_symmetry_multiplicity
 _atom_site_fract_x
 _atom_site_fract_y
 _atom_site_fract_z
 _atom_site_occupancy
  Ba  Ba0  1  0.013448  0.994304  0.749286  1
  Ba  Ba1  1  0.486567  0.493864  0.250883  1
  Ba  Ba2  1  0.513433  0.506136  0.749117  1
  Ba  Ba3  1  0.986553  0.005696  0.250714  1
  Dy  Dy4  1  0.000000  0.500000  0.000000  1
  Ho  Ho5  1  0.500000  0.000000  0.500000  1
  U  U6  1  0.000000  0.500000  0.500000  1
  U  U7  1  0.500000  0.000000  0.000000  1
  O  O8  1  0.239954  0.227715  0.037256  1
  O  O9  1  0.508782  0.933630  0.244033  1
  O  O10  1  0.738415  0.272408  0.463450  1
  O  O11  1  0.728273  0.258711  0.035917  1
  O  O12  1  0.771809  0.760209  0.535406  1
  O  O13  1  0.009024  0.568381  0.256908  1
  O  O14  1  0.228191  0.239791  0.464594  1
  O  O15  1  0.271727  0.741289  0.964083  1
  O  O16  1  0.261585  0.727592  0.536550  1
  O  O17  1  0.491218  0.066370  0.755967  1
  O  O18  1  0.760046  0.772285  0.962744  1
  O  O19  1  0.990976  0.431619  0.743092  1
