# generated using pymatgen
data_PrNd3Sc6(Si5Ir2)4
_symmetry_space_group_name_H-M   'P 1'
_cell_length_a   12.57964089
_cell_length_b   12.57964072
_cell_length_c   4.18089400
_cell_angle_alpha   90.00000000
_cell_angle_beta   90.00000000
_cell_angle_gamma   89.96617716
_symmetry_Int_Tables_number   1
_chemical_formula_structural   PrNd3Sc6(Si5Ir2)4
_chemical_formula_sum   'Pr1 Nd3 Sc6 Si20 Ir8'
_cell_volume   661.61533427
_cell_formula_units_Z   1
loop_
 _symmetry_equiv_pos_site_id
 _symmetry_equiv_pos_as_xyz
  1  'x, y, z'
loop_
 _atom_site_type_symbol
 _atom_site_label
 _atom_site_symmetry_multiplicity
 _atom_site_fract_x
 _atom_site_fract_y
 _atom_site_fract_z
 _atom_site_occupancy
  Pr  Pr0  1  0.384104  0.115896  0.500000  1
  Nd  Nd1  1  0.115943  0.615835  0.500000  1
  Nd  Nd2  1  0.884165  0.384057  0.500000  1
  Nd  Nd3  1  0.616044  0.883956  0.500000  1
  Sc  Sc4  1  0.675602  0.176417  0.500000  1
  Sc  Sc5  1  0.323583  0.824398  0.500000  1
  Sc  Sc6  1  0.175939  0.324061  0.500000  1
  Sc  Sc7  1  0.824177  0.675823  0.500000  1
  Sc  Sc8  1  0.000267  0.999961  0.000000  1
  Sc  Sc9  1  0.500039  0.499733  0.000000  1
  Si  Si10  1  0.569300  0.068566  0.000000  1
  Si  Si11  1  0.431434  0.930700  0.000000  1
  Si  Si12  1  0.068630  0.431370  0.000000  1
  Si  Si13  1  0.931288  0.568712  0.000000  1
  Si  Si14  1  0.199709  0.163428  0.000000  1
  Si  Si15  1  0.799946  0.836522  0.000000  1
  Si  Si16  1  0.163414  0.799644  0.000000  1
  Si  Si17  1  0.700356  0.336586  0.000000  1
  Si  Si18  1  0.836517  0.200085  0.000000  1
  Si  Si19  1  0.299915  0.663483  0.000000  1
  Si  Si20  1  0.663478  0.700054  0.000000  1
  Si  Si21  1  0.336572  0.300291  0.000000  1
  Si  Si22  1  0.009200  0.149747  0.500000  1
  Si  Si23  1  0.991163  0.850409  0.500000  1
  Si  Si24  1  0.149815  0.992027  0.500000  1
  Si  Si25  1  0.507973  0.350185  0.500000  1
  Si  Si26  1  0.850891  0.009514  0.500000  1
  Si  Si27  1  0.490486  0.649109  0.500000  1
  Si  Si28  1  0.649591  0.508837  0.500000  1
  Si  Si29  1  0.350253  0.490800  0.500000  1
  Ir  Ir30  1  0.024119  0.242187  0.000000  1
  Ir  Ir31  1  0.975642  0.757912  0.000000  1
  Ir  Ir32  1  0.241695  0.975251  0.000000  1
  Ir  Ir33  1  0.524749  0.258305  0.000000  1
  Ir  Ir34  1  0.758311  0.024214  0.000000  1
  Ir  Ir35  1  0.475786  0.741689  0.000000  1
  Ir  Ir36  1  0.742088  0.524358  0.000000  1
  Ir  Ir37  1  0.257813  0.475881  0.000000  1
