# generated using pymatgen
data_Tb5Y11In4(NiIr)2
_symmetry_space_group_name_H-M   'P 1'
_cell_length_a   9.66480885
_cell_length_b   9.67170807
_cell_length_c   9.64657603
_cell_angle_alpha   60.09208704
_cell_angle_beta   60.10686919
_cell_angle_gamma   60.30408164
_symmetry_Int_Tables_number   1
_chemical_formula_structural   Tb5Y11In4(NiIr)2
_chemical_formula_sum   'Tb5 Y11 In4 Ni2 Ir2'
_cell_volume   640.02528608
_cell_formula_units_Z   1
loop_
 _symmetry_equiv_pos_site_id
 _symmetry_equiv_pos_as_xyz
  1  'x, y, z'
loop_
 _atom_site_type_symbol
 _atom_site_label
 _atom_site_symmetry_multiplicity
 _atom_site_fract_x
 _atom_site_fract_y
 _atom_site_fract_z
 _atom_site_occupancy
  Tb  Tb0  1  0.597488  0.597748  0.599288  1
  Tb  Tb1  1  0.597675  0.597714  0.205390  1
  Tb  Tb2  1  0.597414  0.203613  0.599509  1
  Tb  Tb3  1  0.203726  0.597518  0.599504  1
  Tb  Tb4  1  0.061352  0.440440  0.438441  1
  Y  Y5  1  0.440573  0.061195  0.059613  1
  Y  Y6  1  0.440690  0.060967  0.438589  1
  Y  Y7  1  0.061239  0.440562  0.059475  1
  Y  Y8  1  0.439706  0.439595  0.060215  1
  Y  Y9  1  0.059795  0.059477  0.440292  1
  Y  Y10  1  0.189238  0.813664  0.808422  1
  Y  Y11  1  0.813586  0.189293  0.188749  1
  Y  Y12  1  0.813552  0.189240  0.808458  1
  Y  Y13  1  0.189333  0.813666  0.188655  1
  Y  Y14  1  0.810257  0.810365  0.189650  1
  Y  Y15  1  0.187936  0.187836  0.812182  1
  In  In16  1  0.832777  0.832863  0.832532  1
  In  In17  1  0.832739  0.832943  0.501904  1
  In  In18  1  0.832761  0.501492  0.832954  1
  In  In19  1  0.501421  0.832887  0.832873  1
  Ni  Ni20  1  0.390914  0.391076  0.393227  1
  Ni  Ni21  1  0.391016  0.391059  0.824767  1
  Ir  Ir22  1  0.390608  0.824141  0.392662  1
  Ir  Ir23  1  0.824206  0.390643  0.392650  1
