# generated using pymatgen
data_Nd6Dy2Sc12Si15Ag
_symmetry_space_group_name_H-M   'P 1'
_cell_length_a   7.23902786
_cell_length_b   7.46532512
_cell_length_c   14.22830720
_cell_angle_alpha   89.79834424
_cell_angle_beta   89.68095175
_cell_angle_gamma   90.31448095
_symmetry_Int_Tables_number   1
_chemical_formula_structural   Nd6Dy2Sc12Si15Ag
_chemical_formula_sum   'Nd6 Dy2 Sc12 Si15 Ag1'
_cell_volume   768.89351160
_cell_formula_units_Z   1
loop_
 _symmetry_equiv_pos_site_id
 _symmetry_equiv_pos_as_xyz
  1  'x, y, z'
loop_
 _atom_site_type_symbol
 _atom_site_label
 _atom_site_symmetry_multiplicity
 _atom_site_fract_x
 _atom_site_fract_y
 _atom_site_fract_z
 _atom_site_occupancy
  Nd  Nd0  1  0.011704  0.173264  0.098806  1
  Nd  Nd1  1  0.988201  0.828584  0.902540  1
  Nd  Nd2  1  0.487999  0.673494  0.903880  1
  Nd  Nd3  1  0.989126  0.831220  0.596808  1
  Nd  Nd4  1  0.511760  0.326987  0.096377  1
  Nd  Nd5  1  0.009029  0.171025  0.400016  1
  Dy  Dy6  1  0.512353  0.323118  0.399665  1
  Dy  Dy7  1  0.495154  0.678127  0.600735  1
  Sc  Sc8  1  0.163104  0.499657  0.752882  1
  Sc  Sc9  1  0.837262  0.500097  0.251587  1
  Sc  Sc10  1  0.338472  0.997820  0.249381  1
  Sc  Sc11  1  0.664775  0.999153  0.751014  1
  Sc  Sc12  1  0.343526  0.173630  0.627228  1
  Sc  Sc13  1  0.664016  0.822349  0.374039  1
  Sc  Sc14  1  0.167508  0.674363  0.371992  1
  Sc  Sc15  1  0.669529  0.825158  0.125379  1
  Sc  Sc16  1  0.823354  0.326659  0.624589  1
  Sc  Sc17  1  0.329056  0.174109  0.874996  1
  Sc  Sc18  1  0.830236  0.323766  0.875143  1
  Sc  Sc19  1  0.169202  0.675475  0.125806  1
  Si  Si20  1  0.036992  0.128355  0.748701  1
  Si  Si21  1  0.963658  0.876264  0.249971  1
  Si  Si22  1  0.465708  0.619385  0.249576  1
  Si  Si23  1  0.535343  0.382234  0.750960  1
  Si  Si24  1  0.289431  0.878287  0.748990  1
  Si  Si25  1  0.708272  0.122107  0.250100  1
  Si  Si26  1  0.215042  0.377509  0.250756  1
  Si  Si27  1  0.787898  0.622084  0.750065  1
  Si  Si28  1  0.833031  0.537290  0.458764  1
  Si  Si29  1  0.344657  0.960499  0.461308  1
  Si  Si30  1  0.848278  0.537325  0.039500  1
  Si  Si31  1  0.652371  0.036308  0.537858  1
  Si  Si32  1  0.150868  0.462945  0.961217  1
  Si  Si33  1  0.652880  0.036946  0.960197  1
  Si  Si34  1  0.346147  0.962973  0.039944  1
  Ag  Ag35  1  0.164062  0.461434  0.539231  1
