# generated using pymatgen
data_CdCo3(AsO2)8
_symmetry_space_group_name_H-M   'P 1'
_cell_length_a   5.25638679
_cell_length_b   4.69108822
_cell_length_c   18.58557582
_cell_angle_alpha   90.00280772
_cell_angle_beta   89.88817923
_cell_angle_gamma   90.30435887
_symmetry_Int_Tables_number   1
_chemical_formula_structural   CdCo3(AsO2)8
_chemical_formula_sum   'Cd1 Co3 As8 O16'
_cell_volume   458.27902637
_cell_formula_units_Z   1
loop_
 _symmetry_equiv_pos_site_id
 _symmetry_equiv_pos_as_xyz
  1  'x, y, z'
loop_
 _atom_site_type_symbol
 _atom_site_label
 _atom_site_symmetry_multiplicity
 _atom_site_fract_x
 _atom_site_fract_y
 _atom_site_fract_z
 _atom_site_occupancy
  Cd  Cd0  1  0.994044  0.742762  0.251532  1
  Co  Co1  1  0.490193  0.253795  0.246403  1
  Co  Co2  1  0.010606  0.253364  0.747167  1
  Co  Co3  1  0.510820  0.746871  0.751968  1
  As  As4  1  0.284151  0.512019  0.407082  1
  As  As5  1  0.779208  0.479231  0.092491  1
  As  As6  1  0.719717  0.484178  0.599390  1
  As  As7  1  0.219113  0.517306  0.900301  1
  As  As8  1  0.702049  0.017653  0.403446  1
  As  As9  1  0.208552  0.988005  0.093839  1
  As  As10  1  0.294509  0.985672  0.601269  1
  As  As11  1  0.793573  0.011722  0.898633  1
  O  O12  1  0.259678  0.472269  0.311184  1
  O  O13  1  0.716145  0.495373  0.187106  1
  O  O14  1  0.757798  0.503171  0.695634  1
  O  O15  1  0.256993  0.496960  0.804179  1
  O  O16  1  0.717872  0.019375  0.307239  1
  O  O17  1  0.248802  0.026046  0.188724  1
  O  O18  1  0.267923  0.003355  0.697398  1
  O  O19  1  0.768333  0.996116  0.802490  1
  O  O20  1  0.370158  0.890860  0.413885  1
  O  O21  1  0.874825  0.104433  0.085495  1
  O  O22  1  0.627136  0.108328  0.590510  1
  O  O23  1  0.125963  0.891792  0.909463  1
  O  O24  1  0.887001  0.388347  0.904743  1
  O  O25  1  0.387278  0.609403  0.596195  1
  O  O26  1  0.112122  0.609765  0.096457  1
  O  O27  1  0.615441  0.391831  0.415780  1
