# generated using pymatgen
data_Hf5ZrMn5Si6Os
_symmetry_space_group_name_H-M   'P 1'
_cell_length_a   7.54950358
_cell_length_b   7.55009152
_cell_length_c   7.54776514
_cell_angle_alpha   126.93102632
_cell_angle_beta   126.03622433
_cell_angle_gamma   79.08099961
_symmetry_Int_Tables_number   1
_chemical_formula_structural   Hf5ZrMn5Si6Os
_chemical_formula_sum   'Hf5 Zr1 Mn5 Si6 Os1'
_cell_volume   268.98639461
_cell_formula_units_Z   1
loop_
 _symmetry_equiv_pos_site_id
 _symmetry_equiv_pos_as_xyz
  1  'x, y, z'
loop_
 _atom_site_type_symbol
 _atom_site_label
 _atom_site_symmetry_multiplicity
 _atom_site_fract_x
 _atom_site_fract_y
 _atom_site_fract_z
 _atom_site_occupancy
  Hf  Hf0  1  0.453326  0.496751  0.543526  1
  Hf  Hf1  1  0.953384  0.496852  0.043428  1
  Hf  Hf2  1  0.046368  0.089647  0.542884  1
  Hf  Hf3  1  0.748426  0.900329  0.648974  1
  Hf  Hf4  1  0.251712  0.900797  0.152070  1
  Zr  Zr5  1  0.545900  0.089103  0.042681  1
  Mn  Mn6  1  0.122925  0.746396  0.620911  1
  Mn  Mn7  1  0.876484  0.498796  0.623720  1
  Mn  Mn8  1  0.627047  0.747614  0.123272  1
  Mn  Mn9  1  0.373575  0.497295  0.122477  1
  Mn  Mn10  1  0.499047  0.247420  0.745588  1
  Si  Si11  1  0.332632  0.829447  0.495556  1
  Si  Si12  1  0.667112  0.164512  0.498748  1
  Si  Si13  1  0.832878  0.825498  0.993540  1
  Si  Si14  1  0.166718  0.162065  0.993807  1
  Si  Si15  1  0.744185  0.500522  0.244527  1
  Si  Si16  1  0.256182  0.501242  0.757576  1
  Os  Os17  1  0.002098  0.249713  0.250714  1
