# generated using pymatgen
data_Y20Ga3Bi8Sb
_symmetry_space_group_name_H-M   'P 1'
_cell_length_a   12.12531028
_cell_length_b   9.33786600
_cell_length_c   8.15722486
_cell_angle_alpha   90.00000000
_cell_angle_beta   89.94737556
_cell_angle_gamma   90.00000000
_symmetry_Int_Tables_number   1
_chemical_formula_structural   Y20Ga3Bi8Sb
_chemical_formula_sum   'Y20 Ga3 Bi8 Sb1'
_cell_volume   923.59750088
_cell_formula_units_Z   1
loop_
 _symmetry_equiv_pos_site_id
 _symmetry_equiv_pos_as_xyz
  1  'x, y, z'
loop_
 _atom_site_type_symbol
 _atom_site_label
 _atom_site_symmetry_multiplicity
 _atom_site_fract_x
 _atom_site_fract_y
 _atom_site_fract_z
 _atom_site_occupancy
  Y  Y0  1  0.562842  0.051936  0.320345  1
  Y  Y1  1  0.065673  0.452030  0.186525  1
  Y  Y2  1  0.436811  0.552443  0.680160  1
  Y  Y3  1  0.935512  0.937075  0.817246  1
  Y  Y4  1  0.436811  0.947557  0.680160  1
  Y  Y5  1  0.935512  0.562925  0.817246  1
  Y  Y6  1  0.562842  0.448064  0.320345  1
  Y  Y7  1  0.065673  0.047970  0.186525  1
  Y  Y8  1  0.714493  0.250000  0.669157  1
  Y  Y9  1  0.222756  0.250000  0.824418  1
  Y  Y10  1  0.284905  0.750000  0.328827  1
  Y  Y11  1  0.784756  0.750000  0.169117  1
  Y  Y12  1  0.502688  0.250000  0.963944  1
  Y  Y13  1  0.002309  0.250000  0.527834  1
  Y  Y14  1  0.497824  0.750000  0.037015  1
  Y  Y15  1  0.997703  0.750000  0.461864  1
  Y  Y16  1  0.789462  0.250000  0.152955  1
  Y  Y17  1  0.294413  0.250000  0.356345  1
  Y  Y18  1  0.205172  0.750000  0.855874  1
  Y  Y19  1  0.704800  0.750000  0.642884  1
  Ga  Ga20  1  0.475401  0.250000  0.592277  1
  Ga  Ga21  1  0.023830  0.750000  0.091006  1
  Ga  Ga22  1  0.523093  0.750000  0.408303  1
  Bi  Bi23  1  0.825378  0.008504  0.436297  1
  Bi  Bi24  1  0.325473  0.490381  0.063826  1
  Bi  Bi25  1  0.174251  0.509625  0.564949  1
  Bi  Bi26  1  0.674759  0.990802  0.936235  1
  Bi  Bi27  1  0.174251  0.990375  0.564949  1
  Bi  Bi28  1  0.674759  0.509198  0.936235  1
  Bi  Bi29  1  0.825378  0.491496  0.436297  1
  Bi  Bi30  1  0.325473  0.009619  0.063826  1
  Sb  Sb31  1  0.975001  0.250000  0.907012  1
