# generated using pymatgen
data_Zr11Ta9Si15B
_symmetry_space_group_name_H-M   'P 1'
_cell_length_a   6.91464977
_cell_length_b   6.92453147
_cell_length_c   12.74776668
_cell_angle_alpha   90.04434765
_cell_angle_beta   89.97465791
_cell_angle_gamma   89.80249606
_symmetry_Int_Tables_number   1
_chemical_formula_structural   Zr11Ta9Si15B
_chemical_formula_sum   'Zr11 Ta9 Si15 B1'
_cell_volume   610.36824907
_cell_formula_units_Z   1
loop_
 _symmetry_equiv_pos_site_id
 _symmetry_equiv_pos_as_xyz
  1  'x, y, z'
loop_
 _atom_site_type_symbol
 _atom_site_label
 _atom_site_symmetry_multiplicity
 _atom_site_fract_x
 _atom_site_fract_y
 _atom_site_fract_z
 _atom_site_occupancy
  Zr  Zr0  1  0.497326  0.353311  0.621036  1
  Zr  Zr1  1  0.502208  0.649673  0.125862  1
  Zr  Zr2  1  0.148434  0.998681  0.873545  1
  Zr  Zr3  1  0.001230  0.654989  0.033115  1
  Zr  Zr4  1  0.998554  0.353273  0.527545  1
  Zr  Zr5  1  0.656916  0.998230  0.968576  1
  Zr  Zr6  1  0.153466  0.498423  0.780850  1
  Zr  Zr7  1  0.854463  0.508710  0.287530  1
  Zr  Zr8  1  0.501560  0.157307  0.220800  1
  Zr  Zr9  1  0.498368  0.841491  0.715107  1
  Zr  Zr10  1  0.336870  0.998814  0.467404  1
  Ta  Ta11  1  0.341274  0.512058  0.376794  1
  Ta  Ta12  1  0.862168  0.984199  0.379807  1
  Ta  Ta13  1  0.007519  0.151063  0.127354  1
  Ta  Ta14  1  0.991267  0.847665  0.620519  1
  Ta  Ta15  1  0.651532  0.491853  0.875333  1
  Ta  Ta16  1  0.677424  0.673052  0.498066  1
  Ta  Ta17  1  0.827248  0.169369  0.748710  1
  Ta  Ta18  1  0.169543  0.828946  0.256944  1
  Ta  Ta19  1  0.330197  0.326601  0.000492  1
  Si  Si20  1  0.953882  0.299614  0.936773  1
  Si  Si21  1  0.699946  0.046360  0.561881  1
  Si  Si22  1  0.201796  0.452147  0.187591  1
  Si  Si23  1  0.799228  0.545785  0.684963  1
  Si  Si24  1  0.454954  0.199272  0.813456  1
  Si  Si25  1  0.549115  0.801372  0.316863  1
  Si  Si26  1  0.299853  0.954671  0.067221  1
  Si  Si27  1  0.855891  0.789721  0.819685  1
  Si  Si28  1  0.136094  0.210154  0.324136  1
  Si  Si29  1  0.800569  0.865221  0.181735  1
  Si  Si30  1  0.280573  0.644738  0.564756  1
  Si  Si31  1  0.710352  0.355735  0.072572  1
  Si  Si32  1  0.637559  0.292916  0.422816  1
  Si  Si33  1  0.363711  0.700281  0.927165  1
  Si  Si34  1  0.197782  0.137100  0.674438  1
  B  B35  1  0.051131  0.707207  0.438558  1
