# generated using pymatgen
data_Cs3NiO3
_symmetry_space_group_name_H-M   'P 1'
_cell_length_a   13.08938000
_cell_length_b   7.29746966
_cell_length_c   8.07409173
_cell_angle_alpha   65.48194433
_cell_angle_beta   90.00000000
_cell_angle_gamma   90.00000000
_symmetry_Int_Tables_number   1
_chemical_formula_structural   Cs3NiO3
_chemical_formula_sum   'Cs12 Ni4 O12'
_cell_volume   701.69044948
_cell_formula_units_Z   4
loop_
 _symmetry_equiv_pos_site_id
 _symmetry_equiv_pos_as_xyz
  1  'x, y, z'
loop_
 _atom_site_type_symbol
 _atom_site_label
 _atom_site_symmetry_multiplicity
 _atom_site_fract_x
 _atom_site_fract_y
 _atom_site_fract_z
 _atom_site_occupancy
  Cs  Cs0  1  0.699248  0.857034  0.925333  1
  Cs  Cs1  1  0.352117  0.556102  0.525252  1
  Cs  Cs2  1  0.300752  0.142966  0.074667  1
  Cs  Cs3  1  0.852117  0.943898  0.474748  1
  Cs  Cs4  1  0.199248  0.642966  0.074667  1
  Cs  Cs5  1  0.560332  0.027555  0.265039  1
  Cs  Cs6  1  0.800752  0.357034  0.925333  1
  Cs  Cs7  1  0.647883  0.443898  0.474748  1
  Cs  Cs8  1  0.060332  0.472445  0.734961  1
  Cs  Cs9  1  0.939668  0.527555  0.265039  1
  Cs  Cs10  1  0.439668  0.972445  0.734961  1
  Cs  Cs11  1  0.147883  0.056102  0.525252  1
  Ni  Ni12  1  0.453835  0.513721  0.147313  1
  Ni  Ni13  1  0.546165  0.486279  0.852687  1
  Ni  Ni14  1  0.046165  0.013721  0.147313  1
  Ni  Ni15  1  0.953835  0.986279  0.852687  1
  O  O16  1  0.898570  0.204928  0.661687  1
  O  O17  1  0.406819  0.531910  0.909419  1
  O  O18  1  0.093181  0.031910  0.909419  1
  O  O19  1  0.067839  0.249668  0.170316  1
  O  O20  1  0.101430  0.795072  0.338313  1
  O  O21  1  0.398570  0.295072  0.338313  1
  O  O22  1  0.601430  0.704928  0.661687  1
  O  O23  1  0.906819  0.968090  0.090581  1
  O  O24  1  0.567839  0.250332  0.829684  1
  O  O25  1  0.432161  0.749668  0.170316  1
  O  O26  1  0.593181  0.468090  0.090581  1
  O  O27  1  0.932161  0.750332  0.829684  1
