# generated using pymatgen
data_TbCe4(SiB4)2
_symmetry_space_group_name_H-M   'P 1'
_cell_length_a   7.33141000
_cell_length_b   7.33141000
_cell_length_c   8.29381500
_cell_angle_alpha   90.00000000
_cell_angle_beta   90.00000000
_cell_angle_gamma   90.00000000
_symmetry_Int_Tables_number   1
_chemical_formula_structural   TbCe4(SiB4)2
_chemical_formula_sum   'Tb2 Ce8 Si4 B16'
_cell_volume   445.78901137
_cell_formula_units_Z   2
loop_
 _symmetry_equiv_pos_site_id
 _symmetry_equiv_pos_as_xyz
  1  'x, y, z'
loop_
 _atom_site_type_symbol
 _atom_site_label
 _atom_site_symmetry_multiplicity
 _atom_site_fract_x
 _atom_site_fract_y
 _atom_site_fract_z
 _atom_site_occupancy
  Tb  Tb0  1  0.000000  0.000000  0.500000  1
  Tb  Tb1  1  0.500000  0.500000  0.500000  1
  Ce  Ce2  1  0.682265  0.182265  0.225849  1
  Ce  Ce3  1  0.317735  0.817735  0.774151  1
  Ce  Ce4  1  0.317735  0.817735  0.225849  1
  Ce  Ce5  1  0.817735  0.682265  0.225849  1
  Ce  Ce6  1  0.817735  0.682265  0.774151  1
  Ce  Ce7  1  0.682265  0.182265  0.774151  1
  Ce  Ce8  1  0.182265  0.317735  0.774151  1
  Ce  Ce9  1  0.182265  0.317735  0.225849  1
  Si  Si10  1  0.114737  0.614737  0.500000  1
  Si  Si11  1  0.885263  0.385263  0.500000  1
  Si  Si12  1  0.385263  0.114737  0.500000  1
  Si  Si13  1  0.614737  0.885263  0.500000  1
  B  B14  1  0.172441  0.039201  0.000000  1
  B  B15  1  0.827559  0.960799  0.000000  1
  B  B16  1  0.960799  0.172441  0.000000  1
  B  B17  1  0.327559  0.539201  0.000000  1
  B  B18  1  0.039201  0.827559  0.000000  1
  B  B19  1  0.672441  0.460799  0.000000  1
  B  B20  1  0.539201  0.672441  0.000000  1
  B  B21  1  0.460799  0.327559  0.000000  1
  B  B22  1  0.091661  0.591661  0.000000  1
  B  B23  1  0.908339  0.408339  0.000000  1
  B  B24  1  0.408339  0.091661  0.000000  1
  B  B25  1  0.591661  0.908339  0.000000  1
  B  B26  1  0.000000  0.000000  0.158446  1
  B  B27  1  0.000000  0.000000  0.841554  1
  B  B28  1  0.500000  0.500000  0.841554  1
  B  B29  1  0.500000  0.500000  0.158446  1
