# generated using pymatgen
data_Nb13Ni8Mo3CN3
_symmetry_space_group_name_H-M   'P 1'
_cell_length_a   8.20883548
_cell_length_b   8.20883510
_cell_length_c   8.19666400
_cell_angle_alpha   59.95085971
_cell_angle_beta   59.95086573
_cell_angle_gamma   60.00000402
_symmetry_Int_Tables_number   1
_chemical_formula_structural   Nb13Ni8Mo3CN3
_chemical_formula_sum   'Nb13 Ni8 Mo3 C1 N3'
_cell_volume   390.26740192
_cell_formula_units_Z   1
loop_
 _symmetry_equiv_pos_site_id
 _symmetry_equiv_pos_as_xyz
  1  'x, y, z'
loop_
 _atom_site_type_symbol
 _atom_site_label
 _atom_site_symmetry_multiplicity
 _atom_site_fract_x
 _atom_site_fract_y
 _atom_site_fract_z
 _atom_site_occupancy
  Nb  Nb0  1  0.434089  0.066769  0.065053  1
  Nb  Nb1  1  0.062553  0.437978  0.436916  1
  Nb  Nb2  1  0.066769  0.434089  0.065053  1
  Nb  Nb3  1  0.062553  0.062553  0.436916  1
  Nb  Nb4  1  0.437978  0.062553  0.436916  1
  Nb  Nb5  1  0.434089  0.434089  0.065053  1
  Nb  Nb6  1  0.183231  0.815911  0.184947  1
  Nb  Nb7  1  0.812022  0.187447  0.813084  1
  Nb  Nb8  1  0.815911  0.183231  0.184947  1
  Nb  Nb9  1  0.187447  0.187447  0.813084  1
  Nb  Nb10  1  0.187447  0.812022  0.813084  1
  Nb  Nb11  1  0.815911  0.815911  0.184947  1
  Nb  Nb12  1  0.625000  0.625000  0.125000  1
  Ni  Ni13  1  0.830733  0.830733  0.826206  1
  Ni  Ni14  1  0.828382  0.828382  0.514853  1
  Ni  Ni15  1  0.512326  0.830733  0.826206  1
  Ni  Ni16  1  0.830733  0.512326  0.826206  1
  Ni  Ni17  1  0.419267  0.419267  0.423794  1
  Ni  Ni18  1  0.421618  0.421618  0.735147  1
  Ni  Ni19  1  0.419267  0.737674  0.423794  1
  Ni  Ni20  1  0.737674  0.419267  0.423794  1
  Mo  Mo21  1  0.625000  0.625000  0.625000  1
  Mo  Mo22  1  0.125000  0.625000  0.625000  1
  Mo  Mo23  1  0.625000  0.125000  0.625000  1
  C  C24  1  0.125000  0.125000  0.625000  1
  N  N25  1  0.125000  0.125000  0.125000  1
  N  N26  1  0.625000  0.125000  0.125000  1
  N  N27  1  0.125000  0.625000  0.125000  1
