# generated using pymatgen
data_Dy6Co15Ni(P6Ru)2
_symmetry_space_group_name_H-M   'P 1'
_cell_length_a   3.72080800
_cell_length_b   10.49905000
_cell_length_c   12.25249700
_cell_angle_alpha   90.00000000
_cell_angle_beta   90.00000000
_cell_angle_gamma   90.00000000
_symmetry_Int_Tables_number   1
_chemical_formula_structural   Dy6Co15Ni(P6Ru)2
_chemical_formula_sum   'Dy6 Co15 Ni1 P12 Ru2'
_cell_volume   478.64317328
_cell_formula_units_Z   1
loop_
 _symmetry_equiv_pos_site_id
 _symmetry_equiv_pos_as_xyz
  1  'x, y, z'
loop_
 _atom_site_type_symbol
 _atom_site_label
 _atom_site_symmetry_multiplicity
 _atom_site_fract_x
 _atom_site_fract_y
 _atom_site_fract_z
 _atom_site_occupancy
  Dy  Dy0  1  0.000000  0.500000  0.523404  1
  Dy  Dy1  1  0.500000  0.000000  0.475574  1
  Dy  Dy2  1  0.500000  0.816934  0.207185  1
  Dy  Dy3  1  0.500000  0.183066  0.207185  1
  Dy  Dy4  1  0.000000  0.684316  0.793614  1
  Dy  Dy5  1  0.000000  0.315684  0.793614  1
  Co  Co6  1  0.000000  0.000000  0.295903  1
  Co  Co7  1  0.000000  0.500000  0.986585  1
  Co  Co8  1  0.500000  0.000000  0.014160  1
  Co  Co9  1  0.500000  0.332271  0.990483  1
  Co  Co10  1  0.500000  0.667729  0.990483  1
  Co  Co11  1  0.000000  0.167442  0.009317  1
  Co  Co12  1  0.000000  0.832558  0.009317  1
  Co  Co13  1  0.500000  0.298274  0.430735  1
  Co  Co14  1  0.500000  0.701726  0.430735  1
  Co  Co15  1  0.000000  0.201510  0.568982  1
  Co  Co16  1  0.000000  0.798490  0.568982  1
  Co  Co17  1  0.500000  0.879066  0.708275  1
  Co  Co18  1  0.500000  0.120934  0.708275  1
  Co  Co19  1  0.000000  0.620509  0.291747  1
  Co  Co20  1  0.000000  0.379491  0.291747  1
  Ni  Ni21  1  0.500000  0.500000  0.703635  1
  P  P22  1  0.500000  0.500000  0.882907  1
  P  P23  1  0.000000  0.000000  0.118413  1
  P  P24  1  0.500000  0.500000  0.349814  1
  P  P25  1  0.000000  0.000000  0.649905  1
  P  P26  1  0.500000  0.310516  0.615355  1
  P  P27  1  0.500000  0.689484  0.615355  1
  P  P28  1  0.000000  0.188694  0.383907  1
  P  P29  1  0.000000  0.811306  0.383907  1
  P  P30  1  0.500000  0.847002  0.893652  1
  P  P31  1  0.500000  0.152998  0.893652  1
  P  P32  1  0.000000  0.653725  0.106650  1
  P  P33  1  0.000000  0.346275  0.106650  1
  Ru  Ru34  1  0.500000  0.500000  0.159060  1
  Ru  Ru35  1  0.000000  0.000000  0.840835  1
