# generated using pymatgen
data_CeTmMnB6
_symmetry_space_group_name_H-M   'P 1'
_cell_length_a   3.59656400
_cell_length_b   9.09432800
_cell_length_c   11.47076400
_cell_angle_alpha   90.00000000
_cell_angle_beta   90.00000000
_cell_angle_gamma   90.00000000
_symmetry_Int_Tables_number   1
_chemical_formula_structural   CeTmMnB6
_chemical_formula_sum   'Ce4 Tm4 Mn4 B24'
_cell_volume   375.18956511
_cell_formula_units_Z   4
loop_
 _symmetry_equiv_pos_site_id
 _symmetry_equiv_pos_as_xyz
  1  'x, y, z'
loop_
 _atom_site_type_symbol
 _atom_site_label
 _atom_site_symmetry_multiplicity
 _atom_site_fract_x
 _atom_site_fract_y
 _atom_site_fract_z
 _atom_site_occupancy
  Ce  Ce0  1  0.000000  0.324356  0.414344  1
  Ce  Ce1  1  0.000000  0.675644  0.585656  1
  Ce  Ce2  1  0.000000  0.824356  0.085656  1
  Ce  Ce3  1  0.000000  0.175644  0.914344  1
  Tm  Tm4  1  0.000000  0.943669  0.370457  1
  Tm  Tm5  1  0.000000  0.056331  0.629543  1
  Tm  Tm6  1  0.000000  0.443669  0.129543  1
  Tm  Tm7  1  0.000000  0.556331  0.870457  1
  Mn  Mn8  1  0.000000  0.639480  0.320187  1
  Mn  Mn9  1  0.000000  0.360520  0.679813  1
  Mn  Mn10  1  0.000000  0.139480  0.179813  1
  Mn  Mn11  1  0.000000  0.860520  0.820187  1
  B  B12  1  0.500000  0.555735  0.430205  1
  B  B13  1  0.500000  0.444265  0.569795  1
  B  B14  1  0.500000  0.055735  0.069795  1
  B  B15  1  0.500000  0.944265  0.930205  1
  B  B16  1  0.500000  0.748059  0.417257  1
  B  B17  1  0.500000  0.251941  0.582743  1
  B  B18  1  0.500000  0.248059  0.082743  1
  B  B19  1  0.500000  0.751941  0.917257  1
  B  B20  1  0.500000  0.790294  0.266446  1
  B  B21  1  0.500000  0.209706  0.733554  1
  B  B22  1  0.500000  0.290294  0.233554  1
  B  B23  1  0.500000  0.709706  0.766446  1
  B  B24  1  0.500000  0.631871  0.186280  1
  B  B25  1  0.500000  0.368129  0.813720  1
  B  B26  1  0.500000  0.131871  0.313720  1
  B  B27  1  0.500000  0.868129  0.686280  1
  B  B28  1  0.500000  0.986430  0.212718  1
  B  B29  1  0.500000  0.013570  0.787282  1
  B  B30  1  0.500000  0.486430  0.287282  1
  B  B31  1  0.500000  0.513570  0.712718  1
  B  B32  1  0.500000  0.604556  0.028659  1
  B  B33  1  0.500000  0.395444  0.971341  1
  B  B34  1  0.500000  0.104556  0.471341  1
  B  B35  1  0.500000  0.895444  0.528659  1
