# generated using pymatgen
data_Na2Zn3Au
_symmetry_space_group_name_H-M   'P 1'
_cell_length_a   5.43854514
_cell_length_b   5.55747680
_cell_length_c   5.43854500
_cell_angle_alpha   60.70542172
_cell_angle_beta   59.99999476
_cell_angle_gamma   60.70542000
_symmetry_Int_Tables_number   1
_chemical_formula_structural   Na2Zn3Au
_chemical_formula_sum   'Na2 Zn3 Au1'
_cell_volume   117.45658553
_cell_formula_units_Z   1
loop_
 _symmetry_equiv_pos_site_id
 _symmetry_equiv_pos_as_xyz
  1  'x, y, z'
loop_
 _atom_site_type_symbol
 _atom_site_label
 _atom_site_symmetry_multiplicity
 _atom_site_fract_x
 _atom_site_fract_y
 _atom_site_fract_z
 _atom_site_occupancy
  Na  Na0  1  0.752085  0.743744  0.752085  1
  Na  Na1  1  0.497915  0.506256  0.497915  1
  Zn  Zn2  1  0.125000  0.125000  0.625000  1
  Zn  Zn3  1  0.625000  0.125000  0.125000  1
  Zn  Zn4  1  0.125000  0.125000  0.125000  1
  Au  Au5  1  0.125000  0.625000  0.125000  1
