# generated using pymatgen
data_Te3H5
_symmetry_space_group_name_H-M   'P 1'
_cell_length_a   3.08019377
_cell_length_b   5.63393731
_cell_length_c   14.31612764
_cell_angle_alpha   76.51769903
_cell_angle_beta   86.68448538
_cell_angle_gamma   93.88711952
_symmetry_Int_Tables_number   1
_chemical_formula_structural   Te3H5
_chemical_formula_sum   'Te3 H5'
_cell_volume   240.33913443
_cell_formula_units_Z   1
loop_
 _symmetry_equiv_pos_site_id
 _symmetry_equiv_pos_as_xyz
  1  'x, y, z'
loop_
 _atom_site_type_symbol
 _atom_site_label
 _atom_site_symmetry_multiplicity
 _atom_site_fract_x
 _atom_site_fract_y
 _atom_site_fract_z
 _atom_site_occupancy
  Te  Te0  1  0.196882  0.811415  0.359876  1
  Te  Te1  1  0.508240  0.314559  0.953001  1
  Te  Te2  1  0.511575  0.865409  0.880869  1
  H  H3  1  0.678216  0.108824  0.575190  1
  H  H4  1  0.412767  0.564672  0.654931  1
  H  H5  1  0.889430  0.149613  0.544924  1
  H  H6  1  0.180024  0.607925  0.291107  1
  H  H7  1  0.411702  0.480920  0.704171  1
