# generated using pymatgen
data_Er3Hg3PdRh
_symmetry_space_group_name_H-M   'P 1'
_cell_length_a   7.66322700
_cell_length_b   7.66322566
_cell_length_c   3.52789700
_cell_angle_alpha   90.00000000
_cell_angle_beta   90.00000000
_cell_angle_gamma   120.00000146
_symmetry_Int_Tables_number   1
_chemical_formula_structural   Er3Hg3PdRh
_chemical_formula_sum   'Er3 Hg3 Pd1 Rh1'
_cell_volume   179.41957653
_cell_formula_units_Z   1
loop_
 _symmetry_equiv_pos_site_id
 _symmetry_equiv_pos_as_xyz
  1  'x, y, z'
loop_
 _atom_site_type_symbol
 _atom_site_label
 _atom_site_symmetry_multiplicity
 _atom_site_fract_x
 _atom_site_fract_y
 _atom_site_fract_z
 _atom_site_occupancy
  Er  Er0  1  0.587318  0.010618  0.500000  1
  Er  Er1  1  0.423299  0.412681  0.500000  1
  Er  Er2  1  0.989382  0.576701  0.500000  1
  Hg  Hg3  1  0.234779  0.998137  0.000000  1
  Hg  Hg4  1  0.001863  0.236642  0.000000  1
  Hg  Hg5  1  0.763358  0.765221  0.000000  1
  Pd  Pd6  1  0.333334  0.666667  0.000000  1
  Rh  Rh7  1  0.666666  0.333333  0.000000  1
