# generated using pymatgen
data_La3Mg3RuAu2
_symmetry_space_group_name_H-M   'P 1'
_cell_length_a   7.71783000
_cell_length_b   7.71782977
_cell_length_c   4.25707300
_cell_angle_alpha   90.00000000
_cell_angle_beta   90.00000000
_cell_angle_gamma   120.00000955
_symmetry_Int_Tables_number   1
_chemical_formula_structural   La3Mg3RuAu2
_chemical_formula_sum   'La3 Mg3 Ru1 Au2'
_cell_volume   219.59987614
_cell_formula_units_Z   1
loop_
 _symmetry_equiv_pos_site_id
 _symmetry_equiv_pos_as_xyz
  1  'x, y, z'
loop_
 _atom_site_type_symbol
 _atom_site_label
 _atom_site_symmetry_multiplicity
 _atom_site_fract_x
 _atom_site_fract_y
 _atom_site_fract_z
 _atom_site_occupancy
  La  La0  1  0.571333  0.976799  0.000000  1
  La  La1  1  0.023201  0.594534  0.000000  1
  La  La2  1  0.405466  0.428667  0.000000  1
  Mg  Mg3  1  0.242157  0.997575  0.500000  1
  Mg  Mg4  1  0.002425  0.244582  0.500000  1
  Mg  Mg5  1  0.755418  0.757843  0.500000  1
  Ru  Ru6  1  0.333333  0.666667  0.500000  1
  Au  Au7  1  0.666667  0.333333  0.500000  1
  Au  Au8  1  0.000000  0.000000  0.000000  1
