# generated using pymatgen
data_SmY2Ho2(In2Pd)2
_symmetry_space_group_name_H-M   'P 1'
_cell_length_a   3.64077600
_cell_length_b   8.19063900
_cell_length_c   18.34367700
_cell_angle_alpha   90.00000000
_cell_angle_beta   90.00000000
_cell_angle_gamma   90.00000000
_symmetry_Int_Tables_number   1
_chemical_formula_structural   SmY2Ho2(In2Pd)2
_chemical_formula_sum   'Sm2 Y4 Ho4 In8 Pd4'
_cell_volume   547.01361915
_cell_formula_units_Z   2
loop_
 _symmetry_equiv_pos_site_id
 _symmetry_equiv_pos_as_xyz
  1  'x, y, z'
loop_
 _atom_site_type_symbol
 _atom_site_label
 _atom_site_symmetry_multiplicity
 _atom_site_fract_x
 _atom_site_fract_y
 _atom_site_fract_z
 _atom_site_occupancy
  Sm  Sm0  1  0.000000  0.500000  0.500000  1
  Sm  Sm1  1  0.000000  0.000000  0.000000  1
  Y  Y2  1  0.000000  0.738932  0.281335  1
  Y  Y3  1  0.000000  0.261068  0.718665  1
  Y  Y4  1  0.000000  0.761068  0.781335  1
  Y  Y5  1  0.000000  0.238932  0.218665  1
  Ho  Ho6  1  0.000000  0.617514  0.083786  1
  Ho  Ho7  1  0.000000  0.382486  0.916214  1
  Ho  Ho8  1  0.000000  0.882486  0.583786  1
  Ho  Ho9  1  0.000000  0.117514  0.416214  1
  In  In10  1  0.500000  0.705159  0.932326  1
  In  In11  1  0.500000  0.294841  0.067674  1
  In  In12  1  0.500000  0.794841  0.432326  1
  In  In13  1  0.500000  0.205159  0.567674  1
  In  In14  1  0.500000  0.581858  0.651395  1
  In  In15  1  0.500000  0.418142  0.348605  1
  In  In16  1  0.500000  0.918142  0.151395  1
  In  In17  1  0.500000  0.081858  0.848605  1
  Pd  Pd18  1  0.500000  0.523810  0.194887  1
  Pd  Pd19  1  0.500000  0.476190  0.805113  1
  Pd  Pd20  1  0.500000  0.976190  0.694887  1
  Pd  Pd21  1  0.500000  0.023810  0.305113  1
