# generated using pymatgen
data_DyHo5Al24Ru7Rh
_symmetry_space_group_name_H-M   'P 1'
_cell_length_a   8.79909601
_cell_length_b   8.78367160
_cell_length_c   9.57475719
_cell_angle_alpha   89.88734548
_cell_angle_beta   89.97879394
_cell_angle_gamma   120.13240458
_symmetry_Int_Tables_number   1
_chemical_formula_structural   DyHo5Al24Ru7Rh
_chemical_formula_sum   'Dy1 Ho5 Al24 Ru7 Rh1'
_cell_volume   640.01505729
_cell_formula_units_Z   1
loop_
 _symmetry_equiv_pos_site_id
 _symmetry_equiv_pos_as_xyz
  1  'x, y, z'
loop_
 _atom_site_type_symbol
 _atom_site_label
 _atom_site_symmetry_multiplicity
 _atom_site_fract_x
 _atom_site_fract_y
 _atom_site_fract_z
 _atom_site_occupancy
  Dy  Dy0  1  0.386128  0.194670  0.750826  1
  Ho  Ho1  1  0.191870  0.805323  0.249172  1
  Ho  Ho2  1  0.193903  0.387842  0.249731  1
  Ho  Ho3  1  0.613435  0.805113  0.249092  1
  Ho  Ho4  1  0.808166  0.194711  0.750809  1
  Ho  Ho5  1  0.806138  0.612174  0.750255  1
  Al  Al6  1  0.560975  0.438357  0.250426  1
  Al  Al7  1  0.561343  0.122796  0.249440  1
  Al  Al8  1  0.877257  0.438164  0.250467  1
  Al  Al9  1  0.439104  0.561999  0.749574  1
  Al  Al10  1  0.438722  0.876928  0.750581  1
  Al  Al11  1  0.122704  0.561820  0.749548  1
  Al  Al12  1  0.324216  0.163225  0.421932  1
  Al  Al13  1  0.839168  0.163176  0.422185  1
  Al  Al14  1  0.837756  0.675521  0.421989  1
  Al  Al15  1  0.675790  0.836795  0.577815  1
  Al  Al16  1  0.160737  0.836643  0.577689  1
  Al  Al17  1  0.162154  0.324593  0.577865  1
  Al  Al18  1  0.675199  0.838040  0.922070  1
  Al  Al19  1  0.162471  0.837902  0.922058  1
  Al  Al20  1  0.162373  0.325058  0.922250  1
  Al  Al21  1  0.324825  0.161958  0.078194  1
  Al  Al22  1  0.837429  0.161888  0.078081  1
  Al  Al23  1  0.837538  0.675054  0.077907  1
  Al  Al24  1  0.667672  0.334985  0.517826  1
  Al  Al25  1  0.332527  0.665127  0.481945  1
  Al  Al26  1  0.333497  0.666634  0.017277  1
  Al  Al27  1  0.666681  0.333435  0.982934  1
  Al  Al28  1  0.999671  0.999553  0.249962  1
  Al  Al29  1  0.999925  0.000238  0.750048  1
  Ru  Ru30  1  0.000018  0.000019  0.499993  1
  Ru  Ru31  1  0.000028  0.000017  0.000014  1
  Ru  Ru32  1  0.500089  0.500189  0.499866  1
  Ru  Ru33  1  0.000102  0.500050  0.499958  1
  Ru  Ru34  1  0.500083  0.500187  0.000149  1
  Ru  Ru35  1  0.500110  0.999892  0.000148  1
  Ru  Ru36  1  0.000100  0.500029  0.000056  1
  Rh  Rh37  1  0.500095  0.999894  0.499867  1
