# generated using pymatgen
data_Lu2ZrTcF14
_symmetry_space_group_name_H-M   'P 1'
_cell_length_a   5.59571766
_cell_length_b   8.85701086
_cell_length_c   11.91246226
_cell_angle_alpha   62.65470355
_cell_angle_beta   90.10799687
_cell_angle_gamma   89.95936903
_symmetry_Int_Tables_number   1
_chemical_formula_structural   Lu2ZrTcF14
_chemical_formula_sum   'Lu4 Zr2 Tc2 F28'
_cell_volume   524.42139529
_cell_formula_units_Z   2
loop_
 _symmetry_equiv_pos_site_id
 _symmetry_equiv_pos_as_xyz
  1  'x, y, z'
loop_
 _atom_site_type_symbol
 _atom_site_label
 _atom_site_symmetry_multiplicity
 _atom_site_fract_x
 _atom_site_fract_y
 _atom_site_fract_z
 _atom_site_occupancy
  Lu  Lu0  1  0.256405  0.813805  0.272063  1
  Lu  Lu1  1  0.743595  0.186195  0.727937  1
  Lu  Lu2  1  0.758152  0.180861  0.241041  1
  Lu  Lu3  1  0.241848  0.819139  0.758959  1
  Zr  Zr4  1  0.755627  0.725838  0.045035  1
  Zr  Zr5  1  0.244373  0.274162  0.954965  1
  Tc  Tc6  1  0.259258  0.273959  0.454996  1
  Tc  Tc7  1  0.740742  0.726041  0.545004  1
  F  F8  1  0.940705  0.705277  0.418152  1
  F  F9  1  0.059295  0.294723  0.581848  1
  F  F10  1  0.471697  0.291128  0.081621  1
  F  F11  1  0.528303  0.708872  0.918379  1
  F  F12  1  0.484145  0.731835  0.156598  1
  F  F13  1  0.515855  0.268165  0.843402  1
  F  F14  1  0.971525  0.267454  0.362163  1
  F  F15  1  0.028475  0.732546  0.637837  1
  F  F16  1  0.971186  0.752317  0.174564  1
  F  F17  1  0.028814  0.247683  0.825436  1
  F  F18  1  0.455576  0.257469  0.322844  1
  F  F19  1  0.544424  0.742531  0.677156  1
  F  F20  1  0.782150  0.468622  0.145173  1
  F  F21  1  0.217850  0.531378  0.854827  1
  F  F22  1  0.263501  0.522878  0.358511  1
  F  F23  1  0.736499  0.477122  0.641489  1
  F  F24  1  0.945002  0.269694  0.055854  1
  F  F25  1  0.054998  0.730306  0.944146  1
  F  F26  1  0.442934  0.715543  0.458800  1
  F  F27  1  0.557066  0.284457  0.541200  1
  F  F28  1  0.737596  0.974759  0.451765  1
  F  F29  1  0.262404  0.025241  0.548235  1
  F  F30  1  0.247656  0.018152  0.063551  1
  F  F31  1  0.752344  0.981848  0.936449  1
  F  F32  1  0.568931  0.972271  0.242919  1
  F  F33  1  0.431069  0.027729  0.757081  1
  F  F34  1  0.071117  0.022820  0.273884  1
  F  F35  1  0.928883  0.977180  0.726116  1
