# generated using pymatgen
data_Y5Si10As2Ir19
_symmetry_space_group_name_H-M   'P 1'
_cell_length_a   12.92751524
_cell_length_b   12.91601951
_cell_length_c   3.97833800
_cell_angle_alpha   90.00000000
_cell_angle_beta   90.00000000
_cell_angle_gamma   119.97058594
_symmetry_Int_Tables_number   1
_chemical_formula_structural   Y5Si10As2Ir19
_chemical_formula_sum   'Y5 Si10 As2 Ir19'
_cell_volume   575.44617442
_cell_formula_units_Z   1
loop_
 _symmetry_equiv_pos_site_id
 _symmetry_equiv_pos_as_xyz
  1  'x, y, z'
loop_
 _atom_site_type_symbol
 _atom_site_label
 _atom_site_symmetry_multiplicity
 _atom_site_fract_x
 _atom_site_fract_y
 _atom_site_fract_z
 _atom_site_occupancy
  Y  Y0  1  0.332169  0.665726  0.500000  1
  Y  Y1  1  0.667831  0.333555  0.500000  1
  Y  Y2  1  0.000000  0.807773  0.000000  1
  Y  Y3  1  0.186628  0.190967  0.000000  1
  Y  Y4  1  0.813372  0.004339  0.000000  1
  Si  Si5  1  0.000000  0.630541  0.500000  1
  Si  Si6  1  0.368596  0.368516  0.500000  1
  Si  Si7  1  0.631404  0.999921  0.500000  1
  Si  Si8  1  0.516279  0.686636  0.000000  1
  Si  Si9  1  0.312807  0.829159  0.000000  1
  Si  Si10  1  0.169557  0.481166  0.000000  1
  Si  Si11  1  0.483721  0.170357  0.000000  1
  Si  Si12  1  0.687193  0.516351  0.000000  1
  Si  Si13  1  0.830443  0.311609  0.000000  1
  Si  Si14  1  0.000000  0.184207  0.500000  1
  As  As15  1  0.820756  0.822191  0.500000  1
  As  As16  1  0.179244  0.001435  0.500000  1
  Ir  Ir17  1  0.511715  0.873189  0.000000  1
  Ir  Ir18  1  0.126778  0.637843  0.000000  1
  Ir  Ir19  1  0.361334  0.487046  0.000000  1
  Ir  Ir20  1  0.488285  0.361472  0.000000  1
  Ir  Ir21  1  0.873222  0.511064  0.000000  1
  Ir  Ir22  1  0.638666  0.125711  0.000000  1
  Ir  Ir23  1  0.000000  0.447447  0.500000  1
  Ir  Ir24  1  0.552730  0.551759  0.500000  1
  Ir  Ir25  1  0.447270  0.999030  0.500000  1
  Ir  Ir26  1  0.000000  0.284855  0.000000  1
  Ir  Ir27  1  0.712334  0.712250  0.000000  1
  Ir  Ir28  1  0.287666  0.999916  0.000000  1
  Ir  Ir29  1  0.619936  0.803910  0.500000  1
  Ir  Ir30  1  0.195176  0.816382  0.500000  1
  Ir  Ir31  1  0.182502  0.377432  0.500000  1
  Ir  Ir32  1  0.380064  0.183974  0.500000  1
  Ir  Ir33  1  0.804824  0.621207  0.500000  1
  Ir  Ir34  1  0.817498  0.194930  0.500000  1
  Ir  Ir35  1  0.000000  0.006135  0.500000  1
