# generated using pymatgen
data_LaPr16(LuGa4)3
_symmetry_space_group_name_H-M   'P 1'
_cell_length_a   7.83267000
_cell_length_b   7.83267000
_cell_length_c   14.83009200
_cell_angle_alpha   90.00000000
_cell_angle_beta   90.00000000
_cell_angle_gamma   90.00000000
_symmetry_Int_Tables_number   1
_chemical_formula_structural   LaPr16(LuGa4)3
_chemical_formula_sum   'La1 Pr16 Lu3 Ga12'
_cell_volume   909.83681191
_cell_formula_units_Z   1
loop_
 _symmetry_equiv_pos_site_id
 _symmetry_equiv_pos_as_xyz
  1  'x, y, z'
loop_
 _atom_site_type_symbol
 _atom_site_label
 _atom_site_symmetry_multiplicity
 _atom_site_fract_x
 _atom_site_fract_y
 _atom_site_fract_z
 _atom_site_occupancy
  La  La0  1  0.500000  0.000000  0.786437  1
  Pr  Pr1  1  0.814728  0.838704  0.603246  1
  Pr  Pr2  1  0.182453  0.838612  0.104274  1
  Pr  Pr3  1  0.161329  0.816533  0.395309  1
  Pr  Pr4  1  0.838671  0.183467  0.395309  1
  Pr  Pr5  1  0.683467  0.661329  0.395309  1
  Pr  Pr6  1  0.661296  0.314728  0.603246  1
  Pr  Pr7  1  0.338704  0.685272  0.603246  1
  Pr  Pr8  1  0.661388  0.682453  0.104274  1
  Pr  Pr9  1  0.685778  0.342207  0.896191  1
  Pr  Pr10  1  0.842207  0.814222  0.896191  1
  Pr  Pr11  1  0.316533  0.338671  0.395309  1
  Pr  Pr12  1  0.185272  0.161296  0.603246  1
  Pr  Pr13  1  0.817547  0.161388  0.104274  1
  Pr  Pr14  1  0.314222  0.657793  0.896191  1
  Pr  Pr15  1  0.338612  0.317547  0.104274  1
  Pr  Pr16  1  0.157793  0.185778  0.896191  1
  Lu  Lu17  1  0.000000  0.500000  0.723707  1
  Lu  Lu18  1  0.000000  0.500000  0.225896  1
  Lu  Lu19  1  0.500000  0.000000  0.273605  1
  Ga  Ga20  1  0.622378  0.377479  0.249698  1
  Ga  Ga21  1  0.115566  0.873765  0.747766  1
  Ga  Ga22  1  0.373765  0.384434  0.747766  1
  Ga  Ga23  1  0.377622  0.622521  0.249698  1
  Ga  Ga24  1  0.877479  0.877622  0.249698  1
  Ga  Ga25  1  0.626235  0.615566  0.747766  1
  Ga  Ga26  1  0.000000  0.500000  0.512242  1
  Ga  Ga27  1  0.884434  0.126235  0.747766  1
  Ga  Ga28  1  0.500000  0.000000  0.482371  1
  Ga  Ga29  1  0.500000  0.000000  0.996275  1
  Ga  Ga30  1  0.122521  0.122378  0.249698  1
  Ga  Ga31  1  0.000000  0.500000  0.013531  1
