# generated using pymatgen
data_Nd2Y2Er2CoI10
_symmetry_space_group_name_H-M   'P 1'
_cell_length_a   7.76086395
_cell_length_b   9.78418753
_cell_length_c   9.71099796
_cell_angle_alpha   106.80879903
_cell_angle_beta   96.23529933
_cell_angle_gamma   105.37201973
_symmetry_Int_Tables_number   1
_chemical_formula_structural   Nd2Y2Er2CoI10
_chemical_formula_sum   'Nd2 Y2 Er2 Co1 I10'
_cell_volume   666.78270191
_cell_formula_units_Z   1
loop_
 _symmetry_equiv_pos_site_id
 _symmetry_equiv_pos_as_xyz
  1  'x, y, z'
loop_
 _atom_site_type_symbol
 _atom_site_label
 _atom_site_symmetry_multiplicity
 _atom_site_fract_x
 _atom_site_fract_y
 _atom_site_fract_z
 _atom_site_occupancy
  Nd  Nd0  1  0.887188  0.958222  0.231647  1
  Nd  Nd1  1  0.112812  0.041778  0.768353  1
  Y  Y2  1  0.655627  0.876541  0.837294  1
  Y  Y3  1  0.344373  0.123459  0.162706  1
  Er  Er4  1  0.028704  0.720264  0.916012  1
  Er  Er5  1  0.971296  0.279736  0.083988  1
  Co  Co6  1  0.000000  0.000000  0.000000  1
  I  I7  1  0.652570  0.550445  0.729566  1
  I  I8  1  0.347430  0.449555  0.270434  1
  I  I9  1  0.733702  0.910674  0.540193  1
  I  I10  1  0.266298  0.089326  0.459807  1
  I  I11  1  0.083307  0.377612  0.824038  1
  I  I12  1  0.916693  0.622388  0.175962  1
  I  I13  1  0.447777  0.814395  0.090210  1
  I  I14  1  0.552223  0.185605  0.909790  1
  I  I15  1  0.223459  0.737641  0.656985  1
  I  I16  1  0.776541  0.262359  0.343015  1
