# generated using pymatgen
data_PrErMnIr3
_symmetry_space_group_name_H-M   'P 1'
_cell_length_a   5.23642019
_cell_length_b   5.23642119
_cell_length_c   5.23642099
_cell_angle_alpha   63.68033076
_cell_angle_beta   63.68032043
_cell_angle_gamma   63.68032557
_symmetry_Int_Tables_number   1
_chemical_formula_structural   PrErMnIr3
_chemical_formula_sum   'Pr1 Er1 Mn1 Ir3'
_cell_volume   109.77951324
_cell_formula_units_Z   1
loop_
 _symmetry_equiv_pos_site_id
 _symmetry_equiv_pos_as_xyz
  1  'x, y, z'
loop_
 _atom_site_type_symbol
 _atom_site_label
 _atom_site_symmetry_multiplicity
 _atom_site_fract_x
 _atom_site_fract_y
 _atom_site_fract_z
 _atom_site_occupancy
  Pr  Pr0  1  0.000079  0.000079  0.000079  1
  Er  Er1  1  0.251841  0.251841  0.251841  1
  Mn  Mn2  1  0.624513  0.624513  0.624513  1
  Ir  Ir3  1  0.623812  0.623812  0.125942  1
  Ir  Ir4  1  0.623812  0.125942  0.623812  1
  Ir  Ir5  1  0.125942  0.623812  0.623812  1
