# generated using pymatgen
data_EuCo2Si3
_symmetry_space_group_name_H-M   'P 1'
_cell_length_a   6.05331180
_cell_length_b   6.05331112
_cell_length_c   5.02328800
_cell_angle_alpha   90.00000000
_cell_angle_beta   90.00000000
_cell_angle_gamma   105.78720393
_symmetry_Int_Tables_number   1
_chemical_formula_structural   EuCo2Si3
_chemical_formula_sum   'Eu2 Co4 Si6'
_cell_volume   177.12302758
_cell_formula_units_Z   2
loop_
 _symmetry_equiv_pos_site_id
 _symmetry_equiv_pos_as_xyz
  1  'x, y, z'
loop_
 _atom_site_type_symbol
 _atom_site_label
 _atom_site_symmetry_multiplicity
 _atom_site_fract_x
 _atom_site_fract_y
 _atom_site_fract_z
 _atom_site_occupancy
  Eu  Eu0  1  0.345261  0.345261  0.250000  1
  Eu  Eu1  1  0.654739  0.654739  0.750000  1
  Co  Co2  1  0.194312  0.805688  0.000000  1
  Co  Co3  1  0.805688  0.194312  0.500000  1
  Co  Co4  1  0.805688  0.194312  0.000000  1
  Co  Co5  1  0.194312  0.805688  0.500000  1
  Si  Si6  1  0.913116  0.522740  0.250000  1
  Si  Si7  1  0.086884  0.477260  0.750000  1
  Si  Si8  1  0.070296  0.070296  0.750000  1
  Si  Si9  1  0.929704  0.929704  0.250000  1
  Si  Si10  1  0.477260  0.086884  0.750000  1
  Si  Si11  1  0.522740  0.913116  0.250000  1
