# generated using pymatgen
data_Nd3Dy(NbRu3)2
_symmetry_space_group_name_H-M   'P 1'
_cell_length_a   5.80521010
_cell_length_b   5.80521103
_cell_length_c   8.02434200
_cell_angle_alpha   89.99734885
_cell_angle_beta   90.00264881
_cell_angle_gamma   119.99439811
_symmetry_Int_Tables_number   1
_chemical_formula_structural   Nd3Dy(NbRu3)2
_chemical_formula_sum   'Nd3 Dy1 Nb2 Ru6'
_cell_volume   234.20735430
_cell_formula_units_Z   1
loop_
 _symmetry_equiv_pos_site_id
 _symmetry_equiv_pos_as_xyz
  1  'x, y, z'
loop_
 _atom_site_type_symbol
 _atom_site_label
 _atom_site_symmetry_multiplicity
 _atom_site_fract_x
 _atom_site_fract_y
 _atom_site_fract_z
 _atom_site_occupancy
  Nd  Nd0  1  0.666666  0.333334  0.560914  1
  Nd  Nd1  1  0.333331  0.666669  0.438236  1
  Nd  Nd2  1  0.333326  0.666674  0.060562  1
  Dy  Dy3  1  0.666675  0.333325  0.940347  1
  Nb  Nb4  1  0.999995  0.000005  0.501553  1
  Nb  Nb5  1  0.000006  0.999994  0.000894  1
  Ru  Ru6  1  0.169451  0.338925  0.750934  1
  Ru  Ru7  1  0.169491  0.830509  0.750947  1
  Ru  Ru8  1  0.661075  0.830549  0.750934  1
  Ru  Ru9  1  0.829890  0.659789  0.248232  1
  Ru  Ru10  1  0.829883  0.170117  0.248216  1
  Ru  Ru11  1  0.340211  0.170110  0.248232  1
