# generated using pymatgen
data_Pr10SnBi5P2
_symmetry_space_group_name_H-M   'P 1'
_cell_length_a   9.59038915
_cell_length_b   9.58750038
_cell_length_c   6.96341400
_cell_angle_alpha   90.00000000
_cell_angle_beta   90.00000000
_cell_angle_gamma   119.99003356
_symmetry_Int_Tables_number   1
_chemical_formula_structural   Pr10SnBi5P2
_chemical_formula_sum   'Pr10 Sn1 Bi5 P2'
_cell_volume   554.54664062
_cell_formula_units_Z   1
loop_
 _symmetry_equiv_pos_site_id
 _symmetry_equiv_pos_as_xyz
  1  'x, y, z'
loop_
 _atom_site_type_symbol
 _atom_site_label
 _atom_site_symmetry_multiplicity
 _atom_site_fract_x
 _atom_site_fract_y
 _atom_site_fract_z
 _atom_site_occupancy
  Pr  Pr0  1  0.669503  0.333711  0.001441  1
  Pr  Pr1  1  0.330497  0.664208  0.001441  1
  Pr  Pr2  1  0.330497  0.664208  0.498559  1
  Pr  Pr3  1  0.669503  0.333711  0.498559  1
  Pr  Pr4  1  0.761504  0.762078  0.750000  1
  Pr  Pr5  1  0.238496  0.000574  0.750000  1
  Pr  Pr6  1  0.000000  0.238956  0.750000  1
  Pr  Pr7  1  0.235618  0.240101  0.250000  1
  Pr  Pr8  1  0.764382  0.004482  0.250000  1
  Pr  Pr9  1  0.000000  0.759965  0.250000  1
  Sn  Sn10  1  0.000000  0.398993  0.250000  1
  Bi  Bi11  1  0.398249  0.397842  0.750000  1
  Bi  Bi12  1  0.601751  0.999593  0.750000  1
  Bi  Bi13  1  0.000000  0.601113  0.750000  1
  Bi  Bi14  1  0.601975  0.601944  0.250000  1
  Bi  Bi15  1  0.398025  0.999969  0.250000  1
  P  P16  1  0.000000  0.999275  0.999927  1
  P  P17  1  0.000000  0.999275  0.500073  1
