# generated using pymatgen
data_Y2Ga(SiRh2)3
_symmetry_space_group_name_H-M   'P 1'
_cell_length_a   6.66538924
_cell_length_b   6.66806491
_cell_length_c   6.66538943
_cell_angle_alpha   130.29076700
_cell_angle_beta   114.11194856
_cell_angle_gamma   86.82275201
_symmetry_Int_Tables_number   1
_chemical_formula_structural   Y2Ga(SiRh2)3
_chemical_formula_sum   'Y2 Ga1 Si3 Rh6'
_cell_volume   196.76209560
_cell_formula_units_Z   1
loop_
 _symmetry_equiv_pos_site_id
 _symmetry_equiv_pos_as_xyz
  1  'x, y, z'
loop_
 _atom_site_type_symbol
 _atom_site_label
 _atom_site_symmetry_multiplicity
 _atom_site_fract_x
 _atom_site_fract_y
 _atom_site_fract_z
 _atom_site_occupancy
  Y  Y0  1  0.250516  0.551171  0.300655  1
  Y  Y1  1  0.750468  0.468063  0.717594  1
  Ga  Ga2  1  0.093544  0.893905  0.800361  1
  Si  Si3  1  0.935902  0.132814  0.196912  1
  Si  Si4  1  0.568595  0.765658  0.197063  1
  Si  Si5  1  0.404348  0.199219  0.794871  1
  Rh  Rh6  1  0.711569  0.004025  0.715388  1
  Rh  Rh7  1  0.222778  0.495540  0.725120  1
  Rh  Rh8  1  0.288637  0.004025  0.292455  1
  Rh  Rh9  1  0.770420  0.495540  0.272762  1
  Rh  Rh10  1  0.972766  0.995020  0.464565  1
  Rh  Rh11  1  0.530455  0.995020  0.022255  1
