# generated using pymatgen
data_Y5Fe3(P3Ru4)4
_symmetry_space_group_name_H-M   'P 1'
_cell_length_a   12.49803500
_cell_length_b   12.49803542
_cell_length_c   3.89665000
_cell_angle_alpha   90.00000000
_cell_angle_beta   90.00000000
_cell_angle_gamma   120.00000154
_symmetry_Int_Tables_number   1
_chemical_formula_structural   Y5Fe3(P3Ru4)4
_chemical_formula_sum   'Y5 Fe3 P12 Ru16'
_cell_volume   527.11516555
_cell_formula_units_Z   1
loop_
 _symmetry_equiv_pos_site_id
 _symmetry_equiv_pos_as_xyz
  1  'x, y, z'
loop_
 _atom_site_type_symbol
 _atom_site_label
 _atom_site_symmetry_multiplicity
 _atom_site_fract_x
 _atom_site_fract_y
 _atom_site_fract_z
 _atom_site_occupancy
  Y  Y0  1  0.000000  0.181696  0.500000  1
  Y  Y1  1  0.818304  0.818304  0.500000  1
  Y  Y2  1  0.181696  0.000000  0.500000  1
  Y  Y3  1  0.666667  0.333333  0.000000  1
  Y  Y4  1  0.333333  0.666667  0.000000  1
  Fe  Fe5  1  0.000000  0.716393  0.500000  1
  Fe  Fe6  1  0.283607  0.283607  0.500000  1
  Fe  Fe7  1  0.716393  0.000000  0.500000  1
  P  P8  1  0.000000  0.813250  0.000000  1
  P  P9  1  0.186750  0.186750  0.000000  1
  P  P10  1  0.813250  0.000000  0.000000  1
  P  P11  1  0.689997  0.162770  0.500000  1
  P  P12  1  0.837230  0.527227  0.500000  1
  P  P13  1  0.472773  0.310003  0.500000  1
  P  P14  1  0.162770  0.689997  0.500000  1
  P  P15  1  0.527227  0.837230  0.500000  1
  P  P16  1  0.310003  0.472773  0.500000  1
  P  P17  1  0.000000  0.373475  0.000000  1
  P  P18  1  0.626525  0.626525  0.000000  1
  P  P19  1  0.373475  0.000000  0.000000  1
  Ru  Ru20  1  0.000000  0.557972  0.000000  1
  Ru  Ru21  1  0.442028  0.442028  0.000000  1
  Ru  Ru22  1  0.557972  0.000000  0.000000  1
  Ru  Ru23  1  0.806578  0.181682  0.000000  1
  Ru  Ru24  1  0.818318  0.624897  0.000000  1
  Ru  Ru25  1  0.375103  0.193422  0.000000  1
  Ru  Ru26  1  0.181682  0.806578  0.000000  1
  Ru  Ru27  1  0.624897  0.818318  0.000000  1
  Ru  Ru28  1  0.193422  0.375103  0.000000  1
  Ru  Ru29  1  0.873944  0.363444  0.500000  1
  Ru  Ru30  1  0.636556  0.510501  0.500000  1
  Ru  Ru31  1  0.489499  0.126056  0.500000  1
  Ru  Ru32  1  0.363444  0.873944  0.500000  1
  Ru  Ru33  1  0.510501  0.636556  0.500000  1
  Ru  Ru34  1  0.126056  0.489499  0.500000  1
  Ru  Ru35  1  0.000000  0.000000  0.000000  1
