# generated using pymatgen
data_Y3ThCdIr
_symmetry_space_group_name_H-M   'P 1'
_cell_length_a   9.77803637
_cell_length_b   9.77803607
_cell_length_c   9.77803600
_cell_angle_alpha   60.00000024
_cell_angle_beta   60.00000124
_cell_angle_gamma   59.99999983
_symmetry_Int_Tables_number   1
_chemical_formula_structural   Y3ThCdIr
_chemical_formula_sum   'Y12 Th4 Cd4 Ir4'
_cell_volume   661.05854236
_cell_formula_units_Z   4
loop_
 _symmetry_equiv_pos_site_id
 _symmetry_equiv_pos_as_xyz
  1  'x, y, z'
loop_
 _atom_site_type_symbol
 _atom_site_label
 _atom_site_symmetry_multiplicity
 _atom_site_fract_x
 _atom_site_fract_y
 _atom_site_fract_z
 _atom_site_occupancy
  Y  Y0  1  0.811869  0.188131  0.188131  1
  Y  Y1  1  0.188131  0.811869  0.811869  1
  Y  Y2  1  0.188131  0.811869  0.188131  1
  Y  Y3  1  0.811869  0.188131  0.811869  1
  Y  Y4  1  0.188131  0.188131  0.811869  1
  Y  Y5  1  0.811869  0.811869  0.188131  1
  Y  Y6  1  0.935822  0.564178  0.564178  1
  Y  Y7  1  0.564178  0.935822  0.935822  1
  Y  Y8  1  0.564178  0.935822  0.564178  1
  Y  Y9  1  0.935822  0.564178  0.935822  1
  Y  Y10  1  0.564178  0.564178  0.935822  1
  Y  Y11  1  0.935822  0.935822  0.564178  1
  Th  Th12  1  0.349381  0.349381  0.349381  1
  Th  Th13  1  0.349381  0.349381  0.951856  1
  Th  Th14  1  0.349381  0.951856  0.349381  1
  Th  Th15  1  0.951856  0.349381  0.349381  1
  Cd  Cd16  1  0.582492  0.582492  0.582492  1
  Cd  Cd17  1  0.582492  0.582492  0.252526  1
  Cd  Cd18  1  0.582492  0.252526  0.582492  1
  Cd  Cd19  1  0.252526  0.582492  0.582492  1
  Ir  Ir20  1  0.143799  0.143799  0.143799  1
  Ir  Ir21  1  0.143799  0.143799  0.568604  1
  Ir  Ir22  1  0.143799  0.568604  0.143799  1
  Ir  Ir23  1  0.568604  0.143799  0.143799  1
