# generated using pymatgen
data_Mg4Zn5CuPt2
_symmetry_space_group_name_H-M   'P 1'
_cell_length_a   5.20760651
_cell_length_b   5.23026601
_cell_length_c   8.33271700
_cell_angle_alpha   90.00000000
_cell_angle_beta   90.00000000
_cell_angle_gamma   120.84143652
_symmetry_Int_Tables_number   1
_chemical_formula_structural   Mg4Zn5CuPt2
_chemical_formula_sum   'Mg4 Zn5 Cu1 Pt2'
_cell_volume   194.86510428
_cell_formula_units_Z   1
loop_
 _symmetry_equiv_pos_site_id
 _symmetry_equiv_pos_as_xyz
  1  'x, y, z'
loop_
 _atom_site_type_symbol
 _atom_site_label
 _atom_site_symmetry_multiplicity
 _atom_site_fract_x
 _atom_site_fract_y
 _atom_site_fract_z
 _atom_site_occupancy
  Mg  Mg0  1  0.323807  0.655806  0.069776  1
  Mg  Mg1  1  0.672694  0.331426  0.560136  1
  Mg  Mg2  1  0.672694  0.331426  0.939864  1
  Mg  Mg3  1  0.323807  0.655806  0.430224  1
  Zn  Zn4  1  0.007992  0.009307  0.004395  1
  Zn  Zn5  1  0.007992  0.009307  0.495605  1
  Zn  Zn6  1  0.665214  0.832392  0.750000  1
  Zn  Zn7  1  0.170472  0.833477  0.750000  1
  Zn  Zn8  1  0.825639  0.659995  0.250000  1
  Cu  Cu9  1  0.335804  0.167564  0.250000  1
  Pt  Pt10  1  0.177224  0.347215  0.750000  1
  Pt  Pt11  1  0.816661  0.166281  0.250000  1
