# generated using pymatgen
data_Hf3Zr6In14Co6Mo
_symmetry_space_group_name_H-M   'P 1'
_cell_length_a   9.48505934
_cell_length_b   9.48558555
_cell_length_c   9.47388232
_cell_angle_alpha   60.14378883
_cell_angle_beta   60.14288067
_cell_angle_gamma   60.19282488
_symmetry_Int_Tables_number   1
_chemical_formula_structural   Hf3Zr6In14Co6Mo
_chemical_formula_sum   'Hf3 Zr6 In14 Co6 Mo1'
_cell_volume   604.90381763
_cell_formula_units_Z   1
loop_
 _symmetry_equiv_pos_site_id
 _symmetry_equiv_pos_as_xyz
  1  'x, y, z'
loop_
 _atom_site_type_symbol
 _atom_site_label
 _atom_site_symmetry_multiplicity
 _atom_site_fract_x
 _atom_site_fract_y
 _atom_site_fract_z
 _atom_site_occupancy
  Hf  Hf0  1  0.120638  0.641157  0.119225  1
  Hf  Hf1  1  0.359008  0.878765  0.880257  1
  Hf  Hf2  1  0.880398  0.878937  0.880184  1
  Zr  Zr3  1  0.635761  0.121505  0.121643  1
  Zr  Zr4  1  0.500266  0.499870  0.500028  1
  Zr  Zr5  1  0.878686  0.877088  0.363824  1
  Zr  Zr6  1  0.122932  0.121413  0.121673  1
  Zr  Zr7  1  0.877929  0.364388  0.877774  1
  Zr  Zr8  1  0.122356  0.120794  0.636226  1
  In  In9  1  0.500463  0.841323  0.157700  1
  In  In10  1  0.500417  0.840051  0.500429  1
  In  In11  1  0.499972  0.159269  0.499794  1
  In  In12  1  0.500125  0.500092  0.840493  1
  In  In13  1  0.159955  0.499419  0.499354  1
  In  In14  1  0.841894  0.157728  0.500153  1
  In  In15  1  0.158081  0.841495  0.500192  1
  In  In16  1  0.500306  0.157724  0.841699  1
  In  In17  1  0.158343  0.499857  0.841999  1
  In  In18  1  0.499868  0.499751  0.159397  1
  In  In19  1  0.840588  0.499995  0.500070  1
  In  In20  1  0.841954  0.499993  0.157923  1
  In  In21  1  0.249263  0.252462  0.249291  1
  In  In22  1  0.748407  0.751608  0.751533  1
  Co  Co23  1  0.777192  0.775004  0.222789  1
  Co  Co24  1  0.225067  0.774885  0.222728  1
  Co  Co25  1  0.223852  0.775098  0.777365  1
  Co  Co26  1  0.224946  0.222772  0.776068  1
  Co  Co27  1  0.775874  0.223027  0.775992  1
  Co  Co28  1  0.775709  0.224283  0.224093  1
  Mo  Mo29  1  0.999748  0.000248  0.000104  1
