# generated using pymatgen
data_Hf3Ga3Pd2Rh
_symmetry_space_group_name_H-M   'P 1'
_cell_length_a   7.29781300
_cell_length_b   7.29781236
_cell_length_c   6.71746900
_cell_angle_alpha   90.00000000
_cell_angle_beta   90.00000000
_cell_angle_gamma   119.99999837
_symmetry_Int_Tables_number   1
_chemical_formula_structural   Hf3Ga3Pd2Rh
_chemical_formula_sum   'Hf6 Ga6 Pd4 Rh2'
_cell_volume   309.82876308
_cell_formula_units_Z   2
loop_
 _symmetry_equiv_pos_site_id
 _symmetry_equiv_pos_as_xyz
  1  'x, y, z'
loop_
 _atom_site_type_symbol
 _atom_site_label
 _atom_site_symmetry_multiplicity
 _atom_site_fract_x
 _atom_site_fract_y
 _atom_site_fract_z
 _atom_site_occupancy
  Hf  Hf0  1  0.604832  0.606164  0.250000  1
  Hf  Hf1  1  0.020160  0.404110  0.750000  1
  Hf  Hf2  1  0.393836  0.998669  0.250000  1
  Hf  Hf3  1  0.001331  0.395168  0.250000  1
  Hf  Hf4  1  0.383950  0.979840  0.750000  1
  Hf  Hf5  1  0.595890  0.616050  0.750000  1
  Ga  Ga6  1  0.275822  0.271422  0.499489  1
  Ga  Ga7  1  0.728578  0.004401  0.499489  1
  Ga  Ga8  1  0.995599  0.724178  0.499489  1
  Ga  Ga9  1  0.728578  0.004401  0.000511  1
  Ga  Ga10  1  0.275822  0.271422  0.000511  1
  Ga  Ga11  1  0.995599  0.724178  0.000511  1
  Pd  Pd12  1  0.000000  0.000000  0.750000  1
  Pd  Pd13  1  0.000000  0.000000  0.250000  1
  Pd  Pd14  1  0.666667  0.333333  0.517698  1
  Pd  Pd15  1  0.666667  0.333333  0.982302  1
  Rh  Rh16  1  0.333333  0.666667  0.488191  1
  Rh  Rh17  1  0.333333  0.666667  0.011809  1
