# generated using pymatgen
data_Ca2EuC3Br2
_symmetry_space_group_name_H-M   'P 1'
_cell_length_a   7.40895882
_cell_length_b   7.40895803
_cell_length_c   11.77372300
_cell_angle_alpha   90.00000000
_cell_angle_beta   90.00000000
_cell_angle_gamma   148.66526307
_symmetry_Int_Tables_number   1
_chemical_formula_structural   Ca2EuC3Br2
_chemical_formula_sum   'Ca4 Eu2 C6 Br4'
_cell_volume   336.09528313
_cell_formula_units_Z   2
loop_
 _symmetry_equiv_pos_site_id
 _symmetry_equiv_pos_as_xyz
  1  'x, y, z'
loop_
 _atom_site_type_symbol
 _atom_site_label
 _atom_site_symmetry_multiplicity
 _atom_site_fract_x
 _atom_site_fract_y
 _atom_site_fract_z
 _atom_site_occupancy
  Ca  Ca0  1  0.663348  0.336652  0.558239  1
  Ca  Ca1  1  0.336652  0.663348  0.441761  1
  Ca  Ca2  1  0.336652  0.663348  0.058239  1
  Ca  Ca3  1  0.663348  0.336652  0.941761  1
  Eu  Eu4  1  0.125000  0.875000  0.250000  1
  Eu  Eu5  1  0.875000  0.125000  0.750000  1
  C  C6  1  0.265479  0.734521  0.636760  1
  C  C7  1  0.734521  0.265479  0.363240  1
  C  C8  1  0.734521  0.265479  0.136760  1
  C  C9  1  0.265479  0.734521  0.863240  1
  C  C10  1  0.743593  0.256407  0.250000  1
  C  C11  1  0.256407  0.743593  0.750000  1
  Br  Br12  1  0.535670  0.464330  0.750000  1
  Br  Br13  1  0.464330  0.535670  0.250000  1
  Br  Br14  1  0.000000  0.000000  0.000000  1
  Br  Br15  1  0.000000  0.000000  0.500000  1
