# generated using pymatgen
data_Nd9(BiO)5
_symmetry_space_group_name_H-M   'P 1'
_cell_length_a   10.35891800
_cell_length_b   10.35891800
_cell_length_c   9.31558700
_cell_angle_alpha   90.00000000
_cell_angle_beta   90.00000000
_cell_angle_gamma   90.00000000
_symmetry_Int_Tables_number   1
_chemical_formula_structural   Nd9(BiO)5
_chemical_formula_sum   'Nd18 Bi10 O10'
_cell_volume   999.62939086
_cell_formula_units_Z   2
loop_
 _symmetry_equiv_pos_site_id
 _symmetry_equiv_pos_as_xyz
  1  'x, y, z'
loop_
 _atom_site_type_symbol
 _atom_site_label
 _atom_site_symmetry_multiplicity
 _atom_site_fract_x
 _atom_site_fract_y
 _atom_site_fract_z
 _atom_site_occupancy
  Nd  Nd0  1  0.500000  0.000000  0.671784  1
  Nd  Nd1  1  0.000000  0.500000  0.328216  1
  Nd  Nd2  1  0.104384  0.205084  0.660166  1
  Nd  Nd3  1  0.895616  0.794916  0.660166  1
  Nd  Nd4  1  0.294916  0.604384  0.660166  1
  Nd  Nd5  1  0.705084  0.395616  0.660166  1
  Nd  Nd6  1  0.395616  0.294916  0.339834  1
  Nd  Nd7  1  0.604384  0.705084  0.339834  1
  Nd  Nd8  1  0.205084  0.895616  0.339834  1
  Nd  Nd9  1  0.794916  0.104384  0.339834  1
  Nd  Nd10  1  0.725611  0.917573  0.001394  1
  Nd  Nd11  1  0.274389  0.082427  0.001394  1
  Nd  Nd12  1  0.582427  0.225611  0.001394  1
  Nd  Nd13  1  0.417573  0.774389  0.001394  1
  Nd  Nd14  1  0.774389  0.582427  0.998606  1
  Nd  Nd15  1  0.225611  0.417573  0.998606  1
  Nd  Nd16  1  0.917573  0.274389  0.998606  1
  Nd  Nd17  1  0.082427  0.725611  0.998606  1
  Bi  Bi18  1  0.500000  0.000000  0.312444  1
  Bi  Bi19  1  0.000000  0.500000  0.687556  1
  Bi  Bi20  1  0.403749  0.304014  0.699067  1
  Bi  Bi21  1  0.596251  0.695986  0.699067  1
  Bi  Bi22  1  0.195986  0.903749  0.699067  1
  Bi  Bi23  1  0.804014  0.096251  0.699067  1
  Bi  Bi24  1  0.096251  0.195986  0.300933  1
  Bi  Bi25  1  0.903749  0.804014  0.300933  1
  Bi  Bi26  1  0.304014  0.596251  0.300933  1
  Bi  Bi27  1  0.695986  0.403749  0.300933  1
  O  O28  1  0.500000  0.000000  0.933667  1
  O  O29  1  0.000000  0.500000  0.066333  1
  O  O30  1  0.774768  0.120750  0.086864  1
  O  O31  1  0.225232  0.879250  0.086864  1
  O  O32  1  0.379250  0.274768  0.086864  1
  O  O33  1  0.620750  0.725232  0.086864  1
  O  O34  1  0.725232  0.379250  0.913136  1
  O  O35  1  0.274768  0.620750  0.913136  1
  O  O36  1  0.120750  0.225232  0.913136  1
  O  O37  1  0.879250  0.774768  0.913136  1
