# generated using pymatgen
data_Nd9Y2In9Rh4
_symmetry_space_group_name_H-M   'P 1'
_cell_length_a   13.38968429
_cell_length_b   13.38712764
_cell_length_c   3.81386600
_cell_angle_alpha   90.00000000
_cell_angle_beta   90.00000000
_cell_angle_gamma   112.11037146
_symmetry_Int_Tables_number   1
_chemical_formula_structural   Nd9Y2In9Rh4
_chemical_formula_sum   'Nd9 Y2 In9 Rh4'
_cell_volume   633.35920271
_cell_formula_units_Z   1
loop_
 _symmetry_equiv_pos_site_id
 _symmetry_equiv_pos_as_xyz
  1  'x, y, z'
loop_
 _atom_site_type_symbol
 _atom_site_label
 _atom_site_symmetry_multiplicity
 _atom_site_fract_x
 _atom_site_fract_y
 _atom_site_fract_z
 _atom_site_occupancy
  Nd  Nd0  1  0.419682  0.078237  0.000000  1
  Nd  Nd1  1  0.580318  0.921763  0.000000  1
  Nd  Nd2  1  0.627325  0.373712  0.000000  1
  Nd  Nd3  1  0.372675  0.626288  0.000000  1
  Nd  Nd4  1  0.841784  0.160808  0.000000  1
  Nd  Nd5  1  0.158216  0.839192  0.000000  1
  Nd  Nd6  1  0.000000  0.000000  0.000000  1
  Nd  Nd7  1  0.311861  0.313042  0.000000  1
  Nd  Nd8  1  0.688139  0.686958  0.000000  1
  Y  Y9  1  0.080403  0.419773  0.000000  1
  Y  Y10  1  0.919597  0.580227  0.000000  1
  In  In11  1  0.843516  0.369649  0.500000  1
  In  In12  1  0.156484  0.630351  0.500000  1
  In  In13  1  0.364162  0.837000  0.500000  1
  In  In14  1  0.635838  0.163000  0.500000  1
  In  In15  1  0.077031  0.222269  0.500000  1
  In  In16  1  0.922969  0.777731  0.500000  1
  In  In17  1  0.220198  0.078896  0.500000  1
  In  In18  1  0.779802  0.921104  0.500000  1
  In  In19  1  0.500000  0.500000  0.500000  1
  Rh  Rh20  1  0.244079  0.454016  0.500000  1
  Rh  Rh21  1  0.755921  0.545984  0.500000  1
  Rh  Rh22  1  0.454507  0.248724  0.500000  1
  Rh  Rh23  1  0.545493  0.751276  0.500000  1
