# generated using pymatgen
data_DyEr2Mn(Co4P3)2
_symmetry_space_group_name_H-M   'P 1'
_cell_length_a   3.68203900
_cell_length_b   10.52015600
_cell_length_c   12.17250600
_cell_angle_alpha   90.00000000
_cell_angle_beta   90.00000000
_cell_angle_gamma   90.00000000
_symmetry_Int_Tables_number   1
_chemical_formula_structural   DyEr2Mn(Co4P3)2
_chemical_formula_sum   'Dy2 Er4 Mn2 Co16 P12'
_cell_volume   471.50962381
_cell_formula_units_Z   2
loop_
 _symmetry_equiv_pos_site_id
 _symmetry_equiv_pos_as_xyz
  1  'x, y, z'
loop_
 _atom_site_type_symbol
 _atom_site_label
 _atom_site_symmetry_multiplicity
 _atom_site_fract_x
 _atom_site_fract_y
 _atom_site_fract_z
 _atom_site_occupancy
  Dy  Dy0  1  0.750000  0.250000  0.477283  1
  Dy  Dy1  1  0.250000  0.750000  0.522717  1
  Er  Er2  1  0.250000  0.931688  0.794956  1
  Er  Er3  1  0.250000  0.568312  0.794956  1
  Er  Er4  1  0.750000  0.068312  0.205044  1
  Er  Er5  1  0.750000  0.431688  0.205044  1
  Mn  Mn6  1  0.250000  0.250000  0.841256  1
  Mn  Mn7  1  0.750000  0.750000  0.158744  1
  Co  Co8  1  0.250000  0.250000  0.296449  1
  Co  Co9  1  0.750000  0.750000  0.703551  1
  Co  Co10  1  0.750000  0.250000  0.013697  1
  Co  Co11  1  0.250000  0.750000  0.986303  1
  Co  Co12  1  0.250000  0.417073  0.006396  1
  Co  Co13  1  0.250000  0.082927  0.006396  1
  Co  Co14  1  0.750000  0.582927  0.993604  1
  Co  Co15  1  0.750000  0.917073  0.993604  1
  Co  Co16  1  0.250000  0.453535  0.569697  1
  Co  Co17  1  0.250000  0.046465  0.569697  1
  Co  Co18  1  0.750000  0.546465  0.430303  1
  Co  Co19  1  0.750000  0.953535  0.430303  1
  Co  Co20  1  0.250000  0.871019  0.290533  1
  Co  Co21  1  0.250000  0.628981  0.290533  1
  Co  Co22  1  0.750000  0.128981  0.709467  1
  Co  Co23  1  0.750000  0.371019  0.709467  1
  P  P24  1  0.250000  0.250000  0.117386  1
  P  P25  1  0.750000  0.750000  0.882614  1
  P  P26  1  0.250000  0.250000  0.655172  1
  P  P27  1  0.750000  0.750000  0.344828  1
  P  P28  1  0.250000  0.438706  0.383282  1
  P  P29  1  0.250000  0.061294  0.383282  1
  P  P30  1  0.750000  0.561294  0.616718  1
  P  P31  1  0.750000  0.938706  0.616718  1
  P  P32  1  0.250000  0.903074  0.107526  1
  P  P33  1  0.250000  0.596926  0.107526  1
  P  P34  1  0.750000  0.096926  0.892474  1
  P  P35  1  0.750000  0.403074  0.892474  1
