# generated using pymatgen
data_Cs3LiSn7O16
_symmetry_space_group_name_H-M   'P 1'
_cell_length_a   7.55076884
_cell_length_b   7.56948883
_cell_length_c   9.19253998
_cell_angle_alpha   97.28110745
_cell_angle_beta   96.73479798
_cell_angle_gamma   113.79124694
_symmetry_Int_Tables_number   1
_chemical_formula_structural   Cs3LiSn7O16
_chemical_formula_sum   'Cs3 Li1 Sn7 O16'
_cell_volume   468.59920692
_cell_formula_units_Z   1
loop_
 _symmetry_equiv_pos_site_id
 _symmetry_equiv_pos_as_xyz
  1  'x, y, z'
loop_
 _atom_site_type_symbol
 _atom_site_label
 _atom_site_symmetry_multiplicity
 _atom_site_fract_x
 _atom_site_fract_y
 _atom_site_fract_z
 _atom_site_occupancy
  Cs  Cs0  1  0.752742  0.239688  0.020782  1
  Cs  Cs1  1  0.440864  0.567465  0.016945  1
  Cs  Cs2  1  0.125403  0.898021  0.012994  1
  Li  Li3  1  0.520354  0.143311  0.339983  1
  Sn  Sn4  1  0.773182  0.912554  0.371412  1
  Sn  Sn5  1  0.712615  0.585997  0.622636  1
  Sn  Sn6  1  0.960321  0.338096  0.622582  1
  Sn  Sn7  1  0.473547  0.850393  0.622167  1
  Sn  Sn8  1  0.036172  0.659891  0.390085  1
  Sn  Sn9  1  0.289815  0.397443  0.371420  1
  Sn  Sn10  1  0.224899  0.098562  0.621817  1
  O  O11  1  0.874534  0.742742  0.245365  1
  O  O12  1  0.949972  0.830288  0.559136  1
  O  O13  1  0.615811  0.976186  0.222235  1
  O  O14  1  0.808587  0.432024  0.458386  1
  O  O15  1  0.550694  0.674504  0.449369  1
  O  O16  1  0.297250  0.922236  0.457788  1
  O  O17  1  0.871884  0.498540  0.768444  1
  O  O18  1  0.630031  0.756327  0.763802  1
  O  O19  1  0.440563  0.339932  0.561377  1
  O  O20  1  0.126779  0.503789  0.245710  1
  O  O21  1  0.714060  0.066659  0.560064  1
  O  O22  1  0.372214  0.256511  0.222167  1
  O  O23  1  0.205560  0.574673  0.559562  1
  O  O24  1  0.385308  0.011790  0.767371  1
  O  O25  1  0.049790  0.174178  0.446629  1
  O  O26  1  0.125321  0.251474  0.762866  1
