# generated using pymatgen
data_AcPb6ClO7
_symmetry_space_group_name_H-M   'P 1'
_cell_length_a   10.43618590
_cell_length_b   10.43618634
_cell_length_c   9.69175248
_cell_angle_alpha   63.91770393
_cell_angle_beta   116.08229643
_cell_angle_gamma   133.10030241
_symmetry_Int_Tables_number   1
_chemical_formula_structural   AcPb6ClO7
_chemical_formula_sum   'Ac2 Pb12 Cl2 O14'
_cell_volume   676.45751726
_cell_formula_units_Z   2
loop_
 _symmetry_equiv_pos_site_id
 _symmetry_equiv_pos_as_xyz
  1  'x, y, z'
loop_
 _atom_site_type_symbol
 _atom_site_label
 _atom_site_symmetry_multiplicity
 _atom_site_fract_x
 _atom_site_fract_y
 _atom_site_fract_z
 _atom_site_occupancy
  Ac  Ac0  1  0.499999  0.999999  0.000000  1
  Ac  Ac1  1  0.999999  0.499999  0.000000  1
  Pb  Pb2  1  0.366764  0.106589  0.549329  1
  Pb  Pb3  1  0.106589  0.366764  0.450672  1
  Pb  Pb4  1  0.633235  0.893410  0.450672  1
  Pb  Pb5  1  0.893410  0.633235  0.549329  1
  Pb  Pb6  1  0.560085  0.439916  0.757754  1
  Pb  Pb7  1  0.439916  0.560085  0.242246  1
  Pb  Pb8  1  0.343951  0.656050  0.787046  1
  Pb  Pb9  1  0.656050  0.343951  0.212954  1
  Pb  Pb10  1  0.797066  0.202935  0.720701  1
  Pb  Pb11  1  0.202936  0.797066  0.279299  1
  Pb  Pb12  1  0.052243  0.947759  0.822115  1
  Pb  Pb13  1  0.947759  0.052242  0.177885  1
  Cl  Cl14  1  0.730628  0.730628  0.000000  1
  Cl  Cl15  1  0.269371  0.269371  0.000000  1
  O  O16  1  0.177261  0.822740  0.030938  1
  O  O17  1  0.822741  0.177261  0.969062  1
  O  O18  1  0.652988  0.347014  0.622695  1
  O  O19  1  0.347014  0.652988  0.377306  1
  O  O20  1  0.324785  0.117087  0.747802  1
  O  O21  1  0.117087  0.324785  0.252198  1
  O  O22  1  0.675215  0.882913  0.252198  1
  O  O23  1  0.882914  0.675215  0.747802  1
  O  O24  1  0.474709  0.959784  0.728977  1
  O  O25  1  0.959784  0.474709  0.271022  1
  O  O26  1  0.525290  0.040215  0.271022  1
  O  O27  1  0.040215  0.525290  0.728977  1
  O  O28  1  0.666755  0.333247  0.990106  1
  O  O29  1  0.333247  0.666755  0.009894  1
