# generated using pymatgen
data_PrNd2Mg(Pt2O7)2
_symmetry_space_group_name_H-M   'P 1'
_cell_length_a   7.28035266
_cell_length_b   7.42191987
_cell_length_c   7.42191935
_cell_angle_alpha   59.98535407
_cell_angle_beta   59.31975248
_cell_angle_gamma   59.31974563
_symmetry_Int_Tables_number   1
_chemical_formula_structural   PrNd2Mg(Pt2O7)2
_chemical_formula_sum   'Pr1 Nd2 Mg1 Pt4 O14'
_cell_volume   280.59507583
_cell_formula_units_Z   1
loop_
 _symmetry_equiv_pos_site_id
 _symmetry_equiv_pos_as_xyz
  1  'x, y, z'
loop_
 _atom_site_type_symbol
 _atom_site_label
 _atom_site_symmetry_multiplicity
 _atom_site_fract_x
 _atom_site_fract_y
 _atom_site_fract_z
 _atom_site_occupancy
  Pr  Pr0  1  0.625000  0.625000  0.625000  1
  Nd  Nd1  1  0.625000  0.625000  0.125000  1
  Nd  Nd2  1  0.625000  0.125000  0.625000  1
  Mg  Mg3  1  0.125000  0.625000  0.625000  1
  Pt  Pt4  1  0.125000  0.125000  0.625000  1
  Pt  Pt5  1  0.125000  0.625000  0.125000  1
  Pt  Pt6  1  0.625000  0.125000  0.125000  1
  Pt  Pt7  1  0.125000  0.125000  0.125000  1
  O  O8  1  0.469492  0.509305  0.509305  1
  O  O9  1  0.780508  0.740695  0.740695  1
  O  O10  1  0.463558  0.038909  0.460228  1
  O  O11  1  0.200304  0.793101  0.213425  1
  O  O12  1  0.463558  0.460228  0.038909  1
  O  O13  1  0.051064  0.456311  0.456311  1
  O  O14  1  0.464025  0.037680  0.037680  1
  O  O15  1  0.049696  0.036575  0.456899  1
  O  O16  1  0.049696  0.456899  0.036575  1
  O  O17  1  0.785975  0.212320  0.212320  1
  O  O18  1  0.198936  0.793689  0.793689  1
  O  O19  1  0.786442  0.211091  0.789772  1
  O  O20  1  0.200304  0.213425  0.793101  1
  O  O21  1  0.786442  0.789772  0.211091  1
