# generated using pymatgen
data_Tb3Ho3Ni2
_symmetry_space_group_name_H-M   'P 1'
_cell_length_a   6.34629333
_cell_length_b   6.82565900
_cell_length_c   9.56618311
_cell_angle_alpha   90.00000000
_cell_angle_beta   90.11789479
_cell_angle_gamma   90.00000000
_symmetry_Int_Tables_number   1
_chemical_formula_structural   Tb3Ho3Ni2
_chemical_formula_sum   'Tb6 Ho6 Ni4'
_cell_volume   414.38354310
_cell_formula_units_Z   2
loop_
 _symmetry_equiv_pos_site_id
 _symmetry_equiv_pos_as_xyz
  1  'x, y, z'
loop_
 _atom_site_type_symbol
 _atom_site_label
 _atom_site_symmetry_multiplicity
 _atom_site_fract_x
 _atom_site_fract_y
 _atom_site_fract_z
 _atom_site_occupancy
  Tb  Tb0  1  0.321135  0.678243  0.066273  1
  Tb  Tb1  1  0.178865  0.178243  0.433727  1
  Tb  Tb2  1  0.860319  0.533351  0.250308  1
  Tb  Tb3  1  0.639681  0.033351  0.249692  1
  Tb  Tb4  1  0.138975  0.466453  0.749871  1
  Tb  Tb5  1  0.361025  0.966453  0.750129  1
  Ho  Ho6  1  0.678413  0.321899  0.567268  1
  Ho  Ho7  1  0.821587  0.821899  0.932732  1
  Ho  Ho8  1  0.678853  0.321820  0.932974  1
  Ho  Ho9  1  0.821147  0.821820  0.567026  1
  Ho  Ho10  1  0.321668  0.678202  0.433681  1
  Ho  Ho11  1  0.178332  0.178202  0.066319  1
  Ni  Ni12  1  0.054993  0.891258  0.249966  1
  Ni  Ni13  1  0.445007  0.391258  0.250034  1
  Ni  Ni14  1  0.944193  0.108774  0.750407  1
  Ni  Ni15  1  0.555807  0.608774  0.749593  1
