# generated using pymatgen
data_TbYbY2(Al8Pt3)3
_symmetry_space_group_name_H-M   'P 1'
_cell_length_a   7.53167874
_cell_length_b   7.53667642
_cell_length_c   13.21232802
_cell_angle_alpha   84.58866606
_cell_angle_beta   100.88476529
_cell_angle_gamma   119.81168566
_symmetry_Int_Tables_number   1
_chemical_formula_structural   TbYbY2(Al8Pt3)3
_chemical_formula_sum   'Tb1 Yb1 Y2 Al24 Pt9'
_cell_volume   639.02524490
_cell_formula_units_Z   1
loop_
 _symmetry_equiv_pos_site_id
 _symmetry_equiv_pos_as_xyz
  1  'x, y, z'
loop_
 _atom_site_type_symbol
 _atom_site_label
 _atom_site_symmetry_multiplicity
 _atom_site_fract_x
 _atom_site_fract_y
 _atom_site_fract_z
 _atom_site_occupancy
  Tb  Tb0  1  0.436756  0.830600  0.808345  1
  Yb  Yb1  1  0.232979  0.498462  0.192550  1
  Y  Y2  1  0.562677  0.168852  0.191842  1
  Y  Y3  1  0.768377  0.501546  0.808374  1
  Al  Al4  1  0.481371  0.166187  0.944284  1
  Al  Al5  1  0.518073  0.833465  0.055056  1
  Al  Al6  1  0.021304  0.168135  0.561268  1
  Al  Al7  1  0.979097  0.832118  0.439391  1
  Al  Al8  1  0.354077  0.833370  0.559124  1
  Al  Al9  1  0.646265  0.166393  0.441508  1
  Al  Al10  1  0.617177  0.834098  0.329624  1
  Al  Al11  1  0.382274  0.165362  0.670676  1
  Al  Al12  1  0.056160  0.493352  0.670512  1
  Al  Al13  1  0.944738  0.506931  0.329807  1
  Al  Al14  1  0.730311  0.839941  0.669142  1
  Al  Al15  1  0.269459  0.160484  0.331091  1
  Al  Al16  1  0.147894  0.499773  0.945796  1
  Al  Al17  1  0.852641  0.499909  0.054845  1
  Al  Al18  1  0.816605  0.832455  0.953241  1
  Al  Al19  1  0.182899  0.167560  0.045962  1
  Al  Al20  1  0.314233  0.500625  0.440981  1
  Al  Al21  1  0.685622  0.499315  0.559180  1
  Al  Al22  1  0.103051  0.837889  0.183170  1
  Al  Al23  1  0.897742  0.164817  0.816328  1
  Al  Al24  1  0.306925  0.369045  0.815220  1
  Al  Al25  1  0.694424  0.630474  0.184157  1
  Al  Al26  1  0.102828  0.959010  0.815963  1
  Al  Al27  1  0.894996  0.040225  0.183577  1
  Pt  Pt28  1  0.387736  0.507774  0.638282  1
  Pt  Pt29  1  0.613043  0.492564  0.362017  1
  Pt  Pt30  1  0.170995  0.828651  0.999134  1
  Pt  Pt31  1  0.828056  0.170895  0.999473  1
  Pt  Pt32  1  0.295021  0.833095  0.362123  1
  Pt  Pt33  1  0.704446  0.166876  0.638443  1
  Pt  Pt34  1  0.046321  0.825293  0.637381  1
  Pt  Pt35  1  0.953406  0.174344  0.362962  1
  Pt  Pt36  1  0.500017  0.500115  0.999171  1
