# generated using pymatgen
data_Ni2MoPt4W
_symmetry_space_group_name_H-M   'P 1'
_cell_length_a   4.48942400
_cell_length_b   4.77811300
_cell_length_c   5.41885200
_cell_angle_alpha   90.00000000
_cell_angle_beta   90.00000000
_cell_angle_gamma   90.00000000
_symmetry_Int_Tables_number   1
_chemical_formula_structural   Ni2MoPt4W
_chemical_formula_sum   'Ni2 Mo1 Pt4 W1'
_cell_volume   116.23965974
_cell_formula_units_Z   1
loop_
 _symmetry_equiv_pos_site_id
 _symmetry_equiv_pos_as_xyz
  1  'x, y, z'
loop_
 _atom_site_type_symbol
 _atom_site_label
 _atom_site_symmetry_multiplicity
 _atom_site_fract_x
 _atom_site_fract_y
 _atom_site_fract_z
 _atom_site_occupancy
  Ni  Ni0  1  0.000000  0.345556  0.500000  1
  Ni  Ni1  1  0.500000  0.656802  0.000000  1
  Mo  Mo2  1  0.500000  0.656323  0.500000  1
  Pt  Pt3  1  0.500000  0.174227  0.751074  1
  Pt  Pt4  1  0.500000  0.174227  0.248926  1
  Pt  Pt5  1  0.000000  0.824678  0.748297  1
  Pt  Pt6  1  0.000000  0.824678  0.251703  1
  W  W7  1  0.000000  0.343506  0.000000  1
