# generated using pymatgen
data_Ti6Ga6Ru7Rh5
_symmetry_space_group_name_H-M   'P 1'
_cell_length_a   4.32566900
_cell_length_b   6.11353923
_cell_length_c   12.92654949
_cell_angle_alpha   89.96854324
_cell_angle_beta   90.00085377
_cell_angle_gamma   89.99979106
_symmetry_Int_Tables_number   1
_chemical_formula_structural   Ti6Ga6Ru7Rh5
_chemical_formula_sum   'Ti6 Ga6 Ru7 Rh5'
_cell_volume   341.84445151
_cell_formula_units_Z   1
loop_
 _symmetry_equiv_pos_site_id
 _symmetry_equiv_pos_as_xyz
  1  'x, y, z'
loop_
 _atom_site_type_symbol
 _atom_site_label
 _atom_site_symmetry_multiplicity
 _atom_site_fract_x
 _atom_site_fract_y
 _atom_site_fract_z
 _atom_site_occupancy
  Ti  Ti0  1  0.000014  0.499890  0.994890  1
  Ti  Ti1  1  0.499782  0.997566  0.168884  1
  Ti  Ti2  1  0.999793  0.504414  0.338619  1
  Ti  Ti3  1  0.500007  0.997985  0.503076  1
  Ti  Ti4  1  0.000202  0.500020  0.666167  1
  Ti  Ti5  1  0.500213  0.000075  0.828282  1
  Ga  Ga6  1  0.000004  0.999919  0.998217  1
  Ga  Ga7  1  0.499749  0.500604  0.167498  1
  Ga  Ga8  1  0.999759  0.998602  0.335398  1
  Ga  Ga9  1  0.500000  0.501122  0.501319  1
  Ga  Ga10  1  0.000243  0.999798  0.666468  1
  Ga  Ga11  1  0.500241  0.499968  0.831065  1
  Ru  Ru12  1  0.499780  0.749746  0.330128  1
  Ru  Ru13  1  0.000001  0.251339  0.498111  1
  Ru  Ru14  1  0.999996  0.748939  0.498009  1
  Ru  Ru15  1  0.500209  0.248554  0.667048  1
  Ru  Ru16  1  0.500210  0.751628  0.667320  1
  Ru  Ru17  1  0.000218  0.250911  0.836299  1
  Ru  Ru18  1  0.000218  0.749034  0.836444  1
  Rh  Rh19  1  0.500008  0.251797  0.002094  1
  Rh  Rh20  1  0.500005  0.748623  0.001993  1
  Rh  Rh21  1  0.999783  0.247691  0.166027  1
  Rh  Rh22  1  0.999784  0.751957  0.165672  1
  Rh  Rh23  1  0.499785  0.249821  0.330975  1
