# generated using pymatgen
data_LaCeCdRh2
_symmetry_space_group_name_H-M   'P 1'
_cell_length_a   7.79245800
_cell_length_b   7.75269600
_cell_length_c   3.79560000
_cell_angle_alpha   90.00000000
_cell_angle_beta   90.00000000
_cell_angle_gamma   90.00000000
_symmetry_Int_Tables_number   1
_chemical_formula_structural   LaCeCdRh2
_chemical_formula_sum   'La2 Ce2 Cd2 Rh4'
_cell_volume   229.30190502
_cell_formula_units_Z   2
loop_
 _symmetry_equiv_pos_site_id
 _symmetry_equiv_pos_as_xyz
  1  'x, y, z'
loop_
 _atom_site_type_symbol
 _atom_site_label
 _atom_site_symmetry_multiplicity
 _atom_site_fract_x
 _atom_site_fract_y
 _atom_site_fract_z
 _atom_site_occupancy
  La  La0  1  0.666642  0.168429  0.500000  1
  La  La1  1  0.166642  0.331571  0.500000  1
  Ce  Ce2  1  0.829498  0.666391  0.500000  1
  Ce  Ce3  1  0.329498  0.833609  0.500000  1
  Cd  Cd4  1  0.996584  0.998657  0.000000  1
  Cd  Cd5  1  0.496584  0.501343  0.000000  1
  Rh  Rh6  1  0.862584  0.392765  0.000000  1
  Rh  Rh7  1  0.362584  0.107235  0.000000  1
  Rh  Rh8  1  0.644693  0.847875  0.000000  1
  Rh  Rh9  1  0.144693  0.652125  0.000000  1
