# generated using pymatgen
data_Tm6Th2CdHgIr2
_symmetry_space_group_name_H-M   'P 1'
_cell_length_a   9.63616158
_cell_length_b   9.63614497
_cell_length_c   9.64228700
_cell_angle_alpha   59.97866349
_cell_angle_beta   59.97861207
_cell_angle_gamma   59.96537983
_symmetry_Int_Tables_number   1
_chemical_formula_structural   Tm6Th2CdHgIr2
_chemical_formula_sum   'Tm12 Th4 Cd2 Hg2 Ir4'
_cell_volume   632.73005661
_cell_formula_units_Z   2
loop_
 _symmetry_equiv_pos_site_id
 _symmetry_equiv_pos_as_xyz
  1  'x, y, z'
loop_
 _atom_site_type_symbol
 _atom_site_label
 _atom_site_symmetry_multiplicity
 _atom_site_fract_x
 _atom_site_fract_y
 _atom_site_fract_z
 _atom_site_occupancy
  Tm  Tm0  1  0.063200  0.436608  0.436962  1
  Tm  Tm1  1  0.436603  0.063204  0.063232  1
  Tm  Tm2  1  0.436607  0.063196  0.436965  1
  Tm  Tm3  1  0.063206  0.436609  0.063224  1
  Tm  Tm4  1  0.436589  0.436586  0.063411  1
  Tm  Tm5  1  0.062930  0.062924  0.437073  1
  Tm  Tm6  1  0.183389  0.815500  0.815328  1
  Tm  Tm7  1  0.815510  0.183392  0.185776  1
  Tm  Tm8  1  0.815503  0.183392  0.815323  1
  Tm  Tm9  1  0.183393  0.815501  0.185777  1
  Tm  Tm10  1  0.815247  0.815234  0.184758  1
  Tm  Tm11  1  0.184389  0.184393  0.815609  1
  Th  Th12  1  0.601416  0.601422  0.601124  1
  Th  Th13  1  0.601416  0.601417  0.196043  1
  Th  Th14  1  0.602112  0.194285  0.601802  1
  Th  Th15  1  0.194283  0.602117  0.601799  1
  Cd  Cd16  1  0.833280  0.497272  0.834723  1
  Cd  Cd17  1  0.497271  0.833283  0.834724  1
  Hg  Hg18  1  0.837317  0.837317  0.839858  1
  Hg  Hg19  1  0.837319  0.837321  0.485506  1
  Ir  Ir20  1  0.392410  0.392412  0.393032  1
  Ir  Ir21  1  0.392412  0.392414  0.822146  1
  Ir  Ir22  1  0.392235  0.821965  0.392902  1
  Ir  Ir23  1  0.821963  0.392235  0.392902  1
