# generated using pymatgen
data_Ta5Nb11(CrTe4)4
_symmetry_space_group_name_H-M   'P 1'
_cell_length_a   4.91025800
_cell_length_b   11.42131938
_cell_length_c   19.74051400
_cell_angle_alpha   89.98520615
_cell_angle_beta   90.00000000
_cell_angle_gamma   90.00000000
_symmetry_Int_Tables_number   1
_chemical_formula_structural   Ta5Nb11(CrTe4)4
_chemical_formula_sum   'Ta5 Nb11 Cr4 Te16'
_cell_volume   1107.08006378
_cell_formula_units_Z   1
loop_
 _symmetry_equiv_pos_site_id
 _symmetry_equiv_pos_as_xyz
  1  'x, y, z'
loop_
 _atom_site_type_symbol
 _atom_site_label
 _atom_site_symmetry_multiplicity
 _atom_site_fract_x
 _atom_site_fract_y
 _atom_site_fract_z
 _atom_site_occupancy
  Ta  Ta0  1  0.500000  0.938739  0.885954  1
  Ta  Ta1  1  0.500000  0.697886  0.535493  1
  Ta  Ta2  1  0.500000  0.302068  0.464460  1
  Ta  Ta3  1  0.500000  0.197720  0.964503  1
  Ta  Ta4  1  0.500000  0.802298  0.035502  1
  Nb  Nb5  1  0.500000  0.561775  0.384991  1
  Nb  Nb6  1  0.500000  0.438206  0.614990  1
  Nb  Nb7  1  0.500000  0.061806  0.115048  1
  Nb  Nb8  1  0.000000  0.684530  0.443542  1
  Nb  Nb9  1  0.000000  0.315439  0.556430  1
  Nb  Nb10  1  0.000000  0.184738  0.056499  1
  Nb  Nb11  1  0.000000  0.815602  0.943778  1
  Nb  Nb12  1  0.000000  0.403021  0.393258  1
  Nb  Nb13  1  0.000000  0.596956  0.606710  1
  Nb  Nb14  1  0.000000  0.902902  0.106865  1
  Nb  Nb15  1  0.000000  0.097113  0.893455  1
  Cr  Cr16  1  0.251414  0.499948  0.499997  1
  Cr  Cr17  1  0.748450  0.999929  0.999798  1
  Cr  Cr18  1  0.748586  0.499948  0.499997  1
  Cr  Cr19  1  0.251550  0.999929  0.999798  1
  Te  Te20  1  0.000000  0.834384  0.559850  1
  Te  Te21  1  0.000000  0.165584  0.440127  1
  Te  Te22  1  0.000000  0.334464  0.940114  1
  Te  Te23  1  0.000000  0.665581  0.059947  1
  Te  Te24  1  0.500000  0.336720  0.321415  1
  Te  Te25  1  0.500000  0.663245  0.678557  1
  Te  Te26  1  0.500000  0.836517  0.178489  1
  Te  Te27  1  0.500000  0.162494  0.821168  1
  Te  Te28  1  0.500000  0.809768  0.406191  1
  Te  Te29  1  0.500000  0.190223  0.593789  1
  Te  Te30  1  0.500000  0.309788  0.093610  1
  Te  Te31  1  0.500000  0.690713  0.905771  1
  Te  Te32  1  0.000000  0.603563  0.306739  1
  Te  Te33  1  0.000000  0.396420  0.693256  1
  Te  Te34  1  0.000000  0.103533  0.193256  1
  Te  Te35  1  0.000000  0.896453  0.806654  1
