# generated using pymatgen
data_Ti2MnSb2Pt
_symmetry_space_group_name_H-M   'P 1'
_cell_length_a   6.14981032
_cell_length_b   6.14981047
_cell_length_c   7.49421913
_cell_angle_alpha   65.77608191
_cell_angle_beta   65.77608467
_cell_angle_gamma   89.99999891
_symmetry_Int_Tables_number   1
_chemical_formula_structural   Ti2MnSb2Pt
_chemical_formula_sum   'Ti4 Mn2 Sb4 Pt2'
_cell_volume   230.83698383
_cell_formula_units_Z   2
loop_
 _symmetry_equiv_pos_site_id
 _symmetry_equiv_pos_as_xyz
  1  'x, y, z'
loop_
 _atom_site_type_symbol
 _atom_site_label
 _atom_site_symmetry_multiplicity
 _atom_site_fract_x
 _atom_site_fract_y
 _atom_site_fract_z
 _atom_site_occupancy
  Ti  Ti0  1  0.125000  0.117151  0.250001  1
  Ti  Ti1  1  0.624999  0.632849  0.250001  1
  Ti  Ti2  1  0.367151  0.875001  0.749999  1
  Ti  Ti3  1  0.882850  0.374999  0.750000  1
  Mn  Mn4  1  0.000000  0.000000  0.000000  1
  Mn  Mn5  1  0.250001  0.750000  0.500000  1
  Sb  Sb6  1  0.624999  0.105040  0.250001  1
  Sb  Sb7  1  0.125000  0.644961  0.250001  1
  Sb  Sb8  1  0.355038  0.375002  0.749999  1
  Sb  Sb9  1  0.894961  0.875000  0.750000  1
  Pt  Pt10  1  0.500001  0.500001  0.000000  1
  Pt  Pt11  1  0.750000  0.249999  0.500000  1
