# generated using pymatgen
data_Tb16Cd4Ni2IrRu
_symmetry_space_group_name_H-M   'P 1'
_cell_length_a   9.62671294
_cell_length_b   9.62671190
_cell_length_c   9.66788013
_cell_angle_alpha   59.84286975
_cell_angle_beta   59.84287031
_cell_angle_gamma   59.71072933
_symmetry_Int_Tables_number   1
_chemical_formula_structural   Tb16Cd4Ni2IrRu
_chemical_formula_sum   'Tb16 Cd4 Ni2 Ir1 Ru1'
_cell_volume   630.64183375
_cell_formula_units_Z   1
loop_
 _symmetry_equiv_pos_site_id
 _symmetry_equiv_pos_as_xyz
  1  'x, y, z'
loop_
 _atom_site_type_symbol
 _atom_site_label
 _atom_site_symmetry_multiplicity
 _atom_site_fract_x
 _atom_site_fract_y
 _atom_site_fract_z
 _atom_site_occupancy
  Tb  Tb0  1  0.348388  0.348388  0.345088  1
  Tb  Tb1  1  0.352757  0.352757  0.951754  1
  Tb  Tb2  1  0.352293  0.953169  0.349346  1
  Tb  Tb3  1  0.953169  0.352293  0.349346  1
  Tb  Tb4  1  0.808761  0.188385  0.190068  1
  Tb  Tb5  1  0.185731  0.811289  0.810975  1
  Tb  Tb6  1  0.188385  0.808761  0.190068  1
  Tb  Tb7  1  0.811289  0.185731  0.810975  1
  Tb  Tb8  1  0.189180  0.189180  0.809581  1
  Tb  Tb9  1  0.809837  0.809837  0.188704  1
  Tb  Tb10  1  0.937794  0.560058  0.566820  1
  Tb  Tb11  1  0.558827  0.938236  0.937476  1
  Tb  Tb12  1  0.560058  0.937794  0.566820  1
  Tb  Tb13  1  0.938236  0.558827  0.937476  1
  Tb  Tb14  1  0.565573  0.565573  0.936384  1
  Tb  Tb15  1  0.939014  0.939014  0.561484  1
  Cd  Cd16  1  0.579627  0.579627  0.582015  1
  Cd  Cd17  1  0.579581  0.579581  0.256682  1
  Cd  Cd18  1  0.580446  0.255932  0.580611  1
  Cd  Cd19  1  0.255932  0.580446  0.580611  1
  Ni  Ni20  1  0.142620  0.574668  0.141871  1
  Ni  Ni21  1  0.574668  0.142620  0.141871  1
  Ir  Ir22  1  0.144346  0.144346  0.139247  1
  Ru  Ru23  1  0.143488  0.143488  0.574726  1
