# generated using pymatgen
data_Sm2MgSi6(Pd9Pt)2
_symmetry_space_group_name_H-M   'P 1'
_cell_length_a   8.73744056
_cell_length_b   8.73744026
_cell_length_c   8.73744023
_cell_angle_alpha   59.68579686
_cell_angle_beta   59.68579930
_cell_angle_gamma   59.68579407
_symmetry_Int_Tables_number   1
_chemical_formula_structural   Sm2MgSi6(Pd9Pt)2
_chemical_formula_sum   'Sm2 Mg1 Si6 Pd18 Pt2'
_cell_volume   468.30272654
_cell_formula_units_Z   1
loop_
 _symmetry_equiv_pos_site_id
 _symmetry_equiv_pos_as_xyz
  1  'x, y, z'
loop_
 _atom_site_type_symbol
 _atom_site_label
 _atom_site_symmetry_multiplicity
 _atom_site_fract_x
 _atom_site_fract_y
 _atom_site_fract_z
 _atom_site_occupancy
  Sm  Sm0  1  0.249920  0.249920  0.249920  1
  Sm  Sm1  1  0.750080  0.750080  0.750080  1
  Mg  Mg2  1  0.000000  0.000000  0.000000  1
  Si  Si3  1  0.732006  0.266872  0.266872  1
  Si  Si4  1  0.267994  0.733128  0.733128  1
  Si  Si5  1  0.266872  0.732006  0.266872  1
  Si  Si6  1  0.733128  0.267994  0.733128  1
  Si  Si7  1  0.266872  0.266872  0.732006  1
  Si  Si8  1  0.733128  0.733128  0.267994  1
  Pd  Pd9  1  0.383233  0.383233  0.847418  1
  Pd  Pd10  1  0.383233  0.847418  0.383233  1
  Pd  Pd11  1  0.616767  0.616767  0.152582  1
  Pd  Pd12  1  0.616767  0.152582  0.616767  1
  Pd  Pd13  1  0.847418  0.383233  0.383233  1
  Pd  Pd14  1  0.152582  0.616767  0.616767  1
  Pd  Pd15  1  0.343500  0.000135  0.000135  1
  Pd  Pd16  1  0.656500  0.999865  0.999865  1
  Pd  Pd17  1  0.000000  0.343123  0.656877  1
  Pd  Pd18  1  0.000000  0.656877  0.343123  1
  Pd  Pd19  1  0.000135  0.343500  0.000135  1
  Pd  Pd20  1  0.656877  0.000000  0.343123  1
  Pd  Pd21  1  0.999865  0.656500  0.999865  1
  Pd  Pd22  1  0.343123  0.000000  0.656877  1
  Pd  Pd23  1  0.000135  0.000135  0.343500  1
  Pd  Pd24  1  0.999865  0.999865  0.656500  1
  Pd  Pd25  1  0.656877  0.343123  0.000000  1
  Pd  Pd26  1  0.343123  0.656877  0.000000  1
  Pt  Pt27  1  0.384952  0.384952  0.384952  1
  Pt  Pt28  1  0.615048  0.615048  0.615048  1
