# generated using pymatgen
data_Y15ThCd4PdPt3
_symmetry_space_group_name_H-M   'P 1'
_cell_length_a   9.73730868
_cell_length_b   9.73730942
_cell_length_c   9.73731017
_cell_angle_alpha   60.24455504
_cell_angle_beta   60.24455756
_cell_angle_gamma   60.24455991
_symmetry_Int_Tables_number   1
_chemical_formula_structural   Y15ThCd4PdPt3
_chemical_formula_sum   'Y15 Th1 Cd4 Pd1 Pt3'
_cell_volume   656.44688112
_cell_formula_units_Z   1
loop_
 _symmetry_equiv_pos_site_id
 _symmetry_equiv_pos_as_xyz
  1  'x, y, z'
loop_
 _atom_site_type_symbol
 _atom_site_label
 _atom_site_symmetry_multiplicity
 _atom_site_fract_x
 _atom_site_fract_y
 _atom_site_fract_z
 _atom_site_occupancy
  Y  Y0  1  0.355858  0.355858  0.935903  1
  Y  Y1  1  0.355858  0.935903  0.355858  1
  Y  Y2  1  0.935903  0.355858  0.355858  1
  Y  Y3  1  0.811085  0.189758  0.189758  1
  Y  Y4  1  0.190919  0.810844  0.810844  1
  Y  Y5  1  0.189758  0.811085  0.189758  1
  Y  Y6  1  0.810844  0.190919  0.810844  1
  Y  Y7  1  0.189758  0.189758  0.811085  1
  Y  Y8  1  0.810844  0.810844  0.190919  1
  Y  Y9  1  0.937134  0.565950  0.565950  1
  Y  Y10  1  0.564246  0.936704  0.936704  1
  Y  Y11  1  0.565950  0.937134  0.565950  1
  Y  Y12  1  0.936704  0.564246  0.936704  1
  Y  Y13  1  0.565950  0.565950  0.937134  1
  Y  Y14  1  0.936704  0.936704  0.564246  1
  Th  Th15  1  0.347763  0.347763  0.347763  1
  Cd  Cd16  1  0.582082  0.582082  0.582082  1
  Cd  Cd17  1  0.582055  0.582055  0.252695  1
  Cd  Cd18  1  0.582055  0.252695  0.582055  1
  Cd  Cd19  1  0.252695  0.582055  0.582055  1
  Pd  Pd20  1  0.144944  0.144944  0.144944  1
  Pt  Pt21  1  0.140528  0.140528  0.569834  1
  Pt  Pt22  1  0.140528  0.569834  0.140528  1
  Pt  Pt23  1  0.569834  0.140528  0.140528  1
