# generated using pymatgen
data_Y2NiB8Pt
_symmetry_space_group_name_H-M   'P 1'
_cell_length_a   6.93755417
_cell_length_b   6.93755376
_cell_length_c   6.93755451
_cell_angle_alpha   111.48545346
_cell_angle_beta   113.41662071
_cell_angle_gamma   103.66950400
_symmetry_Int_Tables_number   1
_chemical_formula_structural   Y2NiB8Pt
_chemical_formula_sum   'Y4 Ni2 B16 Pt2'
_cell_volume   255.00747371
_cell_formula_units_Z   2
loop_
 _symmetry_equiv_pos_site_id
 _symmetry_equiv_pos_as_xyz
  1  'x, y, z'
loop_
 _atom_site_type_symbol
 _atom_site_label
 _atom_site_symmetry_multiplicity
 _atom_site_fract_x
 _atom_site_fract_y
 _atom_site_fract_z
 _atom_site_occupancy
  Y  Y0  1  0.796845  0.796845  0.000000  1
  Y  Y1  1  0.203155  0.203155  0.000000  1
  Y  Y2  1  0.746040  0.246040  0.500000  1
  Y  Y3  1  0.253960  0.753960  0.500000  1
  Ni  Ni4  1  0.500000  0.742456  0.242456  1
  Ni  Ni5  1  0.500000  0.257544  0.757544  1
  B  B6  1  0.273382  0.108318  0.381699  1
  B  B7  1  0.726618  0.891682  0.618301  1
  B  B8  1  0.273382  0.891682  0.165064  1
  B  B9  1  0.726618  0.108318  0.834936  1
  B  B10  1  0.109996  0.735094  0.845090  1
  B  B11  1  0.890004  0.264906  0.154910  1
  B  B12  1  0.109996  0.264906  0.374902  1
  B  B13  1  0.890004  0.735094  0.625098  1
  B  B14  1  0.113270  0.106383  0.526052  1
  B  B15  1  0.580331  0.587218  0.473948  1
  B  B16  1  0.113270  0.587218  0.006887  1
  B  B17  1  0.580331  0.106383  0.993113  1
  B  B18  1  0.886730  0.893617  0.473948  1
  B  B19  1  0.419669  0.412782  0.526052  1
  B  B20  1  0.886730  0.412782  0.993113  1
  B  B21  1  0.419669  0.893617  0.006887  1
  Pt  Pt22  1  0.272615  0.500000  0.772615  1
  Pt  Pt23  1  0.727385  0.500000  0.227385  1
