# generated using pymatgen
data_Ac2P3Au
_symmetry_space_group_name_H-M   'P 1'
_cell_length_a   4.39013600
_cell_length_b   8.08719800
_cell_length_c   16.94181400
_cell_angle_alpha   90.00000000
_cell_angle_beta   90.00000000
_cell_angle_gamma   90.00000000
_symmetry_Int_Tables_number   1
_chemical_formula_structural   Ac2P3Au
_chemical_formula_sum   'Ac8 P12 Au4'
_cell_volume   601.50045447
_cell_formula_units_Z   4
loop_
 _symmetry_equiv_pos_site_id
 _symmetry_equiv_pos_as_xyz
  1  'x, y, z'
loop_
 _atom_site_type_symbol
 _atom_site_label
 _atom_site_symmetry_multiplicity
 _atom_site_fract_x
 _atom_site_fract_y
 _atom_site_fract_z
 _atom_site_occupancy
  Ac  Ac0  1  0.750000  0.907983  0.790435  1
  Ac  Ac1  1  0.250000  0.740023  0.019811  1
  Ac  Ac2  1  0.250000  0.592017  0.290435  1
  Ac  Ac3  1  0.250000  0.092017  0.209565  1
  Ac  Ac4  1  0.750000  0.759977  0.519811  1
  Ac  Ac5  1  0.250000  0.240023  0.480189  1
  Ac  Ac6  1  0.750000  0.407983  0.709565  1
  Ac  Ac7  1  0.750000  0.259977  0.980189  1
  P  P8  1  0.750000  0.609864  0.904220  1
  P  P9  1  0.750000  0.798356  0.197679  1
  P  P10  1  0.750000  0.298356  0.302321  1
  P  P11  1  0.250000  0.201644  0.802321  1
  P  P12  1  0.750000  0.966353  0.094911  1
  P  P13  1  0.250000  0.390136  0.095780  1
  P  P14  1  0.750000  0.109864  0.595780  1
  P  P15  1  0.250000  0.533647  0.594911  1
  P  P16  1  0.750000  0.466353  0.405089  1
  P  P17  1  0.250000  0.890136  0.404220  1
  P  P18  1  0.250000  0.033647  0.905089  1
  P  P19  1  0.250000  0.701644  0.697679  1
  Au  Au20  1  0.250000  0.498722  0.858377  1
  Au  Au21  1  0.750000  0.501278  0.141623  1
  Au  Au22  1  0.750000  0.001278  0.358377  1
  Au  Au23  1  0.250000  0.998722  0.641623  1
