# generated using pymatgen
data_TmLu3(B6Ru)2
_symmetry_space_group_name_H-M   'P 1'
_cell_length_a   3.59667200
_cell_length_b   9.03312103
_cell_length_c   11.40188304
_cell_angle_alpha   90.00929252
_cell_angle_beta   90.00000000
_cell_angle_gamma   90.00000000
_symmetry_Int_Tables_number   1
_chemical_formula_structural   TmLu3(B6Ru)2
_chemical_formula_sum   'Tm2 Lu6 B24 Ru4'
_cell_volume   370.43775113
_cell_formula_units_Z   2
loop_
 _symmetry_equiv_pos_site_id
 _symmetry_equiv_pos_as_xyz
  1  'x, y, z'
loop_
 _atom_site_type_symbol
 _atom_site_label
 _atom_site_symmetry_multiplicity
 _atom_site_fract_x
 _atom_site_fract_y
 _atom_site_fract_z
 _atom_site_occupancy
  Tm  Tm0  1  0.000000  0.321429  0.414033  1
  Tm  Tm1  1  0.000000  0.678571  0.585967  1
  Lu  Lu2  1  0.000000  0.821216  0.085822  1
  Lu  Lu3  1  0.000000  0.178784  0.914178  1
  Lu  Lu4  1  0.000000  0.943968  0.372681  1
  Lu  Lu5  1  0.000000  0.056032  0.627319  1
  Lu  Lu6  1  0.000000  0.443954  0.127037  1
  Lu  Lu7  1  0.000000  0.556046  0.872963  1
  B  B8  1  0.500000  0.553893  0.433539  1
  B  B9  1  0.500000  0.446107  0.566461  1
  B  B10  1  0.500000  0.053663  0.066073  1
  B  B11  1  0.500000  0.946337  0.933927  1
  B  B12  1  0.500000  0.749364  0.420177  1
  B  B13  1  0.500000  0.250636  0.579823  1
  B  B14  1  0.500000  0.249037  0.079329  1
  B  B15  1  0.500000  0.750963  0.920671  1
  B  B16  1  0.500000  0.792325  0.265380  1
  B  B17  1  0.500000  0.207675  0.734620  1
  B  B18  1  0.500000  0.292081  0.234078  1
  B  B19  1  0.500000  0.707919  0.765922  1
  B  B20  1  0.500000  0.631518  0.184116  1
  B  B21  1  0.500000  0.368482  0.815884  1
  B  B22  1  0.500000  0.131170  0.315508  1
  B  B23  1  0.500000  0.868830  0.684492  1
  B  B24  1  0.500000  0.981899  0.212810  1
  B  B25  1  0.500000  0.018101  0.787190  1
  B  B26  1  0.500000  0.482268  0.286709  1
  B  B27  1  0.500000  0.517732  0.713291  1
  B  B28  1  0.500000  0.606181  0.029306  1
  B  B29  1  0.500000  0.393819  0.970694  1
  B  B30  1  0.500000  0.105359  0.470908  1
  B  B31  1  0.500000  0.894641  0.529092  1
  Ru  Ru32  1  0.000000  0.638137  0.320646  1
  Ru  Ru33  1  0.000000  0.361863  0.679354  1
  Ru  Ru34  1  0.000000  0.137816  0.178973  1
  Ru  Ru35  1  0.000000  0.862184  0.821027  1
