# generated using pymatgen
data_Sm8MgSc11Si15Au
_symmetry_space_group_name_H-M   'P 1'
_cell_length_a   7.17786857
_cell_length_b   7.44455712
_cell_length_c   14.22313887
_cell_angle_alpha   89.93536672
_cell_angle_beta   89.63334510
_cell_angle_gamma   90.23909108
_symmetry_Int_Tables_number   1
_chemical_formula_structural   Sm8MgSc11Si15Au
_chemical_formula_sum   'Sm8 Mg1 Sc11 Si15 Au1'
_cell_volume   760.00571020
_cell_formula_units_Z   1
loop_
 _symmetry_equiv_pos_site_id
 _symmetry_equiv_pos_as_xyz
  1  'x, y, z'
loop_
 _atom_site_type_symbol
 _atom_site_label
 _atom_site_symmetry_multiplicity
 _atom_site_fract_x
 _atom_site_fract_y
 _atom_site_fract_z
 _atom_site_occupancy
  Sm  Sm0  1  0.012290  0.173613  0.097428  1
  Sm  Sm1  1  0.988985  0.821745  0.902069  1
  Sm  Sm2  1  0.483614  0.673766  0.902182  1
  Sm  Sm3  1  0.990915  0.825216  0.598059  1
  Sm  Sm4  1  0.511106  0.326740  0.096455  1
  Sm  Sm5  1  0.009147  0.173180  0.399214  1
  Sm  Sm6  1  0.509470  0.324534  0.400632  1
  Sm  Sm7  1  0.488838  0.673668  0.601379  1
  Mg  Mg8  1  0.158576  0.501105  0.748967  1
  Sc  Sc9  1  0.836755  0.499734  0.250489  1
  Sc  Sc10  1  0.338458  0.998679  0.248717  1
  Sc  Sc11  1  0.663402  0.999586  0.751906  1
  Sc  Sc12  1  0.339470  0.179894  0.626350  1
  Sc  Sc13  1  0.666533  0.824101  0.373225  1
  Sc  Sc14  1  0.167350  0.672588  0.372637  1
  Sc  Sc15  1  0.671029  0.823873  0.125210  1
  Sc  Sc16  1  0.831181  0.328239  0.624396  1
  Sc  Sc17  1  0.327152  0.179910  0.876595  1
  Sc  Sc18  1  0.834313  0.323884  0.876470  1
  Sc  Sc19  1  0.171350  0.677064  0.125128  1
  Si  Si20  1  0.034127  0.114664  0.750072  1
  Si  Si21  1  0.967204  0.880065  0.249127  1
  Si  Si22  1  0.465726  0.619876  0.248466  1
  Si  Si23  1  0.543749  0.379184  0.753247  1
  Si  Si24  1  0.289153  0.889695  0.751024  1
  Si  Si25  1  0.709837  0.123935  0.248510  1
  Si  Si26  1  0.211403  0.376031  0.248373  1
  Si  Si27  1  0.780228  0.623460  0.752125  1
  Si  Si28  1  0.834855  0.539609  0.459378  1
  Si  Si29  1  0.343073  0.959973  0.461824  1
  Si  Si30  1  0.846852  0.536700  0.038998  1
  Si  Si31  1  0.654629  0.035517  0.538394  1
  Si  Si32  1  0.154728  0.461642  0.966102  1
  Si  Si33  1  0.654839  0.034505  0.960266  1
  Si  Si34  1  0.347496  0.964810  0.039051  1
  Au  Au35  1  0.162163  0.459219  0.537539  1
