# generated using pymatgen
data_Li3Tb3AlSiAs
_symmetry_space_group_name_H-M   'P 1'
_cell_length_a   7.14221800
_cell_length_b   7.14221817
_cell_length_c   4.25170200
_cell_angle_alpha   90.00000000
_cell_angle_beta   90.00000000
_cell_angle_gamma   119.99998995
_symmetry_Int_Tables_number   1
_chemical_formula_structural   Li3Tb3AlSiAs
_chemical_formula_sum   'Li3 Tb3 Al1 Si1 As1'
_cell_volume   187.82772884
_cell_formula_units_Z   1
loop_
 _symmetry_equiv_pos_site_id
 _symmetry_equiv_pos_as_xyz
  1  'x, y, z'
loop_
 _atom_site_type_symbol
 _atom_site_label
 _atom_site_symmetry_multiplicity
 _atom_site_fract_x
 _atom_site_fract_y
 _atom_site_fract_z
 _atom_site_occupancy
  Li  Li0  1  0.245320  0.999657  0.500000  1
  Li  Li1  1  0.754337  0.754680  0.500000  1
  Li  Li2  1  0.000343  0.245663  0.500000  1
  Tb  Tb3  1  0.993406  0.563609  0.000000  1
  Tb  Tb4  1  0.570204  0.006594  0.000000  1
  Tb  Tb5  1  0.436391  0.429796  0.000000  1
  Al  Al6  1  0.000000  0.000000  0.000000  1
  Si  Si7  1  0.666667  0.333333  0.500000  1
  As  As8  1  0.333333  0.666667  0.500000  1
