# generated using pymatgen
data_In2Ni(RhSe)2
_symmetry_space_group_name_H-M   'P 1'
_cell_length_a   5.85260709
_cell_length_b   5.77607374
_cell_length_c   5.77607239
_cell_angle_alpha   59.74093099
_cell_angle_beta   57.35159028
_cell_angle_gamma   57.35159094
_symmetry_Int_Tables_number   1
_chemical_formula_structural   In2Ni(RhSe)2
_chemical_formula_sum   'In2 Ni1 Rh2 Se2'
_cell_volume   132.04429835
_cell_formula_units_Z   1
loop_
 _symmetry_equiv_pos_site_id
 _symmetry_equiv_pos_as_xyz
  1  'x, y, z'
loop_
 _atom_site_type_symbol
 _atom_site_label
 _atom_site_symmetry_multiplicity
 _atom_site_fract_x
 _atom_site_fract_y
 _atom_site_fract_z
 _atom_site_occupancy
  In  In0  1  0.000000  0.000000  0.000000  1
  In  In1  1  0.500000  0.500000  0.500000  1
  Ni  Ni2  1  0.500000  0.000000  0.000000  1
  Rh  Rh3  1  0.000000  0.000000  0.500000  1
  Rh  Rh4  1  0.000000  0.500000  0.000000  1
  Se  Se5  1  0.701012  0.719297  0.719297  1
  Se  Se6  1  0.298988  0.280703  0.280703  1
