# generated using pymatgen
data_Eu2ErTaO6
_symmetry_space_group_name_H-M   'P 1'
_cell_length_a   5.76129376
_cell_length_b   5.92207900
_cell_length_c   8.22957814
_cell_angle_alpha   90.00009476
_cell_angle_beta   89.79226545
_cell_angle_gamma   89.99971183
_symmetry_Int_Tables_number   1
_chemical_formula_structural   Eu2ErTaO6
_chemical_formula_sum   'Eu4 Er2 Ta2 O12'
_cell_volume   280.78178760
_cell_formula_units_Z   2
loop_
 _symmetry_equiv_pos_site_id
 _symmetry_equiv_pos_as_xyz
  1  'x, y, z'
loop_
 _atom_site_type_symbol
 _atom_site_label
 _atom_site_symmetry_multiplicity
 _atom_site_fract_x
 _atom_site_fract_y
 _atom_site_fract_z
 _atom_site_occupancy
  Eu  Eu0  1  0.513717  0.450812  0.249191  1
  Eu  Eu1  1  0.986278  0.950798  0.250826  1
  Eu  Eu2  1  0.013703  0.049220  0.749175  1
  Eu  Eu3  1  0.486288  0.549215  0.750823  1
  Er  Er4  1  0.499995  0.999989  0.000007  1
  Er  Er5  1  0.000004  0.499996  0.499991  1
  Ta  Ta6  1  0.000000  0.499995  0.999997  1
  Ta  Ta7  1  0.500001  0.000008  0.499995  1
  O  O8  1  0.719544  0.694856  0.047528  1
  O  O9  1  0.808840  0.221134  0.053227  1
  O  O10  1  0.094640  0.530976  0.235820  1
  O  O11  1  0.405362  0.030987  0.264182  1
  O  O12  1  0.691168  0.721145  0.446766  1
  O  O13  1  0.780460  0.194856  0.452475  1
  O  O14  1  0.219540  0.805138  0.547536  1
  O  O15  1  0.308837  0.278862  0.553251  1
  O  O16  1  0.594649  0.968999  0.735840  1
  O  O17  1  0.905350  0.469012  0.764157  1
  O  O18  1  0.191165  0.778864  0.946757  1
  O  O19  1  0.280463  0.305139  0.952455  1
