# generated using pymatgen
data_Yb2Tm2Mn3CrB16
_symmetry_space_group_name_H-M   'P 1'
_cell_length_a   3.38122700
_cell_length_b   5.88574362
_cell_length_c   11.37491208
_cell_angle_alpha   89.96149515
_cell_angle_beta   90.00000000
_cell_angle_gamma   90.00000000
_symmetry_Int_Tables_number   1
_chemical_formula_structural   Yb2Tm2Mn3CrB16
_chemical_formula_sum   'Yb2 Tm2 Mn3 Cr1 B16'
_cell_volume   226.37247503
_cell_formula_units_Z   1
loop_
 _symmetry_equiv_pos_site_id
 _symmetry_equiv_pos_as_xyz
  1  'x, y, z'
loop_
 _atom_site_type_symbol
 _atom_site_label
 _atom_site_symmetry_multiplicity
 _atom_site_fract_x
 _atom_site_fract_y
 _atom_site_fract_z
 _atom_site_occupancy
  Yb  Yb0  1  0.500000  0.374685  0.149438  1
  Yb  Yb1  1  0.500000  0.625492  0.850065  1
  Tm  Tm2  1  0.500000  0.125644  0.652207  1
  Tm  Tm3  1  0.500000  0.873834  0.347846  1
  Mn  Mn4  1  0.500000  0.623931  0.580637  1
  Mn  Mn5  1  0.500000  0.122500  0.920013  1
  Mn  Mn6  1  0.500000  0.877192  0.079445  1
  Cr  Cr7  1  0.500000  0.375494  0.419119  1
  B  B8  1  0.000000  0.113241  0.046500  1
  B  B9  1  0.000000  0.886942  0.953357  1
  B  B10  1  0.000000  0.387894  0.548170  1
  B  B11  1  0.000000  0.614931  0.453686  1
  B  B12  1  0.000000  0.136387  0.468172  1
  B  B13  1  0.000000  0.862360  0.532954  1
  B  B14  1  0.000000  0.361965  0.967156  1
  B  B15  1  0.000000  0.638144  0.032883  1
  B  B16  1  0.000000  0.023042  0.190869  1
  B  B17  1  0.000000  0.976504  0.808947  1
  B  B18  1  0.000000  0.475836  0.691793  1
  B  B19  1  0.000000  0.525872  0.308137  1
  B  B20  1  0.000000  0.217760  0.315328  1
  B  B21  1  0.000000  0.779853  0.683482  1
  B  B22  1  0.000000  0.280030  0.817026  1
  B  B23  1  0.000000  0.720466  0.182771  1
