# generated using pymatgen
data_Ho12Os2PdPt
_symmetry_space_group_name_H-M   'P 1'
_cell_length_a   6.39328453
_cell_length_b   7.28938654
_cell_length_c   9.16472200
_cell_angle_alpha   90.00000000
_cell_angle_beta   90.00000000
_cell_angle_gamma   90.46100427
_symmetry_Int_Tables_number   1
_chemical_formula_structural   Ho12Os2PdPt
_chemical_formula_sum   'Ho12 Os2 Pd1 Pt1'
_cell_volume   427.09083448
_cell_formula_units_Z   1
loop_
 _symmetry_equiv_pos_site_id
 _symmetry_equiv_pos_as_xyz
  1  'x, y, z'
loop_
 _atom_site_type_symbol
 _atom_site_label
 _atom_site_symmetry_multiplicity
 _atom_site_fract_x
 _atom_site_fract_y
 _atom_site_fract_z
 _atom_site_occupancy
  Ho  Ho0  1  0.337822  0.672342  0.058405  1
  Ho  Ho1  1  0.176018  0.184987  0.438656  1
  Ho  Ho2  1  0.666500  0.324305  0.560207  1
  Ho  Ho3  1  0.822230  0.817741  0.936717  1
  Ho  Ho4  1  0.666500  0.324305  0.939793  1
  Ho  Ho5  1  0.822230  0.817741  0.563283  1
  Ho  Ho6  1  0.337822  0.672342  0.441595  1
  Ho  Ho7  1  0.176018  0.184987  0.061344  1
  Ho  Ho8  1  0.871982  0.527961  0.250000  1
  Ho  Ho9  1  0.622553  0.040619  0.250000  1
  Ho  Ho10  1  0.125214  0.472499  0.750000  1
  Ho  Ho11  1  0.373472  0.959649  0.750000  1
  Os  Os12  1  0.458992  0.383918  0.250000  1
  Os  Os13  1  0.539572  0.615025  0.750000  1
  Pd  Pd14  1  0.046516  0.887053  0.250000  1
  Pt  Pt15  1  0.956559  0.114524  0.750000  1
