# generated using pymatgen
data_Sc12FeCo2Si12Ir
_symmetry_space_group_name_H-M   'P 1'
_cell_length_a   4.00985800
_cell_length_b   10.06070878
_cell_length_c   11.61487857
_cell_angle_alpha   89.82091997
_cell_angle_beta   90.00000000
_cell_angle_gamma   90.00000000
_symmetry_Int_Tables_number   1
_chemical_formula_structural   Sc12FeCo2Si12Ir
_chemical_formula_sum   'Sc12 Fe1 Co2 Si12 Ir1'
_cell_volume   468.56530053
_cell_formula_units_Z   1
loop_
 _symmetry_equiv_pos_site_id
 _symmetry_equiv_pos_as_xyz
  1  'x, y, z'
loop_
 _atom_site_type_symbol
 _atom_site_label
 _atom_site_symmetry_multiplicity
 _atom_site_fract_x
 _atom_site_fract_y
 _atom_site_fract_z
 _atom_site_occupancy
  Sc  Sc0  1  0.250000  0.879365  0.022425  1
  Sc  Sc1  1  0.250000  0.617203  0.524347  1
  Sc  Sc2  1  0.750000  0.123334  0.978854  1
  Sc  Sc3  1  0.750000  0.378939  0.476012  1
  Sc  Sc4  1  0.250000  0.919724  0.602468  1
  Sc  Sc5  1  0.250000  0.579794  0.101602  1
  Sc  Sc6  1  0.750000  0.078740  0.399487  1
  Sc  Sc7  1  0.750000  0.420931  0.901985  1
  Sc  Sc8  1  0.250000  0.652415  0.797939  1
  Sc  Sc9  1  0.250000  0.841626  0.299774  1
  Sc  Sc10  1  0.750000  0.343048  0.200029  1
  Sc  Sc11  1  0.750000  0.165098  0.699493  1
  Fe  Fe12  1  0.250000  0.390734  0.674213  1
  Co  Co13  1  0.250000  0.110384  0.177037  1
  Co  Co14  1  0.750000  0.610311  0.323254  1
  Si  Si15  1  0.250000  0.017196  0.821844  1
  Si  Si16  1  0.250000  0.493553  0.321279  1
  Si  Si17  1  0.750000  0.993415  0.179331  1
  Si  Si18  1  0.750000  0.501726  0.679654  1
  Si  Si19  1  0.250000  0.257441  0.837539  1
  Si  Si20  1  0.250000  0.246927  0.337216  1
  Si  Si21  1  0.750000  0.747462  0.162650  1
  Si  Si22  1  0.750000  0.746760  0.657640  1
  Si  Si23  1  0.250000  0.198977  0.545759  1
  Si  Si24  1  0.250000  0.301440  0.046819  1
  Si  Si25  1  0.750000  0.799743  0.452852  1
  Si  Si26  1  0.750000  0.693740  0.955710  1
  Ir  Ir27  1  0.750000  0.889974  0.822789  1
