# generated using pymatgen
data_Dy9HoRu3Rh
_symmetry_space_group_name_H-M   'P 1'
_cell_length_a   6.34908853
_cell_length_b   7.30438080
_cell_length_c   8.49384127
_cell_angle_alpha   96.71317747
_cell_angle_beta   111.98128215
_cell_angle_gamma   90.08021458
_symmetry_Int_Tables_number   1
_chemical_formula_structural   Dy9HoRu3Rh
_chemical_formula_sum   'Dy9 Ho1 Ru3 Rh1'
_cell_volume   362.33604612
_cell_formula_units_Z   1
loop_
 _symmetry_equiv_pos_site_id
 _symmetry_equiv_pos_as_xyz
  1  'x, y, z'
loop_
 _atom_site_type_symbol
 _atom_site_label
 _atom_site_symmetry_multiplicity
 _atom_site_fract_x
 _atom_site_fract_y
 _atom_site_fract_z
 _atom_site_occupancy
  Dy  Dy0  1  0.978804  0.917753  0.185598  1
  Dy  Dy1  1  0.791493  0.584813  0.811390  1
  Dy  Dy2  1  0.021636  0.084796  0.813767  1
  Dy  Dy3  1  0.209296  0.413892  0.185544  1
  Dy  Dy4  1  0.640487  0.816277  0.436122  1
  Dy  Dy5  1  0.209456  0.685744  0.567476  1
  Dy  Dy6  1  0.357815  0.185474  0.565372  1
  Dy  Dy7  1  0.793364  0.312931  0.435957  1
  Dy  Dy8  1  0.418946  0.750772  0.999522  1
  Ho  Ho9  1  0.578489  0.247917  0.998430  1
  Ru  Ru10  1  0.604002  0.923216  0.779853  1
  Ru  Ru11  1  0.175786  0.424885  0.779023  1
  Ru  Ru12  1  0.397810  0.076011  0.220595  1
  Rh  Rh13  1  0.822615  0.575518  0.221352  1
