# generated using pymatgen
data_PrGePdRh
_symmetry_space_group_name_H-M   'P 1'
_cell_length_a   9.63213971
_cell_length_b   9.63214002
_cell_length_c   4.19752000
_cell_angle_alpha   90.00000000
_cell_angle_beta   90.00000000
_cell_angle_gamma   155.48321205
_symmetry_Int_Tables_number   1
_chemical_formula_structural   PrGePdRh
_chemical_formula_sum   'Pr2 Ge2 Pd2 Rh2'
_cell_volume   161.60113629
_cell_formula_units_Z   2
loop_
 _symmetry_equiv_pos_site_id
 _symmetry_equiv_pos_as_xyz
  1  'x, y, z'
loop_
 _atom_site_type_symbol
 _atom_site_label
 _atom_site_symmetry_multiplicity
 _atom_site_fract_x
 _atom_site_fract_y
 _atom_site_fract_z
 _atom_site_occupancy
  Pr  Pr0  1  0.104520  0.895480  0.750000  1
  Pr  Pr1  1  0.895480  0.104520  0.250000  1
  Ge  Ge2  1  0.322019  0.677981  0.750000  1
  Ge  Ge3  1  0.677981  0.322019  0.250000  1
  Pd  Pd4  1  0.545034  0.454966  0.250000  1
  Pd  Pd5  1  0.454966  0.545034  0.750000  1
  Rh  Rh6  1  0.250703  0.749297  0.250000  1
  Rh  Rh7  1  0.749297  0.250703  0.750000  1
