# generated using pymatgen
data_Ca3Ho(SiPt2)4
_symmetry_space_group_name_H-M   'P 1'
_cell_length_a   5.55004039
_cell_length_b   6.96384200
_cell_length_c   7.37121850
_cell_angle_alpha   90.00000000
_cell_angle_beta   90.04245994
_cell_angle_gamma   90.00000000
_symmetry_Int_Tables_number   1
_chemical_formula_structural   Ca3Ho(SiPt2)4
_chemical_formula_sum   'Ca3 Ho1 Si4 Pt8'
_cell_volume   284.89460029
_cell_formula_units_Z   1
loop_
 _symmetry_equiv_pos_site_id
 _symmetry_equiv_pos_as_xyz
  1  'x, y, z'
loop_
 _atom_site_type_symbol
 _atom_site_label
 _atom_site_symmetry_multiplicity
 _atom_site_fract_x
 _atom_site_fract_y
 _atom_site_fract_z
 _atom_site_occupancy
  Ca  Ca0  1  0.370150  0.750000  0.023404  1
  Ca  Ca1  1  0.131036  0.750000  0.523543  1
  Ca  Ca2  1  0.629506  0.250000  0.976995  1
  Ho  Ho3  1  0.865470  0.250000  0.475342  1
  Si  Si4  1  0.630129  0.750000  0.376612  1
  Si  Si5  1  0.870102  0.750000  0.877732  1
  Si  Si6  1  0.367140  0.250000  0.624401  1
  Si  Si7  1  0.131090  0.250000  0.122526  1
  Pt  Pt8  1  0.903432  0.550953  0.178239  1
  Pt  Pt9  1  0.602936  0.948586  0.671866  1
  Pt  Pt10  1  0.092247  0.052978  0.823575  1
  Pt  Pt11  1  0.404074  0.446703  0.326042  1
  Pt  Pt12  1  0.092247  0.447022  0.823575  1
  Pt  Pt13  1  0.404074  0.053297  0.326042  1
  Pt  Pt14  1  0.903432  0.949047  0.178239  1
  Pt  Pt15  1  0.602936  0.551414  0.671866  1
