# generated using pymatgen
data_La2TbPr7C4I15
_symmetry_space_group_name_H-M   'P 1'
_cell_length_a   9.82787715
_cell_length_b   10.72748125
_cell_length_c   11.83631724
_cell_angle_alpha   93.89293118
_cell_angle_beta   114.17388133
_cell_angle_gamma   109.39860344
_symmetry_Int_Tables_number   1
_chemical_formula_structural   La2TbPr7C4I15
_chemical_formula_sum   'La2 Tb1 Pr7 C4 I15'
_cell_volume   1043.24138612
_cell_formula_units_Z   1
loop_
 _symmetry_equiv_pos_site_id
 _symmetry_equiv_pos_as_xyz
  1  'x, y, z'
loop_
 _atom_site_type_symbol
 _atom_site_label
 _atom_site_symmetry_multiplicity
 _atom_site_fract_x
 _atom_site_fract_y
 _atom_site_fract_z
 _atom_site_occupancy
  La  La0  1  0.292271  0.432151  0.955391  1
  La  La1  1  0.658559  0.253548  0.831866  1
  Tb  Tb2  1  0.594870  0.545401  0.336308  1
  Pr  Pr3  1  0.346314  0.747367  0.165433  1
  Pr  Pr4  1  0.777570  0.883681  0.258401  1
  Pr  Pr5  1  0.527848  0.185101  0.102186  1
  Pr  Pr6  1  0.223529  0.115199  0.742695  1
  Pr  Pr7  1  0.402256  0.458532  0.657736  1
  Pr  Pr8  1  0.472944  0.814876  0.898922  1
  Pr  Pr9  1  0.704295  0.568759  0.045184  1
  C  C10  1  0.483506  0.300584  0.937664  1
  C  C11  1  0.518797  0.698568  0.062829  1
  C  C12  1  0.453578  0.362313  0.834721  1
  C  C13  1  0.547043  0.636462  0.165942  1
  I  I14  1  0.206559  0.906572  0.937819  1
  I  I15  1  0.103816  0.187272  0.468051  1
  I  I16  1  0.151192  0.556497  0.701915  1
  I  I17  1  0.401338  0.965396  0.644601  1
  I  I18  1  0.714654  0.734097  0.821806  1
  I  I19  1  0.295508  0.271942  0.186882  1
  I  I20  1  0.841910  0.447488  0.301042  1
  I  I21  1  0.886629  0.802228  0.528604  1
  I  I22  1  0.366769  0.628351  0.412172  1
  I  I23  1  0.053855  0.832707  0.221402  1
  I  I24  1  0.794145  0.094352  0.064363  1
  I  I25  1  0.640659  0.374564  0.581983  1
  I  I26  1  0.943279  0.163096  0.777632  1
  I  I27  1  0.594953  0.030196  0.353675  1
  I  I28  1  0.001355  0.502697  0.002774  1
