# generated using pymatgen
data_LaNd7(NiHg)2
_symmetry_space_group_name_H-M   'P 1'
_cell_length_a   9.84316461
_cell_length_b   9.84316491
_cell_length_c   9.87866500
_cell_angle_alpha   59.88062028
_cell_angle_beta   59.88061928
_cell_angle_gamma   60.07425497
_symmetry_Int_Tables_number   1
_chemical_formula_structural   LaNd7(NiHg)2
_chemical_formula_sum   'La2 Nd14 Ni4 Hg4'
_cell_volume   675.94131805
_cell_formula_units_Z   2
loop_
 _symmetry_equiv_pos_site_id
 _symmetry_equiv_pos_as_xyz
  1  'x, y, z'
loop_
 _atom_site_type_symbol
 _atom_site_label
 _atom_site_symmetry_multiplicity
 _atom_site_fract_x
 _atom_site_fract_y
 _atom_site_fract_z
 _atom_site_occupancy
  La  La0  1  0.597361  0.597361  0.599207  1
  La  La1  1  0.597361  0.597361  0.206071  1
  Nd  Nd2  1  0.601028  0.196634  0.601169  1
  Nd  Nd3  1  0.196634  0.601028  0.601169  1
  Nd  Nd4  1  0.061784  0.439993  0.439228  1
  Nd  Nd5  1  0.439993  0.061784  0.058995  1
  Nd  Nd6  1  0.439993  0.061784  0.439228  1
  Nd  Nd7  1  0.061784  0.439993  0.058995  1
  Nd  Nd8  1  0.440253  0.440253  0.059747  1
  Nd  Nd9  1  0.059220  0.059220  0.440780  1
  Nd  Nd10  1  0.188729  0.812992  0.814122  1
  Nd  Nd11  1  0.812992  0.188729  0.184157  1
  Nd  Nd12  1  0.812992  0.188729  0.814122  1
  Nd  Nd13  1  0.188729  0.812992  0.184157  1
  Nd  Nd14  1  0.812937  0.812937  0.187063  1
  Nd  Nd15  1  0.187276  0.187276  0.812724  1
  Ni  Ni16  1  0.391311  0.391311  0.395381  1
  Ni  Ni17  1  0.391311  0.391311  0.821997  1
  Ni  Ni18  1  0.391713  0.823588  0.392350  1
  Ni  Ni19  1  0.823588  0.391713  0.392350  1
  Hg  Hg20  1  0.834565  0.834565  0.832786  1
  Hg  Hg21  1  0.834565  0.834565  0.498085  1
  Hg  Hg22  1  0.834376  0.499507  0.833059  1
  Hg  Hg23  1  0.499507  0.834376  0.833059  1
