# generated using pymatgen
data_Ho11TmZnInCo4
_symmetry_space_group_name_H-M   'P 1'
_cell_length_a   8.27344177
_cell_length_b   8.27229037
_cell_length_c   8.27344235
_cell_angle_alpha   111.53590733
_cell_angle_beta   110.25570340
_cell_angle_gamma   106.66624285
_symmetry_Int_Tables_number   1
_chemical_formula_structural   Ho11TmZnInCo4
_chemical_formula_sum   'Ho11 Tm1 Zn1 In1 Co4'
_cell_volume   435.02278693
_cell_formula_units_Z   1
loop_
 _symmetry_equiv_pos_site_id
 _symmetry_equiv_pos_as_xyz
  1  'x, y, z'
loop_
 _atom_site_type_symbol
 _atom_site_label
 _atom_site_symmetry_multiplicity
 _atom_site_fract_x
 _atom_site_fract_y
 _atom_site_fract_z
 _atom_site_occupancy
  Ho  Ho0  1  0.684815  0.381269  0.696454  1
  Ho  Ho1  1  0.315150  0.011357  0.696208  1
  Ho  Ho2  1  0.684680  0.988221  0.303540  1
  Ho  Ho3  1  0.185006  0.286347  0.471023  1
  Ho  Ho4  1  0.814813  0.713787  0.528776  1
  Ho  Ho5  1  0.185011  0.713787  0.898974  1
  Ho  Ho6  1  0.815323  0.286347  0.101341  1
  Ho  Ho7  1  0.429021  0.225389  0.203840  1
  Ho  Ho8  1  0.570725  0.774672  0.795786  1
  Ho  Ho9  1  0.021550  0.225389  0.796369  1
  Ho  Ho10  1  0.978885  0.774672  0.203946  1
  Tm  Tm11  1  0.315262  0.619218  0.303956  1
  Zn  Zn12  1  0.999993  0.000012  0.000019  1
  In  In13  1  0.499899  0.500045  0.000146  1
  Co  Co14  1  0.112975  0.612870  0.499895  1
  Co  Co15  1  0.887245  0.387247  0.500002  1
  Co  Co16  1  0.375741  0.999686  0.375779  1
  Co  Co17  1  0.623907  0.999686  0.623945  1
