# generated using pymatgen
data_Ho16Cd2Hg2Ir3Ru
_symmetry_space_group_name_H-M   'P 1'
_cell_length_a   9.58657871
_cell_length_b   9.58657877
_cell_length_c   9.58702306
_cell_angle_alpha   59.81689668
_cell_angle_beta   59.81689523
_cell_angle_gamma   59.84798103
_symmetry_Int_Tables_number   1
_chemical_formula_structural   Ho16Cd2Hg2Ir3Ru
_chemical_formula_sum   'Ho16 Cd2 Hg2 Ir3 Ru1'
_cell_volume   620.56871154
_cell_formula_units_Z   1
loop_
 _symmetry_equiv_pos_site_id
 _symmetry_equiv_pos_as_xyz
  1  'x, y, z'
loop_
 _atom_site_type_symbol
 _atom_site_label
 _atom_site_symmetry_multiplicity
 _atom_site_fract_x
 _atom_site_fract_y
 _atom_site_fract_z
 _atom_site_occupancy
  Ho  Ho0  1  0.599136  0.599136  0.598700  1
  Ho  Ho1  1  0.599550  0.599550  0.203360  1
  Ho  Ho2  1  0.600445  0.201121  0.599863  1
  Ho  Ho3  1  0.201121  0.600445  0.599863  1
  Ho  Ho4  1  0.061271  0.438697  0.439549  1
  Ho  Ho5  1  0.438258  0.059916  0.060046  1
  Ho  Ho6  1  0.438697  0.061271  0.439549  1
  Ho  Ho7  1  0.059916  0.438258  0.060046  1
  Ho  Ho8  1  0.438632  0.438632  0.061783  1
  Ho  Ho9  1  0.059226  0.059226  0.439410  1
  Ho  Ho10  1  0.188141  0.811276  0.811913  1
  Ho  Ho11  1  0.809752  0.187668  0.189505  1
  Ho  Ho12  1  0.811276  0.188141  0.811913  1
  Ho  Ho13  1  0.187668  0.809752  0.189505  1
  Ho  Ho14  1  0.811488  0.811488  0.189389  1
  Ho  Ho15  1  0.188554  0.188554  0.810024  1
  Cd  Cd16  1  0.830313  0.507393  0.830823  1
  Cd  Cd17  1  0.507393  0.830313  0.830823  1
  Hg  Hg18  1  0.833345  0.833345  0.835266  1
  Hg  Hg19  1  0.833961  0.833961  0.495898  1
  Ir  Ir20  1  0.392930  0.392930  0.825054  1
  Ir  Ir21  1  0.392619  0.825354  0.393150  1
  Ir  Ir22  1  0.825354  0.392619  0.393150  1
  Ru  Ru23  1  0.390953  0.390953  0.391417  1
