# generated using pymatgen
data_Eu2ErTm(Si5Pt3)2
_symmetry_space_group_name_H-M   'P 1'
_cell_length_a   8.24701087
_cell_length_b   8.23359844
_cell_length_c   8.23359901
_cell_angle_alpha   136.83181359
_cell_angle_beta   104.29215100
_cell_angle_gamma   91.33768165
_symmetry_Int_Tables_number   1
_chemical_formula_structural   Eu2ErTm(Si5Pt3)2
_chemical_formula_sum   'Eu2 Er1 Tm1 Si10 Pt6'
_cell_volume   352.77894883
_cell_formula_units_Z   1
loop_
 _symmetry_equiv_pos_site_id
 _symmetry_equiv_pos_as_xyz
  1  'x, y, z'
loop_
 _atom_site_type_symbol
 _atom_site_label
 _atom_site_symmetry_multiplicity
 _atom_site_fract_x
 _atom_site_fract_y
 _atom_site_fract_z
 _atom_site_occupancy
  Eu  Eu0  1  0.637450  0.370876  0.266575  1
  Eu  Eu1  1  0.362555  0.629162  0.733393  1
  Er  Er2  1  0.100906  0.871152  0.229755  1
  Tm  Tm3  1  0.899191  0.128974  0.770217  1
  Si  Si4  1  0.999928  0.743161  0.743092  1
  Si  Si5  1  0.999928  0.256836  0.256766  1
  Si  Si6  1  0.271165  0.019062  0.749521  1
  Si  Si7  1  0.728822  0.478141  0.747808  1
  Si  Si8  1  0.728822  0.981014  0.250681  1
  Si  Si9  1  0.271165  0.521644  0.252104  1
  Si  Si10  1  0.761685  0.612820  0.148863  1
  Si  Si11  1  0.238138  0.386993  0.851145  1
  Si  Si12  1  0.455755  0.109240  0.346515  1
  Si  Si13  1  0.544677  0.891105  0.653571  1
  Pt  Pt14  1  0.499952  0.752123  0.252099  1
  Pt  Pt15  1  0.499952  0.247853  0.747829  1
  Pt  Pt16  1  0.023051  0.640341  0.382710  1
  Pt  Pt17  1  0.976802  0.359430  0.617372  1
  Pt  Pt18  1  0.243235  0.133160  0.110076  1
  Pt  Pt19  1  0.756820  0.866914  0.889906  1
