# generated using pymatgen
data_Y3Tm5(AlPd)2
_symmetry_space_group_name_H-M   'P 1'
_cell_length_a   9.55491688
_cell_length_b   9.55491753
_cell_length_c   9.55491700
_cell_angle_alpha   60.00000530
_cell_angle_beta   60.00000304
_cell_angle_gamma   60.00000429
_symmetry_Int_Tables_number   1
_chemical_formula_structural   Y3Tm5(AlPd)2
_chemical_formula_sum   'Y6 Tm10 Al4 Pd4'
_cell_volume   616.83046995
_cell_formula_units_Z   2
loop_
 _symmetry_equiv_pos_site_id
 _symmetry_equiv_pos_as_xyz
  1  'x, y, z'
loop_
 _atom_site_type_symbol
 _atom_site_label
 _atom_site_symmetry_multiplicity
 _atom_site_fract_x
 _atom_site_fract_y
 _atom_site_fract_z
 _atom_site_occupancy
  Y  Y0  1  0.936180  0.563820  0.563820  1
  Y  Y1  1  0.563820  0.936180  0.936180  1
  Y  Y2  1  0.563820  0.936180  0.563820  1
  Y  Y3  1  0.936180  0.563820  0.936180  1
  Y  Y4  1  0.563820  0.563820  0.936180  1
  Y  Y5  1  0.936180  0.936180  0.563820  1
  Tm  Tm6  1  0.355208  0.355208  0.355208  1
  Tm  Tm7  1  0.355208  0.355208  0.934375  1
  Tm  Tm8  1  0.355208  0.934375  0.355208  1
  Tm  Tm9  1  0.934375  0.355208  0.355208  1
  Tm  Tm10  1  0.807967  0.192033  0.192033  1
  Tm  Tm11  1  0.192033  0.807967  0.807967  1
  Tm  Tm12  1  0.192033  0.807967  0.192033  1
  Tm  Tm13  1  0.807967  0.192033  0.807967  1
  Tm  Tm14  1  0.192033  0.192033  0.807967  1
  Tm  Tm15  1  0.807967  0.807967  0.192033  1
  Al  Al16  1  0.577520  0.577520  0.577520  1
  Al  Al17  1  0.577520  0.577520  0.267442  1
  Al  Al18  1  0.577520  0.267442  0.577520  1
  Al  Al19  1  0.267442  0.577520  0.577520  1
  Pd  Pd20  1  0.144653  0.144653  0.144653  1
  Pd  Pd21  1  0.144653  0.144653  0.566041  1
  Pd  Pd22  1  0.144653  0.566041  0.144653  1
  Pd  Pd23  1  0.566041  0.144653  0.144653  1
