# generated using pymatgen
data_Ba8Y4Al3GaO20
_symmetry_space_group_name_H-M   'P 1'
_cell_length_a   6.10007239
_cell_length_b   7.77774482
_cell_length_c   12.71845038
_cell_angle_alpha   91.73305373
_cell_angle_beta   89.95988580
_cell_angle_gamma   90.00892261
_symmetry_Int_Tables_number   1
_chemical_formula_structural   Ba8Y4Al3GaO20
_chemical_formula_sum   'Ba8 Y4 Al3 Ga1 O20'
_cell_volume   603.14824428
_cell_formula_units_Z   1
loop_
 _symmetry_equiv_pos_site_id
 _symmetry_equiv_pos_as_xyz
  1  'x, y, z'
loop_
 _atom_site_type_symbol
 _atom_site_label
 _atom_site_symmetry_multiplicity
 _atom_site_fract_x
 _atom_site_fract_y
 _atom_site_fract_z
 _atom_site_occupancy
  Ba  Ba0  1  0.760496  0.479529  0.346759  1
  Ba  Ba1  1  0.738109  0.981872  0.845225  1
  Ba  Ba2  1  0.239662  0.518160  0.652490  1
  Ba  Ba3  1  0.261594  0.020837  0.154936  1
  Ba  Ba4  1  0.755564  0.995815  0.378326  1
  Ba  Ba5  1  0.742666  0.494127  0.877430  1
  Ba  Ba6  1  0.245069  0.005705  0.619999  1
  Ba  Ba7  1  0.256589  0.504257  0.122743  1
  Y  Y8  1  0.749872  0.267284  0.625852  1
  Y  Y9  1  0.750688  0.767001  0.128151  1
  Y  Y10  1  0.250219  0.732348  0.374660  1
  Y  Y11  1  0.249556  0.232283  0.873848  1
  Al  Al12  1  0.736644  0.744612  0.579992  1
  Al  Al13  1  0.763771  0.243817  0.080275  1
  Al  Al14  1  0.263519  0.255697  0.419781  1
  Ga  Ga15  1  0.235482  0.757113  0.918664  1
  O  O16  1  0.759615  0.963791  0.628199  1
  O  O17  1  0.741013  0.462331  0.130000  1
  O  O18  1  0.240772  0.036731  0.371280  1
  O  O19  1  0.262344  0.528487  0.869607  1
  O  O20  1  0.735427  0.075299  0.171881  1
  O  O21  1  0.765202  0.575144  0.670594  1
  O  O22  1  0.269585  0.932865  0.824392  1
  O  O23  1  0.235647  0.425258  0.329272  1
  O  O24  1  0.540828  0.745617  0.271319  1
  O  O25  1  0.959934  0.246113  0.768933  1
  O  O26  1  0.460876  0.254314  0.729904  1
  O  O27  1  0.041595  0.753948  0.230979  1
  O  O28  1  0.552460  0.222694  0.981585  1
  O  O29  1  0.947679  0.723561  0.481207  1
  O  O30  1  0.450594  0.777417  0.024075  1
  O  O31  1  0.051994  0.276980  0.518195  1
  O  O32  1  0.029397  0.229770  0.019394  1
  O  O33  1  0.470741  0.730869  0.519578  1
  O  O34  1  0.956109  0.769438  0.979721  1
  O  O35  1  0.528688  0.268915  0.480753  1
