# generated using pymatgen
data_Ca2ScUO6
_symmetry_space_group_name_H-M   'P 1'
_cell_length_a   5.87592100
_cell_length_b   5.67979479
_cell_length_c   9.93502745
_cell_angle_alpha   55.39944637
_cell_angle_beta   90.00000000
_cell_angle_gamma   90.00000000
_symmetry_Int_Tables_number   1
_chemical_formula_structural   Ca2ScUO6
_chemical_formula_sum   'Ca4 Sc2 U2 O12'
_cell_volume   272.92703710
_cell_formula_units_Z   2
loop_
 _symmetry_equiv_pos_site_id
 _symmetry_equiv_pos_as_xyz
  1  'x, y, z'
loop_
 _atom_site_type_symbol
 _atom_site_label
 _atom_site_symmetry_multiplicity
 _atom_site_fract_x
 _atom_site_fract_y
 _atom_site_fract_z
 _atom_site_occupancy
  Ca  Ca0  1  0.448079  0.235225  0.750710  1
  Ca  Ca1  1  0.551921  0.764775  0.249290  1
  Ca  Ca2  1  0.948079  0.764775  0.749290  1
  Ca  Ca3  1  0.051921  0.235225  0.250710  1
  Sc  Sc4  1  0.000000  0.000000  0.000000  1
  Sc  Sc5  1  0.500000  0.000000  0.500000  1
  U  U6  1  0.000000  0.500000  0.500000  1
  U  U7  1  0.500000  0.500000  0.000000  1
  O  O8  1  0.046997  0.360593  0.751576  1
  O  O9  1  0.953003  0.639407  0.248424  1
  O  O10  1  0.546997  0.639407  0.748424  1
  O  O11  1  0.453003  0.360593  0.251576  1
  O  O12  1  0.699319  0.863172  0.941735  1
  O  O13  1  0.300681  0.136828  0.058265  1
  O  O14  1  0.199319  0.136828  0.558265  1
  O  O15  1  0.800681  0.863172  0.441735  1
  O  O16  1  0.197956  0.759258  0.939232  1
  O  O17  1  0.802044  0.240742  0.060768  1
  O  O18  1  0.697956  0.240742  0.560768  1
  O  O19  1  0.302044  0.759258  0.439232  1
