# generated using pymatgen
data_Yb13Tm(GeN4)2
_symmetry_space_group_name_H-M   'P 1'
_cell_length_a   3.41248900
_cell_length_b   11.62273901
_cell_length_c   11.12775700
_cell_angle_alpha   89.99715068
_cell_angle_beta   90.00000000
_cell_angle_gamma   90.00000000
_symmetry_Int_Tables_number   1
_chemical_formula_structural   Yb13Tm(GeN4)2
_chemical_formula_sum   'Yb13 Tm1 Ge2 N8'
_cell_volume   441.35431691
_cell_formula_units_Z   1
loop_
 _symmetry_equiv_pos_site_id
 _symmetry_equiv_pos_as_xyz
  1  'x, y, z'
loop_
 _atom_site_type_symbol
 _atom_site_label
 _atom_site_symmetry_multiplicity
 _atom_site_fract_x
 _atom_site_fract_y
 _atom_site_fract_z
 _atom_site_occupancy
  Yb  Yb0  1  0.499852  0.649311  0.257786  1
  Yb  Yb1  1  0.499852  0.350689  0.742214  1
  Yb  Yb2  1  0.499949  0.153316  0.240262  1
  Yb  Yb3  1  0.499949  0.846684  0.759738  1
  Yb  Yb4  1  0.500024  0.000000  0.500000  1
  Yb  Yb5  1  0.000005  0.920712  0.256063  1
  Yb  Yb6  1  0.000005  0.079288  0.743937  1
  Yb  Yb7  1  0.999931  0.414966  0.245768  1
  Yb  Yb8  1  0.999931  0.585034  0.754232  1
  Yb  Yb9  1  0.000101  0.757628  0.488794  1
  Yb  Yb10  1  0.000101  0.242372  0.511206  1
  Yb  Yb11  1  0.999782  0.254233  0.007798  1
  Yb  Yb12  1  0.999782  0.745767  0.992202  1
  Tm  Tm13  1  0.499878  0.500000  0.000000  1
  Ge  Ge14  1  0.498774  0.500000  0.500000  1
  Ge  Ge15  1  0.502665  0.000000  0.000000  1
  N  N16  1  0.999811  0.588791  0.126864  1
  N  N17  1  0.999811  0.411209  0.873136  1
  N  N18  1  0.999937  0.099730  0.363814  1
  N  N19  1  0.999937  0.900270  0.636186  1
  N  N20  1  0.500026  0.824921  0.357974  1
  N  N21  1  0.500026  0.175079  0.642026  1
  N  N22  1  0.499934  0.333487  0.130626  1
  N  N23  1  0.499934  0.666513  0.869374  1
