# generated using pymatgen
data_Hf4Ti2CuRh9
_symmetry_space_group_name_H-M   'P 1'
_cell_length_a   4.25145200
_cell_length_b   5.51460440
_cell_length_c   10.83243407
_cell_angle_alpha   91.19295639
_cell_angle_beta   90.00000000
_cell_angle_gamma   90.00000000
_symmetry_Int_Tables_number   1
_chemical_formula_structural   Hf4Ti2CuRh9
_chemical_formula_sum   'Hf4 Ti2 Cu1 Rh9'
_cell_volume   253.91219165
_cell_formula_units_Z   1
loop_
 _symmetry_equiv_pos_site_id
 _symmetry_equiv_pos_as_xyz
  1  'x, y, z'
loop_
 _atom_site_type_symbol
 _atom_site_label
 _atom_site_symmetry_multiplicity
 _atom_site_fract_x
 _atom_site_fract_y
 _atom_site_fract_z
 _atom_site_occupancy
  Hf  Hf0  1  0.500000  0.355882  0.141376  1
  Hf  Hf1  1  0.500000  0.665152  0.856156  1
  Hf  Hf2  1  0.500000  0.823716  0.359886  1
  Hf  Hf3  1  0.500000  0.154827  0.643272  1
  Ti  Ti4  1  0.000000  0.016328  0.995695  1
  Ti  Ti5  1  0.000000  0.484105  0.499901  1
  Cu  Cu6  1  0.000000  0.092423  0.252922  1
  Rh  Rh7  1  0.000000  0.985377  0.498295  1
  Rh  Rh8  1  0.000000  0.507908  0.998855  1
  Rh  Rh9  1  0.000000  0.901869  0.763830  1
  Rh  Rh10  1  0.000000  0.594311  0.257254  1
  Rh  Rh11  1  0.000000  0.401746  0.734746  1
  Rh  Rh12  1  0.500000  0.310917  0.391531  1
  Rh  Rh13  1  0.500000  0.670630  0.603733  1
  Rh  Rh14  1  0.500000  0.850423  0.107420  1
  Rh  Rh15  1  0.500000  0.184385  0.895126  1
