# generated using pymatgen
data_Zn14AgB6Ir12Rh5
_symmetry_space_group_name_H-M   'P 1'
_cell_length_a   2.89699900
_cell_length_b   11.45507600
_cell_length_c   14.95928300
_cell_angle_alpha   90.00000000
_cell_angle_beta   90.00000000
_cell_angle_gamma   90.00000000
_symmetry_Int_Tables_number   1
_chemical_formula_structural   Zn14AgB6Ir12Rh5
_chemical_formula_sum   'Zn14 Ag1 B6 Ir12 Rh5'
_cell_volume   496.42894811
_cell_formula_units_Z   1
loop_
 _symmetry_equiv_pos_site_id
 _symmetry_equiv_pos_as_xyz
  1  'x, y, z'
loop_
 _atom_site_type_symbol
 _atom_site_label
 _atom_site_symmetry_multiplicity
 _atom_site_fract_x
 _atom_site_fract_y
 _atom_site_fract_z
 _atom_site_occupancy
  Zn  Zn0  1  0.500000  0.500000  0.349236  1
  Zn  Zn1  1  0.500000  0.000000  0.652803  1
  Zn  Zn2  1  0.500000  0.389088  0.997978  1
  Zn  Zn3  1  0.500000  0.114773  0.995818  1
  Zn  Zn4  1  0.500000  0.610912  0.997978  1
  Zn  Zn5  1  0.500000  0.885227  0.995818  1
  Zn  Zn6  1  0.500000  0.372260  0.769744  1
  Zn  Zn7  1  0.500000  0.137406  0.236080  1
  Zn  Zn8  1  0.500000  0.627740  0.769744  1
  Zn  Zn9  1  0.500000  0.862594  0.236080  1
  Zn  Zn10  1  0.500000  0.297801  0.603597  1
  Zn  Zn11  1  0.500000  0.203900  0.398864  1
  Zn  Zn12  1  0.500000  0.702199  0.603597  1
  Zn  Zn13  1  0.500000  0.796100  0.398864  1
  Ag  Ag14  1  0.000000  0.000000  0.126299  1
  B  B15  1  0.500000  0.500000  0.529877  1
  B  B16  1  0.500000  0.000000  0.470778  1
  B  B17  1  0.500000  0.143549  0.821255  1
  B  B18  1  0.500000  0.357684  0.177464  1
  B  B19  1  0.500000  0.856451  0.821255  1
  B  B20  1  0.500000  0.642316  0.177464  1
  Ir  Ir21  1  0.000000  0.247628  0.893484  1
  Ir  Ir22  1  0.000000  0.253366  0.103230  1
  Ir  Ir23  1  0.000000  0.752372  0.893484  1
  Ir  Ir24  1  0.000000  0.746634  0.103230  1
  Ir  Ir25  1  0.000000  0.172559  0.716577  1
  Ir  Ir26  1  0.000000  0.329652  0.282590  1
  Ir  Ir27  1  0.000000  0.827441  0.716577  1
  Ir  Ir28  1  0.000000  0.670348  0.282590  1
  Ir  Ir29  1  0.000000  0.121620  0.529318  1
  Ir  Ir30  1  0.000000  0.377979  0.471366  1
  Ir  Ir31  1  0.000000  0.878380  0.529318  1
  Ir  Ir32  1  0.000000  0.622021  0.471366  1
  Rh  Rh33  1  0.000000  0.500000  0.643492  1
  Rh  Rh34  1  0.000000  0.000000  0.355716  1
  Rh  Rh35  1  0.000000  0.500000  0.136502  1
  Rh  Rh36  1  0.000000  0.000000  0.863263  1
  Rh  Rh37  1  0.000000  0.500000  0.877297  1
