# generated using pymatgen
data_Dy5Er11(HgIr)4
_symmetry_space_group_name_H-M   'P 1'
_cell_length_a   9.55488376
_cell_length_b   9.55422326
_cell_length_c   9.55422302
_cell_angle_alpha   60.00312443
_cell_angle_beta   59.99771439
_cell_angle_gamma   59.99771460
_symmetry_Int_Tables_number   1
_chemical_formula_structural   Dy5Er11(HgIr)4
_chemical_formula_sum   'Dy5 Er11 Hg4 Ir4'
_cell_volume   616.73191024
_cell_formula_units_Z   1
loop_
 _symmetry_equiv_pos_site_id
 _symmetry_equiv_pos_as_xyz
  1  'x, y, z'
loop_
 _atom_site_type_symbol
 _atom_site_label
 _atom_site_symmetry_multiplicity
 _atom_site_fract_x
 _atom_site_fract_y
 _atom_site_fract_z
 _atom_site_occupancy
  Dy  Dy0  1  0.811283  0.188717  0.188717  1
  Dy  Dy1  1  0.811751  0.188554  0.811240  1
  Dy  Dy2  1  0.188455  0.811240  0.188554  1
  Dy  Dy3  1  0.811751  0.811240  0.188554  1
  Dy  Dy4  1  0.188455  0.188554  0.811240  1
  Er  Er5  1  0.600030  0.600764  0.600764  1
  Er  Er6  1  0.600480  0.601187  0.197852  1
  Er  Er7  1  0.600480  0.197852  0.601187  1
  Er  Er8  1  0.198441  0.600764  0.600764  1
  Er  Er9  1  0.060387  0.439613  0.439613  1
  Er  Er10  1  0.439587  0.060413  0.060413  1
  Er  Er11  1  0.439866  0.059852  0.439581  1
  Er  Er12  1  0.060700  0.439581  0.059852  1
  Er  Er13  1  0.439866  0.439581  0.059852  1
  Er  Er14  1  0.060700  0.059852  0.439581  1
  Er  Er15  1  0.188826  0.811174  0.811174  1
  Hg  Hg16  1  0.835010  0.834497  0.834497  1
  Hg  Hg17  1  0.834636  0.834732  0.495997  1
  Hg  Hg18  1  0.834636  0.495997  0.834732  1
  Hg  Hg19  1  0.495998  0.834497  0.834497  1
  Ir  Ir20  1  0.391507  0.392242  0.392242  1
  Ir  Ir21  1  0.391573  0.392885  0.823971  1
  Ir  Ir22  1  0.391573  0.823971  0.392885  1
  Ir  Ir23  1  0.824011  0.392242  0.392242  1
