# generated using pymatgen
data_Sc4Be2ZnOs5
_symmetry_space_group_name_H-M   'P 1'
_cell_length_a   4.95679458
_cell_length_b   5.10549913
_cell_length_c   8.55413600
_cell_angle_alpha   90.00000000
_cell_angle_beta   90.00000000
_cell_angle_gamma   119.09304139
_symmetry_Int_Tables_number   1
_chemical_formula_structural   Sc4Be2ZnOs5
_chemical_formula_sum   'Sc4 Be2 Zn1 Os5'
_cell_volume   189.16590659
_cell_formula_units_Z   1
loop_
 _symmetry_equiv_pos_site_id
 _symmetry_equiv_pos_as_xyz
  1  'x, y, z'
loop_
 _atom_site_type_symbol
 _atom_site_label
 _atom_site_symmetry_multiplicity
 _atom_site_fract_x
 _atom_site_fract_y
 _atom_site_fract_z
 _atom_site_occupancy
  Sc  Sc0  1  0.325205  0.664873  0.432465  1
  Sc  Sc1  1  0.647584  0.318066  0.557970  1
  Sc  Sc2  1  0.647584  0.318066  0.942030  1
  Sc  Sc3  1  0.325205  0.664873  0.067535  1
  Be  Be4  1  0.203700  0.856924  0.750000  1
  Be  Be5  1  0.335219  0.168522  0.250000  1
  Zn  Zn6  1  0.189572  0.361542  0.750000  1
  Os  Os7  1  0.828679  0.654001  0.250000  1
  Os  Os8  1  0.690236  0.846213  0.750000  1
  Os  Os9  1  0.989355  0.987434  0.997489  1
  Os  Os10  1  0.828306  0.172052  0.250000  1
  Os  Os11  1  0.989355  0.987434  0.502511  1
