# generated using pymatgen
data_Pr3Nd(GaPt)4
_symmetry_space_group_name_H-M   'P 1'
_cell_length_a   4.52027700
_cell_length_b   7.18950377
_cell_length_c   7.89201068
_cell_angle_alpha   90.56201543
_cell_angle_beta   90.00000000
_cell_angle_gamma   90.00000000
_symmetry_Int_Tables_number   1
_chemical_formula_structural   Pr3Nd(GaPt)4
_chemical_formula_sum   'Pr3 Nd1 Ga4 Pt4'
_cell_volume   256.46655367
_cell_formula_units_Z   1
loop_
 _symmetry_equiv_pos_site_id
 _symmetry_equiv_pos_as_xyz
  1  'x, y, z'
loop_
 _atom_site_type_symbol
 _atom_site_label
 _atom_site_symmetry_multiplicity
 _atom_site_fract_x
 _atom_site_fract_y
 _atom_site_fract_z
 _atom_site_occupancy
  Pr  Pr0  1  0.250000  0.520893  0.802378  1
  Pr  Pr1  1  0.750000  0.981079  0.304158  1
  Pr  Pr2  1  0.750000  0.478912  0.196892  1
  Nd  Nd3  1  0.250000  0.019329  0.697113  1
  Ga  Ga4  1  0.250000  0.167551  0.074013  1
  Ga  Ga5  1  0.250000  0.669440  0.424709  1
  Ga  Ga6  1  0.750000  0.833122  0.925291  1
  Ga  Ga7  1  0.750000  0.330525  0.575426  1
  Pt  Pt8  1  0.250000  0.281656  0.404642  1
  Pt  Pt9  1  0.250000  0.783049  0.097690  1
  Pt  Pt10  1  0.750000  0.718583  0.597841  1
  Pt  Pt11  1  0.750000  0.215861  0.899847  1
