# generated using pymatgen
data_TbDy2Sc17Bi12
_symmetry_space_group_name_H-M   'P 1'
_cell_length_a   7.87417929
_cell_length_b   9.05444300
_cell_length_c   11.52929301
_cell_angle_alpha   90.00000000
_cell_angle_beta   90.01379703
_cell_angle_gamma   90.00000000
_symmetry_Int_Tables_number   1
_chemical_formula_structural   TbDy2Sc17Bi12
_chemical_formula_sum   'Tb1 Dy2 Sc17 Bi12'
_cell_volume   821.99599631
_cell_formula_units_Z   1
loop_
 _symmetry_equiv_pos_site_id
 _symmetry_equiv_pos_as_xyz
  1  'x, y, z'
loop_
 _atom_site_type_symbol
 _atom_site_label
 _atom_site_symmetry_multiplicity
 _atom_site_fract_x
 _atom_site_fract_y
 _atom_site_fract_z
 _atom_site_occupancy
  Tb  Tb0  1  0.684580  0.750000  0.781118  1
  Dy  Dy1  1  0.815684  0.250000  0.281157  1
  Dy  Dy2  1  0.183825  0.750000  0.718619  1
  Sc  Sc3  1  0.348826  0.750000  0.220337  1
  Sc  Sc4  1  0.850992  0.750000  0.278493  1
  Sc  Sc5  1  0.650240  0.250000  0.781684  1
  Sc  Sc6  1  0.151041  0.250000  0.719761  1
  Sc  Sc7  1  0.694901  0.566680  0.061732  1
  Sc  Sc8  1  0.192790  0.932969  0.437674  1
  Sc  Sc9  1  0.306160  0.067187  0.939498  1
  Sc  Sc10  1  0.807156  0.432072  0.561286  1
  Sc  Sc11  1  0.306160  0.432813  0.939498  1
  Sc  Sc12  1  0.807156  0.067928  0.561286  1
  Sc  Sc13  1  0.694901  0.933320  0.061732  1
  Sc  Sc14  1  0.192790  0.567031  0.437674  1
  Sc  Sc15  1  0.480363  0.250000  0.487395  1
  Sc  Sc16  1  0.980727  0.250000  0.012172  1
  Sc  Sc17  1  0.517928  0.750000  0.509792  1
  Sc  Sc18  1  0.020014  0.750000  0.990598  1
  Sc  Sc19  1  0.313801  0.250000  0.217540  1
  Bi  Bi20  1  0.402951  0.750000  0.967129  1
  Bi  Bi21  1  0.901328  0.750000  0.532430  1
  Bi  Bi22  1  0.592242  0.250000  0.037732  1
  Bi  Bi23  1  0.099553  0.250000  0.464812  1
  Bi  Bi24  1  0.560344  0.992454  0.325990  1
  Bi  Bi25  1  0.069426  0.506192  0.172778  1
  Bi  Bi26  1  0.436219  0.489706  0.671583  1
  Bi  Bi27  1  0.935957  0.010481  0.829074  1
  Bi  Bi28  1  0.436219  0.010294  0.671583  1
  Bi  Bi29  1  0.935957  0.489519  0.829074  1
  Bi  Bi30  1  0.560344  0.507546  0.325990  1
  Bi  Bi31  1  0.069426  0.993808  0.172778  1
