# generated using pymatgen
data_Li4Tb3Y5(ScSi2)8
_symmetry_space_group_name_H-M   'P 1'
_cell_length_a   6.90927904
_cell_length_b   7.40806304
_cell_length_c   14.08735811
_cell_angle_alpha   90.00971772
_cell_angle_beta   89.98933956
_cell_angle_gamma   90.00733181
_symmetry_Int_Tables_number   1
_chemical_formula_structural   Li4Tb3Y5(ScSi2)8
_chemical_formula_sum   'Li4 Tb3 Y5 Sc8 Si16'
_cell_volume   721.05258781
_cell_formula_units_Z   1
loop_
 _symmetry_equiv_pos_site_id
 _symmetry_equiv_pos_as_xyz
  1  'x, y, z'
loop_
 _atom_site_type_symbol
 _atom_site_label
 _atom_site_symmetry_multiplicity
 _atom_site_fract_x
 _atom_site_fract_y
 _atom_site_fract_z
 _atom_site_occupancy
  Li  Li0  1  0.159192  0.504422  0.750012  1
  Li  Li1  1  0.840796  0.495606  0.249981  1
  Li  Li2  1  0.340793  0.004398  0.249981  1
  Li  Li3  1  0.659230  0.995583  0.750012  1
  Tb  Tb4  1  0.014065  0.181357  0.400475  1
  Tb  Tb5  1  0.514075  0.318647  0.400469  1
  Tb  Tb6  1  0.485960  0.681386  0.599557  1
  Y  Y7  1  0.014028  0.181355  0.099563  1
  Y  Y8  1  0.985937  0.818626  0.900453  1
  Y  Y9  1  0.485959  0.681367  0.900421  1
  Y  Y10  1  0.985955  0.818609  0.599558  1
  Y  Y11  1  0.514046  0.318630  0.099565  1
  Sc  Sc12  1  0.330360  0.179281  0.626284  1
  Sc  Sc13  1  0.669622  0.820721  0.373727  1
  Sc  Sc14  1  0.169602  0.679271  0.373727  1
  Sc  Sc15  1  0.669639  0.820689  0.126272  1
  Sc  Sc16  1  0.830352  0.320702  0.626293  1
  Sc  Sc17  1  0.330355  0.179289  0.873693  1
  Sc  Sc18  1  0.830392  0.320697  0.873699  1
  Sc  Sc19  1  0.169630  0.679311  0.126267  1
  Si  Si20  1  0.032262  0.105703  0.750031  1
  Si  Si21  1  0.967731  0.894283  0.249951  1
  Si  Si22  1  0.467726  0.605744  0.249942  1
  Si  Si23  1  0.532291  0.394302  0.750042  1
  Si  Si24  1  0.282177  0.883034  0.750001  1
  Si  Si25  1  0.717772  0.116874  0.249959  1
  Si  Si26  1  0.217784  0.383105  0.249962  1
  Si  Si27  1  0.782229  0.616895  0.750055  1
  Si  Si28  1  0.157381  0.463019  0.535269  1
  Si  Si29  1  0.842640  0.537090  0.464768  1
  Si  Si30  1  0.342593  0.962983  0.464750  1
  Si  Si31  1  0.842542  0.537024  0.035280  1
  Si  Si32  1  0.657417  0.037005  0.535272  1
  Si  Si33  1  0.157463  0.462974  0.964712  1
  Si  Si34  1  0.657465  0.037044  0.964718  1
  Si  Si35  1  0.342541  0.962975  0.035279  1
