# generated using pymatgen
data_Yb8Sc12Si15Ge
_symmetry_space_group_name_H-M   'P 1'
_cell_length_a   7.07333003
_cell_length_b   7.48355433
_cell_length_c   14.24373700
_cell_angle_alpha   90.00000000
_cell_angle_beta   90.00000000
_cell_angle_gamma   89.87718613
_symmetry_Int_Tables_number   1
_chemical_formula_structural   Yb8Sc12Si15Ge
_chemical_formula_sum   'Yb8 Sc12 Si15 Ge1'
_cell_volume   753.97125111
_cell_formula_units_Z   1
loop_
 _symmetry_equiv_pos_site_id
 _symmetry_equiv_pos_as_xyz
  1  'x, y, z'
loop_
 _atom_site_type_symbol
 _atom_site_label
 _atom_site_symmetry_multiplicity
 _atom_site_fract_x
 _atom_site_fract_y
 _atom_site_fract_z
 _atom_site_occupancy
  Yb  Yb0  1  0.987343  0.823860  0.406327  1
  Yb  Yb1  1  0.487408  0.676045  0.093909  1
  Yb  Yb2  1  0.512796  0.323652  0.593912  1
  Yb  Yb3  1  0.012767  0.176330  0.906127  1
  Yb  Yb4  1  0.012767  0.176330  0.593873  1
  Yb  Yb5  1  0.512796  0.323652  0.906088  1
  Yb  Yb6  1  0.487408  0.676045  0.406091  1
  Yb  Yb7  1  0.987343  0.823860  0.093673  1
  Sc  Sc8  1  0.318775  0.171087  0.123561  1
  Sc  Sc9  1  0.818759  0.327859  0.376528  1
  Sc  Sc10  1  0.180698  0.671463  0.876227  1
  Sc  Sc11  1  0.680905  0.828397  0.623748  1
  Sc  Sc12  1  0.318775  0.171087  0.376439  1
  Sc  Sc13  1  0.818759  0.327859  0.123472  1
  Sc  Sc14  1  0.180698  0.671463  0.623773  1
  Sc  Sc15  1  0.680905  0.828397  0.876252  1
  Sc  Sc16  1  0.347212  0.011064  0.750000  1
  Sc  Sc17  1  0.847422  0.489106  0.750000  1
  Sc  Sc18  1  0.154975  0.509831  0.250000  1
  Sc  Sc19  1  0.651757  0.992327  0.250000  1
  Si  Si20  1  0.852771  0.536825  0.541302  1
  Si  Si21  1  0.352814  0.962853  0.958558  1
  Si  Si22  1  0.647062  0.036599  0.458850  1
  Si  Si23  1  0.146990  0.462985  0.041343  1
  Si  Si24  1  0.146990  0.462985  0.458657  1
  Si  Si25  1  0.647062  0.036599  0.041150  1
  Si  Si26  1  0.352814  0.962853  0.541442  1
  Si  Si27  1  0.852771  0.536825  0.958698  1
  Si  Si28  1  0.976220  0.876431  0.750000  1
  Si  Si29  1  0.476197  0.622746  0.750000  1
  Si  Si30  1  0.521558  0.371563  0.250000  1
  Si  Si31  1  0.023345  0.121810  0.250000  1
  Si  Si32  1  0.228886  0.382876  0.750000  1
  Si  Si33  1  0.728614  0.117754  0.750000  1
  Si  Si34  1  0.270403  0.882941  0.250000  1
  Ge  Ge35  1  0.775234  0.625645  0.250000  1
