# generated using pymatgen
data_Ho3Er2Si8P4Ir19
_symmetry_space_group_name_H-M   'P 1'
_cell_length_a   12.82167502
_cell_length_b   12.78271505
_cell_length_c   3.94445700
_cell_angle_alpha   90.00000000
_cell_angle_beta   90.00000000
_cell_angle_gamma   119.96883451
_symmetry_Int_Tables_number   1
_chemical_formula_structural   Ho3Er2Si8P4Ir19
_chemical_formula_sum   'Ho3 Er2 Si8 P4 Ir19'
_cell_volume   560.04384988
_cell_formula_units_Z   1
loop_
 _symmetry_equiv_pos_site_id
 _symmetry_equiv_pos_as_xyz
  1  'x, y, z'
loop_
 _atom_site_type_symbol
 _atom_site_label
 _atom_site_symmetry_multiplicity
 _atom_site_fract_x
 _atom_site_fract_y
 _atom_site_fract_z
 _atom_site_occupancy
  Ho  Ho0  1  0.666913  0.333422  0.000000  1
  Ho  Ho1  1  0.332647  0.667581  0.000000  1
  Ho  Ho2  1  0.814111  0.813930  0.500000  1
  Er  Er3  1  0.185703  0.001064  0.500000  1
  Er  Er4  1  0.999239  0.183422  0.500000  1
  Si  Si5  1  0.685197  0.165651  0.500000  1
  Si  Si6  1  0.834213  0.519101  0.500000  1
  Si  Si7  1  0.481593  0.315268  0.500000  1
  Si  Si8  1  0.167944  0.687798  0.500000  1
  Si  Si9  1  0.517823  0.829849  0.500000  1
  Si  Si10  1  0.635055  0.634355  0.000000  1
  Si  Si11  1  0.365565  0.999654  0.000000  1
  Si  Si12  1  0.999446  0.364782  0.000000  1
  P  P13  1  0.307985  0.484238  0.500000  1
  P  P14  1  0.178701  0.179761  0.000000  1
  P  P15  1  0.820483  0.997274  0.000000  1
  P  P16  1  0.000451  0.823044  0.000000  1
  Ir  Ir17  1  0.808131  0.177856  0.000000  1
  Ir  Ir18  1  0.821613  0.629096  0.000000  1
  Ir  Ir19  1  0.369523  0.191186  0.000000  1
  Ir  Ir20  1  0.179397  0.807110  0.000000  1
  Ir  Ir21  1  0.624626  0.817482  0.000000  1
  Ir  Ir22  1  0.199002  0.379159  0.000000  1
  Ir  Ir23  1  0.455879  0.443905  0.000000  1
  Ir  Ir24  1  0.553137  0.002233  0.000000  1
  Ir  Ir25  1  0.998970  0.551251  0.000000  1
  Ir  Ir26  1  0.279879  0.284029  0.500000  1
  Ir  Ir27  1  0.720704  0.997743  0.500000  1
  Ir  Ir28  1  0.000447  0.722573  0.500000  1
  Ir  Ir29  1  0.871660  0.357987  0.500000  1
  Ir  Ir30  1  0.643358  0.514089  0.500000  1
  Ir  Ir31  1  0.486826  0.128881  0.500000  1
  Ir  Ir32  1  0.360774  0.872886  0.500000  1
  Ir  Ir33  1  0.505690  0.632956  0.500000  1
  Ir  Ir34  1  0.126190  0.487334  0.500000  1
  Ir  Ir35  1  0.001125  0.002054  0.000000  1
