# generated using pymatgen
data_Tm4WI4
_symmetry_space_group_name_H-M   'P 1'
_cell_length_a   11.53813233
_cell_length_b   11.53813387
_cell_length_c   5.88278382
_cell_angle_alpha   89.43503345
_cell_angle_beta   89.43504509
_cell_angle_gamma   88.72932317
_symmetry_Int_Tables_number   1
_chemical_formula_structural   Tm4WI4
_chemical_formula_sum   'Tm8 W2 I8'
_cell_volume   782.89921111
_cell_formula_units_Z   2
loop_
 _symmetry_equiv_pos_site_id
 _symmetry_equiv_pos_as_xyz
  1  'x, y, z'
loop_
 _atom_site_type_symbol
 _atom_site_label
 _atom_site_symmetry_multiplicity
 _atom_site_fract_x
 _atom_site_fract_y
 _atom_site_fract_z
 _atom_site_occupancy
  Tm  Tm0  1  0.201820  0.914798  0.995696  1
  Tm  Tm1  1  0.798180  0.085202  0.004304  1
  Tm  Tm2  1  0.085202  0.798180  0.504304  1
  Tm  Tm3  1  0.914798  0.201820  0.495696  1
  Tm  Tm4  1  0.799965  0.919536  0.506839  1
  Tm  Tm5  1  0.200035  0.080464  0.493161  1
  Tm  Tm6  1  0.080464  0.200035  0.993161  1
  Tm  Tm7  1  0.919536  0.799965  0.006839  1
  W  W8  1  0.000309  0.999691  0.250000  1
  W  W9  1  0.999691  0.000309  0.750000  1
  I  I10  1  0.355183  0.848995  0.511183  1
  I  I11  1  0.644817  0.151005  0.488817  1
  I  I12  1  0.151005  0.644817  0.988817  1
  I  I13  1  0.848995  0.355183  0.011183  1
  I  I14  1  0.350620  0.144293  0.995792  1
  I  I15  1  0.649380  0.855707  0.004208  1
  I  I16  1  0.855707  0.649380  0.504208  1
  I  I17  1  0.144293  0.350620  0.495792  1
