# generated using pymatgen
data_Sr2YbErBi3
_symmetry_space_group_name_H-M   'P 1'
_cell_length_a   8.33103883
_cell_length_b   8.58972381
_cell_length_c   8.67671798
_cell_angle_alpha   110.39781928
_cell_angle_beta   108.83086154
_cell_angle_gamma   108.77908010
_symmetry_Int_Tables_number   1
_chemical_formula_structural   Sr2YbErBi3
_chemical_formula_sum   'Sr4 Yb2 Er2 Bi6'
_cell_volume   480.26846560
_cell_formula_units_Z   2
loop_
 _symmetry_equiv_pos_site_id
 _symmetry_equiv_pos_as_xyz
  1  'x, y, z'
loop_
 _atom_site_type_symbol
 _atom_site_label
 _atom_site_symmetry_multiplicity
 _atom_site_fract_x
 _atom_site_fract_y
 _atom_site_fract_z
 _atom_site_occupancy
  Sr  Sr0  1  0.502593  0.998578  0.642223  1
  Sr  Sr1  1  0.357426  0.356460  0.357479  1
  Sr  Sr2  1  0.504015  0.001422  0.143645  1
  Sr  Sr3  1  0.000967  0.643540  0.501020  1
  Yb  Yb4  1  0.860410  0.856968  0.862179  1
  Yb  Yb5  1  0.003442  0.143032  0.505211  1
  Er  Er6  1  0.136263  0.498696  0.998852  1
  Er  Er7  1  0.637567  0.501304  0.000156  1
  Bi  Bi8  1  0.378655  0.613606  0.762152  1
  Bi  Bi9  1  0.878791  0.258336  0.114356  1
  Bi  Bi10  1  0.620455  0.741664  0.356019  1
  Bi  Bi11  1  0.105755  0.857143  0.232652  1
  Bi  Bi12  1  0.248613  0.142857  0.875510  1
  Bi  Bi13  1  0.765048  0.386394  0.648545  1
