# generated using pymatgen
data_Nb6ZnCr(Ga2N)2
_symmetry_space_group_name_H-M   'P 1'
_cell_length_a   8.27300425
_cell_length_b   8.27300425
_cell_length_c   8.21715100
_cell_angle_alpha   60.22308390
_cell_angle_beta   60.22308389
_cell_angle_gamma   60.43767783
_symmetry_Int_Tables_number   1
_chemical_formula_structural   Nb6ZnCr(Ga2N)2
_chemical_formula_sum   'Nb12 Zn2 Cr2 Ga8 N4'
_cell_volume   400.32676533
_cell_formula_units_Z   2
loop_
 _symmetry_equiv_pos_site_id
 _symmetry_equiv_pos_as_xyz
  1  'x, y, z'
loop_
 _atom_site_type_symbol
 _atom_site_label
 _atom_site_symmetry_multiplicity
 _atom_site_fract_x
 _atom_site_fract_y
 _atom_site_fract_z
 _atom_site_occupancy
  Nb  Nb0  1  0.444427  0.444427  0.055573  1
  Nb  Nb1  1  0.056384  0.444698  0.055283  1
  Nb  Nb2  1  0.444698  0.056384  0.055283  1
  Nb  Nb3  1  0.057065  0.057065  0.442935  1
  Nb  Nb4  1  0.444698  0.056384  0.443634  1
  Nb  Nb5  1  0.056384  0.444698  0.443634  1
  Nb  Nb6  1  0.805573  0.805573  0.194427  1
  Nb  Nb7  1  0.193616  0.805302  0.194717  1
  Nb  Nb8  1  0.805302  0.193616  0.194717  1
  Nb  Nb9  1  0.192935  0.192935  0.807065  1
  Nb  Nb10  1  0.805302  0.193616  0.806366  1
  Nb  Nb11  1  0.193616  0.805302  0.806366  1
  Zn  Zn12  1  0.625000  0.625000  0.125000  1
  Zn  Zn13  1  0.625000  0.625000  0.625000  1
  Cr  Cr14  1  0.625000  0.125000  0.625000  1
  Cr  Cr15  1  0.125000  0.625000  0.625000  1
  Ga  Ga16  1  0.838640  0.838640  0.489986  1
  Ga  Ga17  1  0.842537  0.487777  0.834844  1
  Ga  Ga18  1  0.487777  0.842537  0.834844  1
  Ga  Ga19  1  0.838640  0.838640  0.832735  1
  Ga  Ga20  1  0.411360  0.411360  0.760014  1
  Ga  Ga21  1  0.407463  0.762223  0.415156  1
  Ga  Ga22  1  0.762223  0.407463  0.415156  1
  Ga  Ga23  1  0.411360  0.411360  0.417265  1
  N  N24  1  0.125000  0.125000  0.625000  1
  N  N25  1  0.125000  0.625000  0.125000  1
  N  N26  1  0.625000  0.125000  0.125000  1
  N  N27  1  0.125000  0.125000  0.125000  1
