# generated using pymatgen
data_Hf13(ScBi6)3
_symmetry_space_group_name_H-M   'P 1'
_cell_length_a   10.84651900
_cell_length_b   10.84651900
_cell_length_c   7.69852100
_cell_angle_alpha   90.00000000
_cell_angle_beta   90.00000000
_cell_angle_gamma   90.00000000
_symmetry_Int_Tables_number   1
_chemical_formula_structural   Hf13(ScBi6)3
_chemical_formula_sum   'Hf13 Sc3 Bi18'
_cell_volume   905.70770314
_cell_formula_units_Z   1
loop_
 _symmetry_equiv_pos_site_id
 _symmetry_equiv_pos_as_xyz
  1  'x, y, z'
loop_
 _atom_site_type_symbol
 _atom_site_label
 _atom_site_symmetry_multiplicity
 _atom_site_fract_x
 _atom_site_fract_y
 _atom_site_fract_z
 _atom_site_occupancy
  Hf  Hf0  1  0.000359  0.000359  0.999529  1
  Hf  Hf1  1  0.499641  0.000359  0.999529  1
  Hf  Hf2  1  0.000359  0.499641  0.999529  1
  Hf  Hf3  1  0.499641  0.499641  0.999529  1
  Hf  Hf4  1  0.750000  0.104787  0.153612  1
  Hf  Hf5  1  0.750000  0.395212  0.153612  1
  Hf  Hf6  1  0.104787  0.750000  0.153612  1
  Hf  Hf7  1  0.395212  0.750000  0.153612  1
  Hf  Hf8  1  0.604052  0.249999  0.845714  1
  Hf  Hf9  1  0.895949  0.250000  0.845714  1
  Hf  Hf10  1  0.249999  0.604052  0.845714  1
  Hf  Hf11  1  0.250000  0.895949  0.845714  1
  Hf  Hf12  1  0.250000  0.250000  0.923602  1
  Sc  Sc13  1  0.750000  0.750000  0.079603  1
  Sc  Sc14  1  0.250000  0.250000  0.430741  1
  Sc  Sc15  1  0.750000  0.750000  0.567333  1
  Bi  Bi16  1  0.250000  0.015160  0.195873  1
  Bi  Bi17  1  0.015160  0.250000  0.195873  1
  Bi  Bi18  1  0.484839  0.249999  0.195873  1
  Bi  Bi19  1  0.249999  0.484839  0.195873  1
  Bi  Bi20  1  0.583259  0.583259  0.348648  1
  Bi  Bi21  1  0.916741  0.583259  0.348648  1
  Bi  Bi22  1  0.916741  0.916741  0.348648  1
  Bi  Bi23  1  0.583259  0.916741  0.348648  1
  Bi  Bi24  1  0.750000  0.250000  0.499488  1
  Bi  Bi25  1  0.250000  0.750000  0.499488  1
  Bi  Bi26  1  0.415497  0.084503  0.651861  1
  Bi  Bi27  1  0.084503  0.084503  0.651861  1
  Bi  Bi28  1  0.084503  0.415497  0.651861  1
  Bi  Bi29  1  0.415497  0.415497  0.651861  1
  Bi  Bi30  1  0.750000  0.513006  0.804702  1
  Bi  Bi31  1  0.513006  0.750000  0.804702  1
  Bi  Bi32  1  0.986994  0.750000  0.804702  1
  Bi  Bi33  1  0.750000  0.986994  0.804702  1
