# generated using pymatgen
data_TmLu15Cd4(NiIr)2
_symmetry_space_group_name_H-M   'P 1'
_cell_length_a   9.39388154
_cell_length_b   9.39388460
_cell_length_c   9.38431889
_cell_angle_alpha   60.19377647
_cell_angle_beta   60.19379409
_cell_angle_gamma   60.36151723
_symmetry_Int_Tables_number   1
_chemical_formula_structural   TmLu15Cd4(NiIr)2
_chemical_formula_sum   'Tm1 Lu15 Cd4 Ni2 Ir2'
_cell_volume   588.87541660
_cell_formula_units_Z   1
loop_
 _symmetry_equiv_pos_site_id
 _symmetry_equiv_pos_as_xyz
  1  'x, y, z'
loop_
 _atom_site_type_symbol
 _atom_site_label
 _atom_site_symmetry_multiplicity
 _atom_site_fract_x
 _atom_site_fract_y
 _atom_site_fract_z
 _atom_site_occupancy
  Tm  Tm0  1  0.184768  0.184768  0.815240  1
  Lu  Lu1  1  0.596986  0.596986  0.603243  1
  Lu  Lu2  1  0.596275  0.596275  0.204329  1
  Lu  Lu3  1  0.596237  0.205440  0.598449  1
  Lu  Lu4  1  0.205440  0.596237  0.598449  1
  Lu  Lu5  1  0.063368  0.439075  0.437894  1
  Lu  Lu6  1  0.439768  0.063127  0.059476  1
  Lu  Lu7  1  0.439074  0.063368  0.437894  1
  Lu  Lu8  1  0.063127  0.439768  0.059476  1
  Lu  Lu9  1  0.438312  0.438312  0.062303  1
  Lu  Lu10  1  0.061765  0.061765  0.438438  1
  Lu  Lu11  1  0.186364  0.814473  0.811202  1
  Lu  Lu12  1  0.814867  0.185887  0.187321  1
  Lu  Lu13  1  0.814473  0.186364  0.811202  1
  Lu  Lu14  1  0.185887  0.814867  0.187322  1
  Lu  Lu15  1  0.811101  0.811101  0.188622  1
  Cd  Cd16  1  0.832110  0.832110  0.830503  1
  Cd  Cd17  1  0.832004  0.832004  0.505872  1
  Cd  Cd18  1  0.831987  0.505982  0.831283  1
  Cd  Cd19  1  0.505982  0.831987  0.831283  1
  Ni  Ni20  1  0.391727  0.391726  0.391196  1
  Ni  Ni21  1  0.391772  0.391773  0.825005  1
  Ir  Ir22  1  0.392607  0.823997  0.391997  1
  Ir  Ir23  1  0.823997  0.392607  0.391997  1
