# generated using pymatgen
data_Dy5YIn4(GaO4)6
_symmetry_space_group_name_H-M   'P 1'
_cell_length_a   11.01488882
_cell_length_b   11.01313665
_cell_length_c   11.01399602
_cell_angle_alpha   109.46636355
_cell_angle_beta   109.47266329
_cell_angle_gamma   109.47482853
_symmetry_Int_Tables_number   1
_chemical_formula_structural   Dy5YIn4(GaO4)6
_chemical_formula_sum   'Dy10 Y2 In8 Ga12 O48'
_cell_volume   1028.52092452
_cell_formula_units_Z   2
loop_
 _symmetry_equiv_pos_site_id
 _symmetry_equiv_pos_as_xyz
  1  'x, y, z'
loop_
 _atom_site_type_symbol
 _atom_site_label
 _atom_site_symmetry_multiplicity
 _atom_site_fract_x
 _atom_site_fract_y
 _atom_site_fract_z
 _atom_site_occupancy
  Dy  Dy0  1  0.375007  0.750013  0.125018  1
  Dy  Dy1  1  0.250011  0.375004  0.125018  1
  Dy  Dy2  1  0.875067  0.625069  0.250138  1
  Dy  Dy3  1  0.374989  0.124991  0.249980  1
  Dy  Dy4  1  0.124992  0.250010  0.375004  1
  Dy  Dy5  1  0.750014  0.124997  0.375006  1
  Dy  Dy6  1  0.875033  0.750034  0.624960  1
  Dy  Dy7  1  0.249928  0.874926  0.624960  1
  Dy  Dy8  1  0.124988  0.374989  0.749975  1
  Dy  Dy9  1  0.624963  0.874962  0.749927  1
  Y  Y10  1  0.624962  0.249910  0.874998  1
  Y  Y11  1  0.750044  0.625090  0.875003  1
  In  In12  1  0.000028  0.000021  0.000032  1
  In  In13  1  0.500004  0.000009  0.000030  1
  In  In14  1  0.000033  0.500018  0.000014  1
  In  In15  1  0.499982  0.499997  0.000009  1
  In  In16  1  0.999996  0.000023  0.499993  1
  In  In17  1  0.499969  0.499973  0.499978  1
  In  In18  1  0.500004  0.999999  0.499980  1
  In  In19  1  0.999991  0.499961  0.499989  1
  Ga  Ga20  1  0.750005  0.875126  0.125125  1
  Ga  Ga21  1  0.875126  0.249997  0.125134  1
  Ga  Ga22  1  0.625011  0.375018  0.250155  1
  Ga  Ga23  1  0.125147  0.875143  0.250157  1
  Ga  Ga24  1  0.624992  0.750000  0.374991  1
  Ga  Ga25  1  0.249997  0.624995  0.374998  1
  Ga  Ga26  1  0.750010  0.374895  0.624737  1
  Ga  Ga27  1  0.374734  0.249848  0.624745  1
  Ga  Ga28  1  0.374860  0.625004  0.749988  1
  Ga  Ga29  1  0.875136  0.124988  0.749990  1
  Ga  Ga30  1  0.125143  0.750007  0.874990  1
  Ga  Ga31  1  0.249852  0.124992  0.875000  1
  O  O32  1  0.218732  0.130295  0.033546  1
  O  O33  1  0.314814  0.903253  0.033546  1
  O  O34  1  0.718720  0.685449  0.088977  1
  O  O35  1  0.870266  0.403537  0.088985  1
  O  O36  1  0.966911  0.685196  0.097195  1
  O  O37  1  0.630288  0.411997  0.097195  1
  O  O38  1  0.033573  0.218743  0.130281  1
  O  O39  1  0.596707  0.911540  0.130283  1
  O  O40  1  0.218785  0.588484  0.185259  1
  O  O41  1  0.466476  0.596777  0.185260  1
  O  O42  1  0.130248  0.033503  0.218721  1
  O  O43  1  0.588472  0.185218  0.218719  1
  O  O44  1  0.314814  0.911549  0.281273  1
  O  O45  1  0.466457  0.369725  0.281272  1
  O  O46  1  0.911552  0.281284  0.314847  1
  O  O47  1  0.903295  0.033560  0.314848  1
  O  O48  1  0.281245  0.466488  0.369714  1
  O  O49  1  0.588468  0.903225  0.369714  1
  O  O50  1  0.814838  0.533522  0.403301  1
  O  O51  1  0.088460  0.869781  0.403299  1
  O  O52  1  0.096770  0.630261  0.411562  1
  O  O53  1  0.814792  0.781302  0.411562  1
  O  O54  1  0.596694  0.185145  0.466430  1
  O  O55  1  0.369738  0.281287  0.466429  1
  O  O56  1  0.403232  0.814772  0.533497  1
  O  O57  1  0.630262  0.718725  0.533496  1
  O  O58  1  0.185093  0.218693  0.588414  1
  O  O59  1  0.903319  0.369724  0.588414  1
  O  O60  1  0.911563  0.130264  0.596732  1
  O  O61  1  0.185170  0.466468  0.596730  1
  O  O62  1  0.410994  0.096396  0.629683  1
  O  O63  1  0.718689  0.533289  0.629688  1
  O  O64  1  0.096695  0.966484  0.685176  1
  O  O65  1  0.088482  0.718694  0.685179  1
  O  O66  1  0.685178  0.087983  0.718268  1
  O  O67  1  0.533091  0.630287  0.718271  1
  O  O68  1  0.411516  0.814818  0.781295  1
  O  O69  1  0.869778  0.966478  0.781294  1
  O  O70  1  0.532855  0.403105  0.814585  1
  O  O71  1  0.781729  0.411474  0.814584  1
  O  O72  1  0.402805  0.087996  0.869720  1
  O  O73  1  0.966915  0.781720  0.869719  1
  O  O74  1  0.033516  0.314765  0.903252  1
  O  O75  1  0.369735  0.588490  0.903254  1
  O  O76  1  0.281245  0.314762  0.911526  1
  O  O77  1  0.130280  0.596761  0.911524  1
  O  O78  1  0.685429  0.096464  0.966732  1
  O  O79  1  0.781304  0.870266  0.966733  1
