# generated using pymatgen
data_Ba5NaW2N7Cl2
_symmetry_space_group_name_H-M   'P 1'
_cell_length_a   11.46354833
_cell_length_b   6.26169600
_cell_length_c   11.41447745
_cell_angle_alpha   90.00000000
_cell_angle_beta   94.02595795
_cell_angle_gamma   90.00000000
_symmetry_Int_Tables_number   1
_chemical_formula_structural   Ba5NaW2N7Cl2
_chemical_formula_sum   'Ba10 Na2 W4 N14 Cl4'
_cell_volume   817.32365068
_cell_formula_units_Z   2
loop_
 _symmetry_equiv_pos_site_id
 _symmetry_equiv_pos_as_xyz
  1  'x, y, z'
loop_
 _atom_site_type_symbol
 _atom_site_label
 _atom_site_symmetry_multiplicity
 _atom_site_fract_x
 _atom_site_fract_y
 _atom_site_fract_z
 _atom_site_occupancy
  Ba  Ba0  1  0.195825  0.250000  0.112654  1
  Ba  Ba1  1  0.503316  0.750000  0.121840  1
  Ba  Ba2  1  0.807171  0.250000  0.305122  1
  Ba  Ba3  1  0.021829  0.750000  0.366796  1
  Ba  Ba4  1  0.379626  0.750000  0.439773  1
  Ba  Ba5  1  0.620375  0.250000  0.560227  1
  Ba  Ba6  1  0.978172  0.250000  0.633204  1
  Ba  Ba7  1  0.192829  0.750000  0.694877  1
  Ba  Ba8  1  0.496684  0.250000  0.878159  1
  Ba  Ba9  1  0.804175  0.750000  0.887346  1
  Na  Na10  1  0.684309  0.750000  0.373477  1
  Na  Na11  1  0.315691  0.250000  0.626523  1
  W  W12  1  0.465323  0.250000  0.271861  1
  W  W13  1  0.169621  0.250000  0.410975  1
  W  W14  1  0.830379  0.750000  0.589024  1
  W  W15  1  0.534676  0.750000  0.728139  1
  N  N16  1  0.436143  0.250000  0.107079  1
  N  N17  1  0.047543  0.250000  0.293292  1
  N  N18  1  0.546564  0.008571  0.325695  1
  N  N19  1  0.546564  0.491429  0.325695  1
  N  N20  1  0.312501  0.250000  0.332933  1
  N  N21  1  0.836949  0.509421  0.492426  1
  N  N22  1  0.836949  0.990580  0.492426  1
  N  N23  1  0.163051  0.009421  0.507575  1
  N  N24  1  0.163051  0.490581  0.507575  1
  N  N25  1  0.687499  0.750000  0.667066  1
  N  N26  1  0.453436  0.508571  0.674305  1
  N  N27  1  0.453436  0.991428  0.674305  1
  N  N28  1  0.952458  0.750000  0.706708  1
  N  N29  1  0.563857  0.750000  0.892920  1
  Cl  Cl30  1  0.213513  0.750000  0.141294  1
  Cl  Cl31  1  0.801193  0.750000  0.166883  1
  Cl  Cl32  1  0.198807  0.250000  0.833117  1
  Cl  Cl33  1  0.786487  0.250000  0.858706  1
