# generated using pymatgen
data_YTh2(InPd)3
_symmetry_space_group_name_H-M   'P 1'
_cell_length_a   7.69367647
_cell_length_b   7.65041411
_cell_length_c   4.10986000
_cell_angle_alpha   90.00000000
_cell_angle_beta   90.00000000
_cell_angle_gamma   119.81416361
_symmetry_Int_Tables_number   1
_chemical_formula_structural   YTh2(InPd)3
_chemical_formula_sum   'Y1 Th2 In3 Pd3'
_cell_volume   209.88758260
_cell_formula_units_Z   1
loop_
 _symmetry_equiv_pos_site_id
 _symmetry_equiv_pos_as_xyz
  1  'x, y, z'
loop_
 _atom_site_type_symbol
 _atom_site_label
 _atom_site_symmetry_multiplicity
 _atom_site_fract_x
 _atom_site_fract_y
 _atom_site_fract_z
 _atom_site_occupancy
  Y  Y0  1  0.000000  0.589756  0.500000  1
  Th  Th1  1  0.413517  0.412968  0.500000  1
  Th  Th2  1  0.586483  0.999451  0.500000  1
  In  In3  1  0.756749  0.747338  0.000000  1
  In  In4  1  0.243251  0.990588  0.000000  1
  In  In5  1  0.000000  0.260012  0.000000  1
  Pd  Pd6  1  0.658974  0.326484  0.000000  1
  Pd  Pd7  1  0.341026  0.667511  0.000000  1
  Pd  Pd8  1  0.000000  0.005891  0.500000  1
