# generated using pymatgen
data_Tb15Er2Lu3Sn16
_symmetry_space_group_name_H-M   'P 1'
_cell_length_a   8.01634820
_cell_length_b   8.17217736
_cell_length_c   15.48114904
_cell_angle_alpha   90.02455150
_cell_angle_beta   89.95474268
_cell_angle_gamma   90.05634350
_symmetry_Int_Tables_number   1
_chemical_formula_structural   Tb15Er2Lu3Sn16
_chemical_formula_sum   'Tb15 Er2 Lu3 Sn16'
_cell_volume   1014.18495420
_cell_formula_units_Z   1
loop_
 _symmetry_equiv_pos_site_id
 _symmetry_equiv_pos_as_xyz
  1  'x, y, z'
loop_
 _atom_site_type_symbol
 _atom_site_label
 _atom_site_symmetry_multiplicity
 _atom_site_fract_x
 _atom_site_fract_y
 _atom_site_fract_z
 _atom_site_occupancy
  Tb  Tb0  1  0.865111  0.662510  0.623154  1
  Tb  Tb1  1  0.634446  0.162152  0.377597  1
  Tb  Tb2  1  0.135560  0.337555  0.120978  1
  Tb  Tb3  1  0.634384  0.162935  0.122695  1
  Tb  Tb4  1  0.134125  0.337335  0.377628  1
  Tb  Tb5  1  0.366024  0.837709  0.622847  1
  Tb  Tb6  1  0.865899  0.662279  0.878110  1
  Tb  Tb7  1  0.518902  0.320159  0.903477  1
  Tb  Tb8  1  0.019804  0.178931  0.597433  1
  Tb  Tb9  1  0.480930  0.679671  0.403622  1
  Tb  Tb10  1  0.980166  0.820401  0.096531  1
  Tb  Tb11  1  0.481418  0.680350  0.095216  1
  Tb  Tb12  1  0.980986  0.820620  0.403272  1
  Tb  Tb13  1  0.519262  0.320785  0.597423  1
  Tb  Tb14  1  0.018762  0.178451  0.903022  1
  Er  Er15  1  0.364631  0.838610  0.876107  1
  Er  Er16  1  0.197186  0.503373  0.750720  1
  Lu  Lu17  1  0.696534  0.996412  0.750474  1
  Lu  Lu18  1  0.803605  0.496739  0.250064  1
  Lu  Lu19  1  0.303303  0.002851  0.249479  1
  Sn  Sn20  1  0.295185  0.035220  0.040708  1
  Sn  Sn21  1  0.794106  0.463601  0.457639  1
  Sn  Sn22  1  0.706359  0.963672  0.542842  1
  Sn  Sn23  1  0.207806  0.539660  0.956703  1
  Sn  Sn24  1  0.701306  0.962587  0.957152  1
  Sn  Sn25  1  0.205676  0.536245  0.543038  1
  Sn  Sn26  1  0.293925  0.036234  0.457250  1
  Sn  Sn27  1  0.794092  0.463477  0.042896  1
  Sn  Sn28  1  0.561863  0.618616  0.750950  1
  Sn  Sn29  1  0.062579  0.882263  0.750919  1
  Sn  Sn30  1  0.437836  0.383304  0.250111  1
  Sn  Sn31  1  0.938343  0.117165  0.249334  1
  Sn  Sn32  1  0.328709  0.148917  0.750577  1
  Sn  Sn33  1  0.828137  0.349930  0.750509  1
  Sn  Sn34  1  0.671540  0.849798  0.249860  1
  Sn  Sn35  1  0.171502  0.649484  0.249663  1
