# generated using pymatgen
data_Li7Pr8CdSn5Pb3
_symmetry_space_group_name_H-M   'P 1'
_cell_length_a   9.68013464
_cell_length_b   9.68013490
_cell_length_c   7.74730894
_cell_angle_alpha   89.81792493
_cell_angle_beta   90.18207432
_cell_angle_gamma   119.84612964
_symmetry_Int_Tables_number   1
_chemical_formula_structural   Li7Pr8CdSn5Pb3
_chemical_formula_sum   'Li7 Pr8 Cd1 Sn5 Pb3'
_cell_volume   629.66952262
_cell_formula_units_Z   1
loop_
 _symmetry_equiv_pos_site_id
 _symmetry_equiv_pos_as_xyz
  1  'x, y, z'
loop_
 _atom_site_type_symbol
 _atom_site_label
 _atom_site_symmetry_multiplicity
 _atom_site_fract_x
 _atom_site_fract_y
 _atom_site_fract_z
 _atom_site_occupancy
  Li  Li0  1  0.835326  0.667306  0.712697  1
  Li  Li1  1  0.332694  0.164674  0.712697  1
  Li  Li2  1  0.167364  0.832636  0.209683  1
  Li  Li3  1  0.167736  0.334811  0.211928  1
  Li  Li4  1  0.665189  0.832264  0.211928  1
  Li  Li5  1  0.666553  0.333447  0.326953  1
  Li  Li6  1  0.331594  0.668406  0.829040  1
  Pr  Pr7  1  0.487794  0.512206  0.503339  1
  Pr  Pr8  1  0.483556  0.973160  0.504725  1
  Pr  Pr9  1  0.026840  0.516444  0.504725  1
  Pr  Pr10  1  0.510817  0.489183  0.008164  1
  Pr  Pr11  1  0.510109  0.022220  0.004645  1
  Pr  Pr12  1  0.977780  0.489891  0.004645  1
  Pr  Pr13  1  0.003516  0.996484  0.500004  1
  Pr  Pr14  1  0.999890  0.000110  0.998966  1
  Cd  Cd15  1  0.833254  0.166746  0.706837  1
  Sn  Sn16  1  0.166404  0.833596  0.771912  1
  Sn  Sn17  1  0.174397  0.337164  0.775504  1
  Sn  Sn18  1  0.662836  0.825603  0.775504  1
  Sn  Sn19  1  0.662003  0.337997  0.737085  1
  Sn  Sn20  1  0.333148  0.666852  0.233425  1
  Pb  Pb21  1  0.833678  0.166322  0.271707  1
  Pb  Pb22  1  0.833831  0.666307  0.270949  1
  Pb  Pb23  1  0.333693  0.166169  0.270949  1
