# generated using pymatgen
data_Tb3Dy2Y5Ir4
_symmetry_space_group_name_H-M   'P 1'
_cell_length_a   6.50685153
_cell_length_b   7.23598687
_cell_length_c   8.59373945
_cell_angle_alpha   96.75644824
_cell_angle_beta   112.28594075
_cell_angle_gamma   89.86313319
_symmetry_Int_Tables_number   1
_chemical_formula_structural   Tb3Dy2Y5Ir4
_chemical_formula_sum   'Tb3 Dy2 Y5 Ir4'
_cell_volume   371.40611682
_cell_formula_units_Z   1
loop_
 _symmetry_equiv_pos_site_id
 _symmetry_equiv_pos_as_xyz
  1  'x, y, z'
loop_
 _atom_site_type_symbol
 _atom_site_label
 _atom_site_symmetry_multiplicity
 _atom_site_fract_x
 _atom_site_fract_y
 _atom_site_fract_z
 _atom_site_occupancy
  Tb  Tb0  1  0.792121  0.085157  0.816038  1
  Tb  Tb1  1  0.976358  0.416382  0.184082  1
  Tb  Tb2  1  0.207878  0.915241  0.183296  1
  Dy  Dy3  1  0.429263  0.250074  0.000271  1
  Dy  Dy4  1  0.570727  0.750279  0.999842  1
  Y  Y5  1  0.024396  0.582210  0.815731  1
  Y  Y6  1  0.211262  0.183447  0.560219  1
  Y  Y7  1  0.650084  0.316394  0.438940  1
  Y  Y8  1  0.788755  0.816493  0.439549  1
  Y  Y9  1  0.349924  0.683773  0.561800  1
  Ir  Ir10  1  0.602991  0.426439  0.781333  1
  Ir  Ir11  1  0.824690  0.073564  0.219721  1
  Ir  Ir12  1  0.395827  0.573663  0.219033  1
  Ir  Ir13  1  0.175725  0.926882  0.780144  1
