# generated using pymatgen
data_PrAlOs2C
_symmetry_space_group_name_H-M   'P 1'
_cell_length_a   4.14369923
_cell_length_b   5.91284860
_cell_length_c   7.28607700
_cell_angle_alpha   90.00000000
_cell_angle_beta   90.00000000
_cell_angle_gamma   69.44947186
_symmetry_Int_Tables_number   1
_chemical_formula_structural   PrAlOs2C
_chemical_formula_sum   'Pr2 Al2 Os4 C2'
_cell_volume   167.15638753
_cell_formula_units_Z   2
loop_
 _symmetry_equiv_pos_site_id
 _symmetry_equiv_pos_as_xyz
  1  'x, y, z'
loop_
 _atom_site_type_symbol
 _atom_site_label
 _atom_site_symmetry_multiplicity
 _atom_site_fract_x
 _atom_site_fract_y
 _atom_site_fract_z
 _atom_site_occupancy
  Pr  Pr0  1  0.949691  0.100664  0.250001  1
  Pr  Pr1  1  0.050310  0.899335  0.750000  1
  Al  Al2  1  0.228788  0.543451  0.250001  1
  Al  Al3  1  0.771211  0.456550  0.750000  1
  Os  Os4  1  0.667506  0.666155  0.062425  1
  Os  Os5  1  0.667506  0.666155  0.437575  1
  Os  Os6  1  0.332494  0.333845  0.562426  1
  Os  Os7  1  0.332494  0.333845  0.937574  1
  C  C8  1  0.500001  0.000000  0.000000  1
  C  C9  1  0.500001  0.000000  0.500000  1
