# generated using pymatgen
data_Dy15ThCd2(HgPt2)2
_symmetry_space_group_name_H-M   'P 1'
_cell_length_a   9.68148348
_cell_length_b   9.68148195
_cell_length_c   9.68922925
_cell_angle_alpha   60.28155803
_cell_angle_beta   60.28156000
_cell_angle_gamma   60.31702917
_symmetry_Int_Tables_number   1
_chemical_formula_structural   Dy15ThCd2(HgPt2)2
_chemical_formula_sum   'Dy15 Th1 Cd2 Hg2 Pt4'
_cell_volume   646.44525738
_cell_formula_units_Z   1
loop_
 _symmetry_equiv_pos_site_id
 _symmetry_equiv_pos_as_xyz
  1  'x, y, z'
loop_
 _atom_site_type_symbol
 _atom_site_label
 _atom_site_symmetry_multiplicity
 _atom_site_fract_x
 _atom_site_fract_y
 _atom_site_fract_z
 _atom_site_occupancy
  Dy  Dy0  1  0.354919  0.354919  0.936597  1
  Dy  Dy1  1  0.355796  0.934678  0.355231  1
  Dy  Dy2  1  0.934678  0.355796  0.355231  1
  Dy  Dy3  1  0.812589  0.188699  0.189591  1
  Dy  Dy4  1  0.190582  0.810724  0.810753  1
  Dy  Dy5  1  0.188699  0.812589  0.189591  1
  Dy  Dy6  1  0.810724  0.190582  0.810753  1
  Dy  Dy7  1  0.188747  0.188747  0.813136  1
  Dy  Dy8  1  0.810056  0.810056  0.191841  1
  Dy  Dy9  1  0.935900  0.566192  0.566609  1
  Dy  Dy10  1  0.563552  0.936156  0.938189  1
  Dy  Dy11  1  0.566192  0.935900  0.566609  1
  Dy  Dy12  1  0.936156  0.563551  0.938189  1
  Dy  Dy13  1  0.565788  0.565788  0.936929  1
  Dy  Dy14  1  0.936705  0.936705  0.564377  1
  Th  Th15  1  0.349097  0.349097  0.348950  1
  Cd  Cd16  1  0.581450  0.253015  0.582388  1
  Cd  Cd17  1  0.253015  0.581450  0.582388  1
  Hg  Hg18  1  0.585278  0.585278  0.587104  1
  Hg  Hg19  1  0.585782  0.585782  0.240271  1
  Pt  Pt20  1  0.144484  0.144484  0.144980  1
  Pt  Pt21  1  0.140203  0.140203  0.569324  1
  Pt  Pt22  1  0.140081  0.569530  0.140484  1
  Pt  Pt23  1  0.569530  0.140081  0.140484  1
