# generated using pymatgen
data_Nd3Y(TcB4)4
_symmetry_space_group_name_H-M   'P 1'
_cell_length_a   6.04472100
_cell_length_b   11.70641134
_cell_length_c   3.65849200
_cell_angle_alpha   90.00000000
_cell_angle_beta   90.00000000
_cell_angle_gamma   89.88115685
_symmetry_Int_Tables_number   1
_chemical_formula_structural   Nd3Y(TcB4)4
_chemical_formula_sum   'Nd3 Y1 Tc4 B16'
_cell_volume   258.88161910
_cell_formula_units_Z   1
loop_
 _symmetry_equiv_pos_site_id
 _symmetry_equiv_pos_as_xyz
  1  'x, y, z'
loop_
 _atom_site_type_symbol
 _atom_site_label
 _atom_site_symmetry_multiplicity
 _atom_site_fract_x
 _atom_site_fract_y
 _atom_site_fract_z
 _atom_site_occupancy
  Nd  Nd0  1  0.625562  0.349416  0.000000  1
  Nd  Nd1  1  0.374409  0.651286  0.000000  1
  Nd  Nd2  1  0.125576  0.149888  0.000000  1
  Y  Y3  1  0.874453  0.850085  0.000000  1
  Tc  Tc4  1  0.631779  0.084699  0.000000  1
  Tc  Tc5  1  0.368874  0.912594  0.000000  1
  Tc  Tc6  1  0.129940  0.414376  0.000000  1
  Tc  Tc7  1  0.869555  0.588339  0.000000  1
  B  B8  1  0.782342  0.182478  0.500000  1
  B  B9  1  0.214102  0.816511  0.500000  1
  B  B10  1  0.282361  0.316600  0.500000  1
  B  B11  1  0.717503  0.685613  0.500000  1
  B  B12  1  0.861833  0.029868  0.500000  1
  B  B13  1  0.138088  0.966692  0.500000  1
  B  B14  1  0.360191  0.468500  0.500000  1
  B  B15  1  0.639848  0.533185  0.500000  1
  B  B16  1  0.887951  0.454950  0.500000  1
  B  B17  1  0.110937  0.547059  0.500000  1
  B  B18  1  0.389087  0.044391  0.500000  1
  B  B19  1  0.614577  0.952210  0.500000  1
  B  B20  1  0.976154  0.310294  0.500000  1
  B  B21  1  0.022417  0.692481  0.500000  1
  B  B22  1  0.476358  0.188914  0.500000  1
  B  B23  1  0.526104  0.809570  0.500000  1
