# generated using pymatgen
data_LaI15
_symmetry_space_group_name_H-M   'P 1'
_cell_length_a   4.61665174
_cell_length_b   13.35432633
_cell_length_c   16.97930600
_cell_angle_alpha   63.43083926
_cell_angle_beta   102.05668465
_cell_angle_gamma   99.99473284
_symmetry_Int_Tables_number   1
_chemical_formula_structural   LaI15
_chemical_formula_sum   'La1 I15'
_cell_volume   911.76120678
_cell_formula_units_Z   1
loop_
 _symmetry_equiv_pos_site_id
 _symmetry_equiv_pos_as_xyz
  1  'x, y, z'
loop_
 _atom_site_type_symbol
 _atom_site_label
 _atom_site_symmetry_multiplicity
 _atom_site_fract_x
 _atom_site_fract_y
 _atom_site_fract_z
 _atom_site_occupancy
  La  La0  1  0.168341  0.456223  0.990411  1
  I  I1  1  0.060808  0.435437  0.485108  1
  I  I2  1  0.237482  0.014390  0.511302  1
  I  I3  1  0.741969  0.982403  0.037527  1
  I  I4  1  0.128572  0.331006  0.376707  1
  I  I5  1  0.837063  0.234422  0.621983  1
  I  I6  1  0.032718  0.815988  0.206537  1
  I  I7  1  0.179852  0.709626  0.845877  1
  I  I8  1  0.779389  0.505527  0.099528  1
  I  I9  1  0.462568  0.842280  0.948369  1
  I  I10  1  0.210163  0.115362  0.320567  1
  I  I11  1  0.942281  0.531386  0.618059  1
  I  I12  1  0.559086  0.396244  0.884713  1
  I  I13  1  0.199647  0.195229  0.124976  1
  I  I14  1  0.094523  0.769463  0.557912  1
  I  I15  1  0.365538  0.665014  0.370422  1
