# generated using pymatgen
data_Ba6Fe2OsO12
_symmetry_space_group_name_H-M   'P 1'
_cell_length_a   9.20946247
_cell_length_b   9.20946290
_cell_length_c   7.29615986
_cell_angle_alpha   67.81955709
_cell_angle_beta   67.81955872
_cell_angle_gamma   36.80304012
_symmetry_Int_Tables_number   1
_chemical_formula_structural   Ba6Fe2OsO12
_chemical_formula_sum   'Ba6 Fe2 Os1 O12'
_cell_volume   340.10769185
_cell_formula_units_Z   1
loop_
 _symmetry_equiv_pos_site_id
 _symmetry_equiv_pos_as_xyz
  1  'x, y, z'
loop_
 _atom_site_type_symbol
 _atom_site_label
 _atom_site_symmetry_multiplicity
 _atom_site_fract_x
 _atom_site_fract_y
 _atom_site_fract_z
 _atom_site_occupancy
  Ba  Ba0  1  0.877068  0.877068  0.715049  1
  Ba  Ba1  1  0.218652  0.218652  0.710098  1
  Ba  Ba2  1  0.548417  0.548417  0.706576  1
  Ba  Ba3  1  0.451583  0.451583  0.293424  1
  Ba  Ba4  1  0.781348  0.781348  0.289902  1
  Ba  Ba5  1  0.122932  0.122932  0.284951  1
  Fe  Fe6  1  0.671381  0.671381  0.999360  1
  Fe  Fe7  1  0.328619  0.328619  0.000640  1
  Os  Os8  1  0.000000  0.000000  0.000000  1
  O  O9  1  0.950124  0.950124  0.299501  1
  O  O10  1  0.285932  0.285932  0.304237  1
  O  O11  1  0.612678  0.612678  0.304501  1
  O  O12  1  0.387322  0.387322  0.695499  1
  O  O13  1  0.714068  0.714068  0.695763  1
  O  O14  1  0.049876  0.049876  0.700499  1
  O  O15  1  0.500000  0.000000  0.000000  1
  O  O16  1  0.840467  0.316007  0.000235  1
  O  O17  1  0.159533  0.683993  0.999765  1
  O  O18  1  0.000000  0.500000  0.000000  1
  O  O19  1  0.316007  0.840467  0.000235  1
  O  O20  1  0.683993  0.159533  0.999765  1
