# generated using pymatgen
data_GeBiSe3
_symmetry_space_group_name_H-M   'P 1'
_cell_length_a   6.94835000
_cell_length_b   6.94834947
_cell_length_c   7.67593200
_cell_angle_alpha   90.00000000
_cell_angle_beta   90.00000000
_cell_angle_gamma   120.00000253
_symmetry_Int_Tables_number   1
_chemical_formula_structural   GeBiSe3
_chemical_formula_sum   'Ge2 Bi2 Se6'
_cell_volume   320.94090950
_cell_formula_units_Z   2
loop_
 _symmetry_equiv_pos_site_id
 _symmetry_equiv_pos_as_xyz
  1  'x, y, z'
loop_
 _atom_site_type_symbol
 _atom_site_label
 _atom_site_symmetry_multiplicity
 _atom_site_fract_x
 _atom_site_fract_y
 _atom_site_fract_z
 _atom_site_occupancy
  Ge  Ge0  1  0.000000  0.000000  0.342809  1
  Ge  Ge1  1  0.000000  0.000000  0.657192  1
  Bi  Bi2  1  0.666666  0.333333  0.500000  1
  Bi  Bi3  1  0.333333  0.666666  0.500000  1
  Se  Se4  1  0.330816  0.000000  0.251533  1
  Se  Se5  1  0.000000  0.330816  0.251533  1
  Se  Se6  1  0.669184  0.669183  0.251533  1
  Se  Se7  1  0.669184  0.000000  0.748467  1
  Se  Se8  1  0.330815  0.330816  0.748467  1
  Se  Se9  1  0.000000  0.669183  0.748467  1
