# generated using pymatgen
data_La2Tb2RuBr6
_symmetry_space_group_name_H-M   'P 1'
_cell_length_a   4.12410500
_cell_length_b   13.96009000
_cell_length_c   14.35529400
_cell_angle_alpha   90.00000000
_cell_angle_beta   90.00000000
_cell_angle_gamma   90.00000000
_symmetry_Int_Tables_number   1
_chemical_formula_structural   La2Tb2RuBr6
_chemical_formula_sum   'La4 Tb4 Ru2 Br12'
_cell_volume   826.47557532
_cell_formula_units_Z   2
loop_
 _symmetry_equiv_pos_site_id
 _symmetry_equiv_pos_as_xyz
  1  'x, y, z'
loop_
 _atom_site_type_symbol
 _atom_site_label
 _atom_site_symmetry_multiplicity
 _atom_site_fract_x
 _atom_site_fract_y
 _atom_site_fract_z
 _atom_site_occupancy
  La  La0  1  0.500000  0.107392  0.352164  1
  La  La1  1  0.500000  0.892608  0.647836  1
  La  La2  1  0.500000  0.607392  0.147836  1
  La  La3  1  0.500000  0.392608  0.852164  1
  Tb  Tb4  1  0.000000  0.125606  0.586083  1
  Tb  Tb5  1  0.000000  0.874394  0.413917  1
  Tb  Tb6  1  0.000000  0.625606  0.913917  1
  Tb  Tb7  1  0.000000  0.374394  0.086083  1
  Ru  Ru8  1  0.500000  0.000000  0.500000  1
  Ru  Ru9  1  0.500000  0.500000  0.000000  1
  Br  Br10  1  0.500000  0.242021  0.170619  1
  Br  Br11  1  0.500000  0.757979  0.829381  1
  Br  Br12  1  0.500000  0.742021  0.329381  1
  Br  Br13  1  0.500000  0.257979  0.670619  1
  Br  Br14  1  0.000000  0.252136  0.424122  1
  Br  Br15  1  0.000000  0.747864  0.575878  1
  Br  Br16  1  0.000000  0.752136  0.075878  1
  Br  Br17  1  0.000000  0.247864  0.924122  1
  Br  Br18  1  0.000000  0.989161  0.243667  1
  Br  Br19  1  0.000000  0.010839  0.756333  1
  Br  Br20  1  0.000000  0.489161  0.256333  1
  Br  Br21  1  0.000000  0.510839  0.743667  1
