# generated using pymatgen
data_Ho3AlC3
_symmetry_space_group_name_H-M   'P 1'
_cell_length_a   3.54709200
_cell_length_b   6.99817600
_cell_length_c   9.96510000
_cell_angle_alpha   90.00000000
_cell_angle_beta   90.00000000
_cell_angle_gamma   90.00000000
_symmetry_Int_Tables_number   1
_chemical_formula_structural   Ho3AlC3
_chemical_formula_sum   'Ho6 Al2 C6'
_cell_volume   247.36541227
_cell_formula_units_Z   2
loop_
 _symmetry_equiv_pos_site_id
 _symmetry_equiv_pos_as_xyz
  1  'x, y, z'
loop_
 _atom_site_type_symbol
 _atom_site_label
 _atom_site_symmetry_multiplicity
 _atom_site_fract_x
 _atom_site_fract_y
 _atom_site_fract_z
 _atom_site_occupancy
  Ho  Ho0  1  0.500000  0.509850  0.200225  1
  Ho  Ho1  1  0.500000  0.490150  0.799775  1
  Ho  Ho2  1  0.500000  0.990150  0.200225  1
  Ho  Ho3  1  0.500000  0.009850  0.799775  1
  Ho  Ho4  1  0.000000  0.750000  0.458041  1
  Ho  Ho5  1  0.000000  0.250000  0.541959  1
  Al  Al6  1  0.000000  0.750000  0.005435  1
  Al  Al7  1  0.000000  0.250000  0.994565  1
  C  C8  1  0.500000  0.509542  0.566274  1
  C  C9  1  0.500000  0.490458  0.433726  1
  C  C10  1  0.500000  0.990458  0.566274  1
  C  C11  1  0.500000  0.009542  0.433726  1
  C  C12  1  0.000000  0.750000  0.208784  1
  C  C13  1  0.000000  0.250000  0.791216  1
