# generated using pymatgen
data_SmHo3(Si5Pt3)2
_symmetry_space_group_name_H-M   'P 1'
_cell_length_a   8.16006979
_cell_length_b   8.16749114
_cell_length_c   8.16749053
_cell_angle_alpha   136.32601479
_cell_angle_beta   104.73965736
_cell_angle_gamma   91.29175674
_symmetry_Int_Tables_number   1
_chemical_formula_structural   SmHo3(Si5Pt3)2
_chemical_formula_sum   'Sm1 Ho3 Si10 Pt6'
_cell_volume   345.70011198
_cell_formula_units_Z   1
loop_
 _symmetry_equiv_pos_site_id
 _symmetry_equiv_pos_as_xyz
  1  'x, y, z'
loop_
 _atom_site_type_symbol
 _atom_site_label
 _atom_site_symmetry_multiplicity
 _atom_site_fract_x
 _atom_site_fract_y
 _atom_site_fract_z
 _atom_site_occupancy
  Sm  Sm0  1  0.899256  0.129600  0.769656  1
  Ho  Ho1  1  0.640696  0.370069  0.270627  1
  Ho  Ho2  1  0.359535  0.630007  0.729528  1
  Ho  Ho3  1  0.099618  0.870079  0.229538  1
  Si  Si4  1  0.272789  0.522552  0.250785  1
  Si  Si5  1  0.727924  0.478224  0.749855  1
  Si  Si6  1  0.727924  0.978069  0.249700  1
  Si  Si7  1  0.272789  0.022004  0.750237  1
  Si  Si8  1  0.460280  0.111676  0.348603  1
  Si  Si9  1  0.538140  0.886966  0.651175  1
  Si  Si10  1  0.763377  0.611731  0.151646  1
  Si  Si11  1  0.237371  0.389150  0.848222  1
  Si  Si12  1  0.000152  0.249723  0.250301  1
  Si  Si13  1  0.000152  0.749851  0.750429  1
  Pt  Pt14  1  0.250303  0.137618  0.112685  1
  Pt  Pt15  1  0.749316  0.861517  0.887799  1
  Pt  Pt16  1  0.025963  0.637501  0.388462  1
  Pt  Pt17  1  0.975540  0.363918  0.611622  1
  Pt  Pt18  1  0.499437  0.250306  0.749999  1
  Pt  Pt19  1  0.499437  0.749439  0.249132  1
