# generated using pymatgen
data_Tm3Be2Ir5
_symmetry_space_group_name_H-M   'P 1'
_cell_length_a   9.76884800
_cell_length_b   9.76884800
_cell_length_c   3.35002900
_cell_angle_alpha   90.00000000
_cell_angle_beta   90.00000000
_cell_angle_gamma   90.00000000
_symmetry_Int_Tables_number   1
_chemical_formula_structural   Tm3Be2Ir5
_chemical_formula_sum   'Tm6 Be4 Ir10'
_cell_volume   319.69457816
_cell_formula_units_Z   2
loop_
 _symmetry_equiv_pos_site_id
 _symmetry_equiv_pos_as_xyz
  1  'x, y, z'
loop_
 _atom_site_type_symbol
 _atom_site_label
 _atom_site_symmetry_multiplicity
 _atom_site_fract_x
 _atom_site_fract_y
 _atom_site_fract_z
 _atom_site_occupancy
  Tm  Tm0  1  0.175522  0.675522  0.000000  1
  Tm  Tm1  1  0.324478  0.175522  0.000000  1
  Tm  Tm2  1  0.824478  0.324478  0.000000  1
  Tm  Tm3  1  0.500000  0.500000  0.000000  1
  Tm  Tm4  1  0.675522  0.824478  0.000000  1
  Tm  Tm5  1  0.000000  0.000000  0.000000  1
  Be  Be6  1  0.378996  0.878996  0.000000  1
  Be  Be7  1  0.121004  0.378996  0.000000  1
  Be  Be8  1  0.878996  0.621004  0.000000  1
  Be  Be9  1  0.621004  0.121004  0.000000  1
  Ir  Ir10  1  0.221528  0.929402  0.500000  1
  Ir  Ir11  1  0.929402  0.778472  0.500000  1
  Ir  Ir12  1  0.429402  0.721528  0.500000  1
  Ir  Ir13  1  0.570598  0.278472  0.500000  1
  Ir  Ir14  1  0.721528  0.570598  0.500000  1
  Ir  Ir15  1  0.278472  0.429402  0.500000  1
  Ir  Ir16  1  0.070598  0.221528  0.500000  1
  Ir  Ir17  1  0.000000  0.500000  0.500000  1
  Ir  Ir18  1  0.500000  0.000000  0.500000  1
  Ir  Ir19  1  0.778472  0.070598  0.500000  1
