# generated using pymatgen
data_YbZr2AgF11
_symmetry_space_group_name_H-M   'P 1'
_cell_length_a   5.99331212
_cell_length_b   5.99331177
_cell_length_c   7.99066012
_cell_angle_alpha   69.66278713
_cell_angle_beta   69.66278902
_cell_angle_gamma   73.40146723
_symmetry_Int_Tables_number   1
_chemical_formula_structural   YbZr2AgF11
_chemical_formula_sum   'Yb1 Zr2 Ag1 F11'
_cell_volume   247.87717755
_cell_formula_units_Z   1
loop_
 _symmetry_equiv_pos_site_id
 _symmetry_equiv_pos_as_xyz
  1  'x, y, z'
loop_
 _atom_site_type_symbol
 _atom_site_label
 _atom_site_symmetry_multiplicity
 _atom_site_fract_x
 _atom_site_fract_y
 _atom_site_fract_z
 _atom_site_occupancy
  Yb  Yb0  1  0.000000  0.000000  0.500000  1
  Zr  Zr1  1  0.506106  0.506106  0.764175  1
  Zr  Zr2  1  0.493894  0.493894  0.235825  1
  Ag  Ag3  1  0.000000  0.000000  0.000000  1
  F  F4  1  0.203512  0.763067  0.310582  1
  F  F5  1  0.236933  0.796488  0.689418  1
  F  F6  1  0.796488  0.236933  0.689418  1
  F  F7  1  0.763067  0.203512  0.310582  1
  F  F8  1  0.500000  0.500000  0.500000  1
  F  F9  1  0.662389  0.337611  0.000000  1
  F  F10  1  0.337611  0.662389  0.000000  1
  F  F11  1  0.742260  0.742260  0.653798  1
  F  F12  1  0.257740  0.257740  0.346202  1
  F  F13  1  0.723844  0.723844  0.112440  1
  F  F14  1  0.276156  0.276156  0.887560  1
