# generated using pymatgen
data_Dy2GaIr2
_symmetry_space_group_name_H-M   'P 1'
_cell_length_a   4.15926454
_cell_length_b   5.79431590
_cell_length_c   5.52079335
_cell_angle_alpha   121.65290502
_cell_angle_beta   112.12885350
_cell_angle_gamma   90.00000053
_symmetry_Int_Tables_number   1
_chemical_formula_structural   Dy2GaIr2
_chemical_formula_sum   'Dy2 Ga1 Ir2'
_cell_volume   101.56627118
_cell_formula_units_Z   1
loop_
 _symmetry_equiv_pos_site_id
 _symmetry_equiv_pos_as_xyz
  1  'x, y, z'
loop_
 _atom_site_type_symbol
 _atom_site_label
 _atom_site_symmetry_multiplicity
 _atom_site_fract_x
 _atom_site_fract_y
 _atom_site_fract_z
 _atom_site_occupancy
  Dy  Dy0  1  0.799493  0.299493  0.598986  1
  Dy  Dy1  1  0.200507  0.700507  0.401014  1
  Ga  Ga2  1  0.000000  0.000000  0.000000  1
  Ir  Ir3  1  0.500000  0.265313  0.000000  1
  Ir  Ir4  1  0.500000  0.734687  0.000000  1
