# generated using pymatgen
data_EuVF5
_symmetry_space_group_name_H-M   'P 1'
_cell_length_a   5.77428751
_cell_length_b   5.77428793
_cell_length_c   7.91580202
_cell_angle_alpha   69.89074114
_cell_angle_beta   69.89073692
_cell_angle_gamma   71.46363748
_symmetry_Int_Tables_number   1
_chemical_formula_structural   EuVF5
_chemical_formula_sum   'Eu2 V2 F10'
_cell_volume   226.68654821
_cell_formula_units_Z   2
loop_
 _symmetry_equiv_pos_site_id
 _symmetry_equiv_pos_as_xyz
  1  'x, y, z'
loop_
 _atom_site_type_symbol
 _atom_site_label
 _atom_site_symmetry_multiplicity
 _atom_site_fract_x
 _atom_site_fract_y
 _atom_site_fract_z
 _atom_site_occupancy
  Eu  Eu0  1  0.549419  0.450581  0.750000  1
  Eu  Eu1  1  0.450581  0.549419  0.250000  1
  V  V2  1  0.000000  0.000000  0.500000  1
  V  V3  1  0.000000  0.000000  0.000000  1
  F  F4  1  0.083219  0.916781  0.250000  1
  F  F5  1  0.916781  0.083219  0.750000  1
  F  F6  1  0.755013  0.784433  0.118384  1
  F  F7  1  0.215567  0.244987  0.381616  1
  F  F8  1  0.694707  0.287811  0.468409  1
  F  F9  1  0.712189  0.305293  0.031591  1
  F  F10  1  0.305293  0.712189  0.531591  1
  F  F11  1  0.287811  0.694707  0.968409  1
  F  F12  1  0.784433  0.755013  0.618384  1
  F  F13  1  0.244987  0.215567  0.881616  1
