# generated using pymatgen
data_CePr3(ThS5)2
_symmetry_space_group_name_H-M   'P 1'
_cell_length_a   7.62692001
_cell_length_b   8.27830401
_cell_length_c   12.16142500
_cell_angle_alpha   90.00000000
_cell_angle_beta   90.00000000
_cell_angle_gamma   90.00484358
_symmetry_Int_Tables_number   1
_chemical_formula_structural   CePr3(ThS5)2
_chemical_formula_sum   'Ce2 Pr6 Th4 S20'
_cell_volume   767.84759232
_cell_formula_units_Z   2
loop_
 _symmetry_equiv_pos_site_id
 _symmetry_equiv_pos_as_xyz
  1  'x, y, z'
loop_
 _atom_site_type_symbol
 _atom_site_label
 _atom_site_symmetry_multiplicity
 _atom_site_fract_x
 _atom_site_fract_y
 _atom_site_fract_z
 _atom_site_occupancy
  Ce  Ce0  1  0.519135  0.999126  0.322166  1
  Ce  Ce1  1  0.980865  0.500874  0.822166  1
  Pr  Pr2  1  0.520294  0.499520  0.322041  1
  Pr  Pr3  1  0.979706  0.000480  0.822041  1
  Pr  Pr4  1  0.479791  0.000172  0.678148  1
  Pr  Pr5  1  0.020209  0.499828  0.178148  1
  Pr  Pr6  1  0.479787  0.499745  0.677526  1
  Pr  Pr7  1  0.020213  0.000255  0.177526  1
  Th  Th8  1  0.074459  0.750220  0.490836  1
  Th  Th9  1  0.425541  0.749780  0.990836  1
  Th  Th10  1  0.925207  0.250057  0.508996  1
  Th  Th11  1  0.574793  0.249943  0.008996  1
  S  S12  1  0.837876  0.957830  0.598962  1
  S  S13  1  0.662124  0.542170  0.098962  1
  S  S14  1  0.162121  0.457989  0.400933  1
  S  S15  1  0.337879  0.042011  0.900933  1
  S  S16  1  0.163079  0.042473  0.400855  1
  S  S17  1  0.336921  0.457527  0.900855  1
  S  S18  1  0.838674  0.542109  0.599740  1
  S  S19  1  0.661326  0.957891  0.099740  1
  S  S20  1  0.829808  0.750117  0.312854  1
  S  S21  1  0.670192  0.749883  0.812854  1
  S  S22  1  0.170082  0.250399  0.687231  1
  S  S23  1  0.329918  0.249601  0.187231  1
  S  S24  1  0.456889  0.750381  0.498474  1
  S  S25  1  0.043111  0.749619  0.998474  1
  S  S26  1  0.543049  0.250028  0.501132  1
  S  S27  1  0.956951  0.249972  0.001132  1
  S  S28  1  0.198493  0.749396  0.715998  1
  S  S29  1  0.301507  0.750604  0.215998  1
  S  S30  1  0.800801  0.249480  0.284109  1
  S  S31  1  0.699199  0.250520  0.784109  1
