# generated using pymatgen
data_Pr(GdS2)3
_symmetry_space_group_name_H-M   'P 1'
_cell_length_a   4.05190300
_cell_length_b   11.18286965
_cell_length_c   11.48620384
_cell_angle_alpha   71.61096762
_cell_angle_beta   90.00000000
_cell_angle_gamma   90.00000000
_symmetry_Int_Tables_number   1
_chemical_formula_structural   Pr(GdS2)3
_chemical_formula_sum   'Pr2 Gd6 S12'
_cell_volume   493.88511293
_cell_formula_units_Z   2
loop_
 _symmetry_equiv_pos_site_id
 _symmetry_equiv_pos_as_xyz
  1  'x, y, z'
loop_
 _atom_site_type_symbol
 _atom_site_label
 _atom_site_symmetry_multiplicity
 _atom_site_fract_x
 _atom_site_fract_y
 _atom_site_fract_z
 _atom_site_occupancy
  Pr  Pr0  1  0.750000  0.547650  0.807068  1
  Pr  Pr1  1  0.250000  0.452350  0.192932  1
  Gd  Gd2  1  0.750000  0.180513  0.997877  1
  Gd  Gd3  1  0.250000  0.819487  0.002123  1
  Gd  Gd4  1  0.750000  0.939126  0.667636  1
  Gd  Gd5  1  0.250000  0.060874  0.332364  1
  Gd  Gd6  1  0.750000  0.661195  0.413592  1
  Gd  Gd7  1  0.250000  0.338805  0.586408  1
  S  S8  1  0.750000  0.977279  0.889074  1
  S  S9  1  0.250000  0.022721  0.110926  1
  S  S10  1  0.750000  0.305216  0.748692  1
  S  S11  1  0.250000  0.694784  0.251308  1
  S  S12  1  0.750000  0.897072  0.439837  1
  S  S13  1  0.250000  0.102928  0.560163  1
  S  S14  1  0.750000  0.418285  0.404249  1
  S  S15  1  0.250000  0.581715  0.595751  1
  S  S16  1  0.750000  0.237555  0.227234  1
  S  S17  1  0.250000  0.762445  0.772766  1
  S  S18  1  0.750000  0.616252  0.037566  1
  S  S19  1  0.250000  0.383748  0.962434  1
