# generated using pymatgen
data_La6Cd23S
_symmetry_space_group_name_H-M   'P 1'
_cell_length_a   10.13698739
_cell_length_b   10.13698572
_cell_length_c   10.13698700
_cell_angle_alpha   59.99999910
_cell_angle_beta   60.00000454
_cell_angle_gamma   59.99999947
_symmetry_Int_Tables_number   1
_chemical_formula_structural   La6Cd23S
_chemical_formula_sum   'La6 Cd23 S1'
_cell_volume   736.56595790
_cell_formula_units_Z   1
loop_
 _symmetry_equiv_pos_site_id
 _symmetry_equiv_pos_as_xyz
  1  'x, y, z'
loop_
 _atom_site_type_symbol
 _atom_site_label
 _atom_site_symmetry_multiplicity
 _atom_site_fract_x
 _atom_site_fract_y
 _atom_site_fract_z
 _atom_site_occupancy
  La  La0  1  0.705488  0.294512  0.294512  1
  La  La1  1  0.294512  0.705488  0.705488  1
  La  La2  1  0.294512  0.705488  0.294512  1
  La  La3  1  0.705488  0.294512  0.705488  1
  La  La4  1  0.294512  0.294512  0.705488  1
  La  La5  1  0.705488  0.705488  0.294512  1
  Cd  Cd6  1  0.122332  0.122332  0.122332  1
  Cd  Cd7  1  0.877668  0.877668  0.877668  1
  Cd  Cd8  1  0.122332  0.122332  0.633006  1
  Cd  Cd9  1  0.122332  0.633006  0.122332  1
  Cd  Cd10  1  0.877668  0.877668  0.366994  1
  Cd  Cd11  1  0.877668  0.366994  0.877668  1
  Cd  Cd12  1  0.633006  0.122332  0.122332  1
  Cd  Cd13  1  0.366994  0.877668  0.877668  1
  Cd  Cd14  1  0.500000  0.000000  0.000000  1
  Cd  Cd15  1  0.000000  0.500000  0.500000  1
  Cd  Cd16  1  0.000000  0.500000  0.000000  1
  Cd  Cd17  1  0.500000  0.000000  0.500000  1
  Cd  Cd18  1  0.000000  0.000000  0.500000  1
  Cd  Cd19  1  0.500000  0.500000  0.000000  1
  Cd  Cd20  1  0.332679  0.332679  0.332679  1
  Cd  Cd21  1  0.667321  0.667321  0.667321  1
  Cd  Cd22  1  0.332679  0.332679  0.001963  1
  Cd  Cd23  1  0.332679  0.001963  0.332679  1
  Cd  Cd24  1  0.667321  0.667321  0.998037  1
  Cd  Cd25  1  0.667321  0.998037  0.667321  1
  Cd  Cd26  1  0.001963  0.332679  0.332679  1
  Cd  Cd27  1  0.998037  0.667321  0.667321  1
  Cd  Cd28  1  0.000000  0.000000  0.000000  1
  S  S29  1  0.500000  0.500000  0.500000  1
