# generated using pymatgen
data_Ho4ErBi2As
_symmetry_space_group_name_H-M   'P 1'
_cell_length_a   8.01114600
_cell_length_b   9.12333000
_cell_length_c   12.01763200
_cell_angle_alpha   90.00000000
_cell_angle_beta   90.00000000
_cell_angle_gamma   90.00000000
_symmetry_Int_Tables_number   1
_chemical_formula_structural   Ho4ErBi2As
_chemical_formula_sum   'Ho16 Er4 Bi8 As4'
_cell_volume   878.34863704
_cell_formula_units_Z   4
loop_
 _symmetry_equiv_pos_site_id
 _symmetry_equiv_pos_as_xyz
  1  'x, y, z'
loop_
 _atom_site_type_symbol
 _atom_site_label
 _atom_site_symmetry_multiplicity
 _atom_site_fract_x
 _atom_site_fract_y
 _atom_site_fract_z
 _atom_site_occupancy
  Ho  Ho0  1  0.182962  0.443730  0.937044  1
  Ho  Ho1  1  0.317038  0.056270  0.437044  1
  Ho  Ho2  1  0.817038  0.943730  0.062956  1
  Ho  Ho3  1  0.682962  0.556270  0.562956  1
  Ho  Ho4  1  0.156358  0.749977  0.210785  1
  Ho  Ho5  1  0.343642  0.750023  0.710785  1
  Ho  Ho6  1  0.843642  0.249977  0.789215  1
  Ho  Ho7  1  0.656358  0.250023  0.289215  1
  Ho  Ho8  1  0.463406  0.749999  0.999813  1
  Ho  Ho9  1  0.036594  0.750001  0.499813  1
  Ho  Ho10  1  0.536594  0.249999  0.000187  1
  Ho  Ho11  1  0.963406  0.250001  0.500187  1
  Ho  Ho12  1  0.634247  0.749984  0.292699  1
  Ho  Ho13  1  0.865753  0.750016  0.792699  1
  Ho  Ho14  1  0.365753  0.249984  0.707301  1
  Ho  Ho15  1  0.134247  0.250016  0.207301  1
  Er  Er16  1  0.817139  0.556329  0.062979  1
  Er  Er17  1  0.682861  0.943671  0.562979  1
  Er  Er18  1  0.182861  0.056329  0.937021  1
  Er  Er19  1  0.317139  0.443671  0.437021  1
  Bi  Bi20  1  0.925618  0.510025  0.326823  1
  Bi  Bi21  1  0.574382  0.989975  0.826823  1
  Bi  Bi22  1  0.074382  0.010025  0.673177  1
  Bi  Bi23  1  0.425618  0.489975  0.173177  1
  Bi  Bi24  1  0.074363  0.489993  0.673147  1
  Bi  Bi25  1  0.425637  0.010007  0.173147  1
  Bi  Bi26  1  0.925637  0.989993  0.326853  1
  Bi  Bi27  1  0.574363  0.510007  0.826853  1
  As  As28  1  0.412778  0.749939  0.478496  1
  As  As29  1  0.087222  0.750061  0.978496  1
  As  As30  1  0.587222  0.249939  0.521504  1
  As  As31  1  0.912778  0.250061  0.021504  1
