# generated using pymatgen
data_Dy3Ho3GaTcNi
_symmetry_space_group_name_H-M   'P 1'
_cell_length_a   8.34043052
_cell_length_b   8.34043068
_cell_length_c   8.34068047
_cell_angle_alpha   113.11497883
_cell_angle_beta   111.09243289
_cell_angle_gamma   104.33117908
_symmetry_Int_Tables_number   1
_chemical_formula_structural   Dy3Ho3GaTcNi
_chemical_formula_sum   'Dy6 Ho6 Ga2 Tc2 Ni2'
_cell_volume   443.83073835
_cell_formula_units_Z   2
loop_
 _symmetry_equiv_pos_site_id
 _symmetry_equiv_pos_as_xyz
  1  'x, y, z'
loop_
 _atom_site_type_symbol
 _atom_site_label
 _atom_site_symmetry_multiplicity
 _atom_site_fract_x
 _atom_site_fract_y
 _atom_site_fract_z
 _atom_site_occupancy
  Dy  Dy0  1  0.434546  0.243403  0.190277  1
  Dy  Dy1  1  0.565454  0.756597  0.809723  1
  Dy  Dy2  1  0.053126  0.244269  0.809723  1
  Dy  Dy3  1  0.946874  0.755731  0.190277  1
  Dy  Dy4  1  0.179387  0.280680  0.460066  1
  Dy  Dy5  1  0.820613  0.719320  0.539934  1
  Ho  Ho6  1  0.179726  0.720075  0.899801  1
  Ho  Ho7  1  0.820274  0.279925  0.100199  1
  Ho  Ho8  1  0.332346  0.648394  0.315566  1
  Ho  Ho9  1  0.667654  0.351606  0.684434  1
  Ho  Ho10  1  0.332829  0.016779  0.684434  1
  Ho  Ho11  1  0.667171  0.983221  0.315566  1
  Ga  Ga12  1  0.500000  0.500000  0.000000  1
  Ga  Ga13  1  0.000000  0.000000  0.000000  1
  Tc  Tc14  1  0.320900  0.000011  0.320911  1
  Tc  Tc15  1  0.679100  0.999989  0.679089  1
  Ni  Ni16  1  0.117061  0.617061  0.500000  1
  Ni  Ni17  1  0.882939  0.382939  0.500000  1
