# generated using pymatgen
data_YbSm(AgO2)4
_symmetry_space_group_name_H-M   'P 1'
_cell_length_a   6.64661995
_cell_length_b   6.64661886
_cell_length_c   6.64661964
_cell_angle_alpha   126.23921806
_cell_angle_beta   126.23921269
_cell_angle_gamma   79.49533485
_symmetry_Int_Tables_number   1
_chemical_formula_structural   YbSm(AgO2)4
_chemical_formula_sum   'Yb1 Sm1 Ag4 O8'
_cell_volume   184.60345503
_cell_formula_units_Z   1
loop_
 _symmetry_equiv_pos_site_id
 _symmetry_equiv_pos_as_xyz
  1  'x, y, z'
loop_
 _atom_site_type_symbol
 _atom_site_label
 _atom_site_symmetry_multiplicity
 _atom_site_fract_x
 _atom_site_fract_y
 _atom_site_fract_z
 _atom_site_occupancy
  Yb  Yb0  1  0.000000  0.000000  0.000000  1
  Sm  Sm1  1  0.750000  0.250000  0.500000  1
  Ag  Ag2  1  0.372998  0.124333  0.746050  1
  Ag  Ag3  1  0.378283  0.626949  0.253950  1
  Ag  Ag4  1  0.875667  0.621717  0.248666  1
  Ag  Ag5  1  0.373051  0.627002  0.751334  1
  O  O6  1  0.041441  0.000256  0.649742  1
  O  O7  1  0.608302  0.958559  0.958816  1
  O  O8  1  0.999744  0.649486  0.041184  1
  O  O9  1  0.401670  0.862632  0.155777  1
  O  O10  1  0.754108  0.598330  0.460963  1
  O  O11  1  0.137368  0.293146  0.539037  1
  O  O12  1  0.350514  0.391698  0.350258  1
  O  O13  1  0.706854  0.245892  0.844223  1
