# generated using pymatgen
data_Tb5YbDyCoI12
_symmetry_space_group_name_H-M   'P 1'
_cell_length_a   9.73918357
_cell_length_b   9.83213989
_cell_length_c   9.79937471
_cell_angle_alpha   106.96022465
_cell_angle_beta   107.06210278
_cell_angle_gamma   106.98192964
_symmetry_Int_Tables_number   1
_chemical_formula_structural   Tb5YbDyCoI12
_chemical_formula_sum   'Tb5 Yb1 Dy1 Co1 I12'
_cell_volume   781.44346832
_cell_formula_units_Z   1
loop_
 _symmetry_equiv_pos_site_id
 _symmetry_equiv_pos_as_xyz
  1  'x, y, z'
loop_
 _atom_site_type_symbol
 _atom_site_label
 _atom_site_symmetry_multiplicity
 _atom_site_fract_x
 _atom_site_fract_y
 _atom_site_fract_z
 _atom_site_occupancy
  Tb  Tb0  1  0.095834  0.296224  0.024121  1
  Tb  Tb1  1  0.282520  0.022284  0.091355  1
  Tb  Tb2  1  0.976706  0.903623  0.702732  1
  Tb  Tb3  1  0.904187  0.703806  0.975881  1
  Tb  Tb4  1  0.717568  0.977826  0.909038  1
  Yb  Yb5  1  0.499977  0.500026  0.500063  1
  Dy  Dy6  1  0.023295  0.095966  0.295632  1
  Co  Co7  1  0.000104  0.000103  0.000147  1
  I  I8  1  0.150262  0.456772  0.379365  1
  I  I9  1  0.457228  0.377554  0.151817  1
  I  I10  1  0.378726  0.151359  0.456221  1
  I  I11  1  0.849112  0.542081  0.620843  1
  I  I12  1  0.542813  0.622486  0.848306  1
  I  I13  1  0.620228  0.848585  0.543854  1
  I  I14  1  0.679994  0.071961  0.223331  1
  I  I15  1  0.072443  0.224162  0.678577  1
  I  I16  1  0.226542  0.680744  0.073485  1
  I  I17  1  0.321193  0.928361  0.777621  1
  I  I18  1  0.927779  0.776793  0.320979  1
  I  I19  1  0.773487  0.319283  0.926632  1
