# generated using pymatgen
data_Dy5Ho3Al4
_symmetry_space_group_name_H-M   'P 1'
_cell_length_a   5.10207800
_cell_length_b   6.55069240
_cell_length_c   9.42138557
_cell_angle_alpha   90.03997632
_cell_angle_beta   90.00000000
_cell_angle_gamma   90.00000000
_symmetry_Int_Tables_number   1
_chemical_formula_structural   Dy5Ho3Al4
_chemical_formula_sum   'Dy5 Ho3 Al4'
_cell_volume   314.88282463
_cell_formula_units_Z   1
loop_
 _symmetry_equiv_pos_site_id
 _symmetry_equiv_pos_as_xyz
  1  'x, y, z'
loop_
 _atom_site_type_symbol
 _atom_site_label
 _atom_site_symmetry_multiplicity
 _atom_site_fract_x
 _atom_site_fract_y
 _atom_site_fract_z
 _atom_site_occupancy
  Dy  Dy0  1  0.750000  0.688064  0.426904  1
  Dy  Dy1  1  0.250000  0.311940  0.572659  1
  Dy  Dy2  1  0.750000  0.187745  0.073088  1
  Dy  Dy3  1  0.250000  0.812344  0.927341  1
  Dy  Dy4  1  0.750000  0.527769  0.789611  1
  Ho  Ho5  1  0.250000  0.472348  0.210094  1
  Ho  Ho6  1  0.750000  0.027724  0.710387  1
  Ho  Ho7  1  0.250000  0.972247  0.289659  1
  Al  Al8  1  0.750000  0.208306  0.397637  1
  Al  Al9  1  0.250000  0.791707  0.602304  1
  Al  Al10  1  0.750000  0.708409  0.102676  1
  Al  Al11  1  0.250000  0.291397  0.897641  1
