# generated using pymatgen
data_Tb6Si24Os3Ru5
_symmetry_space_group_name_H-M   'P 1'
_cell_length_a   10.15278748
_cell_length_b   10.15278783
_cell_length_c   8.16540202
_cell_angle_alpha   89.99662494
_cell_angle_beta   89.99662275
_cell_angle_gamma   132.58997444
_symmetry_Int_Tables_number   1
_chemical_formula_structural   Tb6Si24Os3Ru5
_chemical_formula_sum   'Tb6 Si24 Os3 Ru5'
_cell_volume   619.65953810
_cell_formula_units_Z   1
loop_
 _symmetry_equiv_pos_site_id
 _symmetry_equiv_pos_as_xyz
  1  'x, y, z'
loop_
 _atom_site_type_symbol
 _atom_site_label
 _atom_site_symmetry_multiplicity
 _atom_site_fract_x
 _atom_site_fract_y
 _atom_site_fract_z
 _atom_site_occupancy
  Tb  Tb0  1  0.500003  0.499997  0.500000  1
  Tb  Tb1  1  0.999902  0.000098  0.000000  1
  Tb  Tb2  1  0.502220  0.002269  0.750205  1
  Tb  Tb3  1  0.997731  0.497780  0.249795  1
  Tb  Tb4  1  0.497962  0.997673  0.249665  1
  Tb  Tb5  1  0.002327  0.502038  0.750335  1
  Si  Si6  1  0.795972  0.204028  0.500000  1
  Si  Si7  1  0.295887  0.704113  0.000000  1
  Si  Si8  1  0.204151  0.795849  0.500000  1
  Si  Si9  1  0.704791  0.295209  0.000000  1
  Si  Si10  1  0.332576  0.332301  0.833802  1
  Si  Si11  1  0.667699  0.667424  0.166198  1
  Si  Si12  1  0.166347  0.166506  0.332527  1
  Si  Si13  1  0.833494  0.833653  0.667473  1
  Si  Si14  1  0.121417  0.888446  0.728451  1
  Si  Si15  1  0.111554  0.878583  0.271549  1
  Si  Si16  1  0.612488  0.378761  0.227041  1
  Si  Si17  1  0.621239  0.387512  0.772959  1
  Si  Si18  1  0.878016  0.111541  0.270496  1
  Si  Si19  1  0.888459  0.121984  0.729504  1
  Si  Si20  1  0.388427  0.621939  0.772422  1
  Si  Si21  1  0.378061  0.611573  0.227578  1
  Si  Si22  1  0.344497  0.111634  0.505402  1
  Si  Si23  1  0.888366  0.655503  0.494598  1
  Si  Si24  1  0.388600  0.155982  0.004289  1
  Si  Si25  1  0.844018  0.611400  0.995711  1
  Si  Si26  1  0.655868  0.888623  0.494371  1
  Si  Si27  1  0.111377  0.344132  0.505629  1
  Si  Si28  1  0.613034  0.846059  0.994876  1
  Si  Si29  1  0.153941  0.386966  0.005124  1
  Os  Os30  1  0.669759  0.330241  0.500000  1
  Os  Os31  1  0.169769  0.830231  0.000000  1
  Os  Os32  1  0.330305  0.669695  0.500000  1
  Ru  Ru33  1  0.830059  0.169941  0.000000  1
  Ru  Ru34  1  0.127957  0.127798  0.626633  1
  Ru  Ru35  1  0.872202  0.872043  0.373367  1
  Ru  Ru36  1  0.373769  0.374245  0.128137  1
  Ru  Ru37  1  0.625755  0.626231  0.871863  1
