# generated using pymatgen
data_Sc3As2S
_symmetry_space_group_name_H-M   'P 1'
_cell_length_a   6.65225264
_cell_length_b   6.65225251
_cell_length_c   6.65225300
_cell_angle_alpha   146.50752153
_cell_angle_beta   132.01294911
_cell_angle_gamma   59.78429993
_symmetry_Int_Tables_number   1
_chemical_formula_structural   Sc3As2S
_chemical_formula_sum   'Sc3 As2 S1'
_cell_volume   119.60916980
_cell_formula_units_Z   1
loop_
 _symmetry_equiv_pos_site_id
 _symmetry_equiv_pos_as_xyz
  1  'x, y, z'
loop_
 _atom_site_type_symbol
 _atom_site_label
 _atom_site_symmetry_multiplicity
 _atom_site_fract_x
 _atom_site_fract_y
 _atom_site_fract_z
 _atom_site_occupancy
  Sc  Sc0  1  0.000000  0.000000  0.000000  1
  Sc  Sc1  1  0.666280  0.666280  0.000000  1
  Sc  Sc2  1  0.333720  0.333720  0.000000  1
  As  As3  1  0.166751  0.666751  0.500000  1
  As  As4  1  0.833249  0.333249  0.500000  1
  S  S5  1  0.500000  0.000000  0.500000  1
