# generated using pymatgen
data_Li(PaPd4)3
_symmetry_space_group_name_H-M   'P 1'
_cell_length_a   5.77088900
_cell_length_b   5.77088884
_cell_length_c   9.53072200
_cell_angle_alpha   90.00000000
_cell_angle_beta   90.00000000
_cell_angle_gamma   120.00000666
_symmetry_Int_Tables_number   1
_chemical_formula_structural   Li(PaPd4)3
_chemical_formula_sum   'Li1 Pa3 Pd12'
_cell_volume   274.87917209
_cell_formula_units_Z   1
loop_
 _symmetry_equiv_pos_site_id
 _symmetry_equiv_pos_as_xyz
  1  'x, y, z'
loop_
 _atom_site_type_symbol
 _atom_site_label
 _atom_site_symmetry_multiplicity
 _atom_site_fract_x
 _atom_site_fract_y
 _atom_site_fract_z
 _atom_site_occupancy
  Li  Li0  1  0.333333  0.666667  0.750000  1
  Pa  Pa1  1  0.000000  0.000000  0.513522  1
  Pa  Pa2  1  0.000000  0.000000  0.986478  1
  Pa  Pa3  1  0.666667  0.333333  0.250000  1
  Pd  Pd4  1  0.499316  0.500684  0.502341  1
  Pd  Pd5  1  0.499316  0.998632  0.502341  1
  Pd  Pd6  1  0.001368  0.500684  0.502341  1
  Pd  Pd7  1  0.499316  0.500684  0.997659  1
  Pd  Pd8  1  0.499316  0.998632  0.997659  1
  Pd  Pd9  1  0.001368  0.500684  0.997659  1
  Pd  Pd10  1  0.168809  0.831191  0.250000  1
  Pd  Pd11  1  0.168809  0.337619  0.250000  1
  Pd  Pd12  1  0.662381  0.831191  0.250000  1
  Pd  Pd13  1  0.828775  0.171225  0.750000  1
  Pd  Pd14  1  0.828775  0.657550  0.750000  1
  Pd  Pd15  1  0.342450  0.171225  0.750000  1
