# generated using pymatgen
data_Y2TiWO8
_symmetry_space_group_name_H-M   'P 1'
_cell_length_a   5.50446500
_cell_length_b   5.10727363
_cell_length_c   5.33122721
_cell_angle_alpha   82.56428138
_cell_angle_beta   90.00000000
_cell_angle_gamma   90.00000000
_symmetry_Int_Tables_number   1
_chemical_formula_structural   Y2TiWO8
_chemical_formula_sum   'Y2 Ti1 W1 O8'
_cell_volume   148.61541838
_cell_formula_units_Z   1
loop_
 _symmetry_equiv_pos_site_id
 _symmetry_equiv_pos_as_xyz
  1  'x, y, z'
loop_
 _atom_site_type_symbol
 _atom_site_label
 _atom_site_symmetry_multiplicity
 _atom_site_fract_x
 _atom_site_fract_y
 _atom_site_fract_z
 _atom_site_occupancy
  Y  Y0  1  0.271682  0.500000  0.750000  1
  Y  Y1  1  0.737209  0.500000  0.250000  1
  Ti  Ti2  1  0.797469  0.000000  0.750000  1
  W  W3  1  0.174209  0.000000  0.250000  1
  O  O4  1  0.073141  0.237895  0.488939  1
  O  O5  1  0.935105  0.219858  0.005309  1
  O  O6  1  0.593730  0.254683  0.608396  1
  O  O7  1  0.407741  0.240799  0.108874  1
  O  O8  1  0.593730  0.745317  0.891604  1
  O  O9  1  0.407741  0.759201  0.391126  1
  O  O10  1  0.073141  0.762105  0.011061  1
  O  O11  1  0.935105  0.780142  0.494691  1
