# generated using pymatgen
data_Tm4Lu8AlCo4Sn
_symmetry_space_group_name_H-M   'P 1'
_cell_length_a   8.18132044
_cell_length_b   8.18135889
_cell_length_c   8.18132105
_cell_angle_alpha   112.03287873
_cell_angle_beta   109.61737671
_cell_angle_gamma   106.80534701
_symmetry_Int_Tables_number   1
_chemical_formula_structural   Tm4Lu8AlCo4Sn
_chemical_formula_sum   'Tm4 Lu8 Al1 Co4 Sn1'
_cell_volume   420.67517103
_cell_formula_units_Z   1
loop_
 _symmetry_equiv_pos_site_id
 _symmetry_equiv_pos_as_xyz
  1  'x, y, z'
loop_
 _atom_site_type_symbol
 _atom_site_label
 _atom_site_symmetry_multiplicity
 _atom_site_fract_x
 _atom_site_fract_y
 _atom_site_fract_z
 _atom_site_occupancy
  Tm  Tm0  1  0.439273  0.235491  0.203781  1
  Tm  Tm1  1  0.560727  0.764509  0.796219  1
  Tm  Tm2  1  0.031709  0.235491  0.796219  1
  Tm  Tm3  1  0.968291  0.764509  0.203781  1
  Lu  Lu4  1  0.180417  0.281214  0.461629  1
  Lu  Lu5  1  0.819583  0.718786  0.538371  1
  Lu  Lu6  1  0.180414  0.718786  0.899202  1
  Lu  Lu7  1  0.819586  0.281214  0.100798  1
  Lu  Lu8  1  0.324695  0.637589  0.312895  1
  Lu  Lu9  1  0.675305  0.362411  0.687105  1
  Lu  Lu10  1  0.324695  0.011803  0.687108  1
  Lu  Lu11  1  0.675305  0.988197  0.312892  1
  Al  Al12  1  0.000000  0.000000  0.000000  1
  Co  Co13  1  0.338780  0.000000  0.338780  1
  Co  Co14  1  0.661220  0.000000  0.661220  1
  Co  Co15  1  0.115970  0.615969  0.499999  1
  Co  Co16  1  0.884030  0.384031  0.500001  1
  Sn  Sn17  1  0.500000  0.500000  0.000000  1
