# generated using pymatgen
data_Ce(TaC)4
_symmetry_space_group_name_H-M   'P 1'
_cell_length_a   6.33074321
_cell_length_b   6.33074619
_cell_length_c   6.33073482
_cell_angle_alpha   93.92101178
_cell_angle_beta   93.92103556
_cell_angle_gamma   149.68205873
_symmetry_Int_Tables_number   1
_chemical_formula_structural   Ce(TaC)4
_chemical_formula_sum   'Ce1 Ta4 C4'
_cell_volume   123.62330905
_cell_formula_units_Z   1
loop_
 _symmetry_equiv_pos_site_id
 _symmetry_equiv_pos_as_xyz
  1  'x, y, z'
loop_
 _atom_site_type_symbol
 _atom_site_label
 _atom_site_symmetry_multiplicity
 _atom_site_fract_x
 _atom_site_fract_y
 _atom_site_fract_z
 _atom_site_occupancy
  Ce  Ce0  1  0.000000  0.000000  0.000000  1
  Ta  Ta1  1  0.827272  0.372627  0.199900  1
  Ta  Ta2  1  0.627372  0.827272  0.454645  1
  Ta  Ta3  1  0.372627  0.172727  0.545355  1
  Ta  Ta4  1  0.172727  0.627372  0.800100  1
  C  C5  1  0.399053  0.724205  0.123260  1
  C  C6  1  0.724207  0.600946  0.325153  1
  C  C7  1  0.275792  0.399053  0.674847  1
  C  C8  1  0.600946  0.275794  0.876740  1
