# generated using pymatgen
data_Dy4TaNb3N8
_symmetry_space_group_name_H-M   'P 1'
_cell_length_a   3.26969200
_cell_length_b   5.68947821
_cell_length_c   10.96525874
_cell_angle_alpha   90.11021818
_cell_angle_beta   90.00000000
_cell_angle_gamma   90.00000000
_symmetry_Int_Tables_number   1
_chemical_formula_structural   Dy4TaNb3N8
_chemical_formula_sum   'Dy4 Ta1 Nb3 N8'
_cell_volume   203.98459177
_cell_formula_units_Z   1
loop_
 _symmetry_equiv_pos_site_id
 _symmetry_equiv_pos_as_xyz
  1  'x, y, z'
loop_
 _atom_site_type_symbol
 _atom_site_label
 _atom_site_symmetry_multiplicity
 _atom_site_fract_x
 _atom_site_fract_y
 _atom_site_fract_z
 _atom_site_occupancy
  Dy  Dy0  1  0.250000  0.587761  0.860896  1
  Dy  Dy1  1  0.750000  0.410347  0.139672  1
  Dy  Dy2  1  0.750000  0.913339  0.362264  1
  Dy  Dy3  1  0.250000  0.085623  0.637655  1
  Ta  Ta4  1  0.250000  0.914443  0.109829  1
  Nb  Nb5  1  0.750000  0.086278  0.889188  1
  Nb  Nb6  1  0.750000  0.583428  0.606970  1
  Nb  Nb7  1  0.250000  0.416142  0.392417  1
  N  N8  1  0.250000  0.662203  0.242327  1
  N  N9  1  0.750000  0.341282  0.755294  1
  N  N10  1  0.750000  0.839387  0.745716  1
  N  N11  1  0.250000  0.158217  0.253557  1
  N  N12  1  0.250000  0.750099  0.504957  1
  N  N13  1  0.750000  0.249406  0.494301  1
  N  N14  1  0.750000  0.755768  0.009162  1
  N  N15  1  0.250000  0.246276  0.995792  1
