# generated using pymatgen
data_Li2ErPa3(ZnPt2)2
_symmetry_space_group_name_H-M   'P 1'
_cell_length_a   3.87943100
_cell_length_b   7.24898982
_cell_length_c   8.46630447
_cell_angle_alpha   90.00800069
_cell_angle_beta   90.00000000
_cell_angle_gamma   90.00000000
_symmetry_Int_Tables_number   1
_chemical_formula_structural   Li2ErPa3(ZnPt2)2
_chemical_formula_sum   'Li2 Er1 Pa3 Zn2 Pt4'
_cell_volume   238.08903791
_cell_formula_units_Z   1
loop_
 _symmetry_equiv_pos_site_id
 _symmetry_equiv_pos_as_xyz
  1  'x, y, z'
loop_
 _atom_site_type_symbol
 _atom_site_label
 _atom_site_symmetry_multiplicity
 _atom_site_fract_x
 _atom_site_fract_y
 _atom_site_fract_z
 _atom_site_occupancy
  Li  Li0  1  0.250000  0.612370  0.559831  1
  Li  Li1  1  0.250000  0.125718  0.942162  1
  Er  Er2  1  0.750000  0.442576  0.811501  1
  Pa  Pa3  1  0.250000  0.053753  0.314576  1
  Pa  Pa4  1  0.250000  0.552419  0.181019  1
  Pa  Pa5  1  0.750000  0.944082  0.690799  1
  Zn  Zn6  1  0.750000  0.383442  0.440164  1
  Zn  Zn7  1  0.750000  0.884120  0.060764  1
  Pt  Pt8  1  0.250000  0.222396  0.622112  1
  Pt  Pt9  1  0.250000  0.745023  0.873885  1
  Pt  Pt10  1  0.750000  0.768247  0.373526  1
  Pt  Pt11  1  0.750000  0.265855  0.129662  1
