# generated using pymatgen
data_Tb2HoCoSn6
_symmetry_space_group_name_H-M   'P 1'
_cell_length_a   8.46551150
_cell_length_b   8.46551111
_cell_length_c   13.16837600
_cell_angle_alpha   90.00000000
_cell_angle_beta   90.00000000
_cell_angle_gamma   148.75574717
_symmetry_Int_Tables_number   1
_chemical_formula_structural   Tb2HoCoSn6
_chemical_formula_sum   'Tb4 Ho2 Co2 Sn12'
_cell_volume   489.49063826
_cell_formula_units_Z   2
loop_
 _symmetry_equiv_pos_site_id
 _symmetry_equiv_pos_as_xyz
  1  'x, y, z'
loop_
 _atom_site_type_symbol
 _atom_site_label
 _atom_site_symmetry_multiplicity
 _atom_site_fract_x
 _atom_site_fract_y
 _atom_site_fract_z
 _atom_site_occupancy
  Tb  Tb0  1  0.899809  0.100191  0.093206  1
  Tb  Tb1  1  0.100191  0.899809  0.593206  1
  Tb  Tb2  1  0.100191  0.899809  0.906794  1
  Tb  Tb3  1  0.899809  0.100191  0.406794  1
  Ho  Ho4  1  0.900235  0.099765  0.750000  1
  Ho  Ho5  1  0.099765  0.900235  0.250000  1
  Co  Co6  1  0.298317  0.701683  0.250000  1
  Co  Co7  1  0.701683  0.298317  0.750000  1
  Sn  Sn8  1  0.755082  0.244918  0.571111  1
  Sn  Sn9  1  0.427451  0.572549  0.576875  1
  Sn  Sn10  1  0.572549  0.427451  0.423125  1
  Sn  Sn11  1  0.733098  0.266902  0.250000  1
  Sn  Sn12  1  0.266902  0.733098  0.750000  1
  Sn  Sn13  1  0.244918  0.755082  0.071111  1
  Sn  Sn14  1  0.244918  0.755082  0.428889  1
  Sn  Sn15  1  0.572549  0.427451  0.076875  1
  Sn  Sn16  1  0.453155  0.546845  0.250000  1
  Sn  Sn17  1  0.546845  0.453155  0.750000  1
  Sn  Sn18  1  0.755082  0.244918  0.928889  1
  Sn  Sn19  1  0.427451  0.572549  0.923125  1
