# generated using pymatgen
data_Ho5Tm3(Sc3Sn4)4
_symmetry_space_group_name_H-M   'P 1'
_cell_length_a   7.66565217
_cell_length_b   7.94132402
_cell_length_c   14.80438931
_cell_angle_alpha   89.99686760
_cell_angle_beta   89.97660315
_cell_angle_gamma   90.00642428
_symmetry_Int_Tables_number   1
_chemical_formula_structural   Ho5Tm3(Sc3Sn4)4
_chemical_formula_sum   'Ho5 Tm3 Sc12 Sn16'
_cell_volume   901.22344898
_cell_formula_units_Z   1
loop_
 _symmetry_equiv_pos_site_id
 _symmetry_equiv_pos_as_xyz
  1  'x, y, z'
loop_
 _atom_site_type_symbol
 _atom_site_label
 _atom_site_symmetry_multiplicity
 _atom_site_fract_x
 _atom_site_fract_y
 _atom_site_fract_z
 _atom_site_occupancy
  Ho  Ho0  1  0.994299  0.178174  0.093705  1
  Ho  Ho1  1  0.005704  0.821823  0.906226  1
  Ho  Ho2  1  0.505685  0.678155  0.906335  1
  Ho  Ho3  1  0.005723  0.821863  0.593670  1
  Ho  Ho4  1  0.494331  0.321811  0.093701  1
  Tm  Tm5  1  0.994252  0.178341  0.406190  1
  Tm  Tm6  1  0.494192  0.321686  0.406218  1
  Tm  Tm7  1  0.505804  0.678251  0.593752  1
  Sc  Sc8  1  0.164495  0.496484  0.749960  1
  Sc  Sc9  1  0.835544  0.503439  0.250079  1
  Sc  Sc10  1  0.335556  0.996573  0.250097  1
  Sc  Sc11  1  0.664386  0.003513  0.749947  1
  Sc  Sc12  1  0.336267  0.161295  0.627355  1
  Sc  Sc13  1  0.663776  0.838824  0.372628  1
  Sc  Sc14  1  0.163886  0.661125  0.372605  1
  Sc  Sc15  1  0.663798  0.838798  0.127452  1
  Sc  Sc16  1  0.836195  0.338767  0.627354  1
  Sc  Sc17  1  0.336207  0.161199  0.872579  1
  Sc  Sc18  1  0.836216  0.338772  0.872577  1
  Sc  Sc19  1  0.163795  0.661210  0.127456  1
  Sn  Sn20  1  0.026818  0.123117  0.749968  1
  Sn  Sn21  1  0.973180  0.877091  0.250052  1
  Sn  Sn22  1  0.473216  0.622891  0.250050  1
  Sn  Sn23  1  0.526810  0.377127  0.749940  1
  Sn  Sn24  1  0.307111  0.848396  0.749815  1
  Sn  Sn25  1  0.693081  0.151609  0.250308  1
  Sn  Sn26  1  0.193087  0.348384  0.250309  1
  Sn  Sn27  1  0.806664  0.651348  0.749892  1
  Sn  Sn28  1  0.182562  0.458237  0.542219  1
  Sn  Sn29  1  0.817472  0.541390  0.457678  1
  Sn  Sn30  1  0.317864  0.958528  0.457623  1
  Sn  Sn31  1  0.818117  0.541764  0.042309  1
  Sn  Sn32  1  0.681993  0.041769  0.542219  1
  Sn  Sn33  1  0.181865  0.458247  0.957708  1
  Sn  Sn34  1  0.681914  0.041750  0.957705  1
  Sn  Sn35  1  0.318137  0.958248  0.042319  1
