# generated using pymatgen
data_Er2LuScGa2Ir3
_symmetry_space_group_name_H-M   'P 1'
_cell_length_a   7.12043126
_cell_length_b   7.12043076
_cell_length_c   4.03159200
_cell_angle_alpha   90.00000000
_cell_angle_beta   90.00000000
_cell_angle_gamma   120.02593414
_symmetry_Int_Tables_number   1
_chemical_formula_structural   Er2LuScGa2Ir3
_chemical_formula_sum   'Er2 Lu1 Sc1 Ga2 Ir3'
_cell_volume   176.97267638
_cell_formula_units_Z   1
loop_
 _symmetry_equiv_pos_site_id
 _symmetry_equiv_pos_as_xyz
  1  'x, y, z'
loop_
 _atom_site_type_symbol
 _atom_site_label
 _atom_site_symmetry_multiplicity
 _atom_site_fract_x
 _atom_site_fract_y
 _atom_site_fract_z
 _atom_site_occupancy
  Er  Er0  1  0.581725  0.013645  0.500000  1
  Er  Er1  1  0.013645  0.581725  0.500000  1
  Lu  Lu2  1  0.391758  0.391758  0.500000  1
  Sc  Sc3  1  0.766838  0.766838  0.000000  1
  Ga  Ga4  1  0.247163  0.994040  0.000000  1
  Ga  Ga5  1  0.994040  0.247163  0.000000  1
  Ir  Ir6  1  0.660849  0.337450  0.000000  1
  Ir  Ir7  1  0.337450  0.660849  0.000000  1
  Ir  Ir8  1  0.006536  0.006536  0.500000  1
