# generated using pymatgen
data_Tb3Ho7TlIn7Ni4
_symmetry_space_group_name_H-M   'P 1'
_cell_length_a   3.59132800
_cell_length_b   8.00355071
_cell_length_c   17.94432911
_cell_angle_alpha   89.98219046
_cell_angle_beta   90.00000000
_cell_angle_gamma   90.00000000
_symmetry_Int_Tables_number   1
_chemical_formula_structural   Tb3Ho7TlIn7Ni4
_chemical_formula_sum   'Tb3 Ho7 Tl1 In7 Ni4'
_cell_volume   515.78056933
_cell_formula_units_Z   1
loop_
 _symmetry_equiv_pos_site_id
 _symmetry_equiv_pos_as_xyz
  1  'x, y, z'
loop_
 _atom_site_type_symbol
 _atom_site_label
 _atom_site_symmetry_multiplicity
 _atom_site_fract_x
 _atom_site_fract_y
 _atom_site_fract_z
 _atom_site_occupancy
  Tb  Tb0  1  0.000000  0.499318  0.500329  1
  Tb  Tb1  1  0.000000  0.001494  0.999784  1
  Tb  Tb2  1  0.000000  0.117666  0.411989  1
  Ho  Ho3  1  0.000000  0.746677  0.278293  1
  Ho  Ho4  1  0.000000  0.254776  0.720940  1
  Ho  Ho5  1  0.000000  0.754216  0.778307  1
  Ho  Ho6  1  0.000000  0.246621  0.221737  1
  Ho  Ho7  1  0.000000  0.617207  0.089777  1
  Ho  Ho8  1  0.000000  0.382434  0.910904  1
  Ho  Ho9  1  0.000000  0.882198  0.588733  1
  Tl  Tl10  1  0.500000  0.704260  0.931817  1
  In  In11  1  0.500000  0.296187  0.069204  1
  In  In12  1  0.500000  0.794265  0.430786  1
  In  In13  1  0.500000  0.203764  0.569715  1
  In  In14  1  0.500000  0.573424  0.652313  1
  In  In15  1  0.500000  0.429192  0.347369  1
  In  In16  1  0.500000  0.928454  0.152243  1
  In  In17  1  0.500000  0.075840  0.846707  1
  Ni  Ni18  1  0.500000  0.523196  0.196182  1
  Ni  Ni19  1  0.500000  0.471416  0.803019  1
  Ni  Ni20  1  0.500000  0.974668  0.695722  1
  Ni  Ni21  1  0.500000  0.022726  0.304129  1
