# generated using pymatgen
data_Na4Mg(SiS3)2
_symmetry_space_group_name_H-M   'P 1'
_cell_length_a   6.78360134
_cell_length_b   6.78360197
_cell_length_c   6.77322735
_cell_angle_alpha   81.09294151
_cell_angle_beta   81.09294305
_cell_angle_gamma   113.58147475
_symmetry_Int_Tables_number   1
_chemical_formula_structural   Na4Mg(SiS3)2
_chemical_formula_sum   'Na4 Mg1 Si2 S6'
_cell_volume   274.00506072
_cell_formula_units_Z   1
loop_
 _symmetry_equiv_pos_site_id
 _symmetry_equiv_pos_as_xyz
  1  'x, y, z'
loop_
 _atom_site_type_symbol
 _atom_site_label
 _atom_site_symmetry_multiplicity
 _atom_site_fract_x
 _atom_site_fract_y
 _atom_site_fract_z
 _atom_site_occupancy
  Na  Na0  1  0.510766  0.489234  0.500000  1
  Na  Na1  1  0.358498  0.641502  0.000000  1
  Na  Na2  1  0.683244  0.316756  0.000000  1
  Na  Na3  1  0.045001  0.954999  0.000000  1
  Mg  Mg4  1  0.872817  0.127183  0.500000  1
  Si  Si5  1  0.360077  0.965250  0.444979  1
  Si  Si6  1  0.034750  0.639923  0.555021  1
  S  S7  1  0.263320  0.194521  0.273509  1
  S  S8  1  0.805479  0.736680  0.726491  1
  S  S9  1  0.472809  0.059779  0.709430  1
  S  S10  1  0.940221  0.527191  0.290570  1
  S  S11  1  0.618771  0.922594  0.258237  1
  S  S12  1  0.077406  0.381229  0.741763  1
