# generated using pymatgen
data_Hf11Zr8Si16Ag
_symmetry_space_group_name_H-M   'P 1'
_cell_length_a   7.10349896
_cell_length_b   7.10349962
_cell_length_c   12.87428189
_cell_angle_alpha   89.70218242
_cell_angle_beta   90.29781357
_cell_angle_gamma   90.11407474
_symmetry_Int_Tables_number   1
_chemical_formula_structural   Hf11Zr8Si16Ag
_chemical_formula_sum   'Hf11 Zr8 Si16 Ag1'
_cell_volume   649.61362559
_cell_formula_units_Z   1
loop_
 _symmetry_equiv_pos_site_id
 _symmetry_equiv_pos_as_xyz
  1  'x, y, z'
loop_
 _atom_site_type_symbol
 _atom_site_label
 _atom_site_symmetry_multiplicity
 _atom_site_fract_x
 _atom_site_fract_y
 _atom_site_fract_z
 _atom_site_occupancy
  Hf  Hf0  1  0.825420  0.825420  0.500000  1
  Hf  Hf1  1  0.323327  0.677601  0.249224  1
  Hf  Hf2  1  0.677601  0.323327  0.750776  1
  Hf  Hf3  1  0.144668  0.001292  0.376215  1
  Hf  Hf4  1  0.857852  0.001162  0.879876  1
  Hf  Hf5  1  0.501691  0.646499  0.627954  1
  Hf  Hf6  1  0.356811  0.493259  0.874702  1
  Hf  Hf7  1  0.493259  0.356811  0.125298  1
  Hf  Hf8  1  0.646499  0.501691  0.372046  1
  Hf  Hf9  1  0.001292  0.144668  0.623785  1
  Hf  Hf10  1  0.001162  0.857852  0.120124  1
  Zr  Zr11  1  0.996325  0.351464  0.213679  1
  Zr  Zr12  1  0.001216  0.653622  0.716535  1
  Zr  Zr13  1  0.149562  0.497909  0.464500  1
  Zr  Zr14  1  0.499206  0.846797  0.032509  1
  Zr  Zr15  1  0.846797  0.499206  0.967491  1
  Zr  Zr16  1  0.497909  0.149562  0.535500  1
  Zr  Zr17  1  0.351464  0.996325  0.786321  1
  Zr  Zr18  1  0.653622  0.001216  0.283465  1
  Si  Si19  1  0.353898  0.295581  0.322443  1
  Si  Si20  1  0.646531  0.704089  0.824196  1
  Si  Si21  1  0.205727  0.853722  0.573029  1
  Si  Si22  1  0.138618  0.778649  0.922324  1
  Si  Si23  1  0.778649  0.138618  0.077676  1
  Si  Si24  1  0.853722  0.205727  0.426971  1
  Si  Si25  1  0.295581  0.353898  0.677557  1
  Si  Si26  1  0.704089  0.646531  0.175804  1
  Si  Si27  1  0.300340  0.051931  0.188206  1
  Si  Si28  1  0.702628  0.949455  0.688422  1
  Si  Si29  1  0.449867  0.800210  0.436620  1
  Si  Si30  1  0.205476  0.561177  0.062439  1
  Si  Si31  1  0.561177  0.205476  0.937561  1
  Si  Si32  1  0.800210  0.449867  0.563380  1
  Si  Si33  1  0.051931  0.300340  0.811794  1
  Si  Si34  1  0.949455  0.702628  0.311578  1
  Ag  Ag35  1  0.176420  0.176420  0.000000  1
