# generated using pymatgen
data_Ho5Er7(BBr3)4
_symmetry_space_group_name_H-M   'P 1'
_cell_length_a   9.67080936
_cell_length_b   9.67115408
_cell_length_c   9.67129301
_cell_angle_alpha   109.47329380
_cell_angle_beta   109.46681580
_cell_angle_gamma   109.47242982
_symmetry_Int_Tables_number   1
_chemical_formula_structural   Ho5Er7(BBr3)4
_chemical_formula_sum   'Ho5 Er7 B4 Br12'
_cell_volume   696.32147615
_cell_formula_units_Z   1
loop_
 _symmetry_equiv_pos_site_id
 _symmetry_equiv_pos_as_xyz
  1  'x, y, z'
loop_
 _atom_site_type_symbol
 _atom_site_label
 _atom_site_symmetry_multiplicity
 _atom_site_fract_x
 _atom_site_fract_y
 _atom_site_fract_z
 _atom_site_occupancy
  Ho  Ho0  1  0.458759  0.479401  0.229313  1
  Ho  Ho1  1  0.750129  0.229527  0.270458  1
  Ho  Ho2  1  0.749786  0.020276  0.479326  1
  Ho  Ho3  1  0.229493  0.458843  0.479276  1
  Ho  Ho4  1  0.270457  0.749822  0.229306  1
  Er  Er5  1  0.042037  0.270970  0.021067  1
  Er  Er6  1  0.020831  0.041846  0.270980  1
  Er  Er7  1  0.479034  0.750109  0.021052  1
  Er  Er8  1  0.478801  0.228799  0.457744  1
  Er  Er9  1  0.021062  0.478958  0.749944  1
  Er  Er10  1  0.270907  0.020918  0.041959  1
  Er  Er11  1  0.229028  0.271008  0.750028  1
  B  B12  1  0.249686  0.249306  0.249658  1
  B  B13  1  0.499573  0.999992  0.249631  1
  B  B14  1  0.000413  0.250045  0.500400  1
  B  B15  1  0.249620  0.499601  0.999259  1
  Br  Br16  1  0.249974  0.758160  0.742308  1
  Br  Br17  1  0.516200  0.507922  0.758288  1
  Br  Br18  1  0.983775  0.742094  0.991698  1
  Br  Br19  1  0.742121  0.250374  0.758304  1
  Br  Br20  1  0.992349  0.984175  0.742354  1
  Br  Br21  1  0.249994  0.992358  0.508195  1
  Br  Br22  1  0.758142  0.516150  0.508534  1
  Br  Br23  1  0.507584  0.249612  0.991460  1
  Br  Br24  1  0.758167  0.742021  0.249577  1
  Br  Br25  1  0.742117  0.991719  0.983862  1
  Br  Br26  1  0.991722  0.507808  0.249590  1
  Br  Br27  1  0.508240  0.758187  0.516429  1
