# generated using pymatgen
data_SeF10
_symmetry_space_group_name_H-M   'P 1'
_cell_length_a   5.22994999
_cell_length_b   6.10313717
_cell_length_c   7.23604196
_cell_angle_alpha   102.40062116
_cell_angle_beta   96.61417882
_cell_angle_gamma   108.44013240
_symmetry_Int_Tables_number   1
_chemical_formula_structural   SeF10
_chemical_formula_sum   'Se1 F10'
_cell_volume   209.77622540
_cell_formula_units_Z   1
loop_
 _symmetry_equiv_pos_site_id
 _symmetry_equiv_pos_as_xyz
  1  'x, y, z'
loop_
 _atom_site_type_symbol
 _atom_site_label
 _atom_site_symmetry_multiplicity
 _atom_site_fract_x
 _atom_site_fract_y
 _atom_site_fract_z
 _atom_site_occupancy
  Se  Se0  1  0.709252  0.275994  0.484995  1
  F  F1  1  0.071059  0.956478  0.940424  1
  F  F2  1  0.316659  0.977153  0.867292  1
  F  F3  1  0.261252  0.529777  0.033913  1
  F  F4  1  0.551418  0.648004  0.067049  1
  F  F5  1  0.661305  0.377841  0.717134  1
  F  F6  1  0.757881  0.174220  0.253011  1
  F  F7  1  0.003169  0.528045  0.525982  1
  F  F8  1  0.415120  0.024131  0.444183  1
  F  F9  1  0.905443  0.123138  0.570965  1
  F  F10  1  0.512654  0.428405  0.399212  1
