# generated using pymatgen
data_Hf4Cu4Si3Ge
_symmetry_space_group_name_H-M   'P 1'
_cell_length_a   3.90158400
_cell_length_b   6.46552715
_cell_length_c   7.34844076
_cell_angle_alpha   90.04679560
_cell_angle_beta   90.00000000
_cell_angle_gamma   90.00000000
_symmetry_Int_Tables_number   1
_chemical_formula_structural   Hf4Cu4Si3Ge
_chemical_formula_sum   'Hf4 Cu4 Si3 Ge1'
_cell_volume   185.37021512
_cell_formula_units_Z   1
loop_
 _symmetry_equiv_pos_site_id
 _symmetry_equiv_pos_as_xyz
  1  'x, y, z'
loop_
 _atom_site_type_symbol
 _atom_site_label
 _atom_site_symmetry_multiplicity
 _atom_site_fract_x
 _atom_site_fract_y
 _atom_site_fract_z
 _atom_site_occupancy
  Hf  Hf0  1  0.250000  0.017308  0.809107  1
  Hf  Hf1  1  0.250000  0.511330  0.687258  1
  Hf  Hf2  1  0.750000  0.988959  0.191533  1
  Hf  Hf3  1  0.750000  0.485692  0.312514  1
  Cu  Cu4  1  0.250000  0.163929  0.425255  1
  Cu  Cu5  1  0.250000  0.662061  0.082218  1
  Cu  Cu6  1  0.750000  0.840843  0.568740  1
  Cu  Cu7  1  0.750000  0.328966  0.924870  1
  Si  Si8  1  0.250000  0.776869  0.395349  1
  Si  Si9  1  0.250000  0.277467  0.105175  1
  Si  Si10  1  0.750000  0.222820  0.604548  1
  Ge  Ge11  1  0.750000  0.723757  0.893432  1
