# generated using pymatgen
data_Ce3Co8P6W
_symmetry_space_group_name_H-M   'P 1'
_cell_length_a   3.76974500
_cell_length_b   10.60916700
_cell_length_c   12.38075700
_cell_angle_alpha   90.00000000
_cell_angle_beta   90.00000000
_cell_angle_gamma   90.00000000
_symmetry_Int_Tables_number   1
_chemical_formula_structural   Ce3Co8P6W
_chemical_formula_sum   'Ce6 Co16 P12 W2'
_cell_volume   495.15419099
_cell_formula_units_Z   2
loop_
 _symmetry_equiv_pos_site_id
 _symmetry_equiv_pos_as_xyz
  1  'x, y, z'
loop_
 _atom_site_type_symbol
 _atom_site_label
 _atom_site_symmetry_multiplicity
 _atom_site_fract_x
 _atom_site_fract_y
 _atom_site_fract_z
 _atom_site_occupancy
  Ce  Ce0  1  0.000000  0.500000  0.524880  1
  Ce  Ce1  1  0.500000  0.000000  0.475120  1
  Ce  Ce2  1  0.500000  0.820081  0.207962  1
  Ce  Ce3  1  0.500000  0.179919  0.207962  1
  Ce  Ce4  1  0.000000  0.679919  0.792038  1
  Ce  Ce5  1  0.000000  0.320081  0.792038  1
  Co  Co6  1  0.500000  0.500000  0.703069  1
  Co  Co7  1  0.000000  0.000000  0.296931  1
  Co  Co8  1  0.000000  0.500000  0.987281  1
  Co  Co9  1  0.500000  0.000000  0.012719  1
  Co  Co10  1  0.500000  0.332487  0.991841  1
  Co  Co11  1  0.500000  0.667513  0.991841  1
  Co  Co12  1  0.000000  0.167513  0.008159  1
  Co  Co13  1  0.000000  0.832487  0.008159  1
  Co  Co14  1  0.500000  0.299504  0.429309  1
  Co  Co15  1  0.500000  0.700496  0.429309  1
  Co  Co16  1  0.000000  0.200496  0.570691  1
  Co  Co17  1  0.000000  0.799504  0.570691  1
  Co  Co18  1  0.500000  0.879535  0.711393  1
  Co  Co19  1  0.500000  0.120465  0.711393  1
  Co  Co20  1  0.000000  0.620465  0.288607  1
  Co  Co21  1  0.000000  0.379535  0.288607  1
  P  P22  1  0.500000  0.500000  0.885453  1
  P  P23  1  0.000000  0.000000  0.114547  1
  P  P24  1  0.500000  0.500000  0.346568  1
  P  P25  1  0.000000  0.000000  0.653432  1
  P  P26  1  0.500000  0.306310  0.612717  1
  P  P27  1  0.500000  0.693690  0.612717  1
  P  P28  1  0.000000  0.193690  0.387283  1
  P  P29  1  0.000000  0.806310  0.387283  1
  P  P30  1  0.500000  0.844984  0.894483  1
  P  P31  1  0.500000  0.155016  0.894483  1
  P  P32  1  0.000000  0.655016  0.105517  1
  P  P33  1  0.000000  0.344984  0.105517  1
  W  W34  1  0.500000  0.500000  0.154799  1
  W  W35  1  0.000000  0.000000  0.845201  1
