# generated using pymatgen
data_YTh(PaIr2)2
_symmetry_space_group_name_H-M   'P 1'
_cell_length_a   3.75287300
_cell_length_b   4.29929000
_cell_length_c   10.77428300
_cell_angle_alpha   90.00000000
_cell_angle_beta   90.00000000
_cell_angle_gamma   90.00000000
_symmetry_Int_Tables_number   1
_chemical_formula_structural   YTh(PaIr2)2
_chemical_formula_sum   'Y1 Th1 Pa2 Ir4'
_cell_volume   173.83970928
_cell_formula_units_Z   1
loop_
 _symmetry_equiv_pos_site_id
 _symmetry_equiv_pos_as_xyz
  1  'x, y, z'
loop_
 _atom_site_type_symbol
 _atom_site_label
 _atom_site_symmetry_multiplicity
 _atom_site_fract_x
 _atom_site_fract_y
 _atom_site_fract_z
 _atom_site_occupancy
  Y  Y0  1  0.500000  0.750000  0.361149  1
  Th  Th1  1  0.000000  0.250000  0.145968  1
  Pa  Pa2  1  0.000000  0.750000  0.863285  1
  Pa  Pa3  1  0.500000  0.250000  0.630066  1
  Ir  Ir4  1  0.500000  0.750000  0.082846  1
  Ir  Ir5  1  0.000000  0.750000  0.605322  1
  Ir  Ir6  1  0.000000  0.250000  0.420391  1
  Ir  Ir7  1  0.500000  0.250000  0.890974  1
