# generated using pymatgen
data_Ho5Lu(Al3Ru)8
_symmetry_space_group_name_H-M   'P 1'
_cell_length_a   8.76738701
_cell_length_b   8.76737276
_cell_length_c   9.58232800
_cell_angle_alpha   90.00004965
_cell_angle_beta   89.99953155
_cell_angle_gamma   120.02916271
_symmetry_Int_Tables_number   1
_chemical_formula_structural   Ho5Lu(Al3Ru)8
_chemical_formula_sum   'Ho5 Lu1 Al24 Ru8'
_cell_volume   637.69588661
_cell_formula_units_Z   1
loop_
 _symmetry_equiv_pos_site_id
 _symmetry_equiv_pos_as_xyz
  1  'x, y, z'
loop_
 _atom_site_type_symbol
 _atom_site_label
 _atom_site_symmetry_multiplicity
 _atom_site_fract_x
 _atom_site_fract_y
 _atom_site_fract_z
 _atom_site_occupancy
  Ho  Ho0  1  0.193754  0.806253  0.249997  1
  Ho  Ho1  1  0.387295  0.193555  0.750003  1
  Ho  Ho2  1  0.612745  0.806311  0.249996  1
  Ho  Ho3  1  0.806450  0.612711  0.750006  1
  Ho  Ho4  1  0.193687  0.387258  0.249997  1
  Lu  Lu5  1  0.805011  0.194952  0.749993  1
  Al  Al6  1  0.666842  0.333158  0.980221  1
  Al  Al7  1  0.333373  0.666634  0.019084  1
  Al  Al8  1  0.333370  0.666634  0.480913  1
  Al  Al9  1  0.666843  0.333156  0.519782  1
  Al  Al10  1  0.837161  0.162840  0.423122  1
  Al  Al11  1  0.162928  0.837075  0.577635  1
  Al  Al12  1  0.325893  0.162864  0.422644  1
  Al  Al13  1  0.162926  0.837074  0.922367  1
  Al  Al14  1  0.674512  0.837610  0.577765  1
  Al  Al15  1  0.837161  0.162840  0.076873  1
  Al  Al16  1  0.837138  0.674111  0.422642  1
  Al  Al17  1  0.674514  0.837608  0.922239  1
  Al  Al18  1  0.162393  0.325488  0.577766  1
  Al  Al19  1  0.325894  0.162866  0.077351  1
  Al  Al20  1  0.162396  0.325487  0.922239  1
  Al  Al21  1  0.837135  0.674109  0.077351  1
  Al  Al22  1  0.438394  0.561610  0.750007  1
  Al  Al23  1  0.561661  0.438343  0.249994  1
  Al  Al24  1  0.122464  0.560796  0.750006  1
  Al  Al25  1  0.876914  0.438292  0.249995  1
  Al  Al26  1  0.439207  0.877540  0.750006  1
  Al  Al27  1  0.561711  0.123088  0.249994  1
  Al  Al28  1  0.999085  0.000918  0.750006  1
  Al  Al29  1  0.000103  0.999895  0.249993  1
  Ru  Ru30  1  0.500096  0.499901  0.999915  1
  Ru  Ru31  1  0.999750  0.499420  0.999591  1
  Ru  Ru32  1  0.500103  0.499903  0.500089  1
  Ru  Ru33  1  0.500582  0.000253  0.999592  1
  Ru  Ru34  1  0.999740  0.499411  0.500408  1
  Ru  Ru35  1  0.500582  0.000258  0.500417  1
  Ru  Ru36  1  0.000096  0.999896  0.999986  1
  Ru  Ru37  1  0.000091  0.999886  0.500017  1
