# generated using pymatgen
data_Ho4Zr2Pb5
_symmetry_space_group_name_H-M   'P 1'
_cell_length_a   6.28144056
_cell_length_b   9.33701409
_cell_length_c   11.49734600
_cell_angle_alpha   113.95699217
_cell_angle_beta   105.85294871
_cell_angle_gamma   89.99999693
_symmetry_Int_Tables_number   1
_chemical_formula_structural   Ho4Zr2Pb5
_chemical_formula_sum   'Ho8 Zr4 Pb10'
_cell_volume   588.05079623
_cell_formula_units_Z   2
loop_
 _symmetry_equiv_pos_site_id
 _symmetry_equiv_pos_as_xyz
  1  'x, y, z'
loop_
 _atom_site_type_symbol
 _atom_site_label
 _atom_site_symmetry_multiplicity
 _atom_site_fract_x
 _atom_site_fract_y
 _atom_site_fract_z
 _atom_site_occupancy
  Ho  Ho0  1  0.438596  0.671847  0.877192  1
  Ho  Ho1  1  0.561404  0.328153  0.122808  1
  Ho  Ho2  1  0.938596  0.205345  0.877192  1
  Ho  Ho3  1  0.061404  0.794655  0.122808  1
  Ho  Ho4  1  0.145738  0.258647  0.291474  1
  Ho  Ho5  1  0.854262  0.741353  0.708526  1
  Ho  Ho6  1  0.645738  0.032829  0.291474  1
  Ho  Ho7  1  0.354262  0.967171  0.708526  1
  Zr  Zr8  1  0.556457  0.306457  0.612914  1
  Zr  Zr9  1  0.443543  0.693543  0.387086  1
  Zr  Zr10  1  0.943543  0.693543  0.387086  1
  Zr  Zr11  1  0.056457  0.306457  0.612914  1
  Pb  Pb12  1  0.290006  0.591023  0.580011  1
  Pb  Pb13  1  0.709994  0.408977  0.419989  1
  Pb  Pb14  1  0.790006  0.988987  0.580011  1
  Pb  Pb15  1  0.209994  0.011013  0.419989  1
  Pb  Pb16  1  0.250000  0.000000  0.000000  1
  Pb  Pb17  1  0.750000  0.000000  0.000000  1
  Pb  Pb18  1  0.075491  0.473674  0.150983  1
  Pb  Pb19  1  0.924509  0.526326  0.849017  1
  Pb  Pb20  1  0.575491  0.677308  0.150983  1
  Pb  Pb21  1  0.424509  0.322692  0.849017  1
