# generated using pymatgen
data_Tb13Th3Mg3CdIr4
_symmetry_space_group_name_H-M   'P 1'
_cell_length_a   9.79903538
_cell_length_b   9.81345425
_cell_length_c   9.81345400
_cell_angle_alpha   60.00000084
_cell_angle_beta   59.95131346
_cell_angle_gamma   59.95131598
_symmetry_Int_Tables_number   1
_chemical_formula_structural   Tb13Th3Mg3CdIr4
_chemical_formula_sum   'Tb13 Th3 Mg3 Cd1 Ir4'
_cell_volume   666.79470751
_cell_formula_units_Z   1
loop_
 _symmetry_equiv_pos_site_id
 _symmetry_equiv_pos_as_xyz
  1  'x, y, z'
loop_
 _atom_site_type_symbol
 _atom_site_label
 _atom_site_symmetry_multiplicity
 _atom_site_fract_x
 _atom_site_fract_y
 _atom_site_fract_z
 _atom_site_occupancy
  Tb  Tb0  1  0.204166  0.598612  0.598612  1
  Tb  Tb1  1  0.062457  0.438063  0.438063  1
  Tb  Tb2  1  0.438615  0.062326  0.062326  1
  Tb  Tb3  1  0.438615  0.062326  0.436732  1
  Tb  Tb4  1  0.062457  0.438063  0.061416  1
  Tb  Tb5  1  0.438615  0.436732  0.062326  1
  Tb  Tb6  1  0.062457  0.061416  0.438063  1
  Tb  Tb7  1  0.188087  0.813788  0.813788  1
  Tb  Tb8  1  0.815062  0.185006  0.185006  1
  Tb  Tb9  1  0.815062  0.185006  0.814926  1
  Tb  Tb10  1  0.188087  0.813788  0.184338  1
  Tb  Tb11  1  0.815062  0.814926  0.185006  1
  Tb  Tb12  1  0.188087  0.184338  0.813788  1
  Th  Th13  1  0.595691  0.598541  0.598541  1
  Th  Th14  1  0.595691  0.598541  0.207229  1
  Th  Th15  1  0.595691  0.207229  0.598541  1
  Mg  Mg16  1  0.830216  0.830138  0.830138  1
  Mg  Mg17  1  0.830216  0.830138  0.509509  1
  Mg  Mg18  1  0.830216  0.509509  0.830138  1
  Cd  Cd19  1  0.502209  0.832597  0.832597  1
  Ir  Ir20  1  0.394318  0.392024  0.392024  1
  Ir  Ir21  1  0.394318  0.392024  0.821636  1
  Ir  Ir22  1  0.394318  0.821636  0.392024  1
  Ir  Ir23  1  0.820292  0.393236  0.393236  1
