# generated using pymatgen
data_Zr6Zn4PdPtN2
_symmetry_space_group_name_H-M   'P 1'
_cell_length_a   8.60900963
_cell_length_b   8.59057109
_cell_length_c   8.60900999
_cell_angle_alpha   60.07082524
_cell_angle_beta   60.14347879
_cell_angle_gamma   60.07081875
_symmetry_Int_Tables_number   1
_chemical_formula_structural   Zr6Zn4PdPtN2
_chemical_formula_sum   'Zr12 Zn8 Pd2 Pt2 N4'
_cell_volume   451.17729492
_cell_formula_units_Z   2
loop_
 _symmetry_equiv_pos_site_id
 _symmetry_equiv_pos_as_xyz
  1  'x, y, z'
loop_
 _atom_site_type_symbol
 _atom_site_label
 _atom_site_symmetry_multiplicity
 _atom_site_fract_x
 _atom_site_fract_y
 _atom_site_fract_z
 _atom_site_occupancy
  Zr  Zr0  1  0.811443  0.189540  0.186995  1
  Zr  Zr1  1  0.189083  0.810917  0.189083  1
  Zr  Zr2  1  0.811443  0.812022  0.186995  1
  Zr  Zr3  1  0.186995  0.812022  0.811443  1
  Zr  Zr4  1  0.812461  0.187539  0.812461  1
  Zr  Zr5  1  0.186995  0.189540  0.811443  1
  Zr  Zr6  1  0.438557  0.060460  0.063005  1
  Zr  Zr7  1  0.060917  0.439083  0.060917  1
  Zr  Zr8  1  0.438557  0.437978  0.063005  1
  Zr  Zr9  1  0.063005  0.437978  0.438557  1
  Zr  Zr10  1  0.437539  0.062461  0.437539  1
  Zr  Zr11  1  0.063005  0.060460  0.438557  1
  Zn  Zn12  1  0.417577  0.417361  0.747698  1
  Zn  Zn13  1  0.417548  0.417323  0.417548  1
  Zn  Zn14  1  0.747698  0.417361  0.417577  1
  Zn  Zn15  1  0.417548  0.747578  0.417548  1
  Zn  Zn16  1  0.832423  0.832639  0.502302  1
  Zn  Zn17  1  0.832452  0.832677  0.832452  1
  Zn  Zn18  1  0.502302  0.832639  0.832423  1
  Zn  Zn19  1  0.832452  0.502422  0.832452  1
  Pd  Pd20  1  0.625000  0.625000  0.625000  1
  Pd  Pd21  1  0.625000  0.125000  0.625000  1
  Pt  Pt22  1  0.625000  0.625000  0.125000  1
  Pt  Pt23  1  0.125000  0.625000  0.625000  1
  N  N24  1  0.125000  0.125000  0.625000  1
  N  N25  1  0.125000  0.125000  0.125000  1
  N  N26  1  0.625000  0.125000  0.125000  1
  N  N27  1  0.125000  0.625000  0.125000  1
