# generated using pymatgen
data_Ac3OsBr3
_symmetry_space_group_name_H-M   'P 1'
_cell_length_a   11.03134740
_cell_length_b   11.03134791
_cell_length_c   11.03134800
_cell_angle_alpha   109.47122080
_cell_angle_beta   109.47122173
_cell_angle_gamma   109.47121860
_symmetry_Int_Tables_number   1
_chemical_formula_structural   Ac3OsBr3
_chemical_formula_sum   'Ac12 Os4 Br12'
_cell_volume   1033.38901848
_cell_formula_units_Z   4
loop_
 _symmetry_equiv_pos_site_id
 _symmetry_equiv_pos_as_xyz
  1  'x, y, z'
loop_
 _atom_site_type_symbol
 _atom_site_label
 _atom_site_symmetry_multiplicity
 _atom_site_fract_x
 _atom_site_fract_y
 _atom_site_fract_z
 _atom_site_occupancy
  Ac  Ac0  1  0.466848  0.483424  0.233424  1
  Ac  Ac1  1  0.750000  0.233424  0.266576  1
  Ac  Ac2  1  0.750000  0.016576  0.483424  1
  Ac  Ac3  1  0.233424  0.466848  0.483424  1
  Ac  Ac4  1  0.266576  0.750000  0.233424  1
  Ac  Ac5  1  0.033152  0.266576  0.016576  1
  Ac  Ac6  1  0.016576  0.033152  0.266576  1
  Ac  Ac7  1  0.483424  0.750000  0.016576  1
  Ac  Ac8  1  0.483424  0.233424  0.466848  1
  Ac  Ac9  1  0.016576  0.483424  0.750000  1
  Ac  Ac10  1  0.266576  0.016576  0.033152  1
  Ac  Ac11  1  0.233424  0.266576  0.750000  1
  Os  Os12  1  0.250000  0.250000  0.250000  1
  Os  Os13  1  0.500000  0.000000  0.250000  1
  Os  Os14  1  0.000000  0.250000  0.500000  1
  Os  Os15  1  0.250000  0.500000  0.000000  1
  Br  Br16  1  0.250000  0.754990  0.745010  1
  Br  Br17  1  0.509981  0.504990  0.754990  1
  Br  Br18  1  0.990019  0.745010  0.995010  1
  Br  Br19  1  0.745010  0.250000  0.754990  1
  Br  Br20  1  0.995010  0.990019  0.745010  1
  Br  Br21  1  0.250000  0.995010  0.504990  1
  Br  Br22  1  0.754990  0.509981  0.504990  1
  Br  Br23  1  0.504990  0.250000  0.995010  1
  Br  Br24  1  0.754990  0.745010  0.250000  1
  Br  Br25  1  0.745010  0.995010  0.990019  1
  Br  Br26  1  0.995010  0.504990  0.250000  1
  Br  Br27  1  0.504990  0.754990  0.509981  1
