# generated using pymatgen
data_Dy2TmCo8MoP6
_symmetry_space_group_name_H-M   'P 1'
_cell_length_a   3.71581700
_cell_length_b   10.54957800
_cell_length_c   12.23338900
_cell_angle_alpha   90.00000000
_cell_angle_beta   90.00000000
_cell_angle_gamma   90.00000000
_symmetry_Int_Tables_number   1
_chemical_formula_structural   Dy2TmCo8MoP6
_chemical_formula_sum   'Dy4 Tm2 Co16 Mo2 P12'
_cell_volume   479.55253442
_cell_formula_units_Z   2
loop_
 _symmetry_equiv_pos_site_id
 _symmetry_equiv_pos_as_xyz
  1  'x, y, z'
loop_
 _atom_site_type_symbol
 _atom_site_label
 _atom_site_symmetry_multiplicity
 _atom_site_fract_x
 _atom_site_fract_y
 _atom_site_fract_z
 _atom_site_occupancy
  Dy  Dy0  1  0.000000  0.500000  0.524390  1
  Dy  Dy1  1  0.500000  0.000000  0.475046  1
  Dy  Dy2  1  0.000000  0.681061  0.795074  1
  Dy  Dy3  1  0.000000  0.318939  0.795074  1
  Tm  Tm4  1  0.500000  0.819198  0.204921  1
  Tm  Tm5  1  0.500000  0.180802  0.204921  1
  Co  Co6  1  0.500000  0.500000  0.701371  1
  Co  Co7  1  0.000000  0.000000  0.297781  1
  Co  Co8  1  0.000000  0.500000  0.987049  1
  Co  Co9  1  0.500000  0.000000  0.014407  1
  Co  Co10  1  0.500000  0.332036  0.990888  1
  Co  Co11  1  0.500000  0.667964  0.990888  1
  Co  Co12  1  0.000000  0.167271  0.010779  1
  Co  Co13  1  0.000000  0.832729  0.010779  1
  Co  Co14  1  0.500000  0.295677  0.430645  1
  Co  Co15  1  0.500000  0.704323  0.430645  1
  Co  Co16  1  0.000000  0.204001  0.568027  1
  Co  Co17  1  0.000000  0.795999  0.568027  1
  Co  Co18  1  0.500000  0.878228  0.706603  1
  Co  Co19  1  0.500000  0.121772  0.706603  1
  Co  Co20  1  0.000000  0.622487  0.292770  1
  Co  Co21  1  0.000000  0.377513  0.292770  1
  Mo  Mo22  1  0.500000  0.500000  0.156515  1
  Mo  Mo23  1  0.000000  0.000000  0.843871  1
  P  P24  1  0.500000  0.500000  0.881405  1
  P  P25  1  0.000000  0.000000  0.120078  1
  P  P26  1  0.500000  0.500000  0.349407  1
  P  P27  1  0.000000  0.000000  0.650573  1
  P  P28  1  0.500000  0.311093  0.615527  1
  P  P29  1  0.500000  0.688907  0.615527  1
  P  P30  1  0.000000  0.188388  0.382890  1
  P  P31  1  0.000000  0.811612  0.382890  1
  P  P32  1  0.500000  0.844939  0.893193  1
  P  P33  1  0.500000  0.155061  0.893193  1
  P  P34  1  0.000000  0.656157  0.107736  1
  P  P35  1  0.000000  0.343843  0.107736  1
