# generated using pymatgen
data_Cs6InBi2As
_symmetry_space_group_name_H-M   'P 1'
_cell_length_a   6.71264300
_cell_length_b   11.41398632
_cell_length_c   13.10843964
_cell_angle_alpha   78.24106508
_cell_angle_beta   90.00000000
_cell_angle_gamma   90.00000000
_symmetry_Int_Tables_number   1
_chemical_formula_structural   Cs6InBi2As
_chemical_formula_sum   'Cs12 In2 Bi4 As2'
_cell_volume   983.26519800
_cell_formula_units_Z   2
loop_
 _symmetry_equiv_pos_site_id
 _symmetry_equiv_pos_as_xyz
  1  'x, y, z'
loop_
 _atom_site_type_symbol
 _atom_site_label
 _atom_site_symmetry_multiplicity
 _atom_site_fract_x
 _atom_site_fract_y
 _atom_site_fract_z
 _atom_site_occupancy
  Cs  Cs0  1  0.750000  0.453911  0.068565  1
  Cs  Cs1  1  0.250000  0.546089  0.931435  1
  Cs  Cs2  1  0.750000  0.718905  0.223048  1
  Cs  Cs3  1  0.250000  0.281095  0.776952  1
  Cs  Cs4  1  0.250000  0.573407  0.513854  1
  Cs  Cs5  1  0.750000  0.426593  0.486146  1
  Cs  Cs6  1  0.250000  0.860990  0.032807  1
  Cs  Cs7  1  0.750000  0.139010  0.967193  1
  Cs  Cs8  1  0.250000  0.869080  0.680806  1
  Cs  Cs9  1  0.750000  0.130920  0.319194  1
  Cs  Cs10  1  0.250000  0.927579  0.361974  1
  Cs  Cs11  1  0.750000  0.072421  0.638026  1
  In  In12  1  0.250000  0.346964  0.274215  1
  In  In13  1  0.750000  0.653036  0.725785  1
  Bi  Bi14  1  0.250000  0.193851  0.113876  1
  Bi  Bi15  1  0.750000  0.806149  0.886124  1
  Bi  Bi16  1  0.250000  0.215277  0.494103  1
  Bi  Bi17  1  0.750000  0.784723  0.505897  1
  As  As18  1  0.250000  0.578462  0.220327  1
  As  As19  1  0.750000  0.421538  0.779673  1
