# generated using pymatgen
data_Tb3Bi3(MoO7)2
_symmetry_space_group_name_H-M   'P 1'
_cell_length_a   6.64296548
_cell_length_b   6.65551890
_cell_length_c   7.59783066
_cell_angle_alpha   89.90542955
_cell_angle_beta   90.02872208
_cell_angle_gamma   108.43100716
_symmetry_Int_Tables_number   1
_chemical_formula_structural   Tb3Bi3(MoO7)2
_chemical_formula_sum   'Tb3 Bi3 Mo2 O14'
_cell_volume   318.68685263
_cell_formula_units_Z   1
loop_
 _symmetry_equiv_pos_site_id
 _symmetry_equiv_pos_as_xyz
  1  'x, y, z'
loop_
 _atom_site_type_symbol
 _atom_site_label
 _atom_site_symmetry_multiplicity
 _atom_site_fract_x
 _atom_site_fract_y
 _atom_site_fract_z
 _atom_site_occupancy
  Tb  Tb0  1  0.554318  0.541042  0.505090  1
  Tb  Tb1  1  0.538956  0.998044  0.759266  1
  Tb  Tb2  1  0.001901  0.460321  0.736449  1
  Bi  Bi3  1  0.477113  0.992840  0.254895  1
  Bi  Bi4  1  0.007864  0.522965  0.253046  1
  Bi  Bi5  1  0.458787  0.449593  0.992498  1
  Mo  Mo6  1  0.002190  0.002254  0.501433  1
  Mo  Mo7  1  0.995062  0.996422  0.996458  1
  O  O8  1  0.919491  0.078700  0.749200  1
  O  O9  1  0.642985  0.353951  0.738517  1
  O  O10  1  0.280713  0.038935  0.560217  1
  O  O11  1  0.966762  0.723624  0.934513  1
  O  O12  1  0.634521  0.355203  0.269283  1
  O  O13  1  0.918862  0.675810  0.527795  1
  O  O14  1  0.325220  0.087070  0.967707  1
  O  O15  1  0.085115  0.328204  0.016288  1
  O  O16  1  0.674039  0.916776  0.481840  1
  O  O17  1  0.370442  0.626081  0.742540  1
  O  O18  1  0.688635  0.965802  0.035492  1
  O  O19  1  0.042243  0.311854  0.465456  1
  O  O20  1  0.370292  0.620839  0.262952  1
  O  O21  1  0.044489  0.953669  0.249067  1
