# generated using pymatgen
data_Ba6Sn8BiAs
_symmetry_space_group_name_H-M   'P 1'
_cell_length_a   9.26859364
_cell_length_b   9.26859323
_cell_length_c   9.35250144
_cell_angle_alpha   119.70366637
_cell_angle_beta   119.70366394
_cell_angle_gamma   90.00000172
_symmetry_Int_Tables_number   1
_chemical_formula_structural   Ba6Sn8BiAs
_chemical_formula_sum   'Ba6 Sn8 Bi1 As1'
_cell_volume   573.17206914
_cell_formula_units_Z   1
loop_
 _symmetry_equiv_pos_site_id
 _symmetry_equiv_pos_as_xyz
  1  'x, y, z'
loop_
 _atom_site_type_symbol
 _atom_site_label
 _atom_site_symmetry_multiplicity
 _atom_site_fract_x
 _atom_site_fract_y
 _atom_site_fract_z
 _atom_site_occupancy
  Ba  Ba0  1  0.238941  0.238941  0.477882  1
  Ba  Ba1  1  0.761059  0.761059  0.522118  1
  Ba  Ba2  1  0.676337  0.156670  0.000000  1
  Ba  Ba3  1  0.323663  0.843330  0.000000  1
  Ba  Ba4  1  0.843330  0.676337  0.000000  1
  Ba  Ba5  1  0.156670  0.323663  0.000000  1
  Sn  Sn6  1  0.338888  0.835219  0.391137  1
  Sn  Sn7  1  0.661112  0.164781  0.608863  1
  Sn  Sn8  1  0.052250  0.555919  0.391137  1
  Sn  Sn9  1  0.555919  0.338888  0.391137  1
  Sn  Sn10  1  0.164781  0.947750  0.608863  1
  Sn  Sn11  1  0.947750  0.444081  0.608863  1
  Sn  Sn12  1  0.444081  0.661112  0.608863  1
  Sn  Sn13  1  0.835219  0.052250  0.391137  1
  Bi  Bi14  1  0.500000  0.500000  0.000000  1
  As  As15  1  0.000000  0.000000  0.000000  1
