# generated using pymatgen
data_La4(EuRh)3
_symmetry_space_group_name_H-M   'P 1'
_cell_length_a   6.48153800
_cell_length_b   10.25500667
_cell_length_c   10.25500700
_cell_angle_alpha   120.01310801
_cell_angle_beta   90.00000000
_cell_angle_gamma   90.00000000
_symmetry_Int_Tables_number   1
_chemical_formula_structural   La4(EuRh)3
_chemical_formula_sum   'La8 Eu6 Rh6'
_cell_volume   590.23265389
_cell_formula_units_Z   2
loop_
 _symmetry_equiv_pos_site_id
 _symmetry_equiv_pos_as_xyz
  1  'x, y, z'
loop_
 _atom_site_type_symbol
 _atom_site_label
 _atom_site_symmetry_multiplicity
 _atom_site_fract_x
 _atom_site_fract_y
 _atom_site_fract_z
 _atom_site_occupancy
  La  La0  1  0.482031  0.333265  0.666735  1
  La  La1  1  0.982031  0.666735  0.333265  1
  La  La2  1  0.251276  0.123622  0.876378  1
  La  La3  1  0.251448  0.752666  0.876242  1
  La  La4  1  0.251448  0.123758  0.247334  1
  La  La5  1  0.751276  0.876378  0.123622  1
  La  La6  1  0.751448  0.247334  0.123758  1
  La  La7  1  0.751448  0.876242  0.752666  1
  Eu  Eu8  1  0.445974  0.540976  0.459024  1
  Eu  Eu9  1  0.446298  0.918131  0.459100  1
  Eu  Eu10  1  0.446298  0.540900  0.081869  1
  Eu  Eu11  1  0.945974  0.459024  0.540976  1
  Eu  Eu12  1  0.946298  0.081869  0.540900  1
  Eu  Eu13  1  0.946298  0.459100  0.918131  1
  Rh  Rh14  1  0.172789  0.815603  0.184397  1
  Rh  Rh15  1  0.172720  0.369124  0.184718  1
  Rh  Rh16  1  0.172720  0.815282  0.630876  1
  Rh  Rh17  1  0.672789  0.184397  0.815603  1
  Rh  Rh18  1  0.672720  0.630876  0.815282  1
  Rh  Rh19  1  0.672720  0.184718  0.369124  1
