# generated using pymatgen
data_NaErB4Ir5
_symmetry_space_group_name_H-M   'P 1'
_cell_length_a   7.46678207
_cell_length_b   6.29140451
_cell_length_c   5.60015021
_cell_angle_alpha   77.55073373
_cell_angle_beta   55.36349550
_cell_angle_gamma   47.08576094
_symmetry_Int_Tables_number   1
_chemical_formula_structural   NaErB4Ir5
_chemical_formula_sum   'Na1 Er1 B4 Ir5'
_cell_volume   151.97330136
_cell_formula_units_Z   1
loop_
 _symmetry_equiv_pos_site_id
 _symmetry_equiv_pos_as_xyz
  1  'x, y, z'
loop_
 _atom_site_type_symbol
 _atom_site_label
 _atom_site_symmetry_multiplicity
 _atom_site_fract_x
 _atom_site_fract_y
 _atom_site_fract_z
 _atom_site_occupancy
  Na  Na0  1  0.646626  0.646625  0.353374  1
  Er  Er1  1  0.370596  0.370595  0.629404  1
  B  B2  1  0.287901  0.972543  0.027456  1
  B  B3  1  0.022097  0.707424  0.292574  1
  B  B4  1  0.972544  0.287899  0.712099  1
  B  B5  1  0.707426  0.022096  0.977903  1
  Ir  Ir6  1  0.996657  0.996657  0.003343  1
  Ir  Ir7  1  0.499798  0.499799  0.000201  1
  Ir  Ir8  1  0.248280  0.248281  0.251720  1
  Ir  Ir9  1  0.999799  0.999799  0.500202  1
  Ir  Ir10  1  0.748281  0.748280  0.751720  1
