# generated using pymatgen
data_TbY19(Cd3Os)2
_symmetry_space_group_name_H-M   'P 1'
_cell_length_a   9.65717585
_cell_length_b   9.65717627
_cell_length_c   9.90010983
_cell_angle_alpha   90.05253899
_cell_angle_beta   89.94746808
_cell_angle_gamma   120.01236808
_symmetry_Int_Tables_number   1
_chemical_formula_structural   TbY19(Cd3Os)2
_chemical_formula_sum   'Tb1 Y19 Cd6 Os2'
_cell_volume   799.49648703
_cell_formula_units_Z   1
loop_
 _symmetry_equiv_pos_site_id
 _symmetry_equiv_pos_as_xyz
  1  'x, y, z'
loop_
 _atom_site_type_symbol
 _atom_site_label
 _atom_site_symmetry_multiplicity
 _atom_site_fract_x
 _atom_site_fract_y
 _atom_site_fract_z
 _atom_site_occupancy
  Tb  Tb0  1  0.210041  0.789959  0.439304  1
  Y  Y1  1  0.000266  0.999734  0.499945  1
  Y  Y2  1  0.999804  0.000196  0.000200  1
  Y  Y3  1  0.540070  0.459930  0.250100  1
  Y  Y4  1  0.539918  0.079760  0.249940  1
  Y  Y5  1  0.920240  0.460082  0.249940  1
  Y  Y6  1  0.460160  0.539840  0.750097  1
  Y  Y7  1  0.460116  0.919998  0.749910  1
  Y  Y8  1  0.080002  0.539884  0.749910  1
  Y  Y9  1  0.209587  0.418812  0.440195  1
  Y  Y10  1  0.581188  0.790413  0.440195  1
  Y  Y11  1  0.790474  0.209526  0.559932  1
  Y  Y12  1  0.790541  0.580712  0.559994  1
  Y  Y13  1  0.419288  0.209459  0.559994  1
  Y  Y14  1  0.790314  0.209686  0.939874  1
  Y  Y15  1  0.790396  0.580780  0.940048  1
  Y  Y16  1  0.419220  0.209604  0.940048  1
  Y  Y17  1  0.209258  0.790742  0.059658  1
  Y  Y18  1  0.209888  0.419582  0.060082  1
  Y  Y19  1  0.580418  0.790112  0.060082  1
  Cd  Cd20  1  0.885568  0.114432  0.250190  1
  Cd  Cd21  1  0.885306  0.771092  0.249777  1
  Cd  Cd22  1  0.228908  0.114694  0.249777  1
  Cd  Cd23  1  0.114354  0.885646  0.750425  1
  Cd  Cd24  1  0.114308  0.228908  0.750052  1
  Cd  Cd25  1  0.771092  0.885692  0.750052  1
  Os  Os26  1  0.332668  0.667332  0.250363  1
  Os  Os27  1  0.666605  0.333395  0.749919  1
