# generated using pymatgen
data_BiOsI18
_symmetry_space_group_name_H-M   'P 1'
_cell_length_a   10.24237877
_cell_length_b   10.26084406
_cell_length_c   10.24514149
_cell_angle_alpha   88.79216834
_cell_angle_beta   88.84009719
_cell_angle_gamma   88.65469459
_symmetry_Int_Tables_number   1
_chemical_formula_structural   BiOsI18
_chemical_formula_sum   'Bi1 Os1 I18'
_cell_volume   1075.97173855
_cell_formula_units_Z   1
loop_
 _symmetry_equiv_pos_site_id
 _symmetry_equiv_pos_as_xyz
  1  'x, y, z'
loop_
 _atom_site_type_symbol
 _atom_site_label
 _atom_site_symmetry_multiplicity
 _atom_site_fract_x
 _atom_site_fract_y
 _atom_site_fract_z
 _atom_site_occupancy
  Bi  Bi0  1  0.000000  0.000000  0.000000  1
  Os  Os1  1  0.500000  0.500000  0.500000  1
  I  I2  1  0.762401  0.485812  0.501275  1
  I  I3  1  0.500051  0.761653  0.485102  1
  I  I4  1  0.485897  0.501134  0.762440  1
  I  I5  1  0.237599  0.514188  0.498725  1
  I  I6  1  0.499949  0.238347  0.514898  1
  I  I7  1  0.514103  0.498866  0.237560  1
  I  I8  1  0.877511  0.384857  0.743671  1
  I  I9  1  0.742062  0.876497  0.384782  1
  I  I10  1  0.385258  0.742803  0.877567  1
  I  I11  1  0.122489  0.615143  0.256329  1
  I  I12  1  0.257938  0.123503  0.615218  1
  I  I13  1  0.614742  0.257197  0.122433  1
  I  I14  1  0.023789  0.974112  0.696185  1
  I  I15  1  0.696493  0.023758  0.972116  1
  I  I16  1  0.973027  0.697177  0.021750  1
  I  I17  1  0.976211  0.025888  0.303815  1
  I  I18  1  0.303507  0.976242  0.027884  1
  I  I19  1  0.026973  0.302823  0.978250  1
