# generated using pymatgen
data_Rb3Er(AsO4)2
_symmetry_space_group_name_H-M   'P 1'
_cell_length_a   5.97060500
_cell_length_b   5.97060473
_cell_length_c   8.19215300
_cell_angle_alpha   90.00000000
_cell_angle_beta   90.00000000
_cell_angle_gamma   120.00000706
_symmetry_Int_Tables_number   1
_chemical_formula_structural   Rb3Er(AsO4)2
_chemical_formula_sum   'Rb3 Er1 As2 O8'
_cell_volume   252.90960087
_cell_formula_units_Z   1
loop_
 _symmetry_equiv_pos_site_id
 _symmetry_equiv_pos_as_xyz
  1  'x, y, z'
loop_
 _atom_site_type_symbol
 _atom_site_label
 _atom_site_symmetry_multiplicity
 _atom_site_fract_x
 _atom_site_fract_y
 _atom_site_fract_z
 _atom_site_occupancy
  Rb  Rb0  1  0.333333  0.666667  0.727491  1
  Rb  Rb1  1  0.666667  0.333333  0.272509  1
  Rb  Rb2  1  0.000000  0.000000  0.000000  1
  Er  Er3  1  0.000000  0.000000  0.500000  1
  As  As4  1  0.333333  0.666667  0.266884  1
  As  As5  1  0.666667  0.333333  0.733116  1
  O  O6  1  0.333333  0.666667  0.061247  1
  O  O7  1  0.666667  0.333333  0.938753  1
  O  O8  1  0.176309  0.823691  0.341895  1
  O  O9  1  0.823691  0.176309  0.658105  1
  O  O10  1  0.176309  0.352618  0.341895  1
  O  O11  1  0.823691  0.647382  0.658105  1
  O  O12  1  0.647382  0.823691  0.341895  1
  O  O13  1  0.352618  0.176309  0.658105  1
