# generated using pymatgen
data_Y9Mg(Cu2Bi)2
_symmetry_space_group_name_H-M   'P 1'
_cell_length_a   8.66302459
_cell_length_b   8.66302506
_cell_length_c   8.66302381
_cell_angle_alpha   126.21348350
_cell_angle_beta   126.21348737
_cell_angle_gamma   79.53754619
_symmetry_Int_Tables_number   1
_chemical_formula_structural   Y9Mg(Cu2Bi)2
_chemical_formula_sum   'Y9 Mg1 Cu4 Bi2'
_cell_volume   408.97574625
_cell_formula_units_Z   1
loop_
 _symmetry_equiv_pos_site_id
 _symmetry_equiv_pos_as_xyz
  1  'x, y, z'
loop_
 _atom_site_type_symbol
 _atom_site_label
 _atom_site_symmetry_multiplicity
 _atom_site_fract_x
 _atom_site_fract_y
 _atom_site_fract_z
 _atom_site_occupancy
  Y  Y0  1  0.000000  0.000000  0.000000  1
  Y  Y1  1  0.788909  0.303736  0.816614  1
  Y  Y2  1  0.211091  0.696264  0.183386  1
  Y  Y3  1  0.487121  0.972295  0.183386  1
  Y  Y4  1  0.303736  0.487121  0.514827  1
  Y  Y5  1  0.027705  0.211091  0.514827  1
  Y  Y6  1  0.512879  0.027705  0.816614  1
  Y  Y7  1  0.696264  0.512879  0.485173  1
  Y  Y8  1  0.972295  0.788909  0.485173  1
  Mg  Mg9  1  0.500000  0.500000  0.000000  1
  Cu  Cu10  1  0.126531  0.632226  0.758759  1
  Cu  Cu11  1  0.873469  0.367774  0.241241  1
  Cu  Cu12  1  0.632226  0.873469  0.505695  1
  Cu  Cu13  1  0.367774  0.126531  0.494305  1
  Bi  Bi14  1  0.244790  0.244790  0.000000  1
  Bi  Bi15  1  0.755210  0.755210  0.000000  1
