# generated using pymatgen
data_Zr4Si3PPd4
_symmetry_space_group_name_H-M   'P 1'
_cell_length_a   3.91832200
_cell_length_b   6.64535612
_cell_length_c   7.64612886
_cell_angle_alpha   90.39753953
_cell_angle_beta   90.00000000
_cell_angle_gamma   90.00000000
_symmetry_Int_Tables_number   1
_chemical_formula_structural   Zr4Si3PPd4
_chemical_formula_sum   'Zr4 Si3 P1 Pd4'
_cell_volume   199.09004338
_cell_formula_units_Z   1
loop_
 _symmetry_equiv_pos_site_id
 _symmetry_equiv_pos_as_xyz
  1  'x, y, z'
loop_
 _atom_site_type_symbol
 _atom_site_label
 _atom_site_symmetry_multiplicity
 _atom_site_fract_x
 _atom_site_fract_y
 _atom_site_fract_z
 _atom_site_occupancy
  Zr  Zr0  1  0.250000  0.029325  0.322429  1
  Zr  Zr1  1  0.250000  0.528096  0.179190  1
  Zr  Zr2  1  0.750000  0.974099  0.680968  1
  Zr  Zr3  1  0.750000  0.469386  0.815840  1
  Si  Si4  1  0.250000  0.760396  0.876942  1
  Si  Si5  1  0.750000  0.741525  0.376717  1
  Si  Si6  1  0.750000  0.238915  0.121007  1
  P  P7  1  0.250000  0.257482  0.627552  1
  Pd  Pd8  1  0.250000  0.142474  0.941874  1
  Pd  Pd9  1  0.250000  0.649819  0.560193  1
  Pd  Pd10  1  0.750000  0.854221  0.061403  1
  Pd  Pd11  1  0.750000  0.354262  0.435884  1
