# generated using pymatgen
data_YbTm(B4Os)2
_symmetry_space_group_name_H-M   'P 1'
_cell_length_a   3.54234400
_cell_length_b   5.94733278
_cell_length_c   11.49446411
_cell_angle_alpha   89.81443736
_cell_angle_beta   90.00000000
_cell_angle_gamma   90.00000000
_symmetry_Int_Tables_number   1
_chemical_formula_structural   YbTm(B4Os)2
_chemical_formula_sum   'Yb2 Tm2 B16 Os4'
_cell_volume   242.15833631
_cell_formula_units_Z   2
loop_
 _symmetry_equiv_pos_site_id
 _symmetry_equiv_pos_as_xyz
  1  'x, y, z'
loop_
 _atom_site_type_symbol
 _atom_site_label
 _atom_site_symmetry_multiplicity
 _atom_site_fract_x
 _atom_site_fract_y
 _atom_site_fract_z
 _atom_site_occupancy
  Yb  Yb0  1  0.000000  0.628764  0.850668  1
  Yb  Yb1  1  0.000000  0.371236  0.149332  1
  Tm  Tm2  1  0.000000  0.128551  0.650567  1
  Tm  Tm3  1  0.000000  0.871449  0.349433  1
  B  B4  1  0.500000  0.473903  0.692039  1
  B  B5  1  0.500000  0.526097  0.307961  1
  B  B6  1  0.500000  0.975277  0.808260  1
  B  B7  1  0.500000  0.024723  0.191740  1
  B  B8  1  0.500000  0.288610  0.814947  1
  B  B9  1  0.500000  0.711390  0.185053  1
  B  B10  1  0.500000  0.788129  0.686015  1
  B  B11  1  0.500000  0.211871  0.313985  1
  B  B12  1  0.500000  0.363964  0.969528  1
  B  B13  1  0.500000  0.636036  0.030472  1
  B  B14  1  0.500000  0.864214  0.530106  1
  B  B15  1  0.500000  0.135786  0.469894  1
  B  B16  1  0.500000  0.387087  0.547641  1
  B  B17  1  0.500000  0.612913  0.452359  1
  B  B18  1  0.500000  0.886087  0.953073  1
  B  B19  1  0.500000  0.113913  0.046927  1
  Os  Os20  1  0.000000  0.136881  0.908822  1
  Os  Os21  1  0.000000  0.863119  0.091178  1
  Os  Os22  1  0.000000  0.642016  0.591461  1
  Os  Os23  1  0.000000  0.357984  0.408539  1
