# generated using pymatgen
data_Tb3ZnCoSn3Ir
_symmetry_space_group_name_H-M   'P 1'
_cell_length_a   7.47951900
_cell_length_b   7.47952058
_cell_length_c   3.96115700
_cell_angle_alpha   90.00000000
_cell_angle_beta   90.00000000
_cell_angle_gamma   119.99999743
_symmetry_Int_Tables_number   1
_chemical_formula_structural   Tb3ZnCoSn3Ir
_chemical_formula_sum   'Tb3 Zn1 Co1 Sn3 Ir1'
_cell_volume   191.91111569
_cell_formula_units_Z   1
loop_
 _symmetry_equiv_pos_site_id
 _symmetry_equiv_pos_as_xyz
  1  'x, y, z'
loop_
 _atom_site_type_symbol
 _atom_site_label
 _atom_site_symmetry_multiplicity
 _atom_site_fract_x
 _atom_site_fract_y
 _atom_site_fract_z
 _atom_site_occupancy
  Tb  Tb0  1  0.606875  0.016583  0.000000  1
  Tb  Tb1  1  0.983417  0.590292  0.000000  1
  Tb  Tb2  1  0.409708  0.393125  0.000000  1
  Zn  Zn3  1  0.333333  0.666667  0.500000  1
  Co  Co4  1  0.000000  0.000000  0.000000  1
  Sn  Sn5  1  0.247362  0.998303  0.500000  1
  Sn  Sn6  1  0.001697  0.249059  0.500000  1
  Sn  Sn7  1  0.750941  0.752638  0.500000  1
  Ir  Ir8  1  0.666667  0.333333  0.500000  1
