# generated using pymatgen
data_CrGaS3
_symmetry_space_group_name_H-M   'P 1'
_cell_length_a   3.60651800
_cell_length_b   9.86975600
_cell_length_c   11.94376600
_cell_angle_alpha   90.00000000
_cell_angle_beta   90.00000000
_cell_angle_gamma   90.00000000
_symmetry_Int_Tables_number   1
_chemical_formula_structural   CrGaS3
_chemical_formula_sum   'Cr4 Ga4 S12'
_cell_volume   425.14375735
_cell_formula_units_Z   4
loop_
 _symmetry_equiv_pos_site_id
 _symmetry_equiv_pos_as_xyz
  1  'x, y, z'
loop_
 _atom_site_type_symbol
 _atom_site_label
 _atom_site_symmetry_multiplicity
 _atom_site_fract_x
 _atom_site_fract_y
 _atom_site_fract_z
 _atom_site_occupancy
  Cr  Cr0  1  0.250000  0.404800  0.609565  1
  Cr  Cr1  1  0.750000  0.595200  0.390435  1
  Cr  Cr2  1  0.250000  0.904800  0.890435  1
  Cr  Cr3  1  0.750000  0.095200  0.109565  1
  Ga  Ga4  1  0.750000  0.266602  0.794861  1
  Ga  Ga5  1  0.250000  0.733398  0.205139  1
  Ga  Ga6  1  0.750000  0.766602  0.705139  1
  Ga  Ga7  1  0.250000  0.233398  0.294861  1
  S  S8  1  0.250000  0.927455  0.094734  1
  S  S9  1  0.750000  0.072545  0.905266  1
  S  S10  1  0.250000  0.427455  0.405266  1
  S  S11  1  0.750000  0.572545  0.594734  1
  S  S12  1  0.750000  0.091097  0.316264  1
  S  S13  1  0.250000  0.908903  0.683736  1
  S  S14  1  0.750000  0.591097  0.183736  1
  S  S15  1  0.250000  0.408903  0.816264  1
  S  S16  1  0.250000  0.259142  0.105158  1
  S  S17  1  0.750000  0.740858  0.894842  1
  S  S18  1  0.250000  0.759142  0.394842  1
  S  S19  1  0.750000  0.240858  0.605158  1
