# generated using pymatgen
data_Th2FeB8Ru
_symmetry_space_group_name_H-M   'P 1'
_cell_length_a   7.04029533
_cell_length_b   7.04029540
_cell_length_c   7.04029600
_cell_angle_alpha   111.53870229
_cell_angle_beta   113.07999543
_cell_angle_gamma   103.93697839
_symmetry_Int_Tables_number   1
_chemical_formula_structural   Th2FeB8Ru
_chemical_formula_sum   'Th4 Fe2 B16 Ru2'
_cell_volume   266.71882582
_cell_formula_units_Z   2
loop_
 _symmetry_equiv_pos_site_id
 _symmetry_equiv_pos_as_xyz
  1  'x, y, z'
loop_
 _atom_site_type_symbol
 _atom_site_label
 _atom_site_symmetry_multiplicity
 _atom_site_fract_x
 _atom_site_fract_y
 _atom_site_fract_z
 _atom_site_occupancy
  Th  Th0  1  0.782894  0.782894  0.000000  1
  Th  Th1  1  0.217106  0.217106  0.000000  1
  Th  Th2  1  0.750229  0.250229  0.500000  1
  Th  Th3  1  0.249771  0.749771  0.500000  1
  Fe  Fe4  1  0.500000  0.742711  0.242711  1
  Fe  Fe5  1  0.500000  0.257289  0.757289  1
  B  B6  1  0.273889  0.109186  0.383076  1
  B  B7  1  0.726111  0.890814  0.616924  1
  B  B8  1  0.273889  0.890814  0.164703  1
  B  B9  1  0.726111  0.109186  0.835297  1
  B  B10  1  0.111017  0.732605  0.843624  1
  B  B11  1  0.888983  0.267395  0.156376  1
  B  B12  1  0.111017  0.267395  0.378412  1
  B  B13  1  0.888983  0.732605  0.621588  1
  B  B14  1  0.118907  0.112200  0.531062  1
  B  B15  1  0.581138  0.587845  0.468938  1
  B  B16  1  0.118907  0.587845  0.006707  1
  B  B17  1  0.581138  0.112200  0.993293  1
  B  B18  1  0.881093  0.887800  0.468938  1
  B  B19  1  0.418862  0.412155  0.531062  1
  B  B20  1  0.881094  0.412155  0.993293  1
  B  B21  1  0.418862  0.887801  0.006707  1
  Ru  Ru22  1  0.271620  0.500000  0.771620  1
  Ru  Ru23  1  0.728380  0.500000  0.228380  1
