# generated using pymatgen
data_Tb12Dy4Cd4Co3Ru
_symmetry_space_group_name_H-M   'P 1'
_cell_length_a   9.60480179
_cell_length_b   9.60477781
_cell_length_c   9.60486006
_cell_angle_alpha   59.57798021
_cell_angle_beta   59.58658564
_cell_angle_gamma   59.57999840
_symmetry_Int_Tables_number   1
_chemical_formula_structural   Tb12Dy4Cd4Co3Ru
_chemical_formula_sum   'Tb12 Dy4 Cd4 Co3 Ru1'
_cell_volume   620.58420900
_cell_formula_units_Z   1
loop_
 _symmetry_equiv_pos_site_id
 _symmetry_equiv_pos_as_xyz
  1  'x, y, z'
loop_
 _atom_site_type_symbol
 _atom_site_label
 _atom_site_symmetry_multiplicity
 _atom_site_fract_x
 _atom_site_fract_y
 _atom_site_fract_z
 _atom_site_occupancy
  Tb  Tb0  1  0.436229  0.061722  0.061572  1
  Tb  Tb1  1  0.812949  0.187646  0.812802  1
  Tb  Tb2  1  0.437597  0.057619  0.437816  1
  Tb  Tb3  1  0.599482  0.211605  0.599331  1
  Tb  Tb4  1  0.812956  0.812786  0.187621  1
  Tb  Tb5  1  0.211397  0.599532  0.599346  1
  Tb  Tb6  1  0.808629  0.189136  0.189209  1
  Tb  Tb7  1  0.057656  0.437603  0.437611  1
  Tb  Tb8  1  0.189195  0.808715  0.189035  1
  Tb  Tb9  1  0.599272  0.599290  0.211405  1
  Tb  Tb10  1  0.189200  0.188986  0.808673  1
  Tb  Tb11  1  0.061692  0.436380  0.061493  1
  Dy  Dy12  1  0.437725  0.437948  0.057455  1
  Dy  Dy13  1  0.595474  0.595550  0.595859  1
  Dy  Dy14  1  0.187820  0.812772  0.812781  1
  Dy  Dy15  1  0.061466  0.061409  0.436495  1
  Cd  Cd16  1  0.829772  0.829756  0.508470  1
  Cd  Cd17  1  0.829984  0.829807  0.829633  1
  Cd  Cd18  1  0.508347  0.829599  0.829777  1
  Cd  Cd19  1  0.829608  0.508464  0.829776  1
  Co  Co20  1  0.828688  0.392190  0.392308  1
  Co  Co21  1  0.392087  0.828668  0.392421  1
  Co  Co22  1  0.392194  0.392401  0.828664  1
  Ru  Ru23  1  0.390580  0.390420  0.390448  1
