# generated using pymatgen
data_Y16In3HgIr4
_symmetry_space_group_name_H-M   'P 1'
_cell_length_a   9.70099047
_cell_length_b   9.70098978
_cell_length_c   9.70099061
_cell_angle_alpha   59.90879063
_cell_angle_beta   59.90878983
_cell_angle_gamma   59.90879536
_symmetry_Int_Tables_number   1
_chemical_formula_structural   Y16In3HgIr4
_chemical_formula_sum   'Y16 In3 Hg1 Ir4'
_cell_volume   644.21922726
_cell_formula_units_Z   1
loop_
 _symmetry_equiv_pos_site_id
 _symmetry_equiv_pos_as_xyz
  1  'x, y, z'
loop_
 _atom_site_type_symbol
 _atom_site_label
 _atom_site_symmetry_multiplicity
 _atom_site_fract_x
 _atom_site_fract_y
 _atom_site_fract_z
 _atom_site_occupancy
  Y  Y0  1  0.808950  0.188462  0.808950  1
  Y  Y1  1  0.937042  0.561212  0.561212  1
  Y  Y2  1  0.561212  0.937042  0.561212  1
  Y  Y3  1  0.807185  0.191655  0.191655  1
  Y  Y4  1  0.191655  0.807185  0.191655  1
  Y  Y5  1  0.350907  0.949970  0.350907  1
  Y  Y6  1  0.939696  0.939696  0.560549  1
  Y  Y7  1  0.560549  0.939696  0.939696  1
  Y  Y8  1  0.188462  0.808950  0.808950  1
  Y  Y9  1  0.350907  0.350907  0.949970  1
  Y  Y10  1  0.561212  0.561212  0.937042  1
  Y  Y11  1  0.348445  0.348445  0.348445  1
  Y  Y12  1  0.191655  0.191655  0.807185  1
  Y  Y13  1  0.808950  0.808950  0.188462  1
  Y  Y14  1  0.939696  0.560549  0.939696  1
  Y  Y15  1  0.949970  0.350907  0.350907  1
  In  In16  1  0.582784  0.251790  0.582784  1
  In  In17  1  0.582784  0.582784  0.251790  1
  In  In18  1  0.251790  0.582784  0.582784  1
  Hg  Hg19  1  0.585910  0.585910  0.585910  1
  Ir  Ir20  1  0.141165  0.141165  0.576188  1
  Ir  Ir21  1  0.576188  0.141165  0.141165  1
  Ir  Ir22  1  0.141165  0.576188  0.141165  1
  Ir  Ir23  1  0.141724  0.141724  0.141724  1
