# generated using pymatgen
data_Nd3Se2ClO8
_symmetry_space_group_name_H-M   'P 1'
_cell_length_a   5.71978700
_cell_length_b   11.45373900
_cell_length_c   15.13847300
_cell_angle_alpha   90.00000000
_cell_angle_beta   90.00000000
_cell_angle_gamma   90.00000000
_symmetry_Int_Tables_number   1
_chemical_formula_structural   Nd3Se2ClO8
_chemical_formula_sum   'Nd12 Se8 Cl4 O32'
_cell_volume   991.76598587
_cell_formula_units_Z   4
loop_
 _symmetry_equiv_pos_site_id
 _symmetry_equiv_pos_as_xyz
  1  'x, y, z'
loop_
 _atom_site_type_symbol
 _atom_site_label
 _atom_site_symmetry_multiplicity
 _atom_site_fract_x
 _atom_site_fract_y
 _atom_site_fract_z
 _atom_site_occupancy
  Nd  Nd0  1  0.565085  0.144179  0.750000  1
  Nd  Nd1  1  0.065085  0.355821  0.750000  1
  Nd  Nd2  1  0.434915  0.855821  0.250000  1
  Nd  Nd3  1  0.934915  0.644179  0.250000  1
  Nd  Nd4  1  0.581736  0.358990  0.566520  1
  Nd  Nd5  1  0.081736  0.141010  0.933480  1
  Nd  Nd6  1  0.418264  0.641010  0.066520  1
  Nd  Nd7  1  0.918264  0.858990  0.433480  1
  Nd  Nd8  1  0.418264  0.641010  0.433480  1
  Nd  Nd9  1  0.918264  0.858990  0.066520  1
  Nd  Nd10  1  0.581736  0.358990  0.933480  1
  Nd  Nd11  1  0.081736  0.141010  0.566520  1
  Se  Se12  1  0.591374  0.124605  0.107906  1
  Se  Se13  1  0.091374  0.375395  0.392094  1
  Se  Se14  1  0.408626  0.875395  0.607906  1
  Se  Se15  1  0.908626  0.624605  0.892094  1
  Se  Se16  1  0.408626  0.875395  0.892094  1
  Se  Se17  1  0.908626  0.624605  0.607906  1
  Se  Se18  1  0.591374  0.124605  0.392094  1
  Se  Se19  1  0.091374  0.375395  0.107906  1
  Cl  Cl20  1  0.573464  0.475022  0.750000  1
  Cl  Cl21  1  0.073464  0.024978  0.750000  1
  Cl  Cl22  1  0.426536  0.524978  0.250000  1
  Cl  Cl23  1  0.926536  0.975022  0.250000  1
  O  O24  1  0.569198  0.995414  0.633661  1
  O  O25  1  0.069198  0.504586  0.866339  1
  O  O26  1  0.430802  0.004586  0.133661  1
  O  O27  1  0.930802  0.495414  0.366339  1
  O  O28  1  0.430802  0.004586  0.366339  1
  O  O29  1  0.930802  0.495414  0.133661  1
  O  O30  1  0.569198  0.995414  0.866339  1
  O  O31  1  0.069198  0.504586  0.633661  1
  O  O32  1  0.927232  0.309150  0.024552  1
  O  O33  1  0.427232  0.190850  0.475448  1
  O  O34  1  0.072768  0.690850  0.524552  1
  O  O35  1  0.572768  0.809150  0.975448  1
  O  O36  1  0.072768  0.690850  0.975448  1
  O  O37  1  0.572768  0.809150  0.524552  1
  O  O38  1  0.927232  0.309150  0.475448  1
  O  O39  1  0.427232  0.190850  0.024552  1
  O  O40  1  0.818411  0.061956  0.046700  1
  O  O41  1  0.318411  0.438044  0.453300  1
  O  O42  1  0.181589  0.938044  0.546700  1
  O  O43  1  0.681589  0.561956  0.953300  1
  O  O44  1  0.181589  0.938044  0.953300  1
  O  O45  1  0.681589  0.561956  0.546700  1
  O  O46  1  0.818411  0.061956  0.453300  1
  O  O47  1  0.318411  0.438044  0.046700  1
  O  O48  1  0.818671  0.243345  0.652605  1
  O  O49  1  0.318671  0.256655  0.847395  1
  O  O50  1  0.181329  0.756655  0.152605  1
  O  O51  1  0.681329  0.743345  0.347395  1
  O  O52  1  0.181329  0.756655  0.347395  1
  O  O53  1  0.681329  0.743345  0.152605  1
  O  O54  1  0.818671  0.243345  0.847395  1
  O  O55  1  0.318671  0.256655  0.652605  1
