# generated using pymatgen
data_CaLa2Pr2Si2Ge
_symmetry_space_group_name_H-M   'P 1'
_cell_length_a   7.86427497
_cell_length_b   9.03490325
_cell_length_c   7.86427497
_cell_angle_alpha   115.62259336
_cell_angle_beta   90.36534315
_cell_angle_gamma   115.62259336
_symmetry_Int_Tables_number   1
_chemical_formula_structural   CaLa2Pr2Si2Ge
_chemical_formula_sum   'Ca2 La4 Pr4 Si4 Ge2'
_cell_volume   441.24644948
_cell_formula_units_Z   2
loop_
 _symmetry_equiv_pos_site_id
 _symmetry_equiv_pos_as_xyz
  1  'x, y, z'
loop_
 _atom_site_type_symbol
 _atom_site_label
 _atom_site_symmetry_multiplicity
 _atom_site_fract_x
 _atom_site_fract_y
 _atom_site_fract_z
 _atom_site_occupancy
  Ca  Ca0  1  0.000000  0.000000  0.000000  1
  Ca  Ca1  1  0.500000  0.000000  0.500000  1
  La  La2  1  0.676414  0.707567  0.176414  1
  La  La3  1  0.031154  0.707567  0.531154  1
  La  La4  1  0.323586  0.292433  0.823586  1
  La  La5  1  0.968846  0.292433  0.468846  1
  Pr  Pr6  1  0.532236  0.711295  0.679059  1
  Pr  Pr7  1  0.179059  0.711295  0.032236  1
  Pr  Pr8  1  0.467764  0.288705  0.320941  1
  Pr  Pr9  1  0.820941  0.288705  0.967764  1
  Si  Si10  1  0.885221  0.000000  0.614779  1
  Si  Si11  1  0.114779  0.000000  0.385221  1
  Si  Si12  1  0.613199  0.000000  0.113199  1
  Si  Si13  1  0.386801  0.000000  0.886801  1
  Ge  Ge14  1  0.750000  0.500000  0.750000  1
  Ge  Ge15  1  0.250000  0.500000  0.250000  1
