# generated using pymatgen
data_Ce2Cr4Tc13C3
_symmetry_space_group_name_H-M   'P 1'
_cell_length_a   6.89900836
_cell_length_b   6.89900813
_cell_length_c   6.91462429
_cell_angle_alpha   82.69165309
_cell_angle_beta   82.69165031
_cell_angle_gamma   82.38395162
_symmetry_Int_Tables_number   1
_chemical_formula_structural   Ce2Cr4Tc13C3
_chemical_formula_sum   'Ce2 Cr4 Tc13 C3'
_cell_volume   321.51258709
_cell_formula_units_Z   1
loop_
 _symmetry_equiv_pos_site_id
 _symmetry_equiv_pos_as_xyz
  1  'x, y, z'
loop_
 _atom_site_type_symbol
 _atom_site_label
 _atom_site_symmetry_multiplicity
 _atom_site_fract_x
 _atom_site_fract_y
 _atom_site_fract_z
 _atom_site_occupancy
  Ce  Ce0  1  0.649058  0.648384  0.649268  1
  Ce  Ce1  1  0.351616  0.350942  0.350732  1
  Cr  Cr2  1  0.998465  0.001535  0.500000  1
  Cr  Cr3  1  0.997786  0.497982  0.000631  1
  Cr  Cr4  1  0.502018  0.002214  0.999369  1
  Cr  Cr5  1  0.722766  0.277234  0.000000  1
  Tc  Tc6  1  0.279850  0.720150  0.000000  1
  Tc  Tc7  1  0.719475  0.006323  0.272935  1
  Tc  Tc8  1  0.993677  0.280525  0.727065  1
  Tc  Tc9  1  0.276324  0.999810  0.722627  1
  Tc  Tc10  1  0.000190  0.723676  0.277373  1
  Tc  Tc11  1  0.347399  0.343571  0.867061  1
  Tc  Tc12  1  0.344917  0.865814  0.344656  1
  Tc  Tc13  1  0.867094  0.345732  0.342125  1
  Tc  Tc14  1  0.656429  0.652601  0.132939  1
  Tc  Tc15  1  0.654268  0.132906  0.657875  1
  Tc  Tc16  1  0.134186  0.655083  0.655344  1
  Tc  Tc17  1  0.899585  0.902762  0.900666  1
  Tc  Tc18  1  0.097238  0.100415  0.099334  1
  C  C19  1  0.506507  0.493493  0.000000  1
  C  C20  1  0.500420  0.999269  0.500408  1
  C  C21  1  0.000731  0.499580  0.499592  1
