# generated using pymatgen
data_La8Al8PtRh3Au4
_symmetry_space_group_name_H-M   'P 1'
_cell_length_a   4.36319700
_cell_length_b   7.43490305
_cell_length_c   16.69638907
_cell_angle_alpha   89.98819809
_cell_angle_beta   90.00000000
_cell_angle_gamma   90.00000000
_symmetry_Int_Tables_number   1
_chemical_formula_structural   La8Al8PtRh3Au4
_chemical_formula_sum   'La8 Al8 Pt1 Rh3 Au4'
_cell_volume   541.62995961
_cell_formula_units_Z   1
loop_
 _symmetry_equiv_pos_site_id
 _symmetry_equiv_pos_as_xyz
  1  'x, y, z'
loop_
 _atom_site_type_symbol
 _atom_site_label
 _atom_site_symmetry_multiplicity
 _atom_site_fract_x
 _atom_site_fract_y
 _atom_site_fract_z
 _atom_site_occupancy
  La  La0  1  0.250000  0.517765  0.778511  1
  La  La1  1  0.750000  0.475877  0.216839  1
  La  La2  1  0.750000  0.975776  0.283412  1
  La  La3  1  0.250000  0.023489  0.716395  1
  La  La4  1  0.250000  0.649798  0.552572  1
  La  La5  1  0.750000  0.351547  0.446806  1
  La  La6  1  0.750000  0.856291  0.055182  1
  La  La7  1  0.250000  0.147004  0.947284  1
  Al  Al8  1  0.250000  0.660261  0.356400  1
  Al  Al9  1  0.750000  0.337820  0.643243  1
  Al  Al10  1  0.750000  0.837914  0.855704  1
  Al  Al11  1  0.250000  0.160936  0.143821  1
  Al  Al12  1  0.250000  0.503292  0.058664  1
  Al  Al13  1  0.750000  0.494222  0.942197  1
  Al  Al14  1  0.750000  0.995691  0.557089  1
  Al  Al15  1  0.250000  0.004413  0.442691  1
  Pt  Pt16  1  0.250000  0.709172  0.929306  1
  Rh  Rh17  1  0.750000  0.297866  0.072781  1
  Rh  Rh18  1  0.750000  0.794977  0.426770  1
  Rh  Rh19  1  0.250000  0.205722  0.573627  1
  Au  Au20  1  0.250000  0.772386  0.182321  1
  Au  Au21  1  0.750000  0.227754  0.817972  1
  Au  Au22  1  0.750000  0.728238  0.682574  1
  Au  Au23  1  0.250000  0.271789  0.317839  1
