# generated using pymatgen
data_ErLu3InPt11
_symmetry_space_group_name_H-M   'P 1'
_cell_length_a   4.15409100
_cell_length_b   5.79746498
_cell_length_c   11.58305513
_cell_angle_alpha   88.02113730
_cell_angle_beta   90.00000000
_cell_angle_gamma   90.00000000
_symmetry_Int_Tables_number   1
_chemical_formula_structural   ErLu3InPt11
_chemical_formula_sum   'Er1 Lu3 In1 Pt11'
_cell_volume   278.79063945
_cell_formula_units_Z   1
loop_
 _symmetry_equiv_pos_site_id
 _symmetry_equiv_pos_as_xyz
  1  'x, y, z'
loop_
 _atom_site_type_symbol
 _atom_site_label
 _atom_site_symmetry_multiplicity
 _atom_site_fract_x
 _atom_site_fract_y
 _atom_site_fract_z
 _atom_site_occupancy
  Er  Er0  1  0.500000  0.759045  0.375911  1
  Lu  Lu1  1  0.500000  0.714480  0.862217  1
  Lu  Lu2  1  0.500000  0.285506  0.137732  1
  Lu  Lu3  1  0.500000  0.240990  0.623983  1
  In  In4  1  0.000000  0.000009  0.999957  1
  Pt  Pt5  1  0.000000  0.020522  0.249238  1
  Pt  Pt6  1  0.000000  0.980295  0.750379  1
  Pt  Pt7  1  0.000000  0.499966  0.999947  1
  Pt  Pt8  1  0.000000  0.499235  0.500439  1
  Pt  Pt9  1  0.000000  0.520841  0.249610  1
  Pt  Pt10  1  0.000000  0.478372  0.749992  1
  Pt  Pt11  1  0.500000  0.258433  0.377465  1
  Pt  Pt12  1  0.500000  0.226081  0.879506  1
  Pt  Pt13  1  0.500000  0.773960  0.120078  1
  Pt  Pt14  1  0.500000  0.741537  0.623105  1
  Pt  Pt15  1  0.000000  0.000729  0.500442  1
