# generated using pymatgen
data_La16Cd4PdRh3
_symmetry_space_group_name_H-M   'P 1'
_cell_length_a   10.14462952
_cell_length_b   10.17239319
_cell_length_c   10.17239300
_cell_angle_alpha   59.99999736
_cell_angle_beta   59.90942388
_cell_angle_gamma   59.90942542
_symmetry_Int_Tables_number   1
_chemical_formula_structural   La16Cd4PdRh3
_chemical_formula_sum   'La16 Cd4 Pd1 Rh3'
_cell_volume   741.26163972
_cell_formula_units_Z   1
loop_
 _symmetry_equiv_pos_site_id
 _symmetry_equiv_pos_as_xyz
  1  'x, y, z'
loop_
 _atom_site_type_symbol
 _atom_site_label
 _atom_site_symmetry_multiplicity
 _atom_site_fract_x
 _atom_site_fract_y
 _atom_site_fract_z
 _atom_site_occupancy
  La  La0  1  0.345528  0.350587  0.350587  1
  La  La1  1  0.345528  0.350587  0.953296  1
  La  La2  1  0.345528  0.953296  0.350587  1
  La  La3  1  0.956598  0.347800  0.347800  1
  La  La4  1  0.813086  0.191294  0.191294  1
  La  La5  1  0.190593  0.809803  0.809803  1
  La  La6  1  0.190593  0.809803  0.189801  1
  La  La7  1  0.813086  0.191294  0.804326  1
  La  La8  1  0.190593  0.189801  0.809803  1
  La  La9  1  0.813086  0.804326  0.191294  1
  La  La10  1  0.936444  0.562984  0.562984  1
  La  La11  1  0.562141  0.936681  0.936681  1
  La  La12  1  0.562141  0.936681  0.564498  1
  La  La13  1  0.936444  0.562984  0.937589  1
  La  La14  1  0.562141  0.564498  0.936681  1
  La  La15  1  0.936444  0.937589  0.562984  1
  Cd  Cd16  1  0.579728  0.579554  0.579554  1
  Cd  Cd17  1  0.579728  0.579554  0.261165  1
  Cd  Cd18  1  0.579728  0.261165  0.579554  1
  Cd  Cd19  1  0.261265  0.579579  0.579579  1
  Pd  Pd20  1  0.572754  0.142416  0.142416  1
  Rh  Rh21  1  0.142275  0.141755  0.141755  1
  Rh  Rh22  1  0.142275  0.141755  0.574216  1
  Rh  Rh23  1  0.142275  0.574216  0.141755  1
