# generated using pymatgen
data_Mg3TiZn5Pt3O16
_symmetry_space_group_name_H-M   'P 1'
_cell_length_a   6.10965121
_cell_length_b   6.07884204
_cell_length_c   8.59574261
_cell_angle_alpha   89.12384630
_cell_angle_beta   89.97017906
_cell_angle_gamma   89.99993045
_symmetry_Int_Tables_number   1
_chemical_formula_structural   Mg3TiZn5Pt3O16
_chemical_formula_sum   'Mg3 Ti1 Zn5 Pt3 O16'
_cell_volume   319.20511375
_cell_formula_units_Z   1
loop_
 _symmetry_equiv_pos_site_id
 _symmetry_equiv_pos_as_xyz
  1  'x, y, z'
loop_
 _atom_site_type_symbol
 _atom_site_label
 _atom_site_symmetry_multiplicity
 _atom_site_fract_x
 _atom_site_fract_y
 _atom_site_fract_z
 _atom_site_occupancy
  Mg  Mg0  1  0.997780  0.241073  0.001921  1
  Mg  Mg1  1  0.240866  0.999189  0.249782  1
  Mg  Mg2  1  0.751991  0.999880  0.750698  1
  Ti  Ti3  1  0.779626  0.500773  0.748961  1
  Zn  Zn4  1  0.996472  0.767351  0.497754  1
  Zn  Zn5  1  0.259395  0.242465  0.629172  1
  Zn  Zn6  1  0.260919  0.759265  0.873802  1
  Zn  Zn7  1  0.748482  0.252782  0.372744  1
  Zn  Zn8  1  0.747213  0.747238  0.124115  1
  Pt  Pt9  1  0.243097  0.498852  0.249442  1
  Pt  Pt10  1  0.499197  0.750097  0.502659  1
  Pt  Pt11  1  0.500156  0.248329  0.997262  1
  O  O12  1  0.526104  0.740768  0.739665  1
  O  O13  1  0.526550  0.258776  0.760541  1
  O  O14  1  0.740631  0.981581  0.509849  1
  O  O15  1  0.744437  0.019380  0.991089  1
  O  O16  1  0.738479  0.510876  0.518873  1
  O  O17  1  0.744396  0.483584  0.980846  1
  O  O18  1  0.977731  0.736633  0.754617  1
  O  O19  1  0.978465  0.264090  0.751316  1
  O  O20  1  0.015932  0.743609  0.254647  1
  O  O21  1  0.015046  0.253691  0.242071  1
  O  O22  1  0.250922  0.520661  0.487570  1
  O  O23  1  0.250573  0.478061  0.011096  1
  O  O24  1  0.259528  0.982485  0.492636  1
  O  O25  1  0.255049  0.020487  0.007255  1
  O  O26  1  0.475349  0.746069  0.263124  1
  O  O27  1  0.475611  0.251957  0.236494  1
