# generated using pymatgen
data_Al2CdB28
_symmetry_space_group_name_H-M   'P 1'
_cell_length_a   7.17324592
_cell_length_b   7.17534549
_cell_length_c   10.95402900
_cell_angle_alpha   101.37390445
_cell_angle_beta   102.48690543
_cell_angle_gamma   111.42942005
_symmetry_Int_Tables_number   1
_chemical_formula_structural   Al2CdB28
_chemical_formula_sum   'Al4 Cd2 B56'
_cell_volume   488.18111018
_cell_formula_units_Z   2
loop_
 _symmetry_equiv_pos_site_id
 _symmetry_equiv_pos_as_xyz
  1  'x, y, z'
loop_
 _atom_site_type_symbol
 _atom_site_label
 _atom_site_symmetry_multiplicity
 _atom_site_fract_x
 _atom_site_fract_y
 _atom_site_fract_z
 _atom_site_occupancy
  Al  Al0  1  0.217982  0.478448  0.235343  1
  Al  Al1  1  0.510644  0.510337  0.498920  1
  Al  Al2  1  0.792725  0.531040  0.765646  1
  Al  Al3  1  0.453824  0.148399  0.811209  1
  Cd  Cd4  1  0.510625  0.896420  0.113534  1
  Cd  Cd5  1  0.985259  0.089473  0.392841  1
  B  B6  1  0.116316  0.869151  0.085661  1
  B  B7  1  0.131609  0.258966  0.039183  1
  B  B8  1  0.303317  0.527283  0.074344  1
  B  B9  1  0.203628  0.727457  0.175259  1
  B  B10  1  0.273700  0.098875  0.047679  1
  B  B11  1  0.883936  0.898864  0.110947  1
  B  B12  1  0.710988  0.463698  0.085537  1
  B  B13  1  0.540329  0.532644  0.166166  1
  B  B14  1  0.370460  0.873836  0.336876  1
  B  B15  1  0.540157  0.273453  0.140608  1
  B  B16  1  0.802297  0.723102  0.202455  1
  B  B17  1  0.892928  0.141624  0.081856  1
  B  B18  1  0.809432  0.309702  0.166540  1
  B  B19  1  0.965713  0.589704  0.205369  1
  B  B20  1  0.536873  0.411315  0.293196  1
  B  B21  1  0.694418  0.690955  0.335232  1
  B  B22  1  0.610734  0.860175  0.419932  1
  B  B23  1  0.699941  0.274842  0.299892  1
  B  B24  1  0.962202  0.723774  0.361152  1
  B  B25  1  0.129827  0.120512  0.161975  1
  B  B26  1  0.959247  0.466755  0.335537  1
  B  B27  1  0.793148  0.536322  0.417427  1
  B  B28  1  0.622464  0.876814  0.587616  1
  B  B29  1  0.617059  0.102136  0.392839  1
  B  B30  1  0.225902  0.896293  0.454124  1
  B  B31  1  0.296891  0.268682  0.325160  1
  B  B32  1  0.197361  0.472320  0.425937  1
  B  B33  1  0.370568  0.742675  0.458502  1
  B  B34  1  0.629875  0.259098  0.545361  1
  B  B35  1  0.807182  0.530457  0.577427  1
  B  B36  1  0.706575  0.730856  0.676616  1
  B  B37  1  0.774434  0.101854  0.549747  1
  B  B38  1  0.383390  0.898693  0.611452  1
  B  B39  1  0.382673  0.122960  0.416143  1
  B  B40  1  0.211978  0.469031  0.587219  1
  B  B41  1  0.042583  0.533973  0.665812  1
  B  B42  1  0.871098  0.878226  0.836843  1
  B  B43  1  0.037648  0.273703  0.641068  1
  B  B44  1  0.305695  0.730046  0.708042  1
  B  B45  1  0.387637  0.135972  0.583469  1
  B  B46  1  0.302709  0.305881  0.667203  1
  B  B47  1  0.466787  0.586994  0.708221  1
  B  B48  1  0.031908  0.406593  0.795648  1
  B  B49  1  0.190799  0.688082  0.834976  1
  B  B50  1  0.107002  0.855423  0.918150  1
  B  B51  1  0.193962  0.271560  0.796425  1
  B  B52  1  0.460706  0.726446  0.860799  1
  B  B53  1  0.631855  0.124481  0.664681  1
  B  B54  1  0.457401  0.468981  0.835825  1
  B  B55  1  0.285858  0.529266  0.915525  1
  B  B56  1  0.120963  0.095945  0.890258  1
  B  B57  1  0.727207  0.899290  0.951846  1
  B  B58  1  0.791125  0.270163  0.828989  1
  B  B59  1  0.693587  0.462971  0.926016  1
  B  B60  1  0.867192  0.738547  0.961293  1
  B  B61  1  0.881666  0.127469  0.915456  1
