# generated using pymatgen
data_Hf4Mn2Cu2Si3As
_symmetry_space_group_name_H-M   'P 1'
_cell_length_a   3.77524800
_cell_length_b   6.50842938
_cell_length_c   7.49088583
_cell_angle_alpha   89.49469920
_cell_angle_beta   90.00000000
_cell_angle_gamma   90.00000000
_symmetry_Int_Tables_number   1
_chemical_formula_structural   Hf4Mn2Cu2Si3As
_chemical_formula_sum   'Hf4 Mn2 Cu2 Si3 As1'
_cell_volume   184.05091114
_cell_formula_units_Z   1
loop_
 _symmetry_equiv_pos_site_id
 _symmetry_equiv_pos_as_xyz
  1  'x, y, z'
loop_
 _atom_site_type_symbol
 _atom_site_label
 _atom_site_symmetry_multiplicity
 _atom_site_fract_x
 _atom_site_fract_y
 _atom_site_fract_z
 _atom_site_occupancy
  Hf  Hf0  1  0.250000  0.982637  0.315390  1
  Hf  Hf1  1  0.250000  0.473628  0.171067  1
  Hf  Hf2  1  0.750000  0.025542  0.686688  1
  Hf  Hf3  1  0.750000  0.524917  0.828463  1
  Mn  Mn4  1  0.250000  0.866978  0.942795  1
  Mn  Mn5  1  0.750000  0.140843  0.063235  1
  Cu  Cu6  1  0.250000  0.340959  0.564176  1
  Cu  Cu7  1  0.750000  0.640032  0.425804  1
  Si  Si8  1  0.250000  0.229531  0.882882  1
  Si  Si9  1  0.750000  0.266168  0.375189  1
  Si  Si10  1  0.750000  0.773710  0.116775  1
  As  As11  1  0.250000  0.735056  0.627537  1
