# generated using pymatgen
data_BaSr2GaO4F
_symmetry_space_group_name_H-M   'P 1'
_cell_length_a   7.61427782
_cell_length_b   7.61427647
_cell_length_c   7.61427751
_cell_angle_alpha   125.36163168
_cell_angle_beta   125.36162222
_cell_angle_gamma   80.93991384
_symmetry_Int_Tables_number   1
_chemical_formula_structural   BaSr2GaO4F
_chemical_formula_sum   'Ba2 Sr4 Ga2 O8 F2'
_cell_volume   282.95098810
_cell_formula_units_Z   2
loop_
 _symmetry_equiv_pos_site_id
 _symmetry_equiv_pos_as_xyz
  1  'x, y, z'
loop_
 _atom_site_type_symbol
 _atom_site_label
 _atom_site_symmetry_multiplicity
 _atom_site_fract_x
 _atom_site_fract_y
 _atom_site_fract_z
 _atom_site_occupancy
  Ba  Ba0  1  0.250000  0.250000  0.000000  1
  Ba  Ba1  1  0.750000  0.750000  0.000000  1
  Sr  Sr2  1  0.831628  0.331628  0.163257  1
  Sr  Sr3  1  0.331628  0.168372  0.500000  1
  Sr  Sr4  1  0.668372  0.831628  0.500000  1
  Sr  Sr5  1  0.168372  0.668372  0.836743  1
  Ga  Ga6  1  0.750000  0.250000  0.500000  1
  Ga  Ga7  1  0.250000  0.750000  0.500000  1
  O  O8  1  0.498983  0.998983  0.214284  1
  O  O9  1  0.215299  0.715299  0.214284  1
  O  O10  1  0.501017  0.001017  0.785716  1
  O  O11  1  0.001017  0.215299  0.500000  1
  O  O12  1  0.715299  0.501017  0.500000  1
  O  O13  1  0.998983  0.784701  0.500000  1
  O  O14  1  0.284701  0.498983  0.500000  1
  O  O15  1  0.784701  0.284701  0.785716  1
  F  F16  1  0.500000  0.500000  0.000000  1
  F  F17  1  0.000000  0.000000  0.000000  1
