# generated using pymatgen
data_CaYbLu6(B6Ru)4
_symmetry_space_group_name_H-M   'P 1'
_cell_length_a   3.59911700
_cell_length_b   9.05800746
_cell_length_c   11.44064209
_cell_angle_alpha   89.86252211
_cell_angle_beta   90.00000000
_cell_angle_gamma   90.00000000
_symmetry_Int_Tables_number   1
_chemical_formula_structural   CaYbLu6(B6Ru)4
_chemical_formula_sum   'Ca1 Yb1 Lu6 B24 Ru4'
_cell_volume   372.97333863
_cell_formula_units_Z   1
loop_
 _symmetry_equiv_pos_site_id
 _symmetry_equiv_pos_as_xyz
  1  'x, y, z'
loop_
 _atom_site_type_symbol
 _atom_site_label
 _atom_site_symmetry_multiplicity
 _atom_site_fract_x
 _atom_site_fract_y
 _atom_site_fract_z
 _atom_site_occupancy
  Ca  Ca0  1  0.000000  0.323737  0.414796  1
  Yb  Yb1  1  0.000000  0.675717  0.585478  1
  Lu  Lu2  1  0.000000  0.821834  0.086059  1
  Lu  Lu3  1  0.000000  0.178191  0.913940  1
  Lu  Lu4  1  0.000000  0.941982  0.369676  1
  Lu  Lu5  1  0.000000  0.057676  0.630459  1
  Lu  Lu6  1  0.000000  0.442929  0.129816  1
  Lu  Lu7  1  0.000000  0.557203  0.870064  1
  B  B8  1  0.500000  0.555060  0.432232  1
  B  B9  1  0.500000  0.445967  0.568269  1
  B  B10  1  0.500000  0.053375  0.065751  1
  B  B11  1  0.500000  0.946499  0.934114  1
  B  B12  1  0.500000  0.749534  0.417722  1
  B  B13  1  0.500000  0.250526  0.582799  1
  B  B14  1  0.500000  0.249162  0.080023  1
  B  B15  1  0.500000  0.750856  0.919783  1
  B  B16  1  0.500000  0.792553  0.263489  1
  B  B17  1  0.500000  0.207472  0.736593  1
  B  B18  1  0.500000  0.290779  0.233533  1
  B  B19  1  0.500000  0.709182  0.766033  1
  B  B20  1  0.500000  0.631468  0.183636  1
  B  B21  1  0.500000  0.368698  0.816335  1
  B  B22  1  0.500000  0.129673  0.313876  1
  B  B23  1  0.500000  0.869833  0.685840  1
  B  B24  1  0.500000  0.981764  0.211204  1
  B  B25  1  0.500000  0.018016  0.788741  1
  B  B26  1  0.500000  0.483700  0.286858  1
  B  B27  1  0.500000  0.516840  0.712983  1
  B  B28  1  0.500000  0.602909  0.028113  1
  B  B29  1  0.500000  0.397170  0.971810  1
  B  B30  1  0.500000  0.097858  0.473058  1
  B  B31  1  0.500000  0.901609  0.527106  1
  Ru  Ru32  1  0.000000  0.641477  0.317360  1
  Ru  Ru33  1  0.000000  0.359107  0.682924  1
  Ru  Ru34  1  0.000000  0.136618  0.177285  1
  Ru  Ru35  1  0.000000  0.863023  0.822241  1
