# generated using pymatgen
data_Er2Ir2O7
_symmetry_space_group_name_H-M   'P 1'
_cell_length_a   7.21435054
_cell_length_b   7.21435007
_cell_length_c   7.21435000
_cell_angle_alpha   60.00000031
_cell_angle_beta   60.00000249
_cell_angle_gamma   59.99999683
_symmetry_Int_Tables_number   1
_chemical_formula_structural   Er2Ir2O7
_chemical_formula_sum   'Er4 Ir4 O14'
_cell_volume   265.50741960
_cell_formula_units_Z   2
loop_
 _symmetry_equiv_pos_site_id
 _symmetry_equiv_pos_as_xyz
  1  'x, y, z'
loop_
 _atom_site_type_symbol
 _atom_site_label
 _atom_site_symmetry_multiplicity
 _atom_site_fract_x
 _atom_site_fract_y
 _atom_site_fract_z
 _atom_site_occupancy
  Er  Er0  1  0.625000  0.125000  0.125000  1
  Er  Er1  1  0.125000  0.625000  0.125000  1
  Er  Er2  1  0.125000  0.125000  0.125000  1
  Er  Er3  1  0.125000  0.125000  0.625000  1
  Ir  Ir4  1  0.625000  0.625000  0.125000  1
  Ir  Ir5  1  0.625000  0.625000  0.625000  1
  Ir  Ir6  1  0.625000  0.125000  0.625000  1
  Ir  Ir7  1  0.125000  0.625000  0.625000  1
  O  O8  1  0.286292  0.713708  0.286292  1
  O  O9  1  0.250000  0.250000  0.250000  1
  O  O10  1  0.536292  0.963708  0.536292  1
  O  O11  1  0.286292  0.286292  0.713708  1
  O  O12  1  0.286292  0.713708  0.713708  1
  O  O13  1  0.536292  0.536292  0.963708  1
  O  O14  1  0.536292  0.963708  0.963708  1
  O  O15  1  0.713708  0.713708  0.286292  1
  O  O16  1  0.713708  0.286292  0.286292  1
  O  O17  1  0.963708  0.536292  0.536292  1
  O  O18  1  0.963708  0.963708  0.536292  1
  O  O19  1  0.713708  0.286292  0.713708  1
  O  O20  1  0.963708  0.536292  0.963708  1
  O  O21  1  0.000000  0.000000  0.000000  1
