# generated using pymatgen
data_TbDy15Cd4NiOs3
_symmetry_space_group_name_H-M   'P 1'
_cell_length_a   9.57240832
_cell_length_b   9.70968059
_cell_length_c   9.70968008
_cell_angle_alpha   59.72830466
_cell_angle_beta   59.27951482
_cell_angle_gamma   59.27950894
_symmetry_Int_Tables_number   1
_chemical_formula_structural   TbDy15Cd4NiOs3
_chemical_formula_sum   'Tb1 Dy15 Cd4 Ni1 Os3'
_cell_volume   629.82497343
_cell_formula_units_Z   1
loop_
 _symmetry_equiv_pos_site_id
 _symmetry_equiv_pos_as_xyz
  1  'x, y, z'
loop_
 _atom_site_type_symbol
 _atom_site_label
 _atom_site_symmetry_multiplicity
 _atom_site_fract_x
 _atom_site_fract_y
 _atom_site_fract_z
 _atom_site_occupancy
  Tb  Tb0  1  0.602097  0.596216  0.596216  1
  Dy  Dy1  1  0.602532  0.596061  0.207891  1
  Dy  Dy2  1  0.602532  0.207891  0.596061  1
  Dy  Dy3  1  0.213748  0.595718  0.595718  1
  Dy  Dy4  1  0.060154  0.438553  0.438553  1
  Dy  Dy5  1  0.433987  0.060223  0.060223  1
  Dy  Dy6  1  0.436422  0.061070  0.441224  1
  Dy  Dy7  1  0.059779  0.439016  0.059856  1
  Dy  Dy8  1  0.436422  0.441224  0.061070  1
  Dy  Dy9  1  0.059779  0.059856  0.439016  1
  Dy  Dy10  1  0.188394  0.810131  0.810131  1
  Dy  Dy11  1  0.804199  0.189128  0.189128  1
  Dy  Dy12  1  0.803283  0.189193  0.818981  1
  Dy  Dy13  1  0.189730  0.808877  0.191600  1
  Dy  Dy14  1  0.803283  0.818981  0.189193  1
  Dy  Dy15  1  0.189730  0.191600  0.808877  1
  Cd  Cd16  1  0.829608  0.830071  0.830071  1
  Cd  Cd17  1  0.829650  0.830285  0.508053  1
  Cd  Cd18  1  0.829650  0.508053  0.830285  1
  Cd  Cd19  1  0.505584  0.830944  0.830944  1
  Ni  Ni20  1  0.830735  0.391048  0.391048  1
  Os  Os21  1  0.395649  0.388320  0.388320  1
  Os  Os22  1  0.396525  0.388346  0.829198  1
  Os  Os23  1  0.396525  0.829198  0.388346  1
