# generated using pymatgen
data_Pr3Nd(Ga8Pt3)3
_symmetry_space_group_name_H-M   'P 1'
_cell_length_a   7.58877291
_cell_length_b   7.64416886
_cell_length_c   13.49197441
_cell_angle_alpha   84.88324029
_cell_angle_beta   100.51797241
_cell_angle_gamma   119.57435917
_symmetry_Int_Tables_number   1
_chemical_formula_structural   Pr3Nd(Ga8Pt3)3
_chemical_formula_sum   'Pr3 Nd1 Ga24 Pt9'
_cell_volume   669.26074036
_cell_formula_units_Z   1
loop_
 _symmetry_equiv_pos_site_id
 _symmetry_equiv_pos_as_xyz
  1  'x, y, z'
loop_
 _atom_site_type_symbol
 _atom_site_label
 _atom_site_symmetry_multiplicity
 _atom_site_fract_x
 _atom_site_fract_y
 _atom_site_fract_z
 _atom_site_occupancy
  Pr  Pr0  1  0.437846  0.831087  0.811167  1
  Pr  Pr1  1  0.561925  0.168814  0.189033  1
  Pr  Pr2  1  0.770128  0.503045  0.811540  1
  Nd  Nd3  1  0.230270  0.496950  0.189079  1
  Ga  Ga4  1  0.478663  0.166288  0.941231  1
  Ga  Ga5  1  0.520548  0.832913  0.059518  1
  Ga  Ga6  1  0.022117  0.168327  0.558049  1
  Ga  Ga7  1  0.977686  0.831620  0.441387  1
  Ga  Ga8  1  0.354991  0.833480  0.555731  1
  Ga  Ga9  1  0.644923  0.166601  0.443989  1
  Ga  Ga10  1  0.616668  0.834245  0.328142  1
  Ga  Ga11  1  0.382976  0.165570  0.671208  1
  Ga  Ga12  1  0.056708  0.495331  0.669365  1
  Ga  Ga13  1  0.943396  0.504895  0.329691  1
  Ga  Ga14  1  0.728813  0.837748  0.668548  1
  Ga  Ga15  1  0.270886  0.162512  0.330924  1
  Ga  Ga16  1  0.146572  0.498964  0.942764  1
  Ga  Ga17  1  0.854661  0.500555  0.058802  1
  Ga  Ga18  1  0.816058  0.833232  0.949636  1
  Ga  Ga19  1  0.184314  0.167200  0.051288  1
  Ga  Ga20  1  0.314176  0.501512  0.442777  1
  Ga  Ga21  1  0.685654  0.498671  0.556687  1
  Ga  Ga22  1  0.100312  0.834723  0.182890  1
  Ga  Ga23  1  0.899596  0.164619  0.817216  1
  Ga  Ga24  1  0.304791  0.367357  0.816477  1
  Ga  Ga25  1  0.694466  0.633196  0.183474  1
  Ga  Ga26  1  0.102208  0.962358  0.816466  1
  Ga  Ga27  1  0.898851  0.038625  0.183498  1
  Pt  Pt28  1  0.383680  0.502339  0.636318  1
  Pt  Pt29  1  0.616135  0.497493  0.363154  1
  Pt  Pt30  1  0.170767  0.830074  0.999722  1
  Pt  Pt31  1  0.829027  0.169516  0.000757  1
  Pt  Pt32  1  0.291722  0.833137  0.362257  1
  Pt  Pt33  1  0.708390  0.166937  0.637410  1
  Pt  Pt34  1  0.048304  0.830453  0.635102  1
  Pt  Pt35  1  0.951477  0.169857  0.364393  1
  Pt  Pt36  1  0.500296  0.499757  0.000313  1
