# generated using pymatgen
data_Np(S8Br)3
_symmetry_space_group_name_H-M   'P 1'
_cell_length_a   14.87156743
_cell_length_b   14.87156776
_cell_length_c   14.87156808
_cell_angle_alpha   119.08018914
_cell_angle_beta   119.08019175
_cell_angle_gamma   119.08018903
_symmetry_Int_Tables_number   1
_chemical_formula_structural   Np(S8Br)3
_chemical_formula_sum   'Np1 S24 Br3'
_cell_volume   816.88618596
_cell_formula_units_Z   1
loop_
 _symmetry_equiv_pos_site_id
 _symmetry_equiv_pos_as_xyz
  1  'x, y, z'
loop_
 _atom_site_type_symbol
 _atom_site_label
 _atom_site_symmetry_multiplicity
 _atom_site_fract_x
 _atom_site_fract_y
 _atom_site_fract_z
 _atom_site_occupancy
  Np  Np0  1  0.440811  0.440811  0.440811  1
  S  S1  1  0.014386  0.612120  0.612120  1
  S  S2  1  0.612120  0.612120  0.014386  1
  S  S3  1  0.612120  0.014386  0.612120  1
  S  S4  1  0.262418  0.872114  0.741814  1
  S  S5  1  0.872114  0.741814  0.262418  1
  S  S6  1  0.741814  0.262418  0.872114  1
  S  S7  1  0.872114  0.262418  0.741814  1
  S  S8  1  0.262418  0.741814  0.872114  1
  S  S9  1  0.741814  0.872114  0.262418  1
  S  S10  1  0.084789  0.611530  0.427944  1
  S  S11  1  0.611530  0.427944  0.084789  1
  S  S12  1  0.427944  0.084789  0.611530  1
  S  S13  1  0.611530  0.084789  0.427944  1
  S  S14  1  0.084789  0.427944  0.611530  1
  S  S15  1  0.427944  0.611530  0.084789  1
  S  S16  1  0.368124  0.751282  0.618944  1
  S  S17  1  0.751282  0.618944  0.368124  1
  S  S18  1  0.618944  0.368124  0.751282  1
  S  S19  1  0.751282  0.368124  0.618944  1
  S  S20  1  0.368124  0.618944  0.751282  1
  S  S21  1  0.618944  0.751282  0.368124  1
  S  S22  1  0.168477  0.440340  0.440340  1
  S  S23  1  0.440340  0.440340  0.168477  1
  S  S24  1  0.440340  0.168477  0.440340  1
  Br  Br25  1  0.041227  0.899680  0.899680  1
  Br  Br26  1  0.899680  0.899680  0.041227  1
  Br  Br27  1  0.899680  0.041227  0.899680  1
