# generated using pymatgen
data_TbDy4Sn3P
_symmetry_space_group_name_H-M   'P 1'
_cell_length_a   9.09470612
_cell_length_b   9.09210260
_cell_length_c   6.70638800
_cell_angle_alpha   90.00000000
_cell_angle_beta   90.00000000
_cell_angle_gamma   119.99052906
_symmetry_Int_Tables_number   1
_chemical_formula_structural   TbDy4Sn3P
_chemical_formula_sum   'Tb2 Dy8 Sn6 P2'
_cell_volume   480.30128133
_cell_formula_units_Z   2
loop_
 _symmetry_equiv_pos_site_id
 _symmetry_equiv_pos_as_xyz
  1  'x, y, z'
loop_
 _atom_site_type_symbol
 _atom_site_label
 _atom_site_symmetry_multiplicity
 _atom_site_fract_x
 _atom_site_fract_y
 _atom_site_fract_z
 _atom_site_occupancy
  Tb  Tb0  1  0.758243  0.758286  0.750000  1
  Tb  Tb1  1  0.241757  0.000043  0.750000  1
  Dy  Dy2  1  0.666694  0.333302  0.000045  1
  Dy  Dy3  1  0.333306  0.666609  0.000045  1
  Dy  Dy4  1  0.333306  0.666609  0.499955  1
  Dy  Dy5  1  0.666694  0.333302  0.499955  1
  Dy  Dy6  1  0.000000  0.241325  0.750000  1
  Dy  Dy7  1  0.241299  0.241324  0.250000  1
  Dy  Dy8  1  0.758701  0.000025  0.250000  1
  Dy  Dy9  1  0.000000  0.758698  0.250000  1
  Sn  Sn10  1  0.398562  0.398735  0.750000  1
  Sn  Sn11  1  0.601438  0.000173  0.750000  1
  Sn  Sn12  1  0.000000  0.601032  0.750000  1
  Sn  Sn13  1  0.601372  0.601352  0.250000  1
  Sn  Sn14  1  0.398628  0.999979  0.250000  1
  Sn  Sn15  1  0.000000  0.398646  0.250000  1
  P  P16  1  0.000000  0.000281  0.000513  1
  P  P17  1  0.000000  0.000281  0.499487  1
