# generated using pymatgen
data_Zn7SnRh4
_symmetry_space_group_name_H-M   'P 1'
_cell_length_a   5.26355547
_cell_length_b   4.08110100
_cell_length_c   8.32193293
_cell_angle_alpha   90.00000000
_cell_angle_beta   88.77624747
_cell_angle_gamma   90.00000000
_symmetry_Int_Tables_number   1
_chemical_formula_structural   Zn7SnRh4
_chemical_formula_sum   'Zn7 Sn1 Rh4'
_cell_volume   178.72351244
_cell_formula_units_Z   1
loop_
 _symmetry_equiv_pos_site_id
 _symmetry_equiv_pos_as_xyz
  1  'x, y, z'
loop_
 _atom_site_type_symbol
 _atom_site_label
 _atom_site_symmetry_multiplicity
 _atom_site_fract_x
 _atom_site_fract_y
 _atom_site_fract_z
 _atom_site_occupancy
  Zn  Zn0  1  0.888583  0.250000  0.239319  1
  Zn  Zn1  1  0.370975  0.250000  0.293576  1
  Zn  Zn2  1  0.147539  0.750000  0.449164  1
  Zn  Zn3  1  0.851317  0.250000  0.556292  1
  Zn  Zn4  1  0.630854  0.750000  0.701128  1
  Zn  Zn5  1  0.130660  0.750000  0.774851  1
  Zn  Zn6  1  0.329741  0.250000  0.936700  1
  Sn  Sn7  1  0.652659  0.750000  0.050877  1
  Rh  Rh8  1  0.150571  0.750000  0.127196  1
  Rh  Rh9  1  0.645075  0.750000  0.377238  1
  Rh  Rh10  1  0.352090  0.250000  0.619866  1
  Rh  Rh11  1  0.849934  0.250000  0.873790  1
