# generated using pymatgen
data_LaYbGaIr3
_symmetry_space_group_name_H-M   'P 1'
_cell_length_a   5.22738373
_cell_length_b   5.22738355
_cell_length_c   5.22738472
_cell_angle_alpha   64.97392640
_cell_angle_beta   64.97392120
_cell_angle_gamma   64.97392621
_symmetry_Int_Tables_number   1
_chemical_formula_structural   LaYbGaIr3
_chemical_formula_sum   'La1 Yb1 Ga1 Ir3'
_cell_volume   111.97704396
_cell_formula_units_Z   1
loop_
 _symmetry_equiv_pos_site_id
 _symmetry_equiv_pos_as_xyz
  1  'x, y, z'
loop_
 _atom_site_type_symbol
 _atom_site_label
 _atom_site_symmetry_multiplicity
 _atom_site_fract_x
 _atom_site_fract_y
 _atom_site_fract_z
 _atom_site_occupancy
  La  La0  1  0.250960  0.250960  0.250960  1
  Yb  Yb1  1  0.998653  0.998653  0.998653  1
  Ga  Ga2  1  0.624726  0.624726  0.624726  1
  Ir  Ir3  1  0.626525  0.626525  0.122611  1
  Ir  Ir4  1  0.626525  0.122611  0.626525  1
  Ir  Ir5  1  0.122611  0.626525  0.626525  1
