# generated using pymatgen
data_CaYGaO4
_symmetry_space_group_name_H-M   'P 1'
_cell_length_a   11.46602400
_cell_length_b   5.33795800
_cell_length_c   6.63081800
_cell_angle_alpha   90.00000864
_cell_angle_beta   89.99996273
_cell_angle_gamma   89.99989266
_symmetry_Int_Tables_number   1
_chemical_formula_structural   CaYGaO4
_chemical_formula_sum   'Ca4 Y4 Ga4 O16'
_cell_volume   405.84024041
_cell_formula_units_Z   4
loop_
 _symmetry_equiv_pos_site_id
 _symmetry_equiv_pos_as_xyz
  1  'x, y, z'
loop_
 _atom_site_type_symbol
 _atom_site_label
 _atom_site_symmetry_multiplicity
 _atom_site_fract_x
 _atom_site_fract_y
 _atom_site_fract_z
 _atom_site_occupancy
  Ca  Ca0  1  0.499976  0.499978  0.487173  1
  Ca  Ca1  1  0.500024  0.500021  0.987173  1
  Ca  Ca2  1  0.000024  0.999980  0.987175  1
  Ca  Ca3  1  0.999976  0.000021  0.487175  1
  Y  Y4  1  0.222251  0.504801  0.237145  1
  Y  Y5  1  0.777749  0.495200  0.737145  1
  Y  Y6  1  0.277750  0.004801  0.737144  1
  Y  Y7  1  0.722251  0.995200  0.237144  1
  Ga  Ga8  1  0.403831  0.060027  0.237101  1
  Ga  Ga9  1  0.596170  0.939973  0.737101  1
  Ga  Ga10  1  0.096170  0.560027  0.737102  1
  Ga  Ga11  1  0.903830  0.439973  0.237102  1
  O  O12  1  0.400059  0.717959  0.237160  1
  O  O13  1  0.599940  0.282040  0.737161  1
  O  O14  1  0.099940  0.217960  0.737161  1
  O  O15  1  0.900060  0.782040  0.237160  1
  O  O16  1  0.169726  0.730757  0.519189  1
  O  O17  1  0.830274  0.269244  0.019190  1
  O  O18  1  0.330274  0.230757  0.019188  1
  O  O19  1  0.669727  0.769244  0.519188  1
  O  O20  1  0.330246  0.230718  0.455059  1
  O  O21  1  0.669755  0.769281  0.955060  1
  O  O22  1  0.169754  0.730719  0.955060  1
  O  O23  1  0.830246  0.269282  0.455060  1
  O  O24  1  0.553542  0.208222  0.237172  1
  O  O25  1  0.446458  0.791775  0.737172  1
  O  O26  1  0.946458  0.708225  0.737173  1
  O  O27  1  0.053542  0.291776  0.237173  1
