# generated using pymatgen
data_Ba4Cd(OsO6)2
_symmetry_space_group_name_H-M   'P 1'
_cell_length_a   10.08177653
_cell_length_b   10.08177680
_cell_length_c   10.08177669
_cell_angle_alpha   33.91402768
_cell_angle_beta   33.91402413
_cell_angle_gamma   33.91402358
_symmetry_Int_Tables_number   1
_chemical_formula_structural   Ba4Cd(OsO6)2
_chemical_formula_sum   'Ba4 Cd1 Os2 O12'
_cell_volume   284.31384926
_cell_formula_units_Z   1
loop_
 _symmetry_equiv_pos_site_id
 _symmetry_equiv_pos_as_xyz
  1  'x, y, z'
loop_
 _atom_site_type_symbol
 _atom_site_label
 _atom_site_symmetry_multiplicity
 _atom_site_fract_x
 _atom_site_fract_y
 _atom_site_fract_z
 _atom_site_occupancy
  Ba  Ba0  1  0.709311  0.709311  0.709311  1
  Ba  Ba1  1  0.290689  0.290689  0.290689  1
  Ba  Ba2  1  0.868664  0.868664  0.868664  1
  Ba  Ba3  1  0.131336  0.131336  0.131336  1
  Cd  Cd4  1  0.000000  0.000000  0.000000  1
  Os  Os5  1  0.578247  0.578247  0.578247  1
  Os  Os6  1  0.421753  0.421753  0.421753  1
  O  O7  1  0.227289  0.685318  0.227289  1
  O  O8  1  0.227289  0.227289  0.685318  1
  O  O9  1  0.685318  0.227289  0.227289  1
  O  O10  1  0.772711  0.314682  0.772711  1
  O  O11  1  0.772711  0.772711  0.314682  1
  O  O12  1  0.314682  0.772711  0.772711  1
  O  O13  1  0.387760  0.855771  0.387760  1
  O  O14  1  0.387760  0.387760  0.855771  1
  O  O15  1  0.855771  0.387760  0.387760  1
  O  O16  1  0.612240  0.144229  0.612240  1
  O  O17  1  0.612240  0.612240  0.144229  1
  O  O18  1  0.144229  0.612240  0.612240  1
