# generated using pymatgen
data_Lu2Al9TcPt2
_symmetry_space_group_name_H-M   'P 1'
_cell_length_a   7.56949516
_cell_length_b   7.56949482
_cell_length_c   9.44574500
_cell_angle_alpha   90.00000000
_cell_angle_beta   90.00000000
_cell_angle_gamma   118.66817615
_symmetry_Int_Tables_number   1
_chemical_formula_structural   Lu2Al9TcPt2
_chemical_formula_sum   'Lu4 Al18 Tc2 Pt4'
_cell_volume   474.86916957
_cell_formula_units_Z   2
loop_
 _symmetry_equiv_pos_site_id
 _symmetry_equiv_pos_as_xyz
  1  'x, y, z'
loop_
 _atom_site_type_symbol
 _atom_site_label
 _atom_site_symmetry_multiplicity
 _atom_site_fract_x
 _atom_site_fract_y
 _atom_site_fract_z
 _atom_site_occupancy
  Lu  Lu0  1  0.993641  0.679385  0.250000  1
  Lu  Lu1  1  0.006359  0.320615  0.750000  1
  Lu  Lu2  1  0.679385  0.993641  0.250000  1
  Lu  Lu3  1  0.320615  0.006359  0.750000  1
  Al  Al4  1  0.127608  0.127608  0.250000  1
  Al  Al5  1  0.872392  0.872392  0.750000  1
  Al  Al6  1  0.000490  0.333472  0.077178  1
  Al  Al7  1  0.999510  0.666528  0.922822  1
  Al  Al8  1  0.999510  0.666528  0.577178  1
  Al  Al9  1  0.333472  0.000490  0.422822  1
  Al  Al10  1  0.000490  0.333472  0.422822  1
  Al  Al11  1  0.666528  0.999510  0.577178  1
  Al  Al12  1  0.666528  0.999510  0.922822  1
  Al  Al13  1  0.333472  0.000490  0.077178  1
  Al  Al14  1  0.327654  0.327654  0.552294  1
  Al  Al15  1  0.672346  0.672346  0.447706  1
  Al  Al16  1  0.672346  0.672346  0.052294  1
  Al  Al17  1  0.327654  0.327654  0.947706  1
  Al  Al18  1  0.342552  0.550229  0.250000  1
  Al  Al19  1  0.657448  0.449771  0.750000  1
  Al  Al20  1  0.550229  0.342552  0.250000  1
  Al  Al21  1  0.449771  0.657448  0.750000  1
  Tc  Tc22  1  0.000000  0.000000  0.000000  1
  Tc  Tc23  1  0.000000  0.000000  0.500000  1
  Pt  Pt24  1  0.671797  0.328203  0.000000  1
  Pt  Pt25  1  0.328203  0.671797  0.000000  1
  Pt  Pt26  1  0.328203  0.671797  0.500000  1
  Pt  Pt27  1  0.671797  0.328203  0.500000  1
