# generated using pymatgen
data_Mn(AlPt2)5
_symmetry_space_group_name_H-M   'P 1'
_cell_length_a   4.02421900
_cell_length_b   5.48524014
_cell_length_c   10.82323794
_cell_angle_alpha   89.85596097
_cell_angle_beta   90.00000000
_cell_angle_gamma   90.00000000
_symmetry_Int_Tables_number   1
_chemical_formula_structural   Mn(AlPt2)5
_chemical_formula_sum   'Mn1 Al5 Pt10'
_cell_volume   238.90931686
_cell_formula_units_Z   1
loop_
 _symmetry_equiv_pos_site_id
 _symmetry_equiv_pos_as_xyz
  1  'x, y, z'
loop_
 _atom_site_type_symbol
 _atom_site_label
 _atom_site_symmetry_multiplicity
 _atom_site_fract_x
 _atom_site_fract_y
 _atom_site_fract_z
 _atom_site_occupancy
  Mn  Mn0  1  0.500000  0.188903  0.636920  1
  Al  Al1  1  0.500000  0.818892  0.361897  1
  Al  Al2  1  0.500000  0.682724  0.856828  1
  Al  Al3  1  0.500000  0.321468  0.139660  1
  Al  Al4  1  0.000000  0.484184  0.504189  1
  Al  Al5  1  0.000000  0.996980  0.998886  1
  Pt  Pt6  1  0.500000  0.295121  0.388546  1
  Pt  Pt7  1  0.500000  0.698613  0.606604  1
  Pt  Pt8  1  0.500000  0.797436  0.107094  1
  Pt  Pt9  1  0.500000  0.202599  0.895757  1
  Pt  Pt10  1  0.000000  0.439889  0.741737  1
  Pt  Pt11  1  0.000000  0.574738  0.268404  1
  Pt  Pt12  1  0.000000  0.938375  0.764624  1
  Pt  Pt13  1  0.000000  0.073733  0.231007  1
  Pt  Pt14  1  0.000000  0.499312  0.002607  1
  Pt  Pt15  1  0.000000  0.987031  0.495242  1
