# generated using pymatgen
data_Nd2CoB10
_symmetry_space_group_name_H-M   'P 1'
_cell_length_a   4.19509900
_cell_length_b   5.63136800
_cell_length_c   11.21201600
_cell_angle_alpha   90.00000000
_cell_angle_beta   90.00000000
_cell_angle_gamma   90.00000000
_symmetry_Int_Tables_number   1
_chemical_formula_structural   Nd2CoB10
_chemical_formula_sum   'Nd4 Co2 B20'
_cell_volume   264.87430591
_cell_formula_units_Z   2
loop_
 _symmetry_equiv_pos_site_id
 _symmetry_equiv_pos_as_xyz
  1  'x, y, z'
loop_
 _atom_site_type_symbol
 _atom_site_label
 _atom_site_symmetry_multiplicity
 _atom_site_fract_x
 _atom_site_fract_y
 _atom_site_fract_z
 _atom_site_occupancy
  Nd  Nd0  1  0.500000  0.199587  0.365844  1
  Nd  Nd1  1  0.500000  0.800413  0.634156  1
  Nd  Nd2  1  0.500000  0.300413  0.865844  1
  Nd  Nd3  1  0.500000  0.699587  0.134156  1
  Co  Co4  1  0.000000  0.000000  0.000000  1
  Co  Co5  1  0.000000  0.500000  0.500000  1
  B  B6  1  0.000000  0.372255  0.040440  1
  B  B7  1  0.000000  0.627745  0.959560  1
  B  B8  1  0.000000  0.127745  0.540440  1
  B  B9  1  0.000000  0.872255  0.459560  1
  B  B10  1  0.000000  0.343493  0.197250  1
  B  B11  1  0.000000  0.656507  0.802750  1
  B  B12  1  0.000000  0.156507  0.697250  1
  B  B13  1  0.000000  0.843493  0.302750  1
  B  B14  1  0.000000  0.034052  0.186810  1
  B  B15  1  0.000000  0.965948  0.813190  1
  B  B16  1  0.000000  0.465948  0.686810  1
  B  B17  1  0.000000  0.534052  0.313190  1
  B  B18  1  0.298659  0.200917  0.112536  1
  B  B19  1  0.701341  0.799083  0.887464  1
  B  B20  1  0.298659  0.799083  0.887464  1
  B  B21  1  0.701341  0.299083  0.612536  1
  B  B22  1  0.701341  0.200917  0.112536  1
  B  B23  1  0.298659  0.700917  0.387464  1
  B  B24  1  0.701341  0.700917  0.387464  1
  B  B25  1  0.298659  0.299083  0.612536  1
