# generated using pymatgen
data_Na(PPt4)2
_symmetry_space_group_name_H-M   'P 1'
_cell_length_a   6.24605242
_cell_length_b   6.24605247
_cell_length_c   9.31310113
_cell_angle_alpha   123.66175094
_cell_angle_beta   123.66174926
_cell_angle_gamma   37.72659064
_symmetry_Int_Tables_number   1
_chemical_formula_structural   Na(PPt4)2
_chemical_formula_sum   'Na1 P2 Pt8'
_cell_volume   180.19027237
_cell_formula_units_Z   1
loop_
 _symmetry_equiv_pos_site_id
 _symmetry_equiv_pos_as_xyz
  1  'x, y, z'
loop_
 _atom_site_type_symbol
 _atom_site_label
 _atom_site_symmetry_multiplicity
 _atom_site_fract_x
 _atom_site_fract_y
 _atom_site_fract_z
 _atom_site_occupancy
  Na  Na0  1  0.500000  0.500000  0.000000  1
  P  P1  1  0.940042  0.940042  0.200475  1
  P  P2  1  0.059958  0.059958  0.799525  1
  Pt  Pt3  1  0.233856  0.233856  0.090183  1
  Pt  Pt4  1  0.178013  0.178013  0.346922  1
  Pt  Pt5  1  0.835181  0.835181  0.349263  1
  Pt  Pt6  1  0.524384  0.524384  0.368929  1
  Pt  Pt7  1  0.475617  0.475617  0.631072  1
  Pt  Pt8  1  0.164819  0.164819  0.650737  1
  Pt  Pt9  1  0.821987  0.821987  0.653078  1
  Pt  Pt10  1  0.766144  0.766144  0.909817  1
