# generated using pymatgen
data_Ho8Nb11Si16Os
_symmetry_space_group_name_H-M   'P 1'
_cell_length_a   7.02486068
_cell_length_b   7.03407530
_cell_length_c   13.00290014
_cell_angle_alpha   89.73191115
_cell_angle_beta   89.94133087
_cell_angle_gamma   90.09554933
_symmetry_Int_Tables_number   1
_chemical_formula_structural   Ho8Nb11Si16Os
_chemical_formula_sum   'Ho8 Nb11 Si16 Os1'
_cell_volume   642.50922350
_cell_formula_units_Z   1
loop_
 _symmetry_equiv_pos_site_id
 _symmetry_equiv_pos_as_xyz
  1  'x, y, z'
loop_
 _atom_site_type_symbol
 _atom_site_label
 _atom_site_symmetry_multiplicity
 _atom_site_fract_x
 _atom_site_fract_y
 _atom_site_fract_z
 _atom_site_occupancy
  Ho  Ho0  1  0.999023  0.340456  0.220137  1
  Ho  Ho1  1  0.001406  0.660351  0.716261  1
  Ho  Ho2  1  0.160150  0.500706  0.467616  1
  Ho  Ho3  1  0.499863  0.840425  0.033687  1
  Ho  Ho4  1  0.839412  0.500777  0.967728  1
  Ho  Ho5  1  0.498954  0.158913  0.531218  1
  Ho  Ho6  1  0.339854  0.999561  0.781529  1
  Ho  Ho7  1  0.660416  0.000561  0.282099  1
  Nb  Nb8  1  0.169732  0.170341  0.000926  1
  Nb  Nb9  1  0.826815  0.830020  0.499999  1
  Nb  Nb10  1  0.328636  0.666890  0.249482  1
  Nb  Nb11  1  0.668922  0.330442  0.749741  1
  Nb  Nb12  1  0.845560  0.006941  0.875467  1
  Nb  Nb13  1  0.504254  0.657378  0.623768  1
  Nb  Nb14  1  0.345159  0.492960  0.874309  1
  Nb  Nb15  1  0.489119  0.341004  0.127711  1
  Nb  Nb16  1  0.656314  0.505738  0.374506  1
  Nb  Nb17  1  0.995525  0.154819  0.623144  1
  Nb  Nb18  1  0.005141  0.844855  0.124153  1
  Si  Si19  1  0.291276  0.039790  0.189885  1
  Si  Si20  1  0.705976  0.956596  0.686930  1
  Si  Si21  1  0.452410  0.794216  0.434427  1
  Si  Si22  1  0.205001  0.544192  0.063053  1
  Si  Si23  1  0.543755  0.204789  0.936692  1
  Si  Si24  1  0.793058  0.455348  0.563296  1
  Si  Si25  1  0.043884  0.295055  0.813091  1
  Si  Si26  1  0.961802  0.714940  0.313915  1
  Si  Si27  1  0.368871  0.290773  0.319421  1
  Si  Si28  1  0.631514  0.706318  0.817314  1
  Si  Si29  1  0.201598  0.869750  0.564265  1
  Si  Si30  1  0.132122  0.795153  0.932164  1
  Si  Si31  1  0.795427  0.133051  0.068218  1
  Si  Si32  1  0.875148  0.198033  0.432072  1
  Si  Si33  1  0.295772  0.367856  0.681794  1
  Si  Si34  1  0.704380  0.629371  0.183523  1
  Os  Os35  1  0.163745  0.001634  0.376459  1
