# generated using pymatgen
data_CaCrNi(Sb6Os)2
_symmetry_space_group_name_H-M   'P 1'
_cell_length_a   8.19931288
_cell_length_b   8.14988930
_cell_length_c   8.13457324
_cell_angle_alpha   109.46032569
_cell_angle_beta   109.74396546
_cell_angle_gamma   109.62563855
_symmetry_Int_Tables_number   1
_chemical_formula_structural   CaCrNi(Sb6Os)2
_chemical_formula_sum   'Ca1 Cr1 Ni1 Sb12 Os2'
_cell_volume   416.28303702
_cell_formula_units_Z   1
loop_
 _symmetry_equiv_pos_site_id
 _symmetry_equiv_pos_as_xyz
  1  'x, y, z'
loop_
 _atom_site_type_symbol
 _atom_site_label
 _atom_site_symmetry_multiplicity
 _atom_site_fract_x
 _atom_site_fract_y
 _atom_site_fract_z
 _atom_site_occupancy
  Ca  Ca0  1  0.000000  0.000000  0.000000  1
  Cr  Cr1  1  0.500000  0.500000  0.500000  1
  Ni  Ni2  1  0.500000  0.000000  0.000000  1
  Sb  Sb3  1  0.843119  0.661269  0.503572  1
  Sb  Sb4  1  0.156881  0.338731  0.496428  1
  Sb  Sb5  1  0.158228  0.662444  0.817773  1
  Sb  Sb6  1  0.841772  0.337556  0.182227  1
  Sb  Sb7  1  0.662438  0.504213  0.843988  1
  Sb  Sb8  1  0.337562  0.495787  0.156012  1
  Sb  Sb9  1  0.657883  0.817219  0.153942  1
  Sb  Sb10  1  0.342117  0.182781  0.846058  1
  Sb  Sb11  1  0.505089  0.847782  0.665461  1
  Sb  Sb12  1  0.494911  0.152218  0.334539  1
  Sb  Sb13  1  0.182323  0.844535  0.340141  1
  Sb  Sb14  1  0.817677  0.155465  0.659859  1
  Os  Os15  1  0.000000  0.500000  0.000000  1
  Os  Os16  1  0.000000  0.000000  0.500000  1
