# generated using pymatgen
data_HoErTm6(CdNi)2
_symmetry_space_group_name_H-M   'P 1'
_cell_length_a   9.42991506
_cell_length_b   9.42257129
_cell_length_c   9.41848589
_cell_angle_alpha   60.06593898
_cell_angle_beta   59.98853230
_cell_angle_gamma   60.15806849
_symmetry_Int_Tables_number   1
_chemical_formula_structural   HoErTm6(CdNi)2
_chemical_formula_sum   'Ho2 Er2 Tm12 Cd4 Ni4'
_cell_volume   592.70436625
_cell_formula_units_Z   2
loop_
 _symmetry_equiv_pos_site_id
 _symmetry_equiv_pos_as_xyz
  1  'x, y, z'
loop_
 _atom_site_type_symbol
 _atom_site_label
 _atom_site_symmetry_multiplicity
 _atom_site_fract_x
 _atom_site_fract_y
 _atom_site_fract_z
 _atom_site_occupancy
  Ho  Ho0  1  0.348471  0.348063  0.348764  1
  Ho  Ho1  1  0.348063  0.348471  0.954702  1
  Er  Er2  1  0.348449  0.954902  0.348080  1
  Er  Er3  1  0.954902  0.348449  0.348570  1
  Tm  Tm4  1  0.811198  0.188556  0.188517  1
  Tm  Tm5  1  0.188556  0.811198  0.811729  1
  Tm  Tm6  1  0.188714  0.811766  0.188261  1
  Tm  Tm7  1  0.811766  0.188714  0.811259  1
  Tm  Tm8  1  0.188319  0.188319  0.811681  1
  Tm  Tm9  1  0.811402  0.811402  0.188598  1
  Tm  Tm10  1  0.936063  0.564739  0.563775  1
  Tm  Tm11  1  0.564739  0.936063  0.935423  1
  Tm  Tm12  1  0.564183  0.935671  0.564307  1
  Tm  Tm13  1  0.935671  0.564183  0.935839  1
  Tm  Tm14  1  0.564208  0.564208  0.935792  1
  Tm  Tm15  1  0.936226  0.936226  0.563774  1
  Cd  Cd16  1  0.582598  0.582483  0.581340  1
  Cd  Cd17  1  0.582483  0.582598  0.253579  1
  Cd  Cd18  1  0.582918  0.254122  0.581849  1
  Cd  Cd19  1  0.254122  0.582918  0.581111  1
  Ni  Ni20  1  0.142033  0.141236  0.140736  1
  Ni  Ni21  1  0.141236  0.142033  0.575996  1
  Ni  Ni22  1  0.140116  0.573567  0.143073  1
  Ni  Ni23  1  0.573567  0.140116  0.143244  1
