# generated using pymatgen
data_Rb4Ti6CBr18
_symmetry_space_group_name_H-M   'P 1'
_cell_length_a   10.40872776
_cell_length_b   10.64719540
_cell_length_c   10.75892610
_cell_angle_alpha   118.30281505
_cell_angle_beta   100.21392874
_cell_angle_gamma   104.16177439
_symmetry_Int_Tables_number   1
_chemical_formula_structural   Rb4Ti6CBr18
_chemical_formula_sum   'Rb4 Ti6 C1 Br18'
_cell_volume   955.92816247
_cell_formula_units_Z   1
loop_
 _symmetry_equiv_pos_site_id
 _symmetry_equiv_pos_as_xyz
  1  'x, y, z'
loop_
 _atom_site_type_symbol
 _atom_site_label
 _atom_site_symmetry_multiplicity
 _atom_site_fract_x
 _atom_site_fract_y
 _atom_site_fract_z
 _atom_site_occupancy
  Rb  Rb0  1  0.192514  0.726146  0.563818  1
  Rb  Rb1  1  0.842029  0.962328  0.770467  1
  Rb  Rb2  1  0.157971  0.037672  0.229533  1
  Rb  Rb3  1  0.807486  0.273854  0.436182  1
  Ti  Ti4  1  0.362829  0.448711  0.790959  1
  Ti  Ti5  1  0.372510  0.613034  0.119019  1
  Ti  Ti6  1  0.633268  0.717724  0.041242  1
  Ti  Ti7  1  0.637171  0.551289  0.209041  1
  Ti  Ti8  1  0.366732  0.282276  0.958758  1
  Ti  Ti9  1  0.627490  0.386966  0.880981  1
  C  C10  1  0.500000  0.500000  0.000000  1
  Br  Br11  1  0.805041  0.430468  0.105770  1
  Br  Br12  1  0.513240  0.691431  0.382388  1
  Br  Br13  1  0.192899  0.999354  0.904369  1
  Br  Br14  1  0.194959  0.569532  0.894230  1
  Br  Br15  1  0.813104  0.814219  0.292702  1
  Br  Br16  1  0.503660  0.307481  0.196466  1
  Br  Br17  1  0.787928  0.243603  0.730621  1
  Br  Br18  1  0.186896  0.185781  0.707298  1
  Br  Br19  1  0.506917  0.883888  0.184045  1
  Br  Br20  1  0.801611  0.622693  0.910865  1
  Br  Br21  1  0.212072  0.756397  0.269379  1
  Br  Br22  1  0.180994  0.382713  0.519825  1
  Br  Br23  1  0.496340  0.692519  0.803534  1
  Br  Br24  1  0.807101  0.000646  0.095631  1
  Br  Br25  1  0.486760  0.308569  0.617612  1
  Br  Br26  1  0.198389  0.377307  0.089135  1
  Br  Br27  1  0.819006  0.617287  0.480175  1
  Br  Br28  1  0.493083  0.116112  0.815955  1
