# generated using pymatgen
data_Ag(O2F7)2
_symmetry_space_group_name_H-M   'P 1'
_cell_length_a   12.57462600
_cell_length_b   6.65625742
_cell_length_c   8.75363916
_cell_angle_alpha   67.71672015
_cell_angle_beta   90.00000000
_cell_angle_gamma   90.00000000
_symmetry_Int_Tables_number   1
_chemical_formula_structural   Ag(O2F7)2
_chemical_formula_sum   'Ag2 O8 F28'
_cell_volume   677.96296371
_cell_formula_units_Z   2
loop_
 _symmetry_equiv_pos_site_id
 _symmetry_equiv_pos_as_xyz
  1  'x, y, z'
loop_
 _atom_site_type_symbol
 _atom_site_label
 _atom_site_symmetry_multiplicity
 _atom_site_fract_x
 _atom_site_fract_y
 _atom_site_fract_z
 _atom_site_occupancy
  Ag  Ag0  1  0.500000  0.500000  0.500000  1
  Ag  Ag1  1  0.000000  0.500000  0.000000  1
  O  O2  1  0.367880  0.772058  0.908542  1
  O  O3  1  0.632120  0.227942  0.091458  1
  O  O4  1  0.867880  0.227942  0.591458  1
  O  O5  1  0.132120  0.772058  0.408542  1
  O  O6  1  0.737042  0.747620  0.878416  1
  O  O7  1  0.262958  0.252380  0.121584  1
  O  O8  1  0.237042  0.252380  0.621584  1
  O  O9  1  0.762958  0.747620  0.378416  1
  F  F10  1  0.443634  0.857943  0.781973  1
  F  F11  1  0.556366  0.142057  0.218027  1
  F  F12  1  0.943634  0.142057  0.718027  1
  F  F13  1  0.056366  0.857943  0.281973  1
  F  F14  1  0.434299  0.770503  0.485419  1
  F  F15  1  0.565701  0.229497  0.514581  1
  F  F16  1  0.934299  0.229497  0.014581  1
  F  F17  1  0.065701  0.770503  0.985419  1
  F  F18  1  0.426548  0.348066  0.707053  1
  F  F19  1  0.573452  0.651934  0.292947  1
  F  F20  1  0.926548  0.651934  0.792947  1
  F  F21  1  0.073452  0.348066  0.207053  1
  F  F22  1  0.089427  0.802801  0.547765  1
  F  F23  1  0.910573  0.197199  0.452235  1
  F  F24  1  0.589427  0.197199  0.952235  1
  F  F25  1  0.410573  0.802801  0.047765  1
  F  F26  1  0.344400  0.304754  0.000741  1
  F  F27  1  0.655600  0.695246  0.999259  1
  F  F28  1  0.844400  0.695246  0.499259  1
  F  F29  1  0.155600  0.304754  0.500741  1
  F  F30  1  0.119861  0.445955  0.881107  1
  F  F31  1  0.880139  0.554045  0.118893  1
  F  F32  1  0.619861  0.554045  0.618893  1
  F  F33  1  0.380139  0.445955  0.381107  1
  F  F34  1  0.190832  0.097798  0.765780  1
  F  F35  1  0.809168  0.902202  0.234220  1
  F  F36  1  0.690832  0.902202  0.734220  1
  F  F37  1  0.309168  0.097798  0.265780  1
