# generated using pymatgen
data_Ni2Mo3WC
_symmetry_space_group_name_H-M   'P 1'
_cell_length_a   8.00927422
_cell_length_b   8.00927406
_cell_length_c   8.00927400
_cell_angle_alpha   60.00000025
_cell_angle_beta   60.00000089
_cell_angle_gamma   60.00000234
_symmetry_Int_Tables_number   1
_chemical_formula_structural   Ni2Mo3WC
_chemical_formula_sum   'Ni8 Mo12 W4 C4'
_cell_volume   363.29923428
_cell_formula_units_Z   4
loop_
 _symmetry_equiv_pos_site_id
 _symmetry_equiv_pos_as_xyz
  1  'x, y, z'
loop_
 _atom_site_type_symbol
 _atom_site_label
 _atom_site_symmetry_multiplicity
 _atom_site_fract_x
 _atom_site_fract_y
 _atom_site_fract_z
 _atom_site_occupancy
  Ni  Ni0  1  0.833136  0.833136  0.833136  1
  Ni  Ni1  1  0.833136  0.833136  0.500590  1
  Ni  Ni2  1  0.500590  0.833136  0.833136  1
  Ni  Ni3  1  0.833136  0.500590  0.833136  1
  Ni  Ni4  1  0.416864  0.416864  0.416864  1
  Ni  Ni5  1  0.416864  0.416864  0.749410  1
  Ni  Ni6  1  0.416864  0.749410  0.416864  1
  Ni  Ni7  1  0.749410  0.416864  0.416864  1
  Mo  Mo8  1  0.440007  0.059993  0.059993  1
  Mo  Mo9  1  0.059993  0.440007  0.440007  1
  Mo  Mo10  1  0.059993  0.440007  0.059993  1
  Mo  Mo11  1  0.059993  0.059993  0.440007  1
  Mo  Mo12  1  0.440007  0.059993  0.440007  1
  Mo  Mo13  1  0.440007  0.440007  0.059993  1
  Mo  Mo14  1  0.190007  0.809993  0.190007  1
  Mo  Mo15  1  0.809993  0.190007  0.809993  1
  Mo  Mo16  1  0.809993  0.190007  0.190007  1
  Mo  Mo17  1  0.190007  0.190007  0.809993  1
  Mo  Mo18  1  0.190007  0.809993  0.809993  1
  Mo  Mo19  1  0.809993  0.809993  0.190007  1
  W  W20  1  0.625000  0.625000  0.625000  1
  W  W21  1  0.625000  0.625000  0.125000  1
  W  W22  1  0.125000  0.625000  0.625000  1
  W  W23  1  0.625000  0.125000  0.625000  1
  C  C24  1  0.125000  0.125000  0.125000  1
  C  C25  1  0.125000  0.125000  0.625000  1
  C  C26  1  0.625000  0.125000  0.125000  1
  C  C27  1  0.125000  0.625000  0.125000  1
