# generated using pymatgen
data_ErTmPt2F14
_symmetry_space_group_name_H-M   'P 1'
_cell_length_a   5.51366800
_cell_length_b   8.80222780
_cell_length_c   11.90636519
_cell_angle_alpha   62.62946418
_cell_angle_beta   90.00000000
_cell_angle_gamma   90.00000000
_symmetry_Int_Tables_number   1
_chemical_formula_structural   ErTmPt2F14
_chemical_formula_sum   'Er2 Tm2 Pt4 F28'
_cell_volume   513.15761092
_cell_formula_units_Z   2
loop_
 _symmetry_equiv_pos_site_id
 _symmetry_equiv_pos_as_xyz
  1  'x, y, z'
loop_
 _atom_site_type_symbol
 _atom_site_label
 _atom_site_symmetry_multiplicity
 _atom_site_fract_x
 _atom_site_fract_y
 _atom_site_fract_z
 _atom_site_occupancy
  Er  Er0  1  0.239101  0.185681  0.235784  1
  Er  Er1  1  0.739101  0.814319  0.264216  1
  Tm  Tm2  1  0.760789  0.815014  0.764198  1
  Tm  Tm3  1  0.260789  0.184986  0.735802  1
  Pt  Pt4  1  0.759398  0.272518  0.956228  1
  Pt  Pt5  1  0.259398  0.727482  0.543772  1
  Pt  Pt6  1  0.241111  0.728201  0.041863  1
  Pt  Pt7  1  0.741111  0.271799  0.458137  1
  F  F8  1  0.438918  0.702013  0.914738  1
  F  F9  1  0.938918  0.297987  0.585262  1
  F  F10  1  0.561092  0.297932  0.083561  1
  F  F11  1  0.061092  0.702068  0.416439  1
  F  F12  1  0.438702  0.277211  0.544827  1
  F  F13  1  0.938702  0.722789  0.955173  1
  F  F14  1  0.560574  0.721377  0.456866  1
  F  F15  1  0.060574  0.278623  0.043134  1
  F  F16  1  0.774635  0.523502  0.857010  1
  F  F17  1  0.274635  0.476498  0.642990  1
  F  F18  1  0.224729  0.477686  0.141848  1
  F  F19  1  0.724729  0.522314  0.358152  1
  F  F20  1  0.754777  0.022051  0.050315  1
  F  F21  1  0.254777  0.977949  0.449685  1
  F  F22  1  0.246304  0.978806  0.948080  1
  F  F23  1  0.746304  0.021194  0.551920  1
  F  F24  1  0.966830  0.725857  0.638681  1
  F  F25  1  0.466830  0.274143  0.861319  1
  F  F26  1  0.034545  0.274997  0.363489  1
  F  F27  1  0.534545  0.725003  0.136511  1
  F  F28  1  0.050284  0.746844  0.174995  1
  F  F29  1  0.550284  0.253156  0.325005  1
  F  F30  1  0.952184  0.253352  0.823895  1
  F  F31  1  0.452184  0.746648  0.676105  1
  F  F32  1  0.416610  0.970325  0.232635  1
  F  F33  1  0.916610  0.029675  0.267365  1
  F  F34  1  0.579416  0.027795  0.766762  1
  F  F35  1  0.079416  0.972205  0.733238  1
