# generated using pymatgen
data_Ho4BeB14
_symmetry_space_group_name_H-M   'P 1'
_cell_length_a   7.19411600
_cell_length_b   7.19411600
_cell_length_c   7.36802600
_cell_angle_alpha   90.00000000
_cell_angle_beta   90.00000000
_cell_angle_gamma   90.00000000
_symmetry_Int_Tables_number   1
_chemical_formula_structural   Ho4BeB14
_chemical_formula_sum   'Ho8 Be2 B28'
_cell_volume   381.33443304
_cell_formula_units_Z   2
loop_
 _symmetry_equiv_pos_site_id
 _symmetry_equiv_pos_as_xyz
  1  'x, y, z'
loop_
 _atom_site_type_symbol
 _atom_site_label
 _atom_site_symmetry_multiplicity
 _atom_site_fract_x
 _atom_site_fract_y
 _atom_site_fract_z
 _atom_site_occupancy
  Ho  Ho0  1  0.194692  0.329051  0.000000  1
  Ho  Ho1  1  0.670949  0.194692  0.000000  1
  Ho  Ho2  1  0.329051  0.805308  0.000000  1
  Ho  Ho3  1  0.694692  0.170949  0.500000  1
  Ho  Ho4  1  0.305308  0.829051  0.500000  1
  Ho  Ho5  1  0.805308  0.670949  0.000000  1
  Ho  Ho6  1  0.829051  0.694692  0.500000  1
  Ho  Ho7  1  0.170949  0.305308  0.500000  1
  Be  Be8  1  0.000000  0.000000  0.000000  1
  Be  Be9  1  0.500000  0.500000  0.500000  1
  B  B10  1  0.174170  0.038928  0.227950  1
  B  B11  1  0.961072  0.174170  0.227950  1
  B  B12  1  0.038928  0.825830  0.227950  1
  B  B13  1  0.674170  0.461072  0.272050  1
  B  B14  1  0.325830  0.538928  0.272050  1
  B  B15  1  0.825830  0.961072  0.227950  1
  B  B16  1  0.538928  0.674170  0.272050  1
  B  B17  1  0.461072  0.325830  0.272050  1
  B  B18  1  0.825830  0.961072  0.772050  1
  B  B19  1  0.038928  0.825830  0.772050  1
  B  B20  1  0.961072  0.174170  0.772050  1
  B  B21  1  0.325830  0.538928  0.727950  1
  B  B22  1  0.674170  0.461072  0.727950  1
  B  B23  1  0.174170  0.038928  0.772050  1
  B  B24  1  0.461072  0.325830  0.727950  1
  B  B25  1  0.538928  0.674170  0.727950  1
  B  B26  1  0.088336  0.588336  0.250000  1
  B  B27  1  0.411664  0.088336  0.250000  1
  B  B28  1  0.588336  0.911664  0.250000  1
  B  B29  1  0.911664  0.411664  0.250000  1
  B  B30  1  0.911664  0.411664  0.750000  1
  B  B31  1  0.588336  0.911664  0.750000  1
  B  B32  1  0.411664  0.088336  0.750000  1
  B  B33  1  0.088336  0.588336  0.750000  1
  B  B34  1  0.000000  0.000000  0.387920  1
  B  B35  1  0.500000  0.500000  0.112080  1
  B  B36  1  0.000000  0.000000  0.612080  1
  B  B37  1  0.500000  0.500000  0.887920  1
