# generated using pymatgen
data_TbDy2Y(ReC2)2
_symmetry_space_group_name_H-M   'P 1'
_cell_length_a   5.12901400
_cell_length_b   6.59780000
_cell_length_c   9.90366900
_cell_angle_alpha   90.00000000
_cell_angle_beta   90.00000000
_cell_angle_gamma   90.00000000
_symmetry_Int_Tables_number   1
_chemical_formula_structural   TbDy2Y(ReC2)2
_chemical_formula_sum   'Tb2 Dy4 Y2 Re4 C8'
_cell_volume   335.14222456
_cell_formula_units_Z   2
loop_
 _symmetry_equiv_pos_site_id
 _symmetry_equiv_pos_as_xyz
  1  'x, y, z'
loop_
 _atom_site_type_symbol
 _atom_site_label
 _atom_site_symmetry_multiplicity
 _atom_site_fract_x
 _atom_site_fract_y
 _atom_site_fract_z
 _atom_site_occupancy
  Tb  Tb0  1  0.750000  0.532225  0.783740  1
  Tb  Tb1  1  0.250000  0.967775  0.283740  1
  Dy  Dy2  1  0.750000  0.679552  0.443719  1
  Dy  Dy3  1  0.250000  0.820448  0.943719  1
  Dy  Dy4  1  0.750000  0.180100  0.056332  1
  Dy  Dy5  1  0.250000  0.319900  0.556332  1
  Y  Y6  1  0.250000  0.467508  0.216382  1
  Y  Y7  1  0.750000  0.032492  0.716382  1
  Re  Re8  1  0.250000  0.278392  0.865049  1
  Re  Re9  1  0.250000  0.778159  0.634837  1
  Re  Re10  1  0.750000  0.221608  0.365049  1
  Re  Re11  1  0.750000  0.721841  0.134837  1
  C  C12  1  0.250000  0.677722  0.452128  1
  C  C13  1  0.250000  0.544977  0.759012  1
  C  C14  1  0.750000  0.455056  0.240856  1
  C  C15  1  0.750000  0.822278  0.952128  1
  C  C16  1  0.250000  0.044944  0.740856  1
  C  C17  1  0.250000  0.178303  0.047944  1
  C  C18  1  0.750000  0.321697  0.547944  1
  C  C19  1  0.750000  0.955023  0.259012  1
