# generated using pymatgen
data_Na3Er(BO3)2
_symmetry_space_group_name_H-M   'P 1'
_cell_length_a   9.34685700
_cell_length_b   5.22000998
_cell_length_c   7.28215106
_cell_angle_alpha   56.95067715
_cell_angle_beta   90.00000000
_cell_angle_gamma   90.00000000
_symmetry_Int_Tables_number   1
_chemical_formula_structural   Na3Er(BO3)2
_chemical_formula_sum   'Na6 Er2 B4 O12'
_cell_volume   297.81392526
_cell_formula_units_Z   2
loop_
 _symmetry_equiv_pos_site_id
 _symmetry_equiv_pos_as_xyz
  1  'x, y, z'
loop_
 _atom_site_type_symbol
 _atom_site_label
 _atom_site_symmetry_multiplicity
 _atom_site_fract_x
 _atom_site_fract_y
 _atom_site_fract_z
 _atom_site_occupancy
  Na  Na0  1  0.500000  0.000000  0.000000  1
  Na  Na1  1  0.000000  0.000000  0.500000  1
  Na  Na2  1  0.832104  0.258020  0.735022  1
  Na  Na3  1  0.332104  0.741980  0.764978  1
  Na  Na4  1  0.167896  0.741980  0.264978  1
  Na  Na5  1  0.667896  0.258020  0.235022  1
  Er  Er6  1  0.500000  0.500000  0.500000  1
  Er  Er7  1  0.000000  0.500000  0.000000  1
  B  B8  1  0.669543  0.770071  0.741108  1
  B  B9  1  0.169543  0.229929  0.758892  1
  B  B10  1  0.330457  0.229929  0.258892  1
  B  B11  1  0.830457  0.770071  0.241108  1
  O  O12  1  0.586380  0.523969  0.781119  1
  O  O13  1  0.086380  0.476031  0.718881  1
  O  O14  1  0.413620  0.476031  0.218881  1
  O  O15  1  0.913620  0.523969  0.281119  1
  O  O16  1  0.608257  0.053391  0.662423  1
  O  O17  1  0.108257  0.946609  0.837577  1
  O  O18  1  0.391743  0.946609  0.337577  1
  O  O19  1  0.891743  0.053391  0.162423  1
  O  O20  1  0.815852  0.736563  0.780488  1
  O  O21  1  0.315852  0.263437  0.719512  1
  O  O22  1  0.184148  0.263437  0.219512  1
  O  O23  1  0.684148  0.736563  0.280488  1
