# generated using pymatgen
data_Lu4Zn2Os5W
_symmetry_space_group_name_H-M   'P 1'
_cell_length_a   5.41877861
_cell_length_b   5.28229867
_cell_length_c   8.81768200
_cell_angle_alpha   90.00000000
_cell_angle_beta   90.00000000
_cell_angle_gamma   121.48036834
_symmetry_Int_Tables_number   1
_chemical_formula_structural   Lu4Zn2Os5W
_chemical_formula_sum   'Lu4 Zn2 Os5 W1'
_cell_volume   215.24631865
_cell_formula_units_Z   1
loop_
 _symmetry_equiv_pos_site_id
 _symmetry_equiv_pos_as_xyz
  1  'x, y, z'
loop_
 _atom_site_type_symbol
 _atom_site_label
 _atom_site_symmetry_multiplicity
 _atom_site_fract_x
 _atom_site_fract_y
 _atom_site_fract_z
 _atom_site_occupancy
  Lu  Lu0  1  0.327705  0.671467  0.441800  1
  Lu  Lu1  1  0.668067  0.344316  0.565347  1
  Lu  Lu2  1  0.668067  0.344316  0.934653  1
  Lu  Lu3  1  0.327705  0.671467  0.058200  1
  Zn  Zn4  1  0.350197  0.159679  0.250000  1
  Zn  Zn5  1  0.839053  0.644508  0.250000  1
  Os  Os6  1  0.173481  0.821614  0.750000  1
  Os  Os7  1  0.653048  0.825542  0.750000  1
  Os  Os8  1  0.994658  0.020883  0.005461  1
  Os  Os9  1  0.840745  0.151073  0.250000  1
  Os  Os10  1  0.994658  0.020883  0.494539  1
  W  W11  1  0.162616  0.324257  0.750000  1
