# generated using pymatgen
data_Hf2Zr2Co7P6Ru
_symmetry_space_group_name_H-M   'P 1'
_cell_length_a   12.22199550
_cell_length_b   12.17852486
_cell_length_c   3.66782200
_cell_angle_alpha   90.00000000
_cell_angle_beta   90.00000000
_cell_angle_gamma   120.11921330
_symmetry_Int_Tables_number   1
_chemical_formula_structural   Hf2Zr2Co7P6Ru
_chemical_formula_sum   'Hf4 Zr4 Co14 P12 Ru2'
_cell_volume   472.22908173
_cell_formula_units_Z   2
loop_
 _symmetry_equiv_pos_site_id
 _symmetry_equiv_pos_as_xyz
  1  'x, y, z'
loop_
 _atom_site_type_symbol
 _atom_site_label
 _atom_site_symmetry_multiplicity
 _atom_site_fract_x
 _atom_site_fract_y
 _atom_site_fract_z
 _atom_site_occupancy
  Hf  Hf0  1  0.447449  0.444258  0.000000  1
  Hf  Hf1  1  0.558662  0.002405  0.000000  1
  Hf  Hf2  1  0.993486  0.553825  0.000000  1
  Hf  Hf3  1  0.824688  0.825646  0.500000  1
  Zr  Zr4  1  0.666212  0.333598  0.000000  1
  Zr  Zr5  1  0.335593  0.665489  0.000000  1
  Zr  Zr6  1  0.175632  0.998855  0.500000  1
  Zr  Zr7  1  0.002497  0.176356  0.500000  1
  Co  Co8  1  0.198143  0.366570  0.000000  1
  Co  Co9  1  0.168105  0.804024  0.000000  1
  Co  Co10  1  0.819688  0.630124  0.000000  1
  Co  Co11  1  0.808508  0.178358  0.000000  1
  Co  Co12  1  0.372094  0.193096  0.000000  1
  Co  Co13  1  0.523847  0.647123  0.500000  1
  Co  Co14  1  0.645018  0.519564  0.500000  1
  Co  Co15  1  0.865765  0.355504  0.500000  1
  Co  Co16  1  0.489243  0.133323  0.500000  1
  Co  Co17  1  0.999015  0.999717  0.000000  1
  Co  Co18  1  0.723915  0.001206  0.500000  1
  Co  Co19  1  0.993783  0.720163  0.500000  1
  Co  Co20  1  0.631716  0.824457  0.000000  1
  Co  Co21  1  0.281620  0.277520  0.500000  1
  P  P22  1  0.654949  0.656628  0.000000  1
  P  P23  1  0.344665  0.000239  0.000000  1
  P  P24  1  0.000094  0.343886  0.000000  1
  P  P25  1  0.482582  0.309117  0.500000  1
  P  P26  1  0.692042  0.172690  0.500000  1
  P  P27  1  0.824345  0.518629  0.500000  1
  P  P28  1  0.521652  0.828352  0.500000  1
  P  P29  1  0.164519  0.687312  0.500000  1
  P  P30  1  0.826425  0.000524  0.000000  1
  P  P31  1  0.996822  0.825374  0.000000  1
  P  P32  1  0.315695  0.481959  0.500000  1
  P  P33  1  0.175892  0.173171  0.000000  1
  Ru  Ru34  1  0.122505  0.474341  0.500000  1
  Ru  Ru35  1  0.353134  0.876597  0.500000  1
