# generated using pymatgen
data_Dy5Ho5Pt18
_symmetry_space_group_name_H-M   'P 1'
_cell_length_a   9.76592265
_cell_length_b   9.76962565
_cell_length_c   5.77254100
_cell_angle_alpha   90.00000000
_cell_angle_beta   90.00000000
_cell_angle_gamma   90.04179967
_symmetry_Int_Tables_number   1
_chemical_formula_structural   Dy5Ho5Pt18
_chemical_formula_sum   'Dy5 Ho5 Pt18'
_cell_volume   550.75457529
_cell_formula_units_Z   1
loop_
 _symmetry_equiv_pos_site_id
 _symmetry_equiv_pos_as_xyz
  1  'x, y, z'
loop_
 _atom_site_type_symbol
 _atom_site_label
 _atom_site_symmetry_multiplicity
 _atom_site_fract_x
 _atom_site_fract_y
 _atom_site_fract_z
 _atom_site_occupancy
  Dy  Dy0  1  0.452318  0.809427  0.000000  1
  Dy  Dy1  1  0.547751  0.190555  0.000000  1
  Dy  Dy2  1  0.190532  0.547705  0.000000  1
  Dy  Dy3  1  0.809471  0.452301  0.000000  1
  Dy  Dy4  1  0.309392  0.047760  0.500000  1
  Ho  Ho5  1  0.500009  0.500015  0.500000  1
  Ho  Ho6  1  0.690611  0.952230  0.500000  1
  Ho  Ho7  1  0.952215  0.690558  0.500000  1
  Ho  Ho8  1  0.047736  0.309459  0.500000  1
  Ho  Ho9  1  0.999963  0.000000  0.000000  1
  Pt  Pt10  1  0.191189  0.808583  0.250902  1
  Pt  Pt11  1  0.808764  0.191253  0.748980  1
  Pt  Pt12  1  0.808764  0.191253  0.251020  1
  Pt  Pt13  1  0.191189  0.808583  0.749098  1
  Pt  Pt14  1  0.440174  0.781302  0.500000  1
  Pt  Pt15  1  0.560035  0.218629  0.500000  1
  Pt  Pt16  1  0.218511  0.559894  0.500000  1
  Pt  Pt17  1  0.781499  0.440124  0.500000  1
  Pt  Pt18  1  0.308468  0.308662  0.249393  1
  Pt  Pt19  1  0.691538  0.691530  0.750452  1
  Pt  Pt20  1  0.691538  0.691530  0.249548  1
  Pt  Pt21  1  0.308468  0.308662  0.750607  1
  Pt  Pt22  1  0.281209  0.059929  0.000000  1
  Pt  Pt23  1  0.718769  0.940074  0.000000  1
  Pt  Pt24  1  0.940074  0.718774  0.000000  1
  Pt  Pt25  1  0.059912  0.281216  0.000000  1
  Pt  Pt26  1  0.999885  0.999974  0.500000  1
  Pt  Pt27  1  0.500015  0.500019  0.000000  1
