# generated using pymatgen
data_Dy3Y3Th2(CoHg)2
_symmetry_space_group_name_H-M   'P 1'
_cell_length_a   9.57825995
_cell_length_b   9.57825892
_cell_length_c   9.57826100
_cell_angle_alpha   60.00000316
_cell_angle_beta   60.00000672
_cell_angle_gamma   60.00000491
_symmetry_Int_Tables_number   1
_chemical_formula_structural   Dy3Y3Th2(CoHg)2
_chemical_formula_sum   'Dy6 Y6 Th4 Co4 Hg4'
_cell_volume   621.36231413
_cell_formula_units_Z   2
loop_
 _symmetry_equiv_pos_site_id
 _symmetry_equiv_pos_as_xyz
  1  'x, y, z'
loop_
 _atom_site_type_symbol
 _atom_site_label
 _atom_site_symmetry_multiplicity
 _atom_site_fract_x
 _atom_site_fract_y
 _atom_site_fract_z
 _atom_site_occupancy
  Dy  Dy0  1  0.812614  0.187386  0.187386  1
  Dy  Dy1  1  0.187386  0.812614  0.812614  1
  Dy  Dy2  1  0.187386  0.812614  0.187386  1
  Dy  Dy3  1  0.812614  0.187386  0.812614  1
  Dy  Dy4  1  0.187386  0.187386  0.812614  1
  Dy  Dy5  1  0.812614  0.812614  0.187386  1
  Y  Y6  1  0.936754  0.563246  0.563246  1
  Y  Y7  1  0.563246  0.936754  0.936754  1
  Y  Y8  1  0.563246  0.936754  0.563246  1
  Y  Y9  1  0.936754  0.563246  0.936754  1
  Y  Y10  1  0.563246  0.563246  0.936754  1
  Y  Y11  1  0.936754  0.936754  0.563246  1
  Th  Th12  1  0.346616  0.346616  0.346616  1
  Th  Th13  1  0.346616  0.346616  0.960151  1
  Th  Th14  1  0.346616  0.960151  0.346616  1
  Th  Th15  1  0.960151  0.346616  0.346616  1
  Co  Co16  1  0.144787  0.144787  0.144787  1
  Co  Co17  1  0.144787  0.144787  0.565637  1
  Co  Co18  1  0.144787  0.565637  0.144787  1
  Co  Co19  1  0.565637  0.144787  0.144787  1
  Hg  Hg20  1  0.585507  0.585507  0.585507  1
  Hg  Hg21  1  0.585507  0.585507  0.243479  1
  Hg  Hg22  1  0.585507  0.243479  0.585507  1
  Hg  Hg23  1  0.243479  0.585507  0.585507  1
