# generated using pymatgen
data_Er8Lu4TcRu3
_symmetry_space_group_name_H-M   'P 1'
_cell_length_a   6.21123015
_cell_length_b   7.29257427
_cell_length_c   8.95960005
_cell_angle_alpha   90.01212730
_cell_angle_beta   90.00373197
_cell_angle_gamma   90.00208403
_symmetry_Int_Tables_number   1
_chemical_formula_structural   Er8Lu4TcRu3
_chemical_formula_sum   'Er8 Lu4 Tc1 Ru3'
_cell_volume   405.83275396
_cell_formula_units_Z   1
loop_
 _symmetry_equiv_pos_site_id
 _symmetry_equiv_pos_as_xyz
  1  'x, y, z'
loop_
 _atom_site_type_symbol
 _atom_site_label
 _atom_site_symmetry_multiplicity
 _atom_site_fract_x
 _atom_site_fract_y
 _atom_site_fract_z
 _atom_site_occupancy
  Er  Er0  1  0.334688  0.676347  0.063710  1
  Er  Er1  1  0.166009  0.176052  0.436655  1
  Er  Er2  1  0.665891  0.323443  0.563240  1
  Er  Er3  1  0.836155  0.824546  0.937718  1
  Er  Er4  1  0.870291  0.539507  0.250001  1
  Er  Er5  1  0.626008  0.041102  0.249985  1
  Er  Er6  1  0.130651  0.458612  0.750038  1
  Er  Er7  1  0.369256  0.958903  0.749993  1
  Lu  Lu8  1  0.666117  0.323321  0.936966  1
  Lu  Lu9  1  0.835970  0.824487  0.562066  1
  Lu  Lu10  1  0.334569  0.676484  0.436484  1
  Lu  Lu11  1  0.166132  0.176335  0.063034  1
  Tc  Tc12  1  0.037842  0.883801  0.250714  1
  Ru  Ru13  1  0.461373  0.383339  0.249401  1
  Ru  Ru14  1  0.960372  0.117774  0.750655  1
  Ru  Ru15  1  0.538676  0.615951  0.749339  1
