# generated using pymatgen
data_Y12Ga2Ni3Os
_symmetry_space_group_name_H-M   'P 1'
_cell_length_a   8.37123907
_cell_length_b   8.37123995
_cell_length_c   8.37123933
_cell_angle_alpha   112.47502985
_cell_angle_beta   109.49165743
_cell_angle_gamma   106.50204852
_symmetry_Int_Tables_number   1
_chemical_formula_structural   Y12Ga2Ni3Os
_chemical_formula_sum   'Y12 Ga2 Ni3 Os1'
_cell_volume   450.36655284
_cell_formula_units_Z   1
loop_
 _symmetry_equiv_pos_site_id
 _symmetry_equiv_pos_as_xyz
  1  'x, y, z'
loop_
 _atom_site_type_symbol
 _atom_site_label
 _atom_site_symmetry_multiplicity
 _atom_site_fract_x
 _atom_site_fract_y
 _atom_site_fract_z
 _atom_site_occupancy
  Y  Y0  1  0.053881  0.746206  0.307676  1
  Y  Y1  1  0.958726  0.265139  0.693586  1
  Y  Y2  1  0.561468  0.253794  0.307676  1
  Y  Y3  1  0.428448  0.734861  0.693586  1
  Y  Y4  1  0.674248  0.862142  0.191824  1
  Y  Y5  1  0.329682  0.517576  0.191824  1
  Y  Y6  1  0.329682  0.137858  0.812106  1
  Y  Y7  1  0.674248  0.482424  0.812106  1
  Y  Y8  1  0.174571  0.222606  0.397177  1
  Y  Y9  1  0.815943  0.224734  0.040677  1
  Y  Y10  1  0.174571  0.777394  0.951965  1
  Y  Y11  1  0.815943  0.775266  0.591209  1
  Ga  Ga12  1  0.990015  0.500000  0.490015  1
  Ga  Ga13  1  0.504357  0.000000  0.504357  1
  Ni  Ni14  1  0.347852  0.500000  0.847852  1
  Ni  Ni15  1  0.883431  0.883610  0.999820  1
  Ni  Ni16  1  0.116210  0.116390  0.999820  1
  Os  Os17  1  0.666723  0.500000  0.166723  1
