# generated using pymatgen
data_Tm20Ga2Bi9Os
_symmetry_space_group_name_H-M   'P 1'
_cell_length_a   8.03813174
_cell_length_b   9.27211900
_cell_length_c   11.88850682
_cell_angle_alpha   90.00000000
_cell_angle_beta   90.05904712
_cell_angle_gamma   90.00000000
_symmetry_Int_Tables_number   1
_chemical_formula_structural   Tm20Ga2Bi9Os
_chemical_formula_sum   'Tm20 Ga2 Bi9 Os1'
_cell_volume   886.05605438
_cell_formula_units_Z   1
loop_
 _symmetry_equiv_pos_site_id
 _symmetry_equiv_pos_as_xyz
  1  'x, y, z'
loop_
 _atom_site_type_symbol
 _atom_site_label
 _atom_site_symmetry_multiplicity
 _atom_site_fract_x
 _atom_site_fract_y
 _atom_site_fract_z
 _atom_site_occupancy
  Tm  Tm0  1  0.684012  0.930920  0.435417  1
  Tm  Tm1  1  0.819715  0.539073  0.939894  1
  Tm  Tm2  1  0.308130  0.454836  0.565883  1
  Tm  Tm3  1  0.169039  0.061268  0.055966  1
  Tm  Tm4  1  0.308130  0.045164  0.565883  1
  Tm  Tm5  1  0.169039  0.438732  0.055966  1
  Tm  Tm6  1  0.684012  0.569080  0.435417  1
  Tm  Tm7  1  0.819715  0.960927  0.939894  1
  Tm  Tm8  1  0.332501  0.750000  0.283194  1
  Tm  Tm9  1  0.175149  0.750000  0.782302  1
  Tm  Tm10  1  0.702677  0.250000  0.743728  1
  Tm  Tm11  1  0.841157  0.250000  0.201761  1
  Tm  Tm12  1  0.041001  0.750000  0.494687  1
  Tm  Tm13  1  0.462211  0.750000  0.998098  1
  Tm  Tm14  1  0.977832  0.250000  0.502418  1
  Tm  Tm15  1  0.548234  0.250000  0.004265  1
  Tm  Tm16  1  0.854802  0.750000  0.205378  1
  Tm  Tm17  1  0.642881  0.750000  0.707282  1
  Tm  Tm18  1  0.129649  0.250000  0.797341  1
  Tm  Tm19  1  0.341401  0.250000  0.288404  1
  Ga  Ga20  1  0.093676  0.750000  0.022529  1
  Ga  Ga21  1  0.407157  0.750000  0.526452  1
  Bi  Bi22  1  0.596025  0.250000  0.480543  1
  Bi  Bi23  1  0.560615  0.991778  0.177401  1
  Bi  Bi24  1  0.932952  0.515673  0.670288  1
  Bi  Bi25  1  0.433904  0.489722  0.824587  1
  Bi  Bi26  1  0.065067  0.007288  0.324475  1
  Bi  Bi27  1  0.433904  0.010278  0.824587  1
  Bi  Bi28  1  0.065067  0.492712  0.324475  1
  Bi  Bi29  1  0.560615  0.508222  0.177401  1
  Bi  Bi30  1  0.932952  0.984327  0.670288  1
  Os  Os31  1  0.906779  0.250000  0.973795  1
