# generated using pymatgen
data_NaCr(Te3O7)2
_symmetry_space_group_name_H-M   'P 1'
_cell_length_a   11.07269200
_cell_length_b   11.07269200
_cell_length_c   11.07269200
_cell_angle_alpha   90.00000000
_cell_angle_beta   90.00000000
_cell_angle_gamma   90.00000000
_symmetry_Int_Tables_number   1
_chemical_formula_structural   NaCr(Te3O7)2
_chemical_formula_sum   'Na4 Cr4 Te24 O56'
_cell_volume   1357.56195630
_cell_formula_units_Z   4
loop_
 _symmetry_equiv_pos_site_id
 _symmetry_equiv_pos_as_xyz
  1  'x, y, z'
loop_
 _atom_site_type_symbol
 _atom_site_label
 _atom_site_symmetry_multiplicity
 _atom_site_fract_x
 _atom_site_fract_y
 _atom_site_fract_z
 _atom_site_occupancy
  Na  Na0  1  0.500000  0.500000  0.000000  1
  Na  Na1  1  0.000000  0.500000  0.500000  1
  Na  Na2  1  0.000000  0.000000  0.000000  1
  Na  Na3  1  0.500000  0.000000  0.500000  1
  Cr  Cr4  1  0.000000  0.000000  0.500000  1
  Cr  Cr5  1  0.500000  0.500000  0.500000  1
  Cr  Cr6  1  0.500000  0.000000  0.000000  1
  Cr  Cr7  1  0.000000  0.500000  0.000000  1
  Te  Te8  1  0.991353  0.736674  0.772736  1
  Te  Te9  1  0.491353  0.736674  0.727264  1
  Te  Te10  1  0.763326  0.272736  0.991353  1
  Te  Te11  1  0.263326  0.227264  0.008647  1
  Te  Te12  1  0.736674  0.772736  0.991353  1
  Te  Te13  1  0.736674  0.727264  0.491353  1
  Te  Te14  1  0.272736  0.991353  0.763326  1
  Te  Te15  1  0.772736  0.991353  0.736674  1
  Te  Te16  1  0.227264  0.008647  0.263326  1
  Te  Te17  1  0.991353  0.763326  0.272736  1
  Te  Te18  1  0.772736  0.508647  0.236674  1
  Te  Te19  1  0.008647  0.236674  0.727264  1
  Te  Te20  1  0.727264  0.491353  0.736674  1
  Te  Te21  1  0.263326  0.272736  0.508647  1
  Te  Te22  1  0.236674  0.727264  0.008647  1
  Te  Te23  1  0.272736  0.508647  0.263326  1
  Te  Te24  1  0.491353  0.763326  0.227264  1
  Te  Te25  1  0.727264  0.008647  0.236674  1
  Te  Te26  1  0.227264  0.491353  0.763326  1
  Te  Te27  1  0.508647  0.263326  0.272736  1
  Te  Te28  1  0.763326  0.227264  0.491353  1
  Te  Te29  1  0.508647  0.236674  0.772736  1
  Te  Te30  1  0.008647  0.263326  0.227264  1
  Te  Te31  1  0.236674  0.772736  0.508647  1
  O  O32  1  0.878997  0.390312  0.309327  1
  O  O33  1  0.621003  0.609688  0.809327  1
  O  O34  1  0.125596  0.431203  0.885781  1
  O  O35  1  0.109688  0.809327  0.878997  1
  O  O36  1  0.621003  0.890312  0.309327  1
  O  O37  1  0.121003  0.890312  0.190673  1
  O  O38  1  0.431203  0.614219  0.625596  1
  O  O39  1  0.378997  0.109688  0.690673  1
  O  O40  1  0.625596  0.431203  0.614219  1
  O  O41  1  0.068797  0.114219  0.625596  1
  O  O42  1  0.309327  0.878997  0.390312  1
  O  O43  1  0.885781  0.125596  0.431203  1
  O  O44  1  0.145014  0.145014  0.145014  1
  O  O45  1  0.390312  0.309327  0.878997  1
  O  O46  1  0.874404  0.568797  0.114219  1
  O  O47  1  0.874404  0.931203  0.614219  1
  O  O48  1  0.890312  0.309327  0.621003  1
  O  O49  1  0.568797  0.385781  0.374404  1
  O  O50  1  0.068797  0.385781  0.125596  1
  O  O51  1  0.854986  0.645014  0.354986  1
  O  O52  1  0.374404  0.931203  0.885781  1
  O  O53  1  0.931203  0.885781  0.374404  1
  O  O54  1  0.145014  0.354986  0.645014  1
  O  O55  1  0.431203  0.885781  0.125596  1
  O  O56  1  0.378997  0.390312  0.190673  1
  O  O57  1  0.121003  0.609688  0.690673  1
  O  O58  1  0.568797  0.114219  0.874404  1
  O  O59  1  0.390312  0.190673  0.378997  1
  O  O60  1  0.809327  0.878997  0.109688  1
  O  O61  1  0.190673  0.378997  0.390312  1
  O  O62  1  0.374404  0.568797  0.385781  1
  O  O63  1  0.109688  0.690673  0.378997  1
  O  O64  1  0.854986  0.854986  0.854986  1
  O  O65  1  0.890312  0.190673  0.121003  1
  O  O66  1  0.125596  0.068797  0.385781  1
  O  O67  1  0.690673  0.378997  0.109688  1
  O  O68  1  0.645014  0.354986  0.854986  1
  O  O69  1  0.114219  0.874404  0.568797  1
  O  O70  1  0.190673  0.121003  0.890312  1
  O  O71  1  0.609688  0.809327  0.621003  1
  O  O72  1  0.309327  0.621003  0.890312  1
  O  O73  1  0.931203  0.614219  0.874404  1
  O  O74  1  0.609688  0.690673  0.121003  1
  O  O75  1  0.114219  0.625596  0.068797  1
  O  O76  1  0.614219  0.625596  0.431203  1
  O  O77  1  0.690673  0.121003  0.609688  1
  O  O78  1  0.809327  0.621003  0.609688  1
  O  O79  1  0.354986  0.854986  0.645014  1
  O  O80  1  0.878997  0.109688  0.809327  1
  O  O81  1  0.614219  0.874404  0.931203  1
  O  O82  1  0.885781  0.374404  0.931203  1
  O  O83  1  0.645014  0.145014  0.354986  1
  O  O84  1  0.354986  0.645014  0.145014  1
  O  O85  1  0.625596  0.068797  0.114219  1
  O  O86  1  0.385781  0.125596  0.068797  1
  O  O87  1  0.385781  0.374404  0.568797  1
