# generated using pymatgen
data_Y3Ho3Ti2(Al11Ru4)2
_symmetry_space_group_name_H-M   'P 1'
_cell_length_a   8.85185407
_cell_length_b   8.84989755
_cell_length_c   9.53534306
_cell_angle_alpha   89.98699801
_cell_angle_beta   90.00536035
_cell_angle_gamma   120.02121845
_symmetry_Int_Tables_number   1
_chemical_formula_structural   Y3Ho3Ti2(Al11Ru4)2
_chemical_formula_sum   'Y3 Ho3 Ti2 Al22 Ru8'
_cell_volume   646.76503788
_cell_formula_units_Z   1
loop_
 _symmetry_equiv_pos_site_id
 _symmetry_equiv_pos_as_xyz
  1  'x, y, z'
loop_
 _atom_site_type_symbol
 _atom_site_label
 _atom_site_symmetry_multiplicity
 _atom_site_fract_x
 _atom_site_fract_y
 _atom_site_fract_z
 _atom_site_occupancy
  Y  Y0  1  0.193357  0.386954  0.251115  1
  Y  Y1  1  0.806324  0.612718  0.748998  1
  Y  Y2  1  0.613036  0.806595  0.251070  1
  Ho  Ho3  1  0.387993  0.193893  0.749125  1
  Ho  Ho4  1  0.193782  0.806184  0.250967  1
  Ho  Ho5  1  0.805866  0.193880  0.749158  1
  Ti  Ti6  1  0.333137  0.666764  0.996200  1
  Ti  Ti7  1  0.666470  0.333038  0.003513  1
  Al  Al8  1  0.666528  0.333150  0.516945  1
  Al  Al9  1  0.333192  0.666709  0.483366  1
  Al  Al10  1  0.161477  0.322890  0.577562  1
  Al  Al11  1  0.838665  0.676877  0.422697  1
  Al  Al12  1  0.676958  0.838670  0.577416  1
  Al  Al13  1  0.840920  0.681431  0.077348  1
  Al  Al14  1  0.323078  0.161351  0.423025  1
  Al  Al15  1  0.159171  0.318246  0.922344  1
  Al  Al16  1  0.161714  0.838716  0.577095  1
  Al  Al17  1  0.318488  0.159091  0.077078  1
  Al  Al18  1  0.838416  0.161648  0.423171  1
  Al  Al19  1  0.681609  0.840959  0.922510  1
  Al  Al20  1  0.840739  0.159367  0.076919  1
  Al  Al21  1  0.159354  0.841042  0.922784  1
  Al  Al22  1  0.560480  0.121472  0.252241  1
  Al  Al23  1  0.439427  0.878887  0.747705  1
  Al  Al24  1  0.878548  0.439515  0.252229  1
  Al  Al25  1  0.121375  0.560444  0.747698  1
  Al  Al26  1  0.560851  0.439122  0.252243  1
  Al  Al27  1  0.439059  0.560421  0.747708  1
  Al  Al28  1  0.000443  0.999583  0.250479  1
  Al  Al29  1  0.000452  0.000858  0.749525  1
  Ru  Ru30  1  0.499881  0.000366  0.999657  1
  Ru  Ru31  1  0.000046  0.500028  0.000012  1
  Ru  Ru32  1  0.499863  0.000195  0.500210  1
  Ru  Ru33  1  0.499895  0.499519  0.999646  1
  Ru  Ru34  1  0.999905  0.499944  0.500002  1
  Ru  Ru35  1  0.499856  0.499660  0.500215  1
  Ru  Ru36  1  0.999830  0.999905  0.000080  1
  Ru  Ru37  1  0.999813  0.999906  0.499946  1
