# generated using pymatgen
data_Dy2Co10Mo2P7
_symmetry_space_group_name_H-M   'P 1'
_cell_length_a   9.02945734
_cell_length_b   9.04043891
_cell_length_c   3.69034000
_cell_angle_alpha   90.00000000
_cell_angle_beta   90.00000000
_cell_angle_gamma   119.81323205
_symmetry_Int_Tables_number   1
_chemical_formula_structural   Dy2Co10Mo2P7
_chemical_formula_sum   'Dy2 Co10 Mo2 P7'
_cell_volume   261.37403796
_cell_formula_units_Z   1
loop_
 _symmetry_equiv_pos_site_id
 _symmetry_equiv_pos_as_xyz
  1  'x, y, z'
loop_
 _atom_site_type_symbol
 _atom_site_label
 _atom_site_symmetry_multiplicity
 _atom_site_fract_x
 _atom_site_fract_y
 _atom_site_fract_z
 _atom_site_occupancy
  Dy  Dy0  1  0.666692  0.333800  0.500000  1
  Dy  Dy1  1  0.336631  0.666700  0.000000  1
  Co  Co2  1  0.721463  0.877911  0.000000  1
  Co  Co3  1  0.938601  0.371055  0.000000  1
  Co  Co4  1  0.160516  0.283398  0.000000  1
  Co  Co5  1  0.387375  0.439229  0.500000  1
  Co  Co6  1  0.117884  0.837640  0.000000  1
  Co  Co7  1  0.431655  0.059920  0.000000  1
  Co  Co8  1  0.046897  0.614264  0.500000  1
  Co  Co9  1  0.562982  0.946989  0.500000  1
  Co  Co10  1  0.630364  0.568509  0.000000  1
  Co  Co11  1  0.874259  0.780795  0.500000  1
  Mo  Mo12  1  0.217799  0.098138  0.500000  1
  Mo  Mo13  1  0.904069  0.122295  0.500000  1
  P  P14  1  0.413588  0.301934  0.000000  1
  P  P15  1  0.288887  0.880356  0.500000  1
  P  P16  1  0.697074  0.110577  0.000000  1
  P  P17  1  0.598007  0.710656  0.500000  1
  P  P18  1  0.887500  0.588702  0.000000  1
  P  P19  1  0.118106  0.410950  0.500000  1
  P  P20  1  0.999652  0.996182  0.000000  1
