# generated using pymatgen
data_Zr6Al7Pd16
_symmetry_space_group_name_H-M   'P 1'
_cell_length_a   8.78252323
_cell_length_b   8.78252325
_cell_length_c   8.78252400
_cell_angle_alpha   59.99999716
_cell_angle_beta   59.99999709
_cell_angle_gamma   59.99999813
_symmetry_Int_Tables_number   1
_chemical_formula_structural   Zr6Al7Pd16
_chemical_formula_sum   'Zr6 Al7 Pd16'
_cell_volume   479.00818828
_cell_formula_units_Z   1
loop_
 _symmetry_equiv_pos_site_id
 _symmetry_equiv_pos_as_xyz
  1  'x, y, z'
loop_
 _atom_site_type_symbol
 _atom_site_label
 _atom_site_symmetry_multiplicity
 _atom_site_fract_x
 _atom_site_fract_y
 _atom_site_fract_z
 _atom_site_occupancy
  Zr  Zr0  1  0.703780  0.703780  0.296220  1
  Zr  Zr1  1  0.296220  0.703780  0.296220  1
  Zr  Zr2  1  0.703780  0.296220  0.296220  1
  Zr  Zr3  1  0.296220  0.296220  0.703780  1
  Zr  Zr4  1  0.703780  0.296220  0.703780  1
  Zr  Zr5  1  0.296220  0.703780  0.703780  1
  Al  Al6  1  0.000000  0.000000  0.000000  1
  Al  Al7  1  0.000000  0.000000  0.500000  1
  Al  Al8  1  0.500000  0.000000  0.500000  1
  Al  Al9  1  0.000000  0.500000  0.500000  1
  Al  Al10  1  0.500000  0.500000  0.000000  1
  Al  Al11  1  0.000000  0.500000  0.000000  1
  Al  Al12  1  0.500000  0.000000  0.000000  1
  Pd  Pd13  1  0.882560  0.882560  0.352321  1
  Pd  Pd14  1  0.882560  0.352321  0.882560  1
  Pd  Pd15  1  0.352321  0.882560  0.882560  1
  Pd  Pd16  1  0.882560  0.882560  0.882560  1
  Pd  Pd17  1  0.117440  0.117440  0.647679  1
  Pd  Pd18  1  0.117440  0.647679  0.117440  1
  Pd  Pd19  1  0.647679  0.117440  0.117440  1
  Pd  Pd20  1  0.117440  0.117440  0.117440  1
  Pd  Pd21  1  0.661488  0.661488  0.015536  1
  Pd  Pd22  1  0.661488  0.015536  0.661488  1
  Pd  Pd23  1  0.015536  0.661488  0.661488  1
  Pd  Pd24  1  0.661488  0.661488  0.661488  1
  Pd  Pd25  1  0.338512  0.338512  0.984464  1
  Pd  Pd26  1  0.338512  0.984464  0.338512  1
  Pd  Pd27  1  0.984464  0.338512  0.338512  1
  Pd  Pd28  1  0.338512  0.338512  0.338512  1
