# generated using pymatgen
data_Tb16In4IrPt2Rh
_symmetry_space_group_name_H-M   'P 1'
_cell_length_a   9.74348384
_cell_length_b   9.74013027
_cell_length_c   9.75324414
_cell_angle_alpha   60.04447574
_cell_angle_beta   60.14106488
_cell_angle_gamma   60.01138699
_symmetry_Int_Tables_number   1
_chemical_formula_structural   Tb16In4IrPt2Rh
_chemical_formula_sum   'Tb16 In4 Ir1 Pt2 Rh1'
_cell_volume   655.47711923
_cell_formula_units_Z   1
loop_
 _symmetry_equiv_pos_site_id
 _symmetry_equiv_pos_as_xyz
  1  'x, y, z'
loop_
 _atom_site_type_symbol
 _atom_site_label
 _atom_site_symmetry_multiplicity
 _atom_site_fract_x
 _atom_site_fract_y
 _atom_site_fract_z
 _atom_site_occupancy
  Tb  Tb0  1  0.809528  0.809740  0.193668  1
  Tb  Tb1  1  0.809213  0.190840  0.809106  1
  Tb  Tb2  1  0.193346  0.187320  0.809507  1
  Tb  Tb3  1  0.649556  0.047653  0.648870  1
  Tb  Tb4  1  0.061196  0.061924  0.437079  1
  Tb  Tb5  1  0.437145  0.438782  0.061566  1
  Tb  Tb6  1  0.649556  0.653921  0.648870  1
  Tb  Tb7  1  0.809528  0.187063  0.193668  1
  Tb  Tb8  1  0.193346  0.809826  0.809507  1
  Tb  Tb9  1  0.053288  0.650613  0.645486  1
  Tb  Tb10  1  0.437145  0.062507  0.061566  1
  Tb  Tb11  1  0.437847  0.062632  0.436888  1
  Tb  Tb12  1  0.060937  0.439163  0.060737  1
  Tb  Tb13  1  0.645794  0.650439  0.053327  1
  Tb  Tb14  1  0.189335  0.810205  0.190255  1
  Tb  Tb15  1  0.061196  0.439801  0.437079  1
  In  In16  1  0.417322  0.417163  0.417322  1
  In  In17  1  0.418093  0.417220  0.747465  1
  In  In18  1  0.417322  0.748192  0.417322  1
  In  In19  1  0.747522  0.417187  0.418102  1
  Ir  Ir20  1  0.859197  0.856991  0.426821  1
  Pt  Pt21  1  0.858066  0.428221  0.858263  1
  Pt  Pt22  1  0.858066  0.855451  0.858263  1
  Rh  Rh23  1  0.426453  0.857143  0.859262  1
