# generated using pymatgen
data_Tb5YScCo17P12
_symmetry_space_group_name_H-M   'P 1'
_cell_length_a   3.71544700
_cell_length_b   10.58636100
_cell_length_c   12.28636400
_cell_angle_alpha   89.99712944
_cell_angle_beta   90.00000000
_cell_angle_gamma   90.00000000
_symmetry_Int_Tables_number   1
_chemical_formula_structural   Tb5YScCo17P12
_chemical_formula_sum   'Tb5 Y1 Sc1 Co17 P12'
_cell_volume   483.26033163
_cell_formula_units_Z   1
loop_
 _symmetry_equiv_pos_site_id
 _symmetry_equiv_pos_as_xyz
  1  'x, y, z'
loop_
 _atom_site_type_symbol
 _atom_site_label
 _atom_site_symmetry_multiplicity
 _atom_site_fract_x
 _atom_site_fract_y
 _atom_site_fract_z
 _atom_site_occupancy
  Tb  Tb0  1  0.000000  0.499994  0.527484  1
  Tb  Tb1  1  0.500000  0.000057  0.478035  1
  Tb  Tb2  1  0.500000  0.821317  0.207405  1
  Tb  Tb3  1  0.000000  0.682615  0.795642  1
  Tb  Tb4  1  0.000000  0.317365  0.795576  1
  Y  Y5  1  0.500000  0.178832  0.207331  1
  Sc  Sc6  1  0.500000  0.499964  0.152385  1
  Co  Co7  1  0.000000  0.999986  0.837375  1
  Co  Co8  1  0.500000  0.499974  0.703596  1
  Co  Co9  1  0.000000  0.000027  0.295819  1
  Co  Co10  1  0.000000  0.499963  0.984563  1
  Co  Co11  1  0.500000  0.999991  0.013066  1
  Co  Co12  1  0.500000  0.326742  0.989890  1
  Co  Co13  1  0.500000  0.673250  0.989879  1
  Co  Co14  1  0.000000  0.162088  0.001546  1
  Co  Co15  1  0.000000  0.837959  0.001513  1
  Co  Co16  1  0.500000  0.294731  0.434127  1
  Co  Co17  1  0.500000  0.705268  0.434120  1
  Co  Co18  1  0.000000  0.202030  0.570604  1
  Co  Co19  1  0.000000  0.797989  0.570606  1
  Co  Co20  1  0.500000  0.880661  0.708003  1
  Co  Co21  1  0.500000  0.119393  0.707983  1
  Co  Co22  1  0.000000  0.622276  0.296559  1
  Co  Co23  1  0.000000  0.377645  0.296507  1
  P  P24  1  0.500000  0.500005  0.883466  1
  P  P25  1  0.000000  0.000031  0.115820  1
  P  P26  1  0.500000  0.500040  0.357389  1
  P  P27  1  0.000000  0.000004  0.655535  1
  P  P28  1  0.500000  0.308555  0.617571  1
  P  P29  1  0.500000  0.691402  0.617583  1
  P  P30  1  0.000000  0.189311  0.386334  1
  P  P31  1  0.000000  0.810592  0.386464  1
  P  P32  1  0.500000  0.851993  0.889264  1
  P  P33  1  0.500000  0.148007  0.889217  1
  P  P34  1  0.000000  0.663097  0.100802  1
  P  P35  1  0.000000  0.336848  0.100941  1
