# generated using pymatgen
data_IrPd3(SeO3)8
_symmetry_space_group_name_H-M   'P 1'
_cell_length_a   8.08283435
_cell_length_b   8.08283435
_cell_length_c   8.08283486
_cell_angle_alpha   90.16644699
_cell_angle_beta   89.83355407
_cell_angle_gamma   90.16644661
_symmetry_Int_Tables_number   1
_chemical_formula_structural   IrPd3(SeO3)8
_chemical_formula_sum   'Ir1 Pd3 Se8 O24'
_cell_volume   528.06280186
_cell_formula_units_Z   1
loop_
 _symmetry_equiv_pos_site_id
 _symmetry_equiv_pos_as_xyz
  1  'x, y, z'
loop_
 _atom_site_type_symbol
 _atom_site_label
 _atom_site_symmetry_multiplicity
 _atom_site_fract_x
 _atom_site_fract_y
 _atom_site_fract_z
 _atom_site_occupancy
  Ir  Ir0  1  0.000000  0.500000  0.500000  1
  Pd  Pd1  1  0.500000  0.500000  0.000000  1
  Pd  Pd2  1  0.500000  0.000000  0.500000  1
  Pd  Pd3  1  0.000000  0.000000  0.000000  1
  Se  Se4  1  0.831327  0.163499  0.669893  1
  Se  Se5  1  0.168673  0.836501  0.330107  1
  Se  Se6  1  0.663499  0.669893  0.668673  1
  Se  Se7  1  0.169893  0.668673  0.836501  1
  Se  Se8  1  0.333763  0.166237  0.833763  1
  Se  Se9  1  0.830107  0.331327  0.163499  1
  Se  Se10  1  0.666237  0.833763  0.166237  1
  Se  Se11  1  0.336501  0.330107  0.331327  1
  O  O12  1  0.244320  0.471864  0.470793  1
  O  O13  1  0.973434  0.248355  0.023243  1
  O  O14  1  0.029207  0.744320  0.471864  1
  O  O15  1  0.471834  0.251907  0.977474  1
  O  O16  1  0.251645  0.976757  0.473434  1
  O  O17  1  0.523243  0.526566  0.751645  1
  O  O18  1  0.976876  0.026553  0.751689  1
  O  O19  1  0.528166  0.748093  0.022526  1
  O  O20  1  0.522526  0.971834  0.251907  1
  O  O21  1  0.477474  0.028166  0.748093  1
  O  O22  1  0.751907  0.977474  0.028166  1
  O  O23  1  0.251689  0.523124  0.973447  1
  O  O24  1  0.028136  0.529207  0.744320  1
  O  O25  1  0.023124  0.973447  0.248311  1
  O  O26  1  0.248093  0.022526  0.971834  1
  O  O27  1  0.476757  0.473434  0.248355  1
  O  O28  1  0.755680  0.528136  0.529207  1
  O  O29  1  0.971864  0.470793  0.255680  1
  O  O30  1  0.026566  0.751645  0.976757  1
  O  O31  1  0.473447  0.248311  0.476876  1
  O  O32  1  0.526553  0.751689  0.523124  1
  O  O33  1  0.970793  0.255680  0.528136  1
  O  O34  1  0.748355  0.023243  0.526566  1
  O  O35  1  0.748311  0.476876  0.026553  1
