# generated using pymatgen
data_Dy2Zn14Co3
_symmetry_space_group_name_H-M   'P 1'
_cell_length_a   6.68082845
_cell_length_b   6.68100084
_cell_length_c   6.68089015
_cell_angle_alpha   82.64888214
_cell_angle_beta   97.33987420
_cell_angle_gamma   97.34387290
_symmetry_Int_Tables_number   1
_chemical_formula_structural   Dy2Zn14Co3
_chemical_formula_sum   'Dy2 Zn14 Co3'
_cell_volume   291.43479124
_cell_formula_units_Z   1
loop_
 _symmetry_equiv_pos_site_id
 _symmetry_equiv_pos_as_xyz
  1  'x, y, z'
loop_
 _atom_site_type_symbol
 _atom_site_label
 _atom_site_symmetry_multiplicity
 _atom_site_fract_x
 _atom_site_fract_y
 _atom_site_fract_z
 _atom_site_occupancy
  Dy  Dy0  1  0.665922  0.334056  0.334070  1
  Dy  Dy1  1  0.334077  0.665944  0.665930  1
  Zn  Zn2  1  0.292862  0.292829  0.999998  1
  Zn  Zn3  1  0.707138  0.707171  0.000001  1
  Zn  Zn4  1  0.894139  0.105839  0.105850  1
  Zn  Zn5  1  0.347147  0.652884  0.147825  1
  Zn  Zn6  1  0.999998  0.707153  0.292862  1
  Zn  Zn7  1  0.292855  0.000000  0.292838  1
  Zn  Zn8  1  0.652865  0.852176  0.347123  1
  Zn  Zn9  1  0.147822  0.347121  0.347140  1
  Zn  Zn10  1  0.852178  0.652879  0.652860  1
  Zn  Zn11  1  0.347136  0.147823  0.652877  1
  Zn  Zn12  1  0.000002  0.292847  0.707136  1
  Zn  Zn13  1  0.707145  0.000000  0.707162  1
  Zn  Zn14  1  0.652853  0.347116  0.852175  1
  Zn  Zn15  1  0.105859  0.894161  0.894150  1
  Co  Co16  1  0.500000  0.000000  0.000000  1
  Co  Co17  1  0.000000  0.499999  0.000000  1
  Co  Co18  1  0.000000  0.000000  0.500000  1
