# generated using pymatgen
data_Nd4Pu(BN3)2
_symmetry_space_group_name_H-M   'P 1'
_cell_length_a   6.38793821
_cell_length_b   6.38793851
_cell_length_c   8.79110812
_cell_angle_alpha   74.44502719
_cell_angle_beta   74.44502639
_cell_angle_gamma   32.50322566
_symmetry_Int_Tables_number   1
_chemical_formula_structural   Nd4Pu(BN3)2
_chemical_formula_sum   'Nd4 Pu1 B2 N6'
_cell_volume   185.08884752
_cell_formula_units_Z   1
loop_
 _symmetry_equiv_pos_site_id
 _symmetry_equiv_pos_as_xyz
  1  'x, y, z'
loop_
 _atom_site_type_symbol
 _atom_site_label
 _atom_site_symmetry_multiplicity
 _atom_site_fract_x
 _atom_site_fract_y
 _atom_site_fract_z
 _atom_site_occupancy
  Nd  Nd0  1  0.622325  0.622325  0.626905  1
  Nd  Nd1  1  0.309189  0.309189  0.817810  1
  Nd  Nd2  1  0.690811  0.690811  0.182190  1
  Nd  Nd3  1  0.377675  0.377675  0.373095  1
  Pu  Pu4  1  0.000000  0.000000  0.000000  1
  B  B5  1  0.055229  0.055229  0.408427  1
  B  B6  1  0.944771  0.944771  0.591573  1
  N  N7  1  0.026247  0.026247  0.254583  1
  N  N8  1  0.360200  0.360200  0.074382  1
  N  N9  1  0.824998  0.824998  0.590993  1
  N  N10  1  0.973753  0.973753  0.745417  1
  N  N11  1  0.639800  0.639800  0.925618  1
  N  N12  1  0.175002  0.175002  0.409007  1
