# generated using pymatgen
data_Dy5Sc2P12Ir17
_symmetry_space_group_name_H-M   'P 1'
_cell_length_a   12.68665000
_cell_length_b   12.90031941
_cell_length_c   3.96590000
_cell_angle_alpha   90.00000000
_cell_angle_beta   90.00000000
_cell_angle_gamma   119.45359269
_symmetry_Int_Tables_number   1
_chemical_formula_structural   Dy5Sc2P12Ir17
_chemical_formula_sum   'Dy5 Sc2 P12 Ir17'
_cell_volume   565.17739866
_cell_formula_units_Z   1
loop_
 _symmetry_equiv_pos_site_id
 _symmetry_equiv_pos_as_xyz
  1  'x, y, z'
loop_
 _atom_site_type_symbol
 _atom_site_label
 _atom_site_symmetry_multiplicity
 _atom_site_fract_x
 _atom_site_fract_y
 _atom_site_fract_z
 _atom_site_occupancy
  Dy  Dy0  1  0.330258  0.660892  0.500000  1
  Dy  Dy1  1  0.669367  0.339108  0.500000  1
  Dy  Dy2  1  0.000493  0.813014  0.000000  1
  Dy  Dy3  1  0.187479  0.186986  0.000000  1
  Dy  Dy4  1  0.811519  0.000000  0.000000  1
  Sc  Sc5  1  0.997780  0.443663  0.500000  1
  Sc  Sc6  1  0.554117  0.556337  0.500000  1
  P  P7  1  0.004640  0.648645  0.500000  1
  P  P8  1  0.355995  0.351355  0.500000  1
  P  P9  1  0.643935  0.000000  0.500000  1
  P  P10  1  0.514634  0.685304  0.000000  1
  P  P11  1  0.308841  0.823887  0.000000  1
  P  P12  1  0.165238  0.480254  0.000000  1
  P  P13  1  0.484954  0.176113  0.000000  1
  P  P14  1  0.684984  0.519746  0.000000  1
  P  P15  1  0.829329  0.314696  0.000000  1
  P  P16  1  0.999244  0.175321  0.500000  1
  P  P17  1  0.823923  0.824679  0.500000  1
  P  P18  1  0.181091  0.000000  0.500000  1
  Ir  Ir19  1  0.504221  0.864516  0.000000  1
  Ir  Ir20  1  0.125161  0.641651  0.000000  1
  Ir  Ir21  1  0.356364  0.494451  0.000000  1
  Ir  Ir22  1  0.483510  0.358349  0.000000  1
  Ir  Ir23  1  0.861914  0.505549  0.000000  1
  Ir  Ir24  1  0.639706  0.135484  0.000000  1
  Ir  Ir25  1  0.464171  0.000000  0.500000  1
  Ir  Ir26  1  0.996171  0.276719  0.000000  1
  Ir  Ir27  1  0.719453  0.723281  0.000000  1
  Ir  Ir28  1  0.287793  0.000000  0.000000  1
  Ir  Ir29  1  0.623042  0.808296  0.500000  1
  Ir  Ir30  1  0.204867  0.825729  0.500000  1
  Ir  Ir31  1  0.178080  0.367086  0.500000  1
  Ir  Ir32  1  0.379140  0.174271  0.500000  1
  Ir  Ir33  1  0.810993  0.632914  0.500000  1
  Ir  Ir34  1  0.814746  0.191704  0.500000  1
  Ir  Ir35  1  0.002851  0.000000  0.500000  1
