# generated using pymatgen
data_Sr2La(CoO3)2
_symmetry_space_group_name_H-M   'P 1'
_cell_length_a   6.61869748
_cell_length_b   6.59957067
_cell_length_c   6.60549420
_cell_angle_alpha   92.57550214
_cell_angle_beta   91.83262406
_cell_angle_gamma   91.80068862
_symmetry_Int_Tables_number   1
_chemical_formula_structural   Sr2La(CoO3)2
_chemical_formula_sum   'Sr4 La2 Co4 O12'
_cell_volume   287.93675983
_cell_formula_units_Z   2
loop_
 _symmetry_equiv_pos_site_id
 _symmetry_equiv_pos_as_xyz
  1  'x, y, z'
loop_
 _atom_site_type_symbol
 _atom_site_label
 _atom_site_symmetry_multiplicity
 _atom_site_fract_x
 _atom_site_fract_y
 _atom_site_fract_z
 _atom_site_occupancy
  Sr  Sr0  1  0.884977  0.248199  0.614863  1
  Sr  Sr1  1  0.615463  0.884388  0.251868  1
  Sr  Sr2  1  0.384521  0.115406  0.747231  1
  Sr  Sr3  1  0.115200  0.751615  0.384934  1
  La  La4  1  0.249834  0.615633  0.883816  1
  La  La5  1  0.751348  0.384188  0.115848  1
  Co  Co6  1  0.999590  0.000303  0.000044  1
  Co  Co7  1  0.749817  0.755534  0.744615  1
  Co  Co8  1  0.499849  0.499865  0.500291  1
  Co  Co9  1  0.252566  0.243127  0.253488  1
  O  O10  1  0.220607  0.417792  0.548872  1
  O  O11  1  0.412772  0.539595  0.212840  1
  O  O12  1  0.538707  0.221066  0.401121  1
  O  O13  1  0.914032  0.712772  0.040737  1
  O  O14  1  0.719881  0.047052  0.917195  1
  O  O15  1  0.038764  0.900831  0.721612  1
  O  O16  1  0.779545  0.582914  0.452686  1
  O  O17  1  0.586386  0.459471  0.787753  1
  O  O18  1  0.460968  0.778551  0.599228  1
  O  O19  1  0.085168  0.288076  0.959216  1
  O  O20  1  0.279465  0.954024  0.083443  1
  O  O21  1  0.960541  0.099599  0.278300  1
