# generated using pymatgen
data_Y6IrPt
_symmetry_space_group_name_H-M   'P 1'
_cell_length_a   6.47467016
_cell_length_b   7.18435863
_cell_length_c   9.50785600
_cell_angle_alpha   90.00000000
_cell_angle_beta   90.00000000
_cell_angle_gamma   90.09580238
_symmetry_Int_Tables_number   1
_chemical_formula_structural   Y6IrPt
_chemical_formula_sum   'Y12 Ir2 Pt2'
_cell_volume   442.27016224
_cell_formula_units_Z   2
loop_
 _symmetry_equiv_pos_site_id
 _symmetry_equiv_pos_as_xyz
  1  'x, y, z'
loop_
 _atom_site_type_symbol
 _atom_site_label
 _atom_site_symmetry_multiplicity
 _atom_site_fract_x
 _atom_site_fract_y
 _atom_site_fract_z
 _atom_site_occupancy
  Y  Y0  1  0.634579  0.029562  0.250000  1
  Y  Y1  1  0.365421  0.970438  0.750000  1
  Y  Y2  1  0.130153  0.463583  0.750000  1
  Y  Y3  1  0.869847  0.536417  0.250000  1
  Y  Y4  1  0.171861  0.177017  0.061543  1
  Y  Y5  1  0.828139  0.822983  0.938457  1
  Y  Y6  1  0.676538  0.319126  0.936620  1
  Y  Y7  1  0.828139  0.822983  0.561543  1
  Y  Y8  1  0.323462  0.680874  0.063380  1
  Y  Y9  1  0.171861  0.177017  0.438457  1
  Y  Y10  1  0.323462  0.680874  0.436620  1
  Y  Y11  1  0.676538  0.319126  0.563380  1
  Ir  Ir12  1  0.952564  0.114566  0.750000  1
  Ir  Ir13  1  0.047436  0.885434  0.250000  1
  Pt  Pt14  1  0.453026  0.385597  0.250000  1
  Pt  Pt15  1  0.546974  0.614403  0.750000  1
