# generated using pymatgen
data_Ba17Sr3Si11Ag
_symmetry_space_group_name_H-M   'P 1'
_cell_length_a   8.42846600
_cell_length_b   8.42846600
_cell_length_c   16.84397300
_cell_angle_alpha   90.00000000
_cell_angle_beta   90.00000000
_cell_angle_gamma   90.00000000
_symmetry_Int_Tables_number   1
_chemical_formula_structural   Ba17Sr3Si11Ag
_chemical_formula_sum   'Ba17 Sr3 Si11 Ag1'
_cell_volume   1196.57965677
_cell_formula_units_Z   1
loop_
 _symmetry_equiv_pos_site_id
 _symmetry_equiv_pos_as_xyz
  1  'x, y, z'
loop_
 _atom_site_type_symbol
 _atom_site_label
 _atom_site_symmetry_multiplicity
 _atom_site_fract_x
 _atom_site_fract_y
 _atom_site_fract_z
 _atom_site_occupancy
  Ba  Ba0  1  0.312444  0.674179  0.111541  1
  Ba  Ba1  1  0.174179  0.187556  0.111541  1
  Ba  Ba2  1  0.328884  0.694607  0.391122  1
  Ba  Ba3  1  0.661707  0.697916  0.890334  1
  Ba  Ba4  1  0.194607  0.171116  0.391122  1
  Ba  Ba5  1  0.671116  0.305393  0.391122  1
  Ba  Ba6  1  0.173180  0.806991  0.607031  1
  Ba  Ba7  1  0.338293  0.302084  0.890334  1
  Ba  Ba8  1  0.197916  0.838293  0.890334  1
  Ba  Ba9  1  0.826820  0.193009  0.607031  1
  Ba  Ba10  1  0.306991  0.326820  0.607031  1
  Ba  Ba11  1  0.805393  0.828884  0.391122  1
  Ba  Ba12  1  0.802084  0.161707  0.890334  1
  Ba  Ba13  1  0.825821  0.812444  0.111541  1
  Ba  Ba14  1  0.000000  0.500000  0.771204  1
  Ba  Ba15  1  0.687556  0.325821  0.111541  1
  Ba  Ba16  1  0.693009  0.673180  0.607031  1
  Sr  Sr17  1  0.500000  0.000000  0.723888  1
  Sr  Sr18  1  0.500000  0.000000  0.229594  1
  Sr  Sr19  1  0.000000  0.500000  0.274604  1
  Si  Si20  1  0.104634  0.100892  0.749270  1
  Si  Si21  1  0.399108  0.604634  0.749270  1
  Si  Si22  1  0.602677  0.605387  0.250329  1
  Si  Si23  1  0.500000  0.000000  0.014953  1
  Si  Si24  1  0.105387  0.897323  0.250329  1
  Si  Si25  1  0.600892  0.395366  0.749270  1
  Si  Si26  1  0.895366  0.899108  0.749270  1
  Si  Si27  1  0.397323  0.394613  0.250329  1
  Si  Si28  1  0.894613  0.102677  0.250329  1
  Si  Si29  1  0.500000  0.000000  0.515735  1
  Si  Si30  1  0.000000  0.500000  0.484596  1
  Ag  Ag31  1  0.000000  0.500000  0.986923  1
