# generated using pymatgen
data_AcTcH9
_symmetry_space_group_name_H-M   'P 1'
_cell_length_a   4.99726400
_cell_length_b   4.99726350
_cell_length_c   9.06361800
_cell_angle_alpha   90.00000000
_cell_angle_beta   90.00000000
_cell_angle_gamma   120.00000329
_symmetry_Int_Tables_number   1
_chemical_formula_structural   AcTcH9
_chemical_formula_sum   'Ac2 Tc2 H18'
_cell_volume   196.01836125
_cell_formula_units_Z   2
loop_
 _symmetry_equiv_pos_site_id
 _symmetry_equiv_pos_as_xyz
  1  'x, y, z'
loop_
 _atom_site_type_symbol
 _atom_site_label
 _atom_site_symmetry_multiplicity
 _atom_site_fract_x
 _atom_site_fract_y
 _atom_site_fract_z
 _atom_site_occupancy
  Ac  Ac0  1  0.000000  0.000000  0.000000  1
  Ac  Ac1  1  0.000000  0.000000  0.500000  1
  Tc  Tc2  1  0.333333  0.666667  0.250000  1
  Tc  Tc3  1  0.666667  0.333333  0.750000  1
  H  H4  1  0.474438  0.525562  0.383542  1
  H  H5  1  0.474438  0.948874  0.383542  1
  H  H6  1  0.051126  0.525562  0.383542  1
  H  H7  1  0.948874  0.474438  0.883542  1
  H  H8  1  0.134969  0.269938  0.250000  1
  H  H9  1  0.865031  0.134969  0.750000  1
  H  H10  1  0.269938  0.134969  0.750000  1
  H  H11  1  0.730062  0.865031  0.250000  1
  H  H12  1  0.134969  0.865031  0.250000  1
  H  H13  1  0.865031  0.730062  0.750000  1
  H  H14  1  0.474438  0.948874  0.116458  1
  H  H15  1  0.525562  0.474438  0.616458  1
  H  H16  1  0.948874  0.474438  0.616458  1
  H  H17  1  0.051126  0.525562  0.116458  1
  H  H18  1  0.474438  0.525562  0.116458  1
  H  H19  1  0.525562  0.051126  0.883542  1
  H  H20  1  0.525562  0.474438  0.883542  1
  H  H21  1  0.525562  0.051126  0.616458  1
