# generated using pymatgen
data_Dy3Lu5(Sc3Ga4)4
_symmetry_space_group_name_H-M   'P 1'
_cell_length_a   7.21599701
_cell_length_b   7.53716932
_cell_length_c   14.39619559
_cell_angle_alpha   90.06822627
_cell_angle_beta   89.93941749
_cell_angle_gamma   89.99949542
_symmetry_Int_Tables_number   1
_chemical_formula_structural   Dy3Lu5(Sc3Ga4)4
_chemical_formula_sum   'Dy3 Lu5 Sc12 Ga16'
_cell_volume   782.98204664
_cell_formula_units_Z   1
loop_
 _symmetry_equiv_pos_site_id
 _symmetry_equiv_pos_as_xyz
  1  'x, y, z'
loop_
 _atom_site_type_symbol
 _atom_site_label
 _atom_site_symmetry_multiplicity
 _atom_site_fract_x
 _atom_site_fract_y
 _atom_site_fract_z
 _atom_site_occupancy
  Dy  Dy0  1  0.010503  0.178749  0.406408  1
  Dy  Dy1  1  0.510434  0.321107  0.405572  1
  Dy  Dy2  1  0.490446  0.679874  0.594861  1
  Lu  Lu3  1  0.009759  0.180946  0.093599  1
  Lu  Lu4  1  0.989730  0.819493  0.906697  1
  Lu  Lu5  1  0.490076  0.680807  0.905795  1
  Lu  Lu6  1  0.990740  0.819043  0.595673  1
  Lu  Lu7  1  0.510015  0.319087  0.093627  1
  Sc  Sc8  1  0.162650  0.504550  0.750917  1
  Sc  Sc9  1  0.837125  0.496999  0.248675  1
  Sc  Sc10  1  0.336671  0.003440  0.248641  1
  Sc  Sc11  1  0.663120  0.995288  0.750768  1
  Sc  Sc12  1  0.329325  0.172235  0.625093  1
  Sc  Sc13  1  0.669561  0.826919  0.374632  1
  Sc  Sc14  1  0.168814  0.673259  0.375292  1
  Sc  Sc15  1  0.669388  0.826851  0.122875  1
  Sc  Sc16  1  0.830989  0.327207  0.625684  1
  Sc  Sc17  1  0.329953  0.173019  0.876236  1
  Sc  Sc18  1  0.829553  0.326831  0.875499  1
  Sc  Sc19  1  0.170497  0.672941  0.123353  1
  Ga  Ga20  1  0.030529  0.115543  0.750889  1
  Ga  Ga21  1  0.968688  0.883695  0.248753  1
  Ga  Ga22  1  0.468764  0.616214  0.248990  1
  Ga  Ga23  1  0.530675  0.383534  0.750704  1
  Ga  Ga24  1  0.282429  0.869778  0.751512  1
  Ga  Ga25  1  0.716784  0.130442  0.248288  1
  Ga  Ga26  1  0.216943  0.369421  0.248208  1
  Ga  Ga27  1  0.784454  0.631155  0.751681  1
  Ga  Ga28  1  0.161635  0.465310  0.541008  1
  Ga  Ga29  1  0.837835  0.537187  0.460699  1
  Ga  Ga30  1  0.338147  0.963649  0.460090  1
  Ga  Ga31  1  0.835985  0.533154  0.040342  1
  Ga  Ga32  1  0.664626  0.035199  0.540934  1
  Ga  Ga33  1  0.163835  0.466370  0.958768  1
  Ga  Ga34  1  0.663815  0.034407  0.959108  1
  Ga  Ga35  1  0.335509  0.966299  0.040125  1
