# generated using pymatgen
data_Y2NiOsRu2
_symmetry_space_group_name_H-M   'P 1'
_cell_length_a   5.33690651
_cell_length_b   5.33690704
_cell_length_c   5.29258012
_cell_angle_alpha   58.70590990
_cell_angle_beta   58.70590670
_cell_angle_gamma   60.41422083
_symmetry_Int_Tables_number   1
_chemical_formula_structural   Y2NiOsRu2
_chemical_formula_sum   'Y2 Ni1 Os1 Ru2'
_cell_volume   104.77036255
_cell_formula_units_Z   1
loop_
 _symmetry_equiv_pos_site_id
 _symmetry_equiv_pos_as_xyz
  1  'x, y, z'
loop_
 _atom_site_type_symbol
 _atom_site_label
 _atom_site_symmetry_multiplicity
 _atom_site_fract_x
 _atom_site_fract_y
 _atom_site_fract_z
 _atom_site_occupancy
  Y  Y0  1  0.124477  0.124477  0.120379  1
  Y  Y1  1  0.875523  0.875523  0.879621  1
  Ni  Ni2  1  0.500000  0.500000  0.500000  1
  Os  Os3  1  0.500000  0.500000  0.000000  1
  Ru  Ru4  1  0.500000  0.000000  0.500000  1
  Ru  Ru5  1  0.000000  0.500000  0.500000  1
