# generated using pymatgen
data_YHo19(In3Ru)2
_symmetry_space_group_name_H-M   'P 1'
_cell_length_a   9.69577005
_cell_length_b   9.69411847
_cell_length_c   9.71761000
_cell_angle_alpha   90.00000000
_cell_angle_beta   90.00000000
_cell_angle_gamma   119.99436677
_symmetry_Int_Tables_number   1
_chemical_formula_structural   YHo19(In3Ru)2
_chemical_formula_sum   'Y1 Ho19 In6 Ru2'
_cell_volume   791.05262573
_cell_formula_units_Z   1
loop_
 _symmetry_equiv_pos_site_id
 _symmetry_equiv_pos_as_xyz
  1  'x, y, z'
loop_
 _atom_site_type_symbol
 _atom_site_label
 _atom_site_symmetry_multiplicity
 _atom_site_fract_x
 _atom_site_fract_y
 _atom_site_fract_z
 _atom_site_occupancy
  Y  Y0  1  0.079202  0.539600  0.750000  1
  Ho  Ho1  1  0.000001  0.000000  0.499981  1
  Ho  Ho2  1  0.000001  0.000000  0.000019  1
  Ho  Ho3  1  0.210008  0.790041  0.438409  1
  Ho  Ho4  1  0.210008  0.419968  0.438409  1
  Ho  Ho5  1  0.580004  0.790002  0.438505  1
  Ho  Ho6  1  0.789945  0.209947  0.561494  1
  Ho  Ho7  1  0.789945  0.579996  0.561494  1
  Ho  Ho8  1  0.419998  0.209999  0.561496  1
  Ho  Ho9  1  0.789945  0.209947  0.938506  1
  Ho  Ho10  1  0.789945  0.579996  0.938506  1
  Ho  Ho11  1  0.419998  0.209999  0.938504  1
  Ho  Ho12  1  0.210008  0.790041  0.061591  1
  Ho  Ho13  1  0.210008  0.419968  0.061591  1
  Ho  Ho14  1  0.580004  0.790002  0.061495  1
  Ho  Ho15  1  0.539556  0.460371  0.250000  1
  Ho  Ho16  1  0.539556  0.079186  0.250000  1
  Ho  Ho17  1  0.920853  0.460427  0.250000  1
  Ho  Ho18  1  0.460512  0.539619  0.750000  1
  Ho  Ho19  1  0.460512  0.920892  0.750000  1
  In  In20  1  0.884264  0.115754  0.250000  1
  In  In21  1  0.884264  0.768511  0.250000  1
  In  In22  1  0.231512  0.115756  0.250000  1
  In  In23  1  0.115745  0.884341  0.750000  1
  In  In24  1  0.115745  0.231403  0.750000  1
  In  In25  1  0.768493  0.884246  0.750000  1
  Ru  Ru26  1  0.333335  0.666668  0.250000  1
  Ru  Ru27  1  0.666635  0.333317  0.750000  1
