# generated using pymatgen
data_Sm2FeCo4P4Rh
_symmetry_space_group_name_H-M   'P 1'
_cell_length_a   3.76276600
_cell_length_b   10.74609102
_cell_length_c   12.35871189
_cell_angle_alpha   89.88867750
_cell_angle_beta   90.00000000
_cell_angle_gamma   90.00000000
_symmetry_Int_Tables_number   1
_chemical_formula_structural   Sm2FeCo4P4Rh
_chemical_formula_sum   'Sm6 Fe3 Co12 P12 Rh3'
_cell_volume   499.72389243
_cell_formula_units_Z   3
loop_
 _symmetry_equiv_pos_site_id
 _symmetry_equiv_pos_as_xyz
  1  'x, y, z'
loop_
 _atom_site_type_symbol
 _atom_site_label
 _atom_site_symmetry_multiplicity
 _atom_site_fract_x
 _atom_site_fract_y
 _atom_site_fract_z
 _atom_site_occupancy
  Sm  Sm0  1  0.000000  0.500225  0.520648  1
  Sm  Sm1  1  0.500000  0.999894  0.475665  1
  Sm  Sm2  1  0.500000  0.820145  0.205530  1
  Sm  Sm3  1  0.500000  0.180611  0.204846  1
  Sm  Sm4  1  0.000000  0.684508  0.795048  1
  Sm  Sm5  1  0.000000  0.314708  0.795435  1
  Fe  Fe6  1  0.000000  0.500479  0.991982  1
  Fe  Fe7  1  0.500000  0.998372  0.010797  1
  Fe  Fe8  1  0.000000  0.167620  0.005043  1
  Co  Co9  1  0.000000  0.999794  0.295401  1
  Co  Co10  1  0.500000  0.333528  0.995938  1
  Co  Co11  1  0.500000  0.669151  0.995788  1
  Co  Co12  1  0.000000  0.831190  0.006707  1
  Co  Co13  1  0.500000  0.295717  0.428693  1
  Co  Co14  1  0.500000  0.703747  0.428199  1
  Co  Co15  1  0.000000  0.199734  0.568151  1
  Co  Co16  1  0.000000  0.800526  0.568660  1
  Co  Co17  1  0.500000  0.881875  0.709766  1
  Co  Co18  1  0.500000  0.118347  0.710405  1
  Co  Co19  1  0.000000  0.619951  0.290188  1
  Co  Co20  1  0.000000  0.379921  0.290157  1
  P  P21  1  0.500000  0.500795  0.893682  1
  P  P22  1  0.000000  0.000984  0.112135  1
  P  P23  1  0.500000  0.500271  0.346945  1
  P  P24  1  0.000000  0.999901  0.652412  1
  P  P25  1  0.500000  0.299071  0.612207  1
  P  P26  1  0.500000  0.700866  0.611814  1
  P  P27  1  0.000000  0.191490  0.383237  1
  P  P28  1  0.000000  0.808249  0.383836  1
  P  P29  1  0.500000  0.845161  0.897977  1
  P  P30  1  0.500000  0.155975  0.901364  1
  P  P31  1  0.000000  0.655359  0.104303  1
  P  P32  1  0.000000  0.343043  0.102729  1
  Rh  Rh33  1  0.500000  0.500970  0.158438  1
  Rh  Rh34  1  0.000000  0.997995  0.843118  1
  Rh  Rh35  1  0.500000  0.499825  0.702757  1
