# generated using pymatgen
data_Dy3Tm(CuP2)4
_symmetry_space_group_name_H-M   'P 1'
_cell_length_a   3.70020900
_cell_length_b   3.75000702
_cell_length_c   19.42679440
_cell_angle_alpha   89.90555019
_cell_angle_beta   90.00000000
_cell_angle_gamma   90.00000000
_symmetry_Int_Tables_number   1
_chemical_formula_structural   Dy3Tm(CuP2)4
_chemical_formula_sum   'Dy3 Tm1 Cu4 P8'
_cell_volume   269.56213605
_cell_formula_units_Z   1
loop_
 _symmetry_equiv_pos_site_id
 _symmetry_equiv_pos_as_xyz
  1  'x, y, z'
loop_
 _atom_site_type_symbol
 _atom_site_label
 _atom_site_symmetry_multiplicity
 _atom_site_fract_x
 _atom_site_fract_y
 _atom_site_fract_z
 _atom_site_occupancy
  Dy  Dy0  1  0.250000  0.718411  0.381937  1
  Dy  Dy1  1  0.250000  0.782522  0.883970  1
  Dy  Dy2  1  0.750000  0.282006  0.617361  1
  Tm  Tm3  1  0.750000  0.216981  0.117401  1
  Cu  Cu4  1  0.250000  0.219302  0.248341  1
  Cu  Cu5  1  0.750000  0.780119  0.750906  1
  Cu  Cu6  1  0.250000  0.281575  0.750246  1
  Cu  Cu7  1  0.750000  0.718628  0.248869  1
  P  P8  1  0.750000  0.802212  0.501284  1
  P  P9  1  0.750000  0.698483  0.003263  1
  P  P10  1  0.250000  0.198125  0.498084  1
  P  P11  1  0.250000  0.301211  0.000190  1
  P  P12  1  0.250000  0.718471  0.169789  1
  P  P13  1  0.750000  0.218683  0.327077  1
  P  P14  1  0.750000  0.281457  0.828817  1
  P  P15  1  0.250000  0.781814  0.672466  1
