# generated using pymatgen
data_Ho4Co3OsRu4
_symmetry_space_group_name_H-M   'P 1'
_cell_length_a   5.21659986
_cell_length_b   5.15630467
_cell_length_c   8.80954900
_cell_angle_alpha   90.00000000
_cell_angle_beta   90.00000000
_cell_angle_gamma   121.05339355
_symmetry_Int_Tables_number   1
_chemical_formula_structural   Ho4Co3OsRu4
_chemical_formula_sum   'Ho4 Co3 Os1 Ru4'
_cell_volume   203.00275498
_cell_formula_units_Z   1
loop_
 _symmetry_equiv_pos_site_id
 _symmetry_equiv_pos_as_xyz
  1  'x, y, z'
loop_
 _atom_site_type_symbol
 _atom_site_label
 _atom_site_symmetry_multiplicity
 _atom_site_fract_x
 _atom_site_fract_y
 _atom_site_fract_z
 _atom_site_occupancy
  Ho  Ho0  1  0.669982  0.338707  0.563815  1
  Ho  Ho1  1  0.335413  0.670299  0.431023  1
  Ho  Ho2  1  0.335413  0.670299  0.068977  1
  Ho  Ho3  1  0.669982  0.338707  0.936185  1
  Co  Co4  1  0.166472  0.823103  0.750000  1
  Co  Co5  1  0.827126  0.657853  0.250000  1
  Co  Co6  1  0.831455  0.164890  0.250000  1
  Os  Os7  1  0.162405  0.324932  0.750000  1
  Ru  Ru8  1  0.005262  0.011131  0.495246  1
  Ru  Ru9  1  0.005262  0.011131  0.004754  1
  Ru  Ru10  1  0.647942  0.817368  0.750000  1
  Ru  Ru11  1  0.343285  0.171577  0.250000  1
