# generated using pymatgen
data_Ta2Nb12Si3As5
_symmetry_space_group_name_H-M   'P 1'
_cell_length_a   3.55101500
_cell_length_b   7.90987950
_cell_length_c   14.14576345
_cell_angle_alpha   103.80090568
_cell_angle_beta   90.00000000
_cell_angle_gamma   102.97154584
_symmetry_Int_Tables_number   1
_chemical_formula_structural   Ta2Nb12Si3As5
_chemical_formula_sum   'Ta2 Nb12 Si3 As5'
_cell_volume   375.40816593
_cell_formula_units_Z   1
loop_
 _symmetry_equiv_pos_site_id
 _symmetry_equiv_pos_as_xyz
  1  'x, y, z'
loop_
 _atom_site_type_symbol
 _atom_site_label
 _atom_site_symmetry_multiplicity
 _atom_site_fract_x
 _atom_site_fract_y
 _atom_site_fract_z
 _atom_site_occupancy
  Ta  Ta0  1  0.000182  0.000364  0.999760  1
  Ta  Ta1  1  0.498268  0.996534  0.500959  1
  Nb  Nb2  1  0.428553  0.857107  0.825461  1
  Nb  Nb3  1  0.570424  0.140848  0.169206  1
  Nb  Nb4  1  0.196054  0.392108  0.307115  1
  Nb  Nb5  1  0.803337  0.606674  0.691989  1
  Nb  Nb6  1  0.212809  0.425617  0.798683  1
  Nb  Nb7  1  0.787113  0.574225  0.200490  1
  Nb  Nb8  1  0.333373  0.666746  0.028923  1
  Nb  Nb9  1  0.666820  0.333640  0.970293  1
  Nb  Nb10  1  0.997655  0.995310  0.660723  1
  Nb  Nb11  1  0.000617  0.001235  0.339168  1
  Nb  Nb12  1  0.182580  0.365160  0.545878  1
  Nb  Nb13  1  0.822450  0.644900  0.459340  1
  Si  Si14  1  0.174063  0.348124  0.107704  1
  Si  Si15  1  0.826409  0.652820  0.891534  1
  Si  Si16  1  0.370654  0.741310  0.600682  1
  As  As17  1  0.629902  0.259802  0.402227  1
  As  As18  1  0.371785  0.743567  0.333731  1
  As  As19  1  0.626992  0.253986  0.666549  1
  As  As20  1  0.063026  0.126052  0.847383  1
  As  As21  1  0.936935  0.873869  0.152202  1
