# generated using pymatgen
data_Nd8Dy2Ir5Ru
_symmetry_space_group_name_H-M   'P 1'
_cell_length_a   11.19236200
_cell_length_b   11.19236200
_cell_length_c   6.54201600
_cell_angle_alpha   90.00000000
_cell_angle_beta   90.00000000
_cell_angle_gamma   90.00000000
_symmetry_Int_Tables_number   1
_chemical_formula_structural   Nd8Dy2Ir5Ru
_chemical_formula_sum   'Nd16 Dy4 Ir10 Ru2'
_cell_volume   819.51158733
_cell_formula_units_Z   2
loop_
 _symmetry_equiv_pos_site_id
 _symmetry_equiv_pos_as_xyz
  1  'x, y, z'
loop_
 _atom_site_type_symbol
 _atom_site_label
 _atom_site_symmetry_multiplicity
 _atom_site_fract_x
 _atom_site_fract_y
 _atom_site_fract_z
 _atom_site_occupancy
  Nd  Nd0  1  0.087417  0.290344  0.117501  1
  Nd  Nd1  1  0.790344  0.412583  0.117501  1
  Nd  Nd2  1  0.209656  0.587417  0.117501  1
  Nd  Nd3  1  0.912583  0.709656  0.117501  1
  Nd  Nd4  1  0.412583  0.790344  0.382499  1
  Nd  Nd5  1  0.587417  0.209656  0.382499  1
  Nd  Nd6  1  0.290344  0.087417  0.382499  1
  Nd  Nd7  1  0.709656  0.912583  0.382499  1
  Nd  Nd8  1  0.412079  0.209578  0.884598  1
  Nd  Nd9  1  0.709578  0.087921  0.884598  1
  Nd  Nd10  1  0.290422  0.912079  0.884598  1
  Nd  Nd11  1  0.587921  0.790422  0.884598  1
  Nd  Nd12  1  0.087921  0.709578  0.615402  1
  Nd  Nd13  1  0.912079  0.290422  0.615402  1
  Nd  Nd14  1  0.209578  0.412079  0.615402  1
  Nd  Nd15  1  0.790422  0.587921  0.615402  1
  Dy  Dy16  1  0.000000  0.000000  0.000022  1
  Dy  Dy17  1  0.500000  0.500000  0.000022  1
  Dy  Dy18  1  0.500000  0.500000  0.499978  1
  Dy  Dy19  1  0.000000  0.000000  0.499978  1
  Ir  Ir20  1  0.149012  0.850988  0.250000  1
  Ir  Ir21  1  0.350988  0.350988  0.250000  1
  Ir  Ir22  1  0.649012  0.649012  0.250000  1
  Ir  Ir23  1  0.850988  0.149012  0.250000  1
  Ir  Ir24  1  0.351848  0.648152  0.750000  1
  Ir  Ir25  1  0.148152  0.148152  0.750000  1
  Ir  Ir26  1  0.851848  0.851848  0.750000  1
  Ir  Ir27  1  0.648152  0.351848  0.750000  1
  Ir  Ir28  1  0.500000  0.000000  0.622810  1
  Ir  Ir29  1  0.000000  0.500000  0.877190  1
  Ru  Ru30  1  0.000000  0.500000  0.379209  1
  Ru  Ru31  1  0.500000  0.000000  0.120791  1
