# generated using pymatgen
data_Dy16Ni3Hg4Os
_symmetry_space_group_name_H-M   'P 1'
_cell_length_a   9.55837193
_cell_length_b   9.55837206
_cell_length_c   9.55751913
_cell_angle_alpha   59.69663984
_cell_angle_beta   59.69663885
_cell_angle_gamma   59.69033396
_symmetry_Int_Tables_number   1
_chemical_formula_structural   Dy16Ni3Hg4Os
_chemical_formula_sum   'Dy16 Ni3 Hg4 Os1'
_cell_volume   613.16033578
_cell_formula_units_Z   1
loop_
 _symmetry_equiv_pos_site_id
 _symmetry_equiv_pos_as_xyz
  1  'x, y, z'
loop_
 _atom_site_type_symbol
 _atom_site_label
 _atom_site_symmetry_multiplicity
 _atom_site_fract_x
 _atom_site_fract_y
 _atom_site_fract_z
 _atom_site_occupancy
  Dy  Dy0  1  0.598410  0.598410  0.598402  1
  Dy  Dy1  1  0.602446  0.602446  0.199700  1
  Dy  Dy2  1  0.602448  0.199712  0.602459  1
  Dy  Dy3  1  0.199712  0.602448  0.602459  1
  Dy  Dy4  1  0.059752  0.438802  0.438795  1
  Dy  Dy5  1  0.437192  0.060584  0.060548  1
  Dy  Dy6  1  0.438802  0.059752  0.438795  1
  Dy  Dy7  1  0.060584  0.437192  0.060548  1
  Dy  Dy8  1  0.438790  0.438790  0.059757  1
  Dy  Dy9  1  0.060565  0.060565  0.437200  1
  Dy  Dy10  1  0.186750  0.815288  0.815283  1
  Dy  Dy11  1  0.806504  0.189342  0.189365  1
  Dy  Dy12  1  0.815288  0.186750  0.815283  1
  Dy  Dy13  1  0.189342  0.806504  0.189365  1
  Dy  Dy14  1  0.815285  0.815285  0.186733  1
  Dy  Dy15  1  0.189352  0.189352  0.806490  1
  Ni  Ni16  1  0.392183  0.392183  0.824900  1
  Ni  Ni17  1  0.392165  0.824943  0.392191  1
  Ni  Ni18  1  0.824943  0.392165  0.392191  1
  Hg  Hg19  1  0.833624  0.833624  0.833622  1
  Hg  Hg20  1  0.833913  0.833913  0.494433  1
  Hg  Hg21  1  0.833915  0.494419  0.833924  1
  Hg  Hg22  1  0.494419  0.833915  0.833924  1
  Os  Os23  1  0.393615  0.393615  0.393634  1
