# generated using pymatgen
data_YbPr(Al5Os)4
_symmetry_space_group_name_H-M   'P 1'
_cell_length_a   6.89737703
_cell_length_b   6.89737687
_cell_length_c   9.19955700
_cell_angle_alpha   90.00000000
_cell_angle_beta   90.00000000
_cell_angle_gamma   96.33354963
_symmetry_Int_Tables_number   1
_chemical_formula_structural   YbPr(Al5Os)4
_chemical_formula_sum   'Yb1 Pr1 Al20 Os4'
_cell_volume   434.98673368
_cell_formula_units_Z   1
loop_
 _symmetry_equiv_pos_site_id
 _symmetry_equiv_pos_as_xyz
  1  'x, y, z'
loop_
 _atom_site_type_symbol
 _atom_site_label
 _atom_site_symmetry_multiplicity
 _atom_site_fract_x
 _atom_site_fract_y
 _atom_site_fract_z
 _atom_site_occupancy
  Yb  Yb0  1  0.373422  0.626578  0.250000  1
  Pr  Pr1  1  0.625262  0.374738  0.750000  1
  Al  Al2  1  0.281254  0.017132  0.750000  1
  Al  Al3  1  0.021526  0.284597  0.250000  1
  Al  Al4  1  0.715403  0.978474  0.250000  1
  Al  Al5  1  0.982868  0.718746  0.750000  1
  Al  Al6  1  0.877057  0.122943  0.950393  1
  Al  Al7  1  0.123258  0.876742  0.043141  1
  Al  Al8  1  0.877057  0.122943  0.549607  1
  Al  Al9  1  0.123258  0.876742  0.456859  1
  Al  Al10  1  0.643698  0.912803  0.750000  1
  Al  Al11  1  0.914734  0.644031  0.250000  1
  Al  Al12  1  0.355969  0.085266  0.250000  1
  Al  Al13  1  0.087197  0.356302  0.750000  1
  Al  Al14  1  0.342212  0.657788  0.899898  1
  Al  Al15  1  0.660144  0.339856  0.102629  1
  Al  Al16  1  0.342212  0.657788  0.600102  1
  Al  Al17  1  0.660144  0.339856  0.397371  1
  Al  Al18  1  0.723524  0.725418  0.001993  1
  Al  Al19  1  0.723524  0.725418  0.498007  1
  Al  Al20  1  0.274582  0.276476  0.001993  1
  Al  Al21  1  0.274582  0.276476  0.498007  1
  Os  Os22  1  0.499087  0.000529  0.001114  1
  Os  Os23  1  0.999471  0.500913  0.001114  1
  Os  Os24  1  0.499087  0.000529  0.498886  1
  Os  Os25  1  0.999471  0.500913  0.498886  1
