# generated using pymatgen
data_Ba2CePa3S10
_symmetry_space_group_name_H-M   'P 1'
_cell_length_a   7.49312700
_cell_length_b   8.43545581
_cell_length_c   11.78692500
_cell_angle_alpha   89.61160221
_cell_angle_beta   90.00000000
_cell_angle_gamma   90.00000000
_symmetry_Int_Tables_number   1
_chemical_formula_structural   Ba2CePa3S10
_chemical_formula_sum   'Ba4 Ce2 Pa6 S20'
_cell_volume   745.01015059
_cell_formula_units_Z   2
loop_
 _symmetry_equiv_pos_site_id
 _symmetry_equiv_pos_as_xyz
  1  'x, y, z'
loop_
 _atom_site_type_symbol
 _atom_site_label
 _atom_site_symmetry_multiplicity
 _atom_site_fract_x
 _atom_site_fract_y
 _atom_site_fract_z
 _atom_site_occupancy
  Ba  Ba0  1  0.057645  0.490414  0.332543  1
  Ba  Ba1  1  0.557645  0.509586  0.167457  1
  Ba  Ba2  1  0.946474  0.509303  0.668865  1
  Ba  Ba3  1  0.446474  0.490697  0.831135  1
  Ce  Ce4  1  0.928820  0.248608  0.990124  1
  Ce  Ce5  1  0.428820  0.751392  0.509876  1
  Pa  Pa6  1  0.023485  0.998726  0.319592  1
  Pa  Pa7  1  0.523485  0.001274  0.180408  1
  Pa  Pa8  1  0.977150  0.999964  0.683042  1
  Pa  Pa9  1  0.477150  0.000036  0.816958  1
  Pa  Pa10  1  0.067774  0.758319  0.008287  1
  Pa  Pa11  1  0.567774  0.241681  0.491713  1
  S  S12  1  0.663649  0.959691  0.398555  1
  S  S13  1  0.163649  0.040309  0.101445  1
  S  S14  1  0.336479  0.047147  0.597534  1
  S  S15  1  0.836479  0.952853  0.902466  1
  S  S16  1  0.450287  0.795098  0.000397  1
  S  S17  1  0.950287  0.204902  0.499603  1
  S  S18  1  0.540970  0.206747  0.998040  1
  S  S19  1  0.040970  0.793253  0.501960  1
  S  S20  1  0.837787  0.784325  0.187222  1
  S  S21  1  0.337787  0.215675  0.312778  1
  S  S22  1  0.166840  0.212530  0.809450  1
  S  S23  1  0.666840  0.787470  0.690550  1
  S  S24  1  0.308516  0.776957  0.281773  1
  S  S25  1  0.808516  0.223043  0.218227  1
  S  S26  1  0.691666  0.224297  0.715450  1
  S  S27  1  0.191666  0.775703  0.784550  1
  S  S28  1  0.179821  0.472952  0.073885  1
  S  S29  1  0.679821  0.527048  0.426115  1
  S  S30  1  0.822636  0.549227  0.927257  1
  S  S31  1  0.322636  0.450773  0.572743  1
