# generated using pymatgen
data_La15YbCd4Co3Os
_symmetry_space_group_name_H-M   'P 1'
_cell_length_a   10.01537657
_cell_length_b   9.95528778
_cell_length_c   9.91686000
_cell_angle_alpha   60.12760705
_cell_angle_beta   60.32485989
_cell_angle_gamma   60.14668460
_symmetry_Int_Tables_number   1
_chemical_formula_structural   La15YbCd4Co3Os
_chemical_formula_sum   'La15 Yb1 Cd4 Co3 Os1'
_cell_volume   702.32281127
_cell_formula_units_Z   1
loop_
 _symmetry_equiv_pos_site_id
 _symmetry_equiv_pos_as_xyz
  1  'x, y, z'
loop_
 _atom_site_type_symbol
 _atom_site_label
 _atom_site_symmetry_multiplicity
 _atom_site_fract_x
 _atom_site_fract_y
 _atom_site_fract_z
 _atom_site_occupancy
  La  La0  1  0.561843  0.938282  0.560697  1
  La  La1  1  0.561843  0.938282  0.939178  1
  La  La2  1  0.682221  0.691867  0.312956  1
  La  La3  1  0.158314  0.152222  0.536293  1
  La  La4  1  0.303991  0.690418  0.691740  1
  La  La5  1  0.158314  0.152222  0.153170  1
  La  La6  1  0.538757  0.155798  0.152722  1
  La  La7  1  0.303991  0.690418  0.313852  1
  La  La8  1  0.309610  0.312560  0.688916  1
  La  La9  1  0.684436  0.307080  0.694767  1
  La  La10  1  0.936448  0.559285  0.557768  1
  La  La11  1  0.560293  0.560069  0.939819  1
  La  La12  1  0.160371  0.538764  0.150432  1
  La  La13  1  0.684436  0.307080  0.313717  1
  La  La14  1  0.936448  0.559285  0.946500  1
  Yb  Yb15  1  0.935253  0.943684  0.560532  1
  Cd  Cd16  1  0.237179  0.920931  0.920945  1
  Cd  Cd17  1  0.921080  0.921973  0.920067  1
  Cd  Cd18  1  0.921080  0.921973  0.236878  1
  Cd  Cd19  1  0.920532  0.236633  0.921416  1
  Co  Co20  1  0.367112  0.358776  0.916841  1
  Co  Co21  1  0.370769  0.916594  0.356318  1
  Co  Co22  1  0.367112  0.358776  0.357270  1
  Os  Os23  1  0.918559  0.367030  0.357206  1
