# generated using pymatgen
data_Pr2NdMg3Pb2Au
_symmetry_space_group_name_H-M   'P 1'
_cell_length_a   7.80221043
_cell_length_b   7.80220964
_cell_length_c   4.61099900
_cell_angle_alpha   90.00000000
_cell_angle_beta   90.00000000
_cell_angle_gamma   119.96201022
_symmetry_Int_Tables_number   1
_chemical_formula_structural   Pr2NdMg3Pb2Au
_chemical_formula_sum   'Pr2 Nd1 Mg3 Pb2 Au1'
_cell_volume   243.17955509
_cell_formula_units_Z   1
loop_
 _symmetry_equiv_pos_site_id
 _symmetry_equiv_pos_as_xyz
  1  'x, y, z'
loop_
 _atom_site_type_symbol
 _atom_site_label
 _atom_site_symmetry_multiplicity
 _atom_site_fract_x
 _atom_site_fract_y
 _atom_site_fract_z
 _atom_site_occupancy
  Pr  Pr0  1  0.598014  0.999905  0.000000  1
  Pr  Pr1  1  0.999905  0.598014  0.000000  1
  Nd  Nd2  1  0.401636  0.401636  0.000000  1
  Mg  Mg3  1  0.232078  0.000227  0.500000  1
  Mg  Mg4  1  0.000227  0.232078  0.500000  1
  Mg  Mg5  1  0.767875  0.767875  0.500000  1
  Pb  Pb6  1  0.333553  0.666164  0.500000  1
  Pb  Pb7  1  0.666164  0.333553  0.500000  1
  Au  Au8  1  0.000549  0.000549  0.000000  1
