# generated using pymatgen
data_Yb2(SbPd3)3
_symmetry_space_group_name_H-M   'P 1'
_cell_length_a   8.06256503
_cell_length_b   8.06256483
_cell_length_c   9.32127300
_cell_angle_alpha   90.00000000
_cell_angle_beta   90.00000000
_cell_angle_gamma   120.37855045
_symmetry_Int_Tables_number   1
_chemical_formula_structural   Yb2(SbPd3)3
_chemical_formula_sum   'Yb4 Sb6 Pd18'
_cell_volume   522.73672382
_cell_formula_units_Z   2
loop_
 _symmetry_equiv_pos_site_id
 _symmetry_equiv_pos_as_xyz
  1  'x, y, z'
loop_
 _atom_site_type_symbol
 _atom_site_label
 _atom_site_symmetry_multiplicity
 _atom_site_fract_x
 _atom_site_fract_y
 _atom_site_fract_z
 _atom_site_occupancy
  Yb  Yb0  1  0.326512  0.016291  0.750000  1
  Yb  Yb1  1  0.673488  0.983709  0.250000  1
  Yb  Yb2  1  0.016291  0.326512  0.750000  1
  Yb  Yb3  1  0.983709  0.673488  0.250000  1
  Sb  Sb4  1  0.000000  0.000000  0.500000  1
  Sb  Sb5  1  0.678068  0.321932  0.000000  1
  Sb  Sb6  1  0.321932  0.678068  0.500000  1
  Sb  Sb7  1  0.321932  0.678068  0.000000  1
  Sb  Sb8  1  0.000000  0.000000  0.000000  1
  Sb  Sb9  1  0.678068  0.321932  0.500000  1
  Pd  Pd10  1  0.331011  0.331011  0.963886  1
  Pd  Pd11  1  0.442326  0.640006  0.750000  1
  Pd  Pd12  1  0.557674  0.359994  0.250000  1
  Pd  Pd13  1  0.640006  0.442326  0.750000  1
  Pd  Pd14  1  0.999307  0.340812  0.085017  1
  Pd  Pd15  1  0.000693  0.659188  0.585017  1
  Pd  Pd16  1  0.340812  0.999307  0.414983  1
  Pd  Pd17  1  0.659188  0.000693  0.914983  1
  Pd  Pd18  1  0.000693  0.659188  0.914983  1
  Pd  Pd19  1  0.999307  0.340812  0.414983  1
  Pd  Pd20  1  0.659188  0.000693  0.585017  1
  Pd  Pd21  1  0.856811  0.856811  0.750000  1
  Pd  Pd22  1  0.331011  0.331011  0.536114  1
  Pd  Pd23  1  0.668989  0.668989  0.036114  1
  Pd  Pd24  1  0.340812  0.999307  0.085017  1
  Pd  Pd25  1  0.668989  0.668989  0.463886  1
  Pd  Pd26  1  0.143189  0.143189  0.250000  1
  Pd  Pd27  1  0.359994  0.557674  0.250000  1
