# generated using pymatgen
data_Ba12CuSn12Au11
_symmetry_space_group_name_H-M   'P 1'
_cell_length_a   5.04756200
_cell_length_b   8.45682695
_cell_length_c   25.20495802
_cell_angle_alpha   89.82624761
_cell_angle_beta   90.00000000
_cell_angle_gamma   90.00000000
_symmetry_Int_Tables_number   1
_chemical_formula_structural   Ba12CuSn12Au11
_chemical_formula_sum   'Ba12 Cu1 Sn12 Au11'
_cell_volume   1075.90292348
_cell_formula_units_Z   1
loop_
 _symmetry_equiv_pos_site_id
 _symmetry_equiv_pos_as_xyz
  1  'x, y, z'
loop_
 _atom_site_type_symbol
 _atom_site_label
 _atom_site_symmetry_multiplicity
 _atom_site_fract_x
 _atom_site_fract_y
 _atom_site_fract_z
 _atom_site_occupancy
  Ba  Ba0  1  0.750000  0.210148  0.496947  1
  Ba  Ba1  1  0.250000  0.793099  0.166180  1
  Ba  Ba2  1  0.250000  0.787010  0.504265  1
  Ba  Ba3  1  0.250000  0.793530  0.832853  1
  Ba  Ba4  1  0.250000  0.706687  0.334055  1
  Ba  Ba5  1  0.750000  0.206999  0.833574  1
  Ba  Ba6  1  0.750000  0.289936  0.997382  1
  Ba  Ba7  1  0.750000  0.296099  0.667516  1
  Ba  Ba8  1  0.750000  0.293196  0.334155  1
  Ba  Ba9  1  0.250000  0.708362  0.663970  1
  Ba  Ba10  1  0.250000  0.709860  0.002363  1
  Ba  Ba11  1  0.750000  0.207191  0.166600  1
  Cu  Cu12  1  0.250000  0.086909  0.594182  1
  Sn  Sn13  1  0.250000  0.402986  0.566307  1
  Sn  Sn14  1  0.250000  0.081407  0.395878  1
  Sn  Sn15  1  0.250000  0.085677  0.063376  1
  Sn  Sn16  1  0.250000  0.417693  0.895236  1
  Sn  Sn17  1  0.750000  0.582920  0.104478  1
  Sn  Sn18  1  0.250000  0.419939  0.771299  1
  Sn  Sn19  1  0.750000  0.581344  0.228383  1
  Sn  Sn20  1  0.750000  0.585687  0.437354  1
  Sn  Sn21  1  0.750000  0.914118  0.936567  1
  Sn  Sn22  1  0.250000  0.081061  0.271982  1
  Sn  Sn23  1  0.750000  0.926757  0.603616  1
  Sn  Sn24  1  0.750000  0.919572  0.727271  1
  Au  Au25  1  0.250000  0.086295  0.739053  1
  Au  Au26  1  0.750000  0.586557  0.906108  1
  Au  Au27  1  0.750000  0.912187  0.406395  1
  Au  Au28  1  0.750000  0.578678  0.566667  1
  Au  Au29  1  0.750000  0.587506  0.759656  1
  Au  Au30  1  0.250000  0.418181  0.432752  1
  Au  Au31  1  0.250000  0.414675  0.239997  1
  Au  Au32  1  0.750000  0.918177  0.066770  1
  Au  Au33  1  0.250000  0.413576  0.093559  1
  Au  Au34  1  0.250000  0.081673  0.932868  1
  Au  Au35  1  0.750000  0.914306  0.260383  1
