# generated using pymatgen
data_DyTm3(GaCo)4
_symmetry_space_group_name_H-M   'P 1'
_cell_length_a   4.37667200
_cell_length_b   6.89063693
_cell_length_c   6.94131596
_cell_angle_alpha   89.91404863
_cell_angle_beta   90.00000000
_cell_angle_gamma   90.00000000
_symmetry_Int_Tables_number   1
_chemical_formula_structural   DyTm3(GaCo)4
_chemical_formula_sum   'Dy1 Tm3 Ga4 Co4'
_cell_volume   209.33637182
_cell_formula_units_Z   1
loop_
 _symmetry_equiv_pos_site_id
 _symmetry_equiv_pos_as_xyz
  1  'x, y, z'
loop_
 _atom_site_type_symbol
 _atom_site_label
 _atom_site_symmetry_multiplicity
 _atom_site_fract_x
 _atom_site_fract_y
 _atom_site_fract_z
 _atom_site_occupancy
  Dy  Dy0  1  0.750000  0.805589  0.480581  1
  Tm  Tm1  1  0.250000  0.197311  0.519814  1
  Tm  Tm2  1  0.250000  0.303442  0.020187  1
  Tm  Tm3  1  0.750000  0.696284  0.980115  1
  Ga  Ga4  1  0.250000  0.896508  0.194653  1
  Ga  Ga5  1  0.750000  0.394943  0.303590  1
  Ga  Ga6  1  0.250000  0.602871  0.697344  1
  Ga  Ga7  1  0.750000  0.104517  0.804497  1
  Co  Co8  1  0.250000  0.936577  0.843061  1
  Co  Co9  1  0.250000  0.562289  0.341727  1
  Co  Co10  1  0.750000  0.064639  0.156152  1
  Co  Co11  1  0.750000  0.435030  0.658279  1
