# generated using pymatgen
data_TbHoB6Os
_symmetry_space_group_name_H-M   'P 1'
_cell_length_a   3.65543300
_cell_length_b   9.15653300
_cell_length_c   11.54677700
_cell_angle_alpha   90.00000000
_cell_angle_beta   90.00000000
_cell_angle_gamma   90.00000000
_symmetry_Int_Tables_number   1
_chemical_formula_structural   TbHoB6Os
_chemical_formula_sum   'Tb4 Ho4 B24 Os4'
_cell_volume   386.48324559
_cell_formula_units_Z   4
loop_
 _symmetry_equiv_pos_site_id
 _symmetry_equiv_pos_as_xyz
  1  'x, y, z'
loop_
 _atom_site_type_symbol
 _atom_site_label
 _atom_site_symmetry_multiplicity
 _atom_site_fract_x
 _atom_site_fract_y
 _atom_site_fract_z
 _atom_site_occupancy
  Tb  Tb0  1  0.000000  0.322827  0.413686  1
  Tb  Tb1  1  0.000000  0.677173  0.586314  1
  Tb  Tb2  1  0.000000  0.822827  0.086314  1
  Tb  Tb3  1  0.000000  0.177173  0.913686  1
  Ho  Ho4  1  0.000000  0.944194  0.373015  1
  Ho  Ho5  1  0.000000  0.055806  0.626985  1
  Ho  Ho6  1  0.000000  0.444194  0.126985  1
  Ho  Ho7  1  0.000000  0.555806  0.873015  1
  B  B8  1  0.500000  0.554203  0.432660  1
  B  B9  1  0.500000  0.445797  0.567340  1
  B  B10  1  0.500000  0.054203  0.067340  1
  B  B11  1  0.500000  0.945797  0.932660  1
  B  B12  1  0.500000  0.748145  0.419720  1
  B  B13  1  0.500000  0.251855  0.580280  1
  B  B14  1  0.500000  0.248145  0.080280  1
  B  B15  1  0.500000  0.751855  0.919720  1
  B  B16  1  0.500000  0.791238  0.266910  1
  B  B17  1  0.500000  0.208762  0.733090  1
  B  B18  1  0.500000  0.291238  0.233090  1
  B  B19  1  0.500000  0.708762  0.766910  1
  B  B20  1  0.500000  0.631968  0.185591  1
  B  B21  1  0.500000  0.368032  0.814409  1
  B  B22  1  0.500000  0.131968  0.314409  1
  B  B23  1  0.500000  0.868032  0.685591  1
  B  B24  1  0.500000  0.983840  0.213373  1
  B  B25  1  0.500000  0.016160  0.786627  1
  B  B26  1  0.500000  0.483840  0.286627  1
  B  B27  1  0.500000  0.516160  0.713373  1
  B  B28  1  0.500000  0.607538  0.029844  1
  B  B29  1  0.500000  0.392462  0.970156  1
  B  B30  1  0.500000  0.107538  0.470156  1
  B  B31  1  0.500000  0.892462  0.529844  1
  Os  Os32  1  0.000000  0.637882  0.321117  1
  Os  Os33  1  0.000000  0.362118  0.678883  1
  Os  Os34  1  0.000000  0.137882  0.178883  1
  Os  Os35  1  0.000000  0.862118  0.821117  1
