# generated using pymatgen
data_Sc2TeRh5
_symmetry_space_group_name_H-M   'P 1'
_cell_length_a   4.15407700
_cell_length_b   5.60820500
_cell_length_c   11.01094800
_cell_angle_alpha   90.00000000
_cell_angle_beta   90.00000000
_cell_angle_gamma   90.00000000
_symmetry_Int_Tables_number   1
_chemical_formula_structural   Sc2TeRh5
_chemical_formula_sum   'Sc4 Te2 Rh10'
_cell_volume   256.52112405
_cell_formula_units_Z   2
loop_
 _symmetry_equiv_pos_site_id
 _symmetry_equiv_pos_as_xyz
  1  'x, y, z'
loop_
 _atom_site_type_symbol
 _atom_site_label
 _atom_site_symmetry_multiplicity
 _atom_site_fract_x
 _atom_site_fract_y
 _atom_site_fract_z
 _atom_site_occupancy
  Sc  Sc0  1  0.500000  0.325936  0.356856  1
  Sc  Sc1  1  0.500000  0.674064  0.643144  1
  Sc  Sc2  1  0.500000  0.174064  0.856856  1
  Sc  Sc3  1  0.500000  0.825936  0.143144  1
  Te  Te4  1  0.000000  0.000000  0.500000  1
  Te  Te5  1  0.000000  0.500000  0.000000  1
  Rh  Rh6  1  0.500000  0.303377  0.112282  1
  Rh  Rh7  1  0.500000  0.696623  0.887718  1
  Rh  Rh8  1  0.500000  0.803377  0.387718  1
  Rh  Rh9  1  0.500000  0.196623  0.612282  1
  Rh  Rh10  1  0.000000  0.934838  0.746112  1
  Rh  Rh11  1  0.000000  0.065162  0.253888  1
  Rh  Rh12  1  0.000000  0.434838  0.753888  1
  Rh  Rh13  1  0.000000  0.565162  0.246112  1
  Rh  Rh14  1  0.000000  0.500000  0.500000  1
  Rh  Rh15  1  0.000000  0.000000  0.000000  1
