# generated using pymatgen
data_Dy16InAg3Ir4
_symmetry_space_group_name_H-M   'P 1'
_cell_length_a   9.59044137
_cell_length_b   9.59582711
_cell_length_c   9.59582700
_cell_angle_alpha   59.99999695
_cell_angle_beta   59.98141848
_cell_angle_gamma   59.98142324
_symmetry_Int_Tables_number   1
_chemical_formula_structural   Dy16InAg3Ir4
_chemical_formula_sum   'Dy16 In1 Ag3 Ir4'
_cell_volume   624.26127343
_cell_formula_units_Z   1
loop_
 _symmetry_equiv_pos_site_id
 _symmetry_equiv_pos_as_xyz
  1  'x, y, z'
loop_
 _atom_site_type_symbol
 _atom_site_label
 _atom_site_symmetry_multiplicity
 _atom_site_fract_x
 _atom_site_fract_y
 _atom_site_fract_z
 _atom_site_occupancy
  Dy  Dy0  1  0.599528  0.601476  0.601476  1
  Dy  Dy1  1  0.599528  0.601476  0.197520  1
  Dy  Dy2  1  0.599528  0.197520  0.601476  1
  Dy  Dy3  1  0.196816  0.601061  0.601061  1
  Dy  Dy4  1  0.062386  0.438202  0.438202  1
  Dy  Dy5  1  0.440008  0.059978  0.059978  1
  Dy  Dy6  1  0.440008  0.059978  0.440036  1
  Dy  Dy7  1  0.062386  0.438202  0.061211  1
  Dy  Dy8  1  0.440008  0.440036  0.059978  1
  Dy  Dy9  1  0.062386  0.061211  0.438202  1
  Dy  Dy10  1  0.183472  0.813394  0.813394  1
  Dy  Dy11  1  0.812286  0.186678  0.186678  1
  Dy  Dy12  1  0.812286  0.186678  0.814357  1
  Dy  Dy13  1  0.183472  0.813394  0.189740  1
  Dy  Dy14  1  0.812286  0.814357  0.186678  1
  Dy  Dy15  1  0.183472  0.189740  0.813394  1
  In  In16  1  0.511418  0.829527  0.829527  1
  Ag  Ag17  1  0.833242  0.832351  0.832351  1
  Ag  Ag18  1  0.833242  0.832351  0.502056  1
  Ag  Ag19  1  0.833242  0.502056  0.832351  1
  Ir  Ir20  1  0.392203  0.392230  0.392230  1
  Ir  Ir21  1  0.392203  0.392230  0.823339  1
  Ir  Ir22  1  0.392203  0.823339  0.392230  1
  Ir  Ir23  1  0.822391  0.392537  0.392537  1
