# generated using pymatgen
data_DyY9Si5Sn
_symmetry_space_group_name_H-M   'P 1'
_cell_length_a   8.53448200
_cell_length_b   8.56218812
_cell_length_c   6.41603700
_cell_angle_alpha   90.00167863
_cell_angle_beta   90.00041352
_cell_angle_gamma   119.89224060
_symmetry_Int_Tables_number   1
_chemical_formula_structural   DyY9Si5Sn
_chemical_formula_sum   'Dy1 Y9 Si5 Sn1'
_cell_volume   406.47138855
_cell_formula_units_Z   1
loop_
 _symmetry_equiv_pos_site_id
 _symmetry_equiv_pos_as_xyz
  1  'x, y, z'
loop_
 _atom_site_type_symbol
 _atom_site_label
 _atom_site_symmetry_multiplicity
 _atom_site_fract_x
 _atom_site_fract_y
 _atom_site_fract_z
 _atom_site_occupancy
  Dy  Dy0  1  0.673346  0.341743  0.496862  1
  Y  Y1  1  0.989477  0.748692  0.749987  1
  Y  Y2  1  0.998926  0.242947  0.250005  1
  Y  Y3  1  0.755981  0.757049  0.250009  1
  Y  Y4  1  0.764644  0.999995  0.749998  1
  Y  Y5  1  0.240775  0.251293  0.749996  1
  Y  Y6  1  0.241560  0.999999  0.250002  1
  Y  Y7  1  0.673317  0.341697  0.003133  1
  Y  Y8  1  0.331618  0.658305  0.496878  1
  Y  Y9  1  0.331619  0.658300  0.003127  1
  Si  Si10  1  0.393555  0.392315  0.250025  1
  Si  Si11  1  0.001197  0.607655  0.250026  1
  Si  Si12  1  0.998738  0.394241  0.749977  1
  Si  Si13  1  0.604514  0.605737  0.749974  1
  Si  Si14  1  0.605819  0.000020  0.250019  1
  Sn  Sn15  1  0.394912  0.000012  0.749984  1
