# generated using pymatgen
data_Ho4Al16SiGeRh6
_symmetry_space_group_name_H-M   'P 1'
_cell_length_a   7.54898200
_cell_length_b   7.54898298
_cell_length_c   9.38577400
_cell_angle_alpha   90.00000000
_cell_angle_beta   90.00000000
_cell_angle_gamma   119.67176312
_symmetry_Int_Tables_number   1
_chemical_formula_structural   Ho4Al16SiGeRh6
_chemical_formula_sum   'Ho4 Al16 Si1 Ge1 Rh6'
_cell_volume   464.73408102
_cell_formula_units_Z   1
loop_
 _symmetry_equiv_pos_site_id
 _symmetry_equiv_pos_as_xyz
  1  'x, y, z'
loop_
 _atom_site_type_symbol
 _atom_site_label
 _atom_site_symmetry_multiplicity
 _atom_site_fract_x
 _atom_site_fract_y
 _atom_site_fract_z
 _atom_site_occupancy
  Ho  Ho0  1  0.995256  0.675846  0.250000  1
  Ho  Ho1  1  0.004851  0.323815  0.750000  1
  Ho  Ho2  1  0.675846  0.995256  0.250000  1
  Ho  Ho3  1  0.323815  0.004851  0.750000  1
  Al  Al4  1  0.000350  0.337330  0.074146  1
  Al  Al5  1  0.998484  0.663107  0.922776  1
  Al  Al6  1  0.998484  0.663107  0.577224  1
  Al  Al7  1  0.337330  0.000350  0.425854  1
  Al  Al8  1  0.000350  0.337330  0.425854  1
  Al  Al9  1  0.663107  0.998484  0.577224  1
  Al  Al10  1  0.663107  0.998484  0.922776  1
  Al  Al11  1  0.337330  0.000350  0.074146  1
  Al  Al12  1  0.335593  0.335593  0.558802  1
  Al  Al13  1  0.664404  0.664404  0.443434  1
  Al  Al14  1  0.664404  0.664404  0.056566  1
  Al  Al15  1  0.335593  0.335593  0.941198  1
  Al  Al16  1  0.335726  0.553690  0.250000  1
  Al  Al17  1  0.664887  0.450228  0.750000  1
  Al  Al18  1  0.553690  0.335726  0.250000  1
  Al  Al19  1  0.450228  0.664887  0.750000  1
  Si  Si20  1  0.869721  0.869721  0.750000  1
  Ge  Ge21  1  0.131484  0.131484  0.250000  1
  Rh  Rh22  1  0.671286  0.328038  0.999851  1
  Rh  Rh23  1  0.328038  0.671286  0.999851  1
  Rh  Rh24  1  0.328038  0.671286  0.500149  1
  Rh  Rh25  1  0.671286  0.328038  0.500149  1
  Rh  Rh26  1  0.998657  0.998657  0.994020  1
  Rh  Rh27  1  0.998657  0.998657  0.505980  1
