# generated using pymatgen
data_CeThMn3V3P7Rh6
_symmetry_space_group_name_H-M   'P 1'
_cell_length_a   9.47557400
_cell_length_b   9.47557454
_cell_length_c   3.85194800
_cell_angle_alpha   90.00000000
_cell_angle_beta   90.00000000
_cell_angle_gamma   119.99999113
_symmetry_Int_Tables_number   1
_chemical_formula_structural   CeThMn3V3P7Rh6
_chemical_formula_sum   'Ce1 Th1 Mn3 V3 P7 Rh6'
_cell_volume   299.51747517
_cell_formula_units_Z   1
loop_
 _symmetry_equiv_pos_site_id
 _symmetry_equiv_pos_as_xyz
  1  'x, y, z'
loop_
 _atom_site_type_symbol
 _atom_site_label
 _atom_site_symmetry_multiplicity
 _atom_site_fract_x
 _atom_site_fract_y
 _atom_site_fract_z
 _atom_site_occupancy
  Ce  Ce0  1  0.333333  0.666667  0.000000  1
  Th  Th1  1  0.000000  0.000000  0.500000  1
  Mn  Mn2  1  0.549943  0.059765  0.000000  1
  Mn  Mn3  1  0.940235  0.490176  0.000000  1
  Mn  Mn4  1  0.509824  0.450057  0.000000  1
  V  V5  1  0.778857  0.241743  0.500000  1
  V  V6  1  0.758257  0.537114  0.500000  1
  V  V7  1  0.462886  0.221143  0.500000  1
  P  P8  1  0.773815  0.041564  0.000000  1
  P  P9  1  0.958436  0.732251  0.000000  1
  P  P10  1  0.267749  0.226185  0.000000  1
  P  P11  1  0.386241  0.939019  0.500000  1
  P  P12  1  0.060981  0.447222  0.500000  1
  P  P13  1  0.552778  0.613759  0.500000  1
  P  P14  1  0.666667  0.333333  0.000000  1
  Rh  Rh15  1  0.033892  0.269351  0.000000  1
  Rh  Rh16  1  0.730649  0.764541  0.000000  1
  Rh  Rh17  1  0.235459  0.966108  0.000000  1
  Rh  Rh18  1  0.612575  0.895757  0.500000  1
  Rh  Rh19  1  0.104243  0.716817  0.500000  1
  Rh  Rh20  1  0.283183  0.387425  0.500000  1
