# generated using pymatgen
data_Cs4VTe4
_symmetry_space_group_name_H-M   'P 1'
_cell_length_a   9.74050100
_cell_length_b   11.35832000
_cell_length_c   16.73414900
_cell_angle_alpha   90.00000000
_cell_angle_beta   90.00000000
_cell_angle_gamma   90.00000000
_symmetry_Int_Tables_number   1
_chemical_formula_structural   Cs4VTe4
_chemical_formula_sum   'Cs16 V4 Te16'
_cell_volume   1851.39474567
_cell_formula_units_Z   4
loop_
 _symmetry_equiv_pos_site_id
 _symmetry_equiv_pos_as_xyz
  1  'x, y, z'
loop_
 _atom_site_type_symbol
 _atom_site_label
 _atom_site_symmetry_multiplicity
 _atom_site_fract_x
 _atom_site_fract_y
 _atom_site_fract_z
 _atom_site_occupancy
  Cs  Cs0  1  0.000000  0.000000  0.000000  1
  Cs  Cs1  1  0.500000  0.000000  0.500000  1
  Cs  Cs2  1  0.000000  0.500000  0.000000  1
  Cs  Cs3  1  0.500000  0.500000  0.500000  1
  Cs  Cs4  1  0.991221  0.750000  0.422064  1
  Cs  Cs5  1  0.491221  0.250000  0.077936  1
  Cs  Cs6  1  0.008779  0.250000  0.577936  1
  Cs  Cs7  1  0.508779  0.750000  0.922064  1
  Cs  Cs8  1  0.840512  0.052921  0.276896  1
  Cs  Cs9  1  0.340512  0.947079  0.223104  1
  Cs  Cs10  1  0.159488  0.552921  0.723104  1
  Cs  Cs11  1  0.659488  0.447079  0.776896  1
  Cs  Cs12  1  0.159488  0.947079  0.723104  1
  Cs  Cs13  1  0.659488  0.052921  0.776896  1
  Cs  Cs14  1  0.840512  0.447079  0.276896  1
  Cs  Cs15  1  0.340512  0.552921  0.223104  1
  V  V16  1  0.760411  0.750000  0.666650  1
  V  V17  1  0.239589  0.250000  0.333350  1
  V  V18  1  0.739589  0.750000  0.166650  1
  V  V19  1  0.260411  0.250000  0.833350  1
  Te  Te20  1  0.994072  0.250000  0.825479  1
  Te  Te21  1  0.505928  0.250000  0.325479  1
  Te  Te22  1  0.494072  0.750000  0.674521  1
  Te  Te23  1  0.005928  0.750000  0.174521  1
  Te  Te24  1  0.656809  0.566352  0.090880  1
  Te  Te25  1  0.156809  0.433648  0.409120  1
  Te  Te26  1  0.343191  0.066352  0.909120  1
  Te  Te27  1  0.843191  0.933648  0.590880  1
  Te  Te28  1  0.343191  0.433648  0.909120  1
  Te  Te29  1  0.843191  0.566352  0.590880  1
  Te  Te30  1  0.656809  0.933648  0.090880  1
  Te  Te31  1  0.156809  0.066352  0.409120  1
  Te  Te32  1  0.637052  0.750000  0.310430  1
  Te  Te33  1  0.137052  0.250000  0.189570  1
  Te  Te34  1  0.362948  0.250000  0.689570  1
  Te  Te35  1  0.862948  0.750000  0.810430  1
