# generated using pymatgen
data_Tb4Ho4Tc3B24Ir
_symmetry_space_group_name_H-M   'P 1'
_cell_length_a   3.67833000
_cell_length_b   9.15444480
_cell_length_c   11.54664729
_cell_angle_alpha   89.89918419
_cell_angle_beta   90.00000000
_cell_angle_gamma   90.00000000
_symmetry_Int_Tables_number   1
_chemical_formula_structural   Tb4Ho4Tc3B24Ir
_chemical_formula_sum   'Tb4 Ho4 Tc3 B24 Ir1'
_cell_volume   388.81044818
_cell_formula_units_Z   1
loop_
 _symmetry_equiv_pos_site_id
 _symmetry_equiv_pos_as_xyz
  1  'x, y, z'
loop_
 _atom_site_type_symbol
 _atom_site_label
 _atom_site_symmetry_multiplicity
 _atom_site_fract_x
 _atom_site_fract_y
 _atom_site_fract_z
 _atom_site_occupancy
  Tb  Tb0  1  0.000000  0.323110  0.413015  1
  Tb  Tb1  1  0.000000  0.673261  0.581373  1
  Tb  Tb2  1  0.000000  0.821840  0.090656  1
  Tb  Tb3  1  0.000000  0.181233  0.916002  1
  Ho  Ho4  1  0.000000  0.943020  0.370708  1
  Ho  Ho5  1  0.000000  0.060098  0.628635  1
  Ho  Ho6  1  0.000000  0.443567  0.129876  1
  Ho  Ho7  1  0.000000  0.555345  0.869646  1
  Tc  Tc8  1  0.000000  0.638433  0.320486  1
  Tc  Tc9  1  0.000000  0.361358  0.680557  1
  Tc  Tc10  1  0.000000  0.137316  0.178085  1
  B  B11  1  0.500000  0.553276  0.432326  1
  B  B12  1  0.500000  0.446265  0.567230  1
  B  B13  1  0.500000  0.053777  0.067134  1
  B  B14  1  0.500000  0.945766  0.933350  1
  B  B15  1  0.500000  0.748354  0.418261  1
  B  B16  1  0.500000  0.251329  0.581935  1
  B  B17  1  0.500000  0.249503  0.081734  1
  B  B18  1  0.500000  0.750585  0.919384  1
  B  B19  1  0.500000  0.791355  0.265723  1
  B  B20  1  0.500000  0.208938  0.735174  1
  B  B21  1  0.500000  0.290992  0.234336  1
  B  B22  1  0.500000  0.709110  0.764886  1
  B  B23  1  0.500000  0.631067  0.185556  1
  B  B24  1  0.500000  0.369409  0.814769  1
  B  B25  1  0.500000  0.130246  0.314077  1
  B  B26  1  0.500000  0.868964  0.684363  1
  B  B27  1  0.500000  0.982222  0.212367  1
  B  B28  1  0.500000  0.017011  0.787750  1
  B  B29  1  0.500000  0.482827  0.287156  1
  B  B30  1  0.500000  0.516649  0.712097  1
  B  B31  1  0.500000  0.603466  0.027884  1
  B  B32  1  0.500000  0.398638  0.971589  1
  B  B33  1  0.500000  0.102170  0.472074  1
  B  B34  1  0.500000  0.897382  0.528950  1
  Ir  Ir35  1  0.000000  0.862121  0.820856  1
