# generated using pymatgen
data_Er7TmRe(B8Ru)3
_symmetry_space_group_name_H-M   'P 1'
_cell_length_a   3.64027400
_cell_length_b   9.09319922
_cell_length_c   11.47295202
_cell_angle_alpha   90.12710953
_cell_angle_beta   90.00000000
_cell_angle_gamma   90.00000000
_symmetry_Int_Tables_number   1
_chemical_formula_structural   Er7TmRe(B8Ru)3
_chemical_formula_sum   'Er7 Tm1 Re1 B24 Ru3'
_cell_volume   379.77370244
_cell_formula_units_Z   1
loop_
 _symmetry_equiv_pos_site_id
 _symmetry_equiv_pos_as_xyz
  1  'x, y, z'
loop_
 _atom_site_type_symbol
 _atom_site_label
 _atom_site_symmetry_multiplicity
 _atom_site_fract_x
 _atom_site_fract_y
 _atom_site_fract_z
 _atom_site_occupancy
  Er  Er0  1  0.000000  0.322505  0.415192  1
  Er  Er1  1  0.000000  0.680428  0.588030  1
  Er  Er2  1  0.000000  0.822292  0.083377  1
  Er  Er3  1  0.000000  0.176563  0.913458  1
  Er  Er4  1  0.000000  0.943151  0.371174  1
  Er  Er5  1  0.000000  0.056397  0.627695  1
  Er  Er6  1  0.000000  0.442727  0.128435  1
  Tm  Tm7  1  0.000000  0.555954  0.872385  1
  Re  Re8  1  0.000000  0.862088  0.821226  1
  B  B9  1  0.500000  0.553994  0.433529  1
  B  B10  1  0.500000  0.446288  0.566789  1
  B  B11  1  0.500000  0.053752  0.067234  1
  B  B12  1  0.500000  0.947150  0.933562  1
  B  B13  1  0.500000  0.748745  0.419623  1
  B  B14  1  0.500000  0.251577  0.580142  1
  B  B15  1  0.500000  0.248485  0.080573  1
  B  B16  1  0.500000  0.750554  0.919558  1
  B  B17  1  0.500000  0.790706  0.265432  1
  B  B18  1  0.500000  0.209049  0.733578  1
  B  B19  1  0.500000  0.291140  0.234626  1
  B  B20  1  0.500000  0.707691  0.765579  1
  B  B21  1  0.500000  0.630827  0.184890  1
  B  B22  1  0.500000  0.368720  0.814839  1
  B  B23  1  0.500000  0.131607  0.315240  1
  B  B24  1  0.500000  0.868884  0.685012  1
  B  B25  1  0.500000  0.982967  0.212413  1
  B  B26  1  0.500000  0.018418  0.787396  1
  B  B27  1  0.500000  0.482765  0.288079  1
  B  B28  1  0.500000  0.517241  0.712689  1
  B  B29  1  0.500000  0.604483  0.029453  1
  B  B30  1  0.500000  0.393649  0.970925  1
  B  B31  1  0.500000  0.106561  0.470112  1
  B  B32  1  0.500000  0.894291  0.528515  1
  Ru  Ru33  1  0.000000  0.637720  0.321078  1
  Ru  Ru34  1  0.000000  0.362612  0.678664  1
  Ru  Ru35  1  0.000000  0.138019  0.179498  1
