# generated using pymatgen
data_Rb8Th3NpTe12
_symmetry_space_group_name_H-M   'P 1'
_cell_length_a   15.12690459
_cell_length_b   7.89027251
_cell_length_c   9.60670188
_cell_angle_alpha   74.05771250
_cell_angle_beta   89.84151761
_cell_angle_gamma   89.98086810
_symmetry_Int_Tables_number   1
_chemical_formula_structural   Rb8Th3NpTe12
_chemical_formula_sum   'Rb8 Th3 Np1 Te12'
_cell_volume   1102.50740880
_cell_formula_units_Z   1
loop_
 _symmetry_equiv_pos_site_id
 _symmetry_equiv_pos_as_xyz
  1  'x, y, z'
loop_
 _atom_site_type_symbol
 _atom_site_label
 _atom_site_symmetry_multiplicity
 _atom_site_fract_x
 _atom_site_fract_y
 _atom_site_fract_z
 _atom_site_occupancy
  Rb  Rb0  1  0.959576  0.664783  0.670577  1
  Rb  Rb1  1  0.461586  0.835271  0.328672  1
  Rb  Rb2  1  0.038882  0.333853  0.328738  1
  Rb  Rb3  1  0.540452  0.164926  0.671186  1
  Rb  Rb4  1  0.870261  0.092017  0.889852  1
  Rb  Rb5  1  0.371509  0.410912  0.110261  1
  Rb  Rb6  1  0.128173  0.911547  0.110747  1
  Rb  Rb7  1  0.629939  0.589296  0.888490  1
  Th  Th8  1  0.751761  0.674476  0.290307  1
  Th  Th9  1  0.251980  0.825392  0.709926  1
  Th  Th10  1  0.247921  0.325343  0.709901  1
  Np  Np11  1  0.748341  0.175554  0.289065  1
  Te  Te12  1  0.910461  0.935188  0.283417  1
  Te  Te13  1  0.413245  0.569937  0.717475  1
  Te  Te14  1  0.086760  0.069697  0.718331  1
  Te  Te15  1  0.589619  0.423245  0.282542  1
  Te  Te16  1  0.821720  0.342195  0.521040  1
  Te  Te17  1  0.323306  0.153779  0.475262  1
  Te  Te18  1  0.176684  0.653687  0.475541  1
  Te  Te19  1  0.678483  0.852584  0.521566  1
  Te  Te20  1  0.840781  0.493970  0.067193  1
  Te  Te21  1  0.341935  0.000654  0.935528  1
  Te  Te22  1  0.157738  0.500694  0.935867  1
  Te  Te23  1  0.658889  0.001000  0.068514  1
