# generated using pymatgen
data_GdPuS2
_symmetry_space_group_name_H-M   'P 1'
_cell_length_a   6.78523620
_cell_length_b   6.78523676
_cell_length_c   6.78523609
_cell_angle_alpha   33.97701996
_cell_angle_beta   33.97701621
_cell_angle_gamma   33.97701060
_symmetry_Int_Tables_number   1
_chemical_formula_structural   GdPuS2
_chemical_formula_sum   'Gd1 Pu1 S2'
_cell_volume   86.96526646
_cell_formula_units_Z   1
loop_
 _symmetry_equiv_pos_site_id
 _symmetry_equiv_pos_as_xyz
  1  'x, y, z'
loop_
 _atom_site_type_symbol
 _atom_site_label
 _atom_site_symmetry_multiplicity
 _atom_site_fract_x
 _atom_site_fract_y
 _atom_site_fract_z
 _atom_site_occupancy
  Gd  Gd0  1  0.000000  0.000000  0.000000  1
  Pu  Pu1  1  0.500000  0.500000  0.500000  1
  S  S2  1  0.249213  0.249213  0.249213  1
  S  S3  1  0.750787  0.750787  0.750787  1
