# generated using pymatgen
data_Y10Al3GaTe4
_symmetry_space_group_name_H-M   'P 1'
_cell_length_a   8.79900252
_cell_length_b   8.79900228
_cell_length_c   7.99898700
_cell_angle_alpha   90.39540187
_cell_angle_beta   90.39539535
_cell_angle_gamma   125.81395823
_symmetry_Int_Tables_number   1
_chemical_formula_structural   Y10Al3GaTe4
_chemical_formula_sum   'Y10 Al3 Ga1 Te4'
_cell_volume   502.14680504
_cell_formula_units_Z   1
loop_
 _symmetry_equiv_pos_site_id
 _symmetry_equiv_pos_as_xyz
  1  'x, y, z'
loop_
 _atom_site_type_symbol
 _atom_site_label
 _atom_site_symmetry_multiplicity
 _atom_site_fract_x
 _atom_site_fract_y
 _atom_site_fract_z
 _atom_site_occupancy
  Y  Y0  1  0.001312  0.001312  0.000573  1
  Y  Y1  1  0.499065  0.499065  0.499904  1
  Y  Y2  1  0.803696  0.543601  0.170360  1
  Y  Y3  1  0.463134  0.203781  0.830820  1
  Y  Y4  1  0.959009  0.700674  0.666790  1
  Y  Y5  1  0.290564  0.036260  0.333561  1
  Y  Y6  1  0.203781  0.463134  0.830820  1
  Y  Y7  1  0.543601  0.803696  0.170360  1
  Y  Y8  1  0.036260  0.290564  0.333561  1
  Y  Y9  1  0.700674  0.959009  0.666790  1
  Al  Al10  1  0.121678  0.121678  0.623690  1
  Al  Al11  1  0.625154  0.625154  0.879735  1
  Al  Al12  1  0.379387  0.379387  0.122640  1
  Ga  Ga13  1  0.872522  0.872522  0.378289  1
  Te  Te14  1  0.208724  0.799864  0.998605  1
  Te  Te15  1  0.700747  0.290829  0.497449  1
  Te  Te16  1  0.799864  0.208724  0.998605  1
  Te  Te17  1  0.290829  0.700747  0.497449  1
