# generated using pymatgen
data_Ho3Th(HgAu2)2
_symmetry_space_group_name_H-M   'P 1'
_cell_length_a   8.09275700
_cell_length_b   8.09275709
_cell_length_c   3.70752100
_cell_angle_alpha   90.00000000
_cell_angle_beta   90.00000000
_cell_angle_gamma   90.13080805
_symmetry_Int_Tables_number   1
_chemical_formula_structural   Ho3Th(HgAu2)2
_chemical_formula_sum   'Ho3 Th1 Hg2 Au4'
_cell_volume   242.81498932
_cell_formula_units_Z   1
loop_
 _symmetry_equiv_pos_site_id
 _symmetry_equiv_pos_as_xyz
  1  'x, y, z'
loop_
 _atom_site_type_symbol
 _atom_site_label
 _atom_site_symmetry_multiplicity
 _atom_site_fract_x
 _atom_site_fract_y
 _atom_site_fract_z
 _atom_site_occupancy
  Ho  Ho0  1  0.827352  0.330967  0.500001  1
  Ho  Ho1  1  0.169033  0.672647  0.500001  1
  Ho  Ho2  1  0.674857  0.825142  0.500001  1
  Th  Th3  1  0.328353  0.171647  0.500001  1
  Hg  Hg4  1  0.996998  0.998400  0.000000  1
  Hg  Hg5  1  0.501600  0.503002  0.000000  1
  Au  Au6  1  0.631936  0.125752  0.000000  1
  Au  Au7  1  0.123501  0.376499  0.000000  1
  Au  Au8  1  0.872121  0.627879  0.000000  1
  Au  Au9  1  0.374248  0.868064  0.000000  1
