# generated using pymatgen
data_Tb5YIrPd
_symmetry_space_group_name_H-M   'P 1'
_cell_length_a   6.45854683
_cell_length_b   7.17456341
_cell_length_c   9.53987000
_cell_angle_alpha   90.00000000
_cell_angle_beta   90.00000000
_cell_angle_gamma   90.13590349
_symmetry_Int_Tables_number   1
_chemical_formula_structural   Tb5YIrPd
_chemical_formula_sum   'Tb10 Y2 Ir2 Pd2'
_cell_volume   442.05013337
_cell_formula_units_Z   2
loop_
 _symmetry_equiv_pos_site_id
 _symmetry_equiv_pos_as_xyz
  1  'x, y, z'
loop_
 _atom_site_type_symbol
 _atom_site_label
 _atom_site_symmetry_multiplicity
 _atom_site_fract_x
 _atom_site_fract_y
 _atom_site_fract_z
 _atom_site_occupancy
  Tb  Tb0  1  0.627024  0.037725  0.250000  1
  Tb  Tb1  1  0.372976  0.962275  0.750000  1
  Tb  Tb2  1  0.177059  0.184068  0.062087  1
  Tb  Tb3  1  0.822941  0.815932  0.937913  1
  Tb  Tb4  1  0.670580  0.322729  0.939435  1
  Tb  Tb5  1  0.822941  0.815932  0.562087  1
  Tb  Tb6  1  0.329420  0.677271  0.060565  1
  Tb  Tb7  1  0.177059  0.184068  0.437913  1
  Tb  Tb8  1  0.329420  0.677271  0.439435  1
  Tb  Tb9  1  0.670580  0.322729  0.560565  1
  Y  Y10  1  0.135590  0.478126  0.750000  1
  Y  Y11  1  0.864410  0.521874  0.250000  1
  Ir  Ir12  1  0.444338  0.386287  0.250000  1
  Ir  Ir13  1  0.555662  0.613713  0.750000  1
  Pd  Pd14  1  0.947210  0.111465  0.750000  1
  Pd  Pd15  1  0.052790  0.888535  0.250000  1
