# generated using pymatgen
data_YHoSn(PRh2)6
_symmetry_space_group_name_H-M   'P 1'
_cell_length_a   9.78239100
_cell_length_b   9.78239115
_cell_length_c   3.87429700
_cell_angle_alpha   90.00000000
_cell_angle_beta   90.00000000
_cell_angle_gamma   120.00000288
_symmetry_Int_Tables_number   1
_chemical_formula_structural   YHoSn(PRh2)6
_chemical_formula_sum   'Y1 Ho1 Sn1 P6 Rh12'
_cell_volume   321.08023414
_cell_formula_units_Z   1
loop_
 _symmetry_equiv_pos_site_id
 _symmetry_equiv_pos_as_xyz
  1  'x, y, z'
loop_
 _atom_site_type_symbol
 _atom_site_label
 _atom_site_symmetry_multiplicity
 _atom_site_fract_x
 _atom_site_fract_y
 _atom_site_fract_z
 _atom_site_occupancy
  Y  Y0  1  0.333333  0.666667  0.751056  1
  Ho  Ho1  1  0.666667  0.333333  0.248958  1
  Sn  Sn2  1  0.000000  0.000000  0.500013  1
  P  P3  1  0.406267  0.287749  0.746569  1
  P  P4  1  0.712251  0.118517  0.746569  1
  P  P5  1  0.881483  0.593733  0.746569  1
  P  P6  1  0.593846  0.712292  0.253428  1
  P  P7  1  0.287708  0.881554  0.253428  1
  P  P8  1  0.118446  0.406154  0.253428  1
  Rh  Rh9  1  0.453929  0.067997  0.747308  1
  Rh  Rh10  1  0.932003  0.385931  0.747308  1
  Rh  Rh11  1  0.614069  0.546071  0.747308  1
  Rh  Rh12  1  0.546281  0.932274  0.252691  1
  Rh  Rh13  1  0.067726  0.614008  0.252691  1
  Rh  Rh14  1  0.385992  0.453719  0.252691  1
  Rh  Rh15  1  0.161932  0.287814  0.758991  1
  Rh  Rh16  1  0.712186  0.874117  0.758991  1
  Rh  Rh17  1  0.125883  0.838068  0.758991  1
  Rh  Rh18  1  0.838038  0.712105  0.241004  1
  Rh  Rh19  1  0.287895  0.125933  0.241004  1
  Rh  Rh20  1  0.874067  0.161962  0.241004  1
