# generated using pymatgen
data_DyEr2Lu17(CoSb2)4
_symmetry_space_group_name_H-M   'P 1'
_cell_length_a   7.69771527
_cell_length_b   8.69831700
_cell_length_c   11.98732550
_cell_angle_alpha   90.00000000
_cell_angle_beta   90.06934528
_cell_angle_gamma   90.00000000
_symmetry_Int_Tables_number   1
_chemical_formula_structural   DyEr2Lu17(CoSb2)4
_chemical_formula_sum   'Dy1 Er2 Lu17 Co4 Sb8'
_cell_volume   802.63677463
_cell_formula_units_Z   1
loop_
 _symmetry_equiv_pos_site_id
 _symmetry_equiv_pos_as_xyz
  1  'x, y, z'
loop_
 _atom_site_type_symbol
 _atom_site_label
 _atom_site_symmetry_multiplicity
 _atom_site_fract_x
 _atom_site_fract_y
 _atom_site_fract_z
 _atom_site_occupancy
  Dy  Dy0  1  0.123191  0.250000  0.192064  1
  Er  Er1  1  0.377716  0.250000  0.690990  1
  Er  Er2  1  0.877789  0.750000  0.808794  1
  Lu  Lu3  1  0.157274  0.750000  0.204403  1
  Lu  Lu4  1  0.656633  0.250000  0.295845  1
  Lu  Lu5  1  0.843241  0.250000  0.795841  1
  Lu  Lu6  1  0.343045  0.750000  0.704140  1
  Lu  Lu7  1  0.447644  0.750000  0.997837  1
  Lu  Lu8  1  0.946564  0.250000  0.502162  1
  Lu  Lu9  1  0.552841  0.250000  0.002369  1
  Lu  Lu10  1  0.052660  0.750000  0.497916  1
  Lu  Lu11  1  0.621229  0.750000  0.309884  1
  Lu  Lu12  1  0.823945  0.961370  0.065658  1
  Lu  Lu13  1  0.324970  0.036977  0.434083  1
  Lu  Lu14  1  0.175623  0.462437  0.934067  1
  Lu  Lu15  1  0.675779  0.538336  0.565043  1
  Lu  Lu16  1  0.175623  0.037563  0.934067  1
  Lu  Lu17  1  0.675779  0.961664  0.565043  1
  Lu  Lu18  1  0.823945  0.538630  0.065658  1
  Lu  Lu19  1  0.324970  0.463023  0.434083  1
  Co  Co20  1  0.431414  0.750000  0.491267  1
  Co  Co21  1  0.930500  0.250000  0.008051  1
  Co  Co22  1  0.568737  0.250000  0.508364  1
  Co  Co23  1  0.068894  0.750000  0.991538  1
  Sb  Sb24  1  0.931129  0.990527  0.328584  1
  Sb  Sb25  1  0.433874  0.007624  0.171823  1
  Sb  Sb26  1  0.067578  0.491430  0.671612  1
  Sb  Sb27  1  0.567416  0.508382  0.828397  1
  Sb  Sb28  1  0.067578  0.008570  0.671612  1
  Sb  Sb29  1  0.567416  0.991618  0.828397  1
  Sb  Sb30  1  0.931129  0.509473  0.328584  1
  Sb  Sb31  1  0.433874  0.492376  0.171823  1
