# generated using pymatgen
data_Ho5Si10As2Ir19
_symmetry_space_group_name_H-M   'P 1'
_cell_length_a   12.90239654
_cell_length_b   12.90736642
_cell_length_c   3.97033100
_cell_angle_alpha   90.00000000
_cell_angle_beta   90.00000000
_cell_angle_gamma   120.01274208
_symmetry_Int_Tables_number   1
_chemical_formula_structural   Ho5Si10As2Ir19
_chemical_formula_sum   'Ho5 Si10 As2 Ir19'
_cell_volume   572.54495762
_cell_formula_units_Z   1
loop_
 _symmetry_equiv_pos_site_id
 _symmetry_equiv_pos_as_xyz
  1  'x, y, z'
loop_
 _atom_site_type_symbol
 _atom_site_label
 _atom_site_symmetry_multiplicity
 _atom_site_fract_x
 _atom_site_fract_y
 _atom_site_fract_z
 _atom_site_occupancy
  Ho  Ho0  1  0.332263  0.665616  0.500000  1
  Ho  Ho1  1  0.667737  0.333352  0.500000  1
  Ho  Ho2  1  0.000000  0.807695  0.000000  1
  Ho  Ho3  1  0.186304  0.191420  0.000000  1
  Ho  Ho4  1  0.813696  0.005116  0.000000  1
  Si  Si5  1  0.000000  0.630703  0.500000  1
  Si  Si6  1  0.368087  0.367898  0.500000  1
  Si  Si7  1  0.631913  0.999812  0.500000  1
  Si  Si8  1  0.515778  0.686819  0.000000  1
  Si  Si9  1  0.312579  0.828667  0.000000  1
  Si  Si10  1  0.169681  0.481464  0.000000  1
  Si  Si11  1  0.484222  0.171041  0.000000  1
  Si  Si12  1  0.687421  0.516086  0.000000  1
  Si  Si13  1  0.830319  0.311783  0.000000  1
  Si  Si14  1  0.000000  0.183662  0.500000  1
  As  As15  1  0.821171  0.822090  0.500000  1
  As  As16  1  0.178829  0.000919  0.500000  1
  Ir  Ir17  1  0.511399  0.872896  0.000000  1
  Ir  Ir18  1  0.126979  0.637844  0.000000  1
  Ir  Ir19  1  0.361080  0.487620  0.000000  1
  Ir  Ir20  1  0.488601  0.361496  0.000000  1
  Ir  Ir21  1  0.873021  0.510864  0.000000  1
  Ir  Ir22  1  0.638920  0.126539  0.000000  1
  Ir  Ir23  1  0.000000  0.447393  0.500000  1
  Ir  Ir24  1  0.552745  0.551855  0.500000  1
  Ir  Ir25  1  0.447255  0.999111  0.500000  1
  Ir  Ir26  1  0.000000  0.284635  0.000000  1
  Ir  Ir27  1  0.712550  0.712352  0.000000  1
  Ir  Ir28  1  0.287450  0.999802  0.000000  1
  Ir  Ir29  1  0.620350  0.804151  0.500000  1
  Ir  Ir30  1  0.194643  0.816274  0.500000  1
  Ir  Ir31  1  0.182483  0.377045  0.500000  1
  Ir  Ir32  1  0.379650  0.183801  0.500000  1
  Ir  Ir33  1  0.805357  0.621632  0.500000  1
  Ir  Ir34  1  0.817517  0.194561  0.500000  1
  Ir  Ir35  1  0.000000  0.005986  0.500000  1
