# generated using pymatgen
data_Pr20Si15Hg
_symmetry_space_group_name_H-M   'P 1'
_cell_length_a   7.98236964
_cell_length_b   7.97059192
_cell_length_c   15.35208038
_cell_angle_alpha   90.03708102
_cell_angle_beta   89.67648276
_cell_angle_gamma   89.92963698
_symmetry_Int_Tables_number   1
_chemical_formula_structural   Pr20Si15Hg
_chemical_formula_sum   'Pr20 Si15 Hg1'
_cell_volume   976.74748535
_cell_formula_units_Z   1
loop_
 _symmetry_equiv_pos_site_id
 _symmetry_equiv_pos_as_xyz
  1  'x, y, z'
loop_
 _atom_site_type_symbol
 _atom_site_label
 _atom_site_symmetry_multiplicity
 _atom_site_fract_x
 _atom_site_fract_y
 _atom_site_fract_z
 _atom_site_occupancy
  Pr  Pr0  1  0.307695  0.308404  0.000252  1
  Pr  Pr1  1  0.192875  0.808957  0.249435  1
  Pr  Pr2  1  0.800161  0.186730  0.752549  1
  Pr  Pr3  1  0.692320  0.689686  0.497781  1
  Pr  Pr4  1  0.374920  0.012172  0.447952  1
  Pr  Pr5  1  0.492843  0.868798  0.699124  1
  Pr  Pr6  1  0.510399  0.121906  0.197692  1
  Pr  Pr7  1  0.878396  0.488978  0.300554  1
  Pr  Pr8  1  0.118593  0.520830  0.803786  1
  Pr  Pr9  1  0.625809  0.986973  0.951129  1
  Pr  Pr10  1  0.001157  0.383506  0.547048  1
  Pr  Pr11  1  0.989518  0.624943  0.052846  1
  Pr  Pr12  1  0.129551  0.981845  0.879564  1
  Pr  Pr13  1  0.519529  0.628934  0.126805  1
  Pr  Pr14  1  0.487157  0.376408  0.626415  1
  Pr  Pr15  1  0.629070  0.520716  0.876631  1
  Pr  Pr16  1  0.373597  0.483279  0.372029  1
  Pr  Pr17  1  0.872526  0.019653  0.375339  1
  Pr  Pr18  1  0.982529  0.126829  0.124301  1
  Pr  Pr19  1  0.009530  0.861060  0.620611  1
  Si  Si20  1  0.331739  0.695077  0.953308  1
  Si  Si21  1  0.662953  0.302352  0.450271  1
  Si  Si22  1  0.698516  0.333665  0.049369  1
  Si  Si23  1  0.306183  0.669585  0.546361  1
  Si  Si24  1  0.805858  0.832031  0.202554  1
  Si  Si25  1  0.168523  0.196391  0.298743  1
  Si  Si26  1  0.834096  0.804520  0.798754  1
  Si  Si27  1  0.287943  0.921708  0.060570  1
  Si  Si28  1  0.579871  0.787872  0.309540  1
  Si  Si29  1  0.433141  0.209536  0.815607  1
  Si  Si30  1  0.786098  0.578116  0.691589  1
  Si  Si31  1  0.212737  0.421206  0.190636  1
  Si  Si32  1  0.709297  0.079207  0.558614  1
  Si  Si33  1  0.923433  0.289981  0.941233  1
  Si  Si34  1  0.080819  0.713481  0.438534  1
  Hg  Hg35  1  0.190615  0.164667  0.692475  1
