# generated using pymatgen
data_TmLu3As6Rh7
_symmetry_space_group_name_H-M   'P 1'
_cell_length_a   7.22892723
_cell_length_b   7.21932915
_cell_length_c   7.22892675
_cell_angle_alpha   109.44432651
_cell_angle_beta   109.49809871
_cell_angle_gamma   109.44432224
_symmetry_Int_Tables_number   1
_chemical_formula_structural   TmLu3As6Rh7
_chemical_formula_sum   'Tm1 Lu3 As6 Rh7'
_cell_volume   290.51375858
_cell_formula_units_Z   1
loop_
 _symmetry_equiv_pos_site_id
 _symmetry_equiv_pos_as_xyz
  1  'x, y, z'
loop_
 _atom_site_type_symbol
 _atom_site_label
 _atom_site_symmetry_multiplicity
 _atom_site_fract_x
 _atom_site_fract_y
 _atom_site_fract_z
 _atom_site_occupancy
  Tm  Tm0  1  0.000000  0.500000  0.000000  1
  Lu  Lu1  1  0.500000  0.500000  0.500000  1
  Lu  Lu2  1  0.500000  0.000000  0.000000  1
  Lu  Lu3  1  0.000000  0.000000  0.500000  1
  As  As4  1  0.682905  0.998557  0.682905  1
  As  As5  1  0.682905  0.684347  0.000000  1
  As  As6  1  0.317095  0.315653  0.000000  1
  As  As7  1  0.000000  0.684347  0.682905  1
  As  As8  1  0.000000  0.315653  0.317095  1
  As  As9  1  0.317095  0.001443  0.317095  1
  Rh  Rh10  1  0.499647  0.749823  0.249823  1
  Rh  Rh11  1  0.750177  0.250177  0.500353  1
  Rh  Rh12  1  0.249823  0.749823  0.499647  1
  Rh  Rh13  1  0.249823  0.500000  0.750177  1
  Rh  Rh14  1  0.000000  0.000000  0.000000  1
  Rh  Rh15  1  0.500353  0.250177  0.750177  1
  Rh  Rh16  1  0.750177  0.500000  0.249823  1
