# generated using pymatgen
data_Er13Lu7(Ir3Os)3
_symmetry_space_group_name_H-M   'P 1'
_cell_length_a   10.72416615
_cell_length_b   10.73131216
_cell_length_c   6.33823118
_cell_angle_alpha   90.01965905
_cell_angle_beta   89.98059823
_cell_angle_gamma   89.99830326
_symmetry_Int_Tables_number   1
_chemical_formula_structural   Er13Lu7(Ir3Os)3
_chemical_formula_sum   'Er13 Lu7 Ir9 Os3'
_cell_volume   729.43128716
_cell_formula_units_Z   1
loop_
 _symmetry_equiv_pos_site_id
 _symmetry_equiv_pos_as_xyz
  1  'x, y, z'
loop_
 _atom_site_type_symbol
 _atom_site_label
 _atom_site_symmetry_multiplicity
 _atom_site_fract_x
 _atom_site_fract_y
 _atom_site_fract_z
 _atom_site_occupancy
  Er  Er0  1  0.706808  0.914329  0.376501  1
  Er  Er1  1  0.585490  0.793735  0.876758  1
  Er  Er2  1  0.585869  0.206433  0.376442  1
  Er  Er3  1  0.413559  0.793705  0.376544  1
  Er  Er4  1  0.414122  0.206123  0.876729  1
  Er  Er5  1  0.208831  0.413149  0.625179  1
  Er  Er6  1  0.208397  0.587023  0.120987  1
  Er  Er7  1  0.791678  0.412963  0.121102  1
  Er  Er8  1  0.791131  0.586722  0.625134  1
  Er  Er9  1  0.913090  0.708423  0.121281  1
  Er  Er10  1  0.912975  0.290898  0.625629  1
  Er  Er11  1  0.087037  0.709186  0.625431  1
  Er  Er12  1  0.087234  0.291420  0.121447  1
  Lu  Lu13  1  0.293900  0.085590  0.377026  1
  Lu  Lu14  1  0.293791  0.914696  0.877341  1
  Lu  Lu15  1  0.705996  0.085560  0.877288  1
  Lu  Lu16  1  0.000390  0.000211  0.499359  1
  Lu  Lu17  1  0.000061  0.000081  0.999295  1
  Lu  Lu18  1  0.499954  0.499874  0.999584  1
  Lu  Lu19  1  0.499932  0.499946  0.499386  1
  Ir  Ir20  1  0.848983  0.152009  0.248604  1
  Ir  Ir21  1  0.848737  0.848577  0.749865  1
  Ir  Ir22  1  0.151731  0.151217  0.748269  1
  Ir  Ir23  1  0.151412  0.848552  0.249077  1
  Ir  Ir24  1  0.652010  0.348153  0.750052  1
  Ir  Ir25  1  0.652210  0.650755  0.250095  1
  Ir  Ir26  1  0.347725  0.348461  0.250694  1
  Ir  Ir27  1  0.347983  0.651807  0.749974  1
  Ir  Ir28  1  0.000012  0.499999  0.379055  1
  Os  Os29  1  0.499483  0.000185  0.123782  1
  Os  Os30  1  0.499418  0.000174  0.624856  1
  Os  Os31  1  0.000051  0.500046  0.877240  1
