# generated using pymatgen
data_Ti5WC5
_symmetry_space_group_name_H-M   'P 1'
_cell_length_a   5.31061440
_cell_length_b   5.30767926
_cell_length_c   5.30916684
_cell_angle_alpha   99.90973045
_cell_angle_beta   99.28740820
_cell_angle_gamma   119.73748904
_symmetry_Int_Tables_number   1
_chemical_formula_structural   Ti5WC5
_chemical_formula_sum   'Ti5 W1 C5'
_cell_volume   122.56126409
_cell_formula_units_Z   1
loop_
 _symmetry_equiv_pos_site_id
 _symmetry_equiv_pos_as_xyz
  1  'x, y, z'
loop_
 _atom_site_type_symbol
 _atom_site_label
 _atom_site_symmetry_multiplicity
 _atom_site_fract_x
 _atom_site_fract_y
 _atom_site_fract_z
 _atom_site_occupancy
  Ti  Ti0  1  0.086193  0.436175  0.252129  1
  Ti  Ti1  1  0.738407  0.736634  0.263083  1
  Ti  Ti2  1  0.258226  0.262531  0.735703  1
  Ti  Ti3  1  0.912509  0.566641  0.749378  1
  Ti  Ti4  1  0.558706  0.910968  0.744974  1
  W  W5  1  0.445104  0.087502  0.256143  1
  C  C6  1  0.666940  0.332270  0.000001  1
  C  C7  1  0.333682  0.667644  0.000482  1
  C  C8  1  0.833563  0.166486  0.499673  1
  C  C9  1  0.500244  0.499307  0.499367  1
  C  C10  1  0.166427  0.833844  0.499065  1
