# generated using pymatgen
data_TiMn27Ga
_symmetry_space_group_name_H-M   'P 1'
_cell_length_a   7.52916399
_cell_length_b   7.53656512
_cell_length_c   7.53656545
_cell_angle_alpha   109.49110157
_cell_angle_beta   109.45132257
_cell_angle_gamma   109.45133030
_symmetry_Int_Tables_number   1
_chemical_formula_structural   TiMn27Ga
_chemical_formula_sum   'Ti1 Mn27 Ga1'
_cell_volume   329.28989086
_cell_formula_units_Z   1
loop_
 _symmetry_equiv_pos_site_id
 _symmetry_equiv_pos_as_xyz
  1  'x, y, z'
loop_
 _atom_site_type_symbol
 _atom_site_label
 _atom_site_symmetry_multiplicity
 _atom_site_fract_x
 _atom_site_fract_y
 _atom_site_fract_z
 _atom_site_occupancy
  Ti  Ti0  1  0.001410  0.000000  0.000000  1
  Mn  Mn1  1  0.000692  0.629833  0.000000  1
  Mn  Mn2  1  0.000692  0.000000  0.629833  1
  Mn  Mn3  1  0.370859  0.370167  0.370167  1
  Mn  Mn4  1  0.386048  0.672412  0.000000  1
  Mn  Mn5  1  0.713637  0.327588  0.327588  1
  Mn  Mn6  1  0.386048  0.000000  0.672412  1
  Mn  Mn7  1  0.678483  0.392864  0.000000  1
  Mn  Mn8  1  0.998268  0.389731  0.679035  1
  Mn  Mn9  1  0.319232  0.710695  0.320965  1
  Mn  Mn10  1  0.319232  0.320965  0.710695  1
  Mn  Mn11  1  0.998268  0.679035  0.389731  1
  Mn  Mn12  1  0.678483  0.000000  0.392864  1
  Mn  Mn13  1  0.608537  0.610269  0.289305  1
  Mn  Mn14  1  0.285619  0.607136  0.607136  1
  Mn  Mn15  1  0.608537  0.289305  0.610269  1
  Mn  Mn16  1  0.374156  0.196119  0.000000  1
  Mn  Mn17  1  0.178037  0.803881  0.803881  1
  Mn  Mn18  1  0.374156  0.000000  0.196119  1
  Mn  Mn19  1  0.197631  0.373594  0.000000  1
  Mn  Mn20  1  0.000507  0.373445  0.194321  1
  Mn  Mn21  1  0.806186  0.179123  0.805679  1
  Mn  Mn22  1  0.806186  0.805679  0.179123  1
  Mn  Mn23  1  0.000507  0.194321  0.373445  1
  Mn  Mn24  1  0.197631  0.000000  0.373594  1
  Mn  Mn25  1  0.627063  0.626555  0.820877  1
  Mn  Mn26  1  0.824037  0.626406  0.626406  1
  Mn  Mn27  1  0.627063  0.820877  0.626555  1
  Ga  Ga28  1  0.632794  0.000000  0.000000  1
