# generated using pymatgen
data_PtRh3Pb16
_symmetry_space_group_name_H-M   'P 1'
_cell_length_a   13.39458160
_cell_length_b   13.39458232
_cell_length_c   13.40006732
_cell_angle_alpha   151.28489724
_cell_angle_beta   151.28490110
_cell_angle_gamma   40.99580584
_symmetry_Int_Tables_number   1
_chemical_formula_structural   PtRh3Pb16
_chemical_formula_sum   'Pt1 Rh3 Pb16'
_cell_volume   553.88905331
_cell_formula_units_Z   1
loop_
 _symmetry_equiv_pos_site_id
 _symmetry_equiv_pos_as_xyz
  1  'x, y, z'
loop_
 _atom_site_type_symbol
 _atom_site_label
 _atom_site_symmetry_multiplicity
 _atom_site_fract_x
 _atom_site_fract_y
 _atom_site_fract_z
 _atom_site_occupancy
  Pt  Pt0  1  0.750000  0.750000  0.000000  1
  Rh  Rh1  1  0.250000  0.250000  0.000000  1
  Rh  Rh2  1  0.000000  0.500000  0.500000  1
  Rh  Rh3  1  0.500000  0.000000  0.500000  1
  Pb  Pb4  1  0.141897  0.633216  0.150001  1
  Pb  Pb5  1  0.635517  0.486556  0.497201  1
  Pb  Pb6  1  0.883233  0.886365  0.647165  1
  Pb  Pb7  1  0.383094  0.736081  0.996452  1
  Pb  Pb8  1  0.613635  0.616767  0.352835  1
  Pb  Pb9  1  0.113358  0.760371  0.996452  1
  Pb  Pb10  1  0.866784  0.358103  0.849999  1
  Pb  Pb11  1  0.361685  0.510647  0.497201  1
  Pb  Pb12  1  0.989353  0.138315  0.502799  1
  Pb  Pb13  1  0.483215  0.991897  0.849999  1
  Pb  Pb14  1  0.739629  0.386642  0.003548  1
  Pb  Pb15  1  0.239201  0.236068  0.352835  1
  Pb  Pb16  1  0.763919  0.116906  0.003548  1
  Pb  Pb17  1  0.263932  0.260799  0.647165  1
  Pb  Pb18  1  0.013444  0.864483  0.502799  1
  Pb  Pb19  1  0.508103  0.016785  0.150001  1
