# generated using pymatgen
data_Dy4HfSc3Pt4
_symmetry_space_group_name_H-M   'P 1'
_cell_length_a   4.65307300
_cell_length_b   6.98477552
_cell_length_c   8.36066346
_cell_angle_alpha   89.39781314
_cell_angle_beta   90.00000000
_cell_angle_gamma   90.00000000
_symmetry_Int_Tables_number   1
_chemical_formula_structural   Dy4HfSc3Pt4
_chemical_formula_sum   'Dy4 Hf1 Sc3 Pt4'
_cell_volume   271.71215944
_cell_formula_units_Z   1
loop_
 _symmetry_equiv_pos_site_id
 _symmetry_equiv_pos_as_xyz
  1  'x, y, z'
loop_
 _atom_site_type_symbol
 _atom_site_label
 _atom_site_symmetry_multiplicity
 _atom_site_fract_x
 _atom_site_fract_y
 _atom_site_fract_z
 _atom_site_occupancy
  Dy  Dy0  1  0.250000  0.982453  0.323306  1
  Dy  Dy1  1  0.250000  0.483417  0.178886  1
  Dy  Dy2  1  0.750000  0.017086  0.674001  1
  Dy  Dy3  1  0.750000  0.519216  0.823113  1
  Hf  Hf4  1  0.750000  0.140885  0.072683  1
  Sc  Sc5  1  0.250000  0.355869  0.574938  1
  Sc  Sc6  1  0.250000  0.858786  0.924450  1
  Sc  Sc7  1  0.750000  0.639570  0.427599  1
  Pt  Pt8  1  0.250000  0.242090  0.909851  1
  Pt  Pt9  1  0.250000  0.743698  0.599072  1
  Pt  Pt10  1  0.750000  0.762014  0.097525  1
  Pt  Pt11  1  0.750000  0.254918  0.394576  1
