# generated using pymatgen
data_La2ThTe5
_symmetry_space_group_name_H-M   'P 1'
_cell_length_a   8.56043300
_cell_length_b   9.26350400
_cell_length_c   13.60784200
_cell_angle_alpha   90.00000000
_cell_angle_beta   90.00000000
_cell_angle_gamma   90.00000000
_symmetry_Int_Tables_number   1
_chemical_formula_structural   La2ThTe5
_chemical_formula_sum   'La8 Th4 Te20'
_cell_volume   1079.09650009
_cell_formula_units_Z   4
loop_
 _symmetry_equiv_pos_site_id
 _symmetry_equiv_pos_as_xyz
  1  'x, y, z'
loop_
 _atom_site_type_symbol
 _atom_site_label
 _atom_site_symmetry_multiplicity
 _atom_site_fract_x
 _atom_site_fract_y
 _atom_site_fract_z
 _atom_site_occupancy
  La  La0  1  0.527581  0.498810  0.321644  1
  La  La1  1  0.972419  0.001190  0.821644  1
  La  La2  1  0.472419  0.998810  0.678356  1
  La  La3  1  0.027581  0.501190  0.178356  1
  La  La4  1  0.472419  0.501190  0.678356  1
  La  La5  1  0.027581  0.998810  0.178356  1
  La  La6  1  0.527581  0.001190  0.321644  1
  La  La7  1  0.972419  0.498810  0.821644  1
  Th  Th8  1  0.077296  0.750000  0.490877  1
  Th  Th9  1  0.422704  0.750000  0.990877  1
  Th  Th10  1  0.922704  0.250000  0.509123  1
  Th  Th11  1  0.577296  0.250000  0.009123  1
  Te  Te12  1  0.830985  0.954040  0.596502  1
  Te  Te13  1  0.669015  0.545960  0.096502  1
  Te  Te14  1  0.169015  0.454040  0.403498  1
  Te  Te15  1  0.330985  0.045960  0.903498  1
  Te  Te16  1  0.169015  0.045960  0.403498  1
  Te  Te17  1  0.330985  0.454040  0.903498  1
  Te  Te18  1  0.830985  0.545960  0.596502  1
  Te  Te19  1  0.669015  0.954040  0.096502  1
  Te  Te20  1  0.829864  0.750000  0.314028  1
  Te  Te21  1  0.670136  0.750000  0.814028  1
  Te  Te22  1  0.170136  0.250000  0.685972  1
  Te  Te23  1  0.329864  0.250000  0.185972  1
  Te  Te24  1  0.458767  0.750000  0.499019  1
  Te  Te25  1  0.041233  0.750000  0.999019  1
  Te  Te26  1  0.541233  0.250000  0.500981  1
  Te  Te27  1  0.958767  0.250000  0.000981  1
  Te  Te28  1  0.194219  0.750000  0.716095  1
  Te  Te29  1  0.305781  0.750000  0.216095  1
  Te  Te30  1  0.805781  0.250000  0.283905  1
  Te  Te31  1  0.694219  0.250000  0.783905  1
