# generated using pymatgen
data_Er4Sc6Ga7Ge
_symmetry_space_group_name_H-M   'P 1'
_cell_length_a   7.24005790
_cell_length_b   7.47894205
_cell_length_c   14.45288100
_cell_angle_alpha   90.00000000
_cell_angle_beta   90.00000000
_cell_angle_gamma   90.15414360
_symmetry_Int_Tables_number   1
_chemical_formula_structural   Er4Sc6Ga7Ge
_chemical_formula_sum   'Er8 Sc12 Ga14 Ge2'
_cell_volume   782.59138532
_cell_formula_units_Z   2
loop_
 _symmetry_equiv_pos_site_id
 _symmetry_equiv_pos_as_xyz
  1  'x, y, z'
loop_
 _atom_site_type_symbol
 _atom_site_label
 _atom_site_symmetry_multiplicity
 _atom_site_fract_x
 _atom_site_fract_y
 _atom_site_fract_z
 _atom_site_occupancy
  Er  Er0  1  0.011899  0.178435  0.095666  1
  Er  Er1  1  0.988101  0.821565  0.904334  1
  Er  Er2  1  0.488467  0.678475  0.904867  1
  Er  Er3  1  0.988101  0.821565  0.595666  1
  Er  Er4  1  0.511533  0.321525  0.095133  1
  Er  Er5  1  0.011899  0.178435  0.404334  1
  Er  Er6  1  0.511533  0.321525  0.404867  1
  Er  Er7  1  0.488467  0.678475  0.595133  1
  Sc  Sc8  1  0.162015  0.503475  0.750000  1
  Sc  Sc9  1  0.837985  0.496525  0.250000  1
  Sc  Sc10  1  0.337054  0.004752  0.250000  1
  Sc  Sc11  1  0.662946  0.995248  0.750000  1
  Sc  Sc12  1  0.330831  0.174007  0.622761  1
  Sc  Sc13  1  0.669169  0.825993  0.377239  1
  Sc  Sc14  1  0.170680  0.672316  0.376573  1
  Sc  Sc15  1  0.669169  0.825993  0.122761  1
  Sc  Sc16  1  0.829320  0.327684  0.623427  1
  Sc  Sc17  1  0.330831  0.174007  0.877239  1
  Sc  Sc18  1  0.829320  0.327684  0.876573  1
  Sc  Sc19  1  0.170680  0.672316  0.123427  1
  Ga  Ga20  1  0.032730  0.117557  0.750000  1
  Ga  Ga21  1  0.967270  0.882443  0.250000  1
  Ga  Ga22  1  0.469708  0.615060  0.250000  1
  Ga  Ga23  1  0.530292  0.384940  0.750000  1
  Ga  Ga24  1  0.285099  0.871031  0.750000  1
  Ga  Ga25  1  0.714901  0.128969  0.250000  1
  Ga  Ga26  1  0.159537  0.465644  0.540786  1
  Ga  Ga27  1  0.840463  0.534356  0.459214  1
  Ga  Ga28  1  0.338506  0.965455  0.459049  1
  Ga  Ga29  1  0.840463  0.534356  0.040786  1
  Ga  Ga30  1  0.661494  0.034545  0.540951  1
  Ga  Ga31  1  0.159537  0.465644  0.959214  1
  Ga  Ga32  1  0.661494  0.034545  0.959049  1
  Ga  Ga33  1  0.338506  0.965455  0.040951  1
  Ge  Ge34  1  0.213622  0.371416  0.250000  1
  Ge  Ge35  1  0.786378  0.628584  0.750000  1
