# generated using pymatgen
data_Nb12ZnCr3(Ga2N)4
_symmetry_space_group_name_H-M   'P 1'
_cell_length_a   8.24893147
_cell_length_b   8.24893160
_cell_length_c   8.24893228
_cell_angle_alpha   60.19692323
_cell_angle_beta   60.19692313
_cell_angle_gamma   60.19692728
_symmetry_Int_Tables_number   1
_chemical_formula_structural   Nb12ZnCr3(Ga2N)4
_chemical_formula_sum   'Nb12 Zn1 Cr3 Ga8 N4'
_cell_volume   398.66713725
_cell_formula_units_Z   1
loop_
 _symmetry_equiv_pos_site_id
 _symmetry_equiv_pos_as_xyz
  1  'x, y, z'
loop_
 _atom_site_type_symbol
 _atom_site_label
 _atom_site_symmetry_multiplicity
 _atom_site_fract_x
 _atom_site_fract_y
 _atom_site_fract_z
 _atom_site_occupancy
  Nb  Nb0  1  0.445524  0.445524  0.054903  1
  Nb  Nb1  1  0.054600  0.445662  0.054600  1
  Nb  Nb2  1  0.445662  0.054600  0.054600  1
  Nb  Nb3  1  0.054600  0.054600  0.445662  1
  Nb  Nb4  1  0.445524  0.054903  0.445524  1
  Nb  Nb5  1  0.054903  0.445524  0.445524  1
  Nb  Nb6  1  0.804476  0.804476  0.195097  1
  Nb  Nb7  1  0.195400  0.804338  0.195400  1
  Nb  Nb8  1  0.804338  0.195400  0.195400  1
  Nb  Nb9  1  0.195400  0.195400  0.804338  1
  Nb  Nb10  1  0.804476  0.195097  0.804476  1
  Nb  Nb11  1  0.195097  0.804476  0.804476  1
  Zn  Zn12  1  0.625000  0.625000  0.625000  1
  Cr  Cr13  1  0.625000  0.625000  0.125000  1
  Cr  Cr14  1  0.625000  0.125000  0.625000  1
  Cr  Cr15  1  0.125000  0.625000  0.625000  1
  Ga  Ga16  1  0.838236  0.838236  0.489867  1
  Ga  Ga17  1  0.838236  0.489867  0.838236  1
  Ga  Ga18  1  0.489867  0.838236  0.838236  1
  Ga  Ga19  1  0.836766  0.836766  0.836766  1
  Ga  Ga20  1  0.411764  0.411764  0.760133  1
  Ga  Ga21  1  0.411764  0.760133  0.411764  1
  Ga  Ga22  1  0.760133  0.411764  0.411764  1
  Ga  Ga23  1  0.413234  0.413234  0.413234  1
  N  N24  1  0.125000  0.125000  0.625000  1
  N  N25  1  0.125000  0.625000  0.125000  1
  N  N26  1  0.625000  0.125000  0.125000  1
  N  N27  1  0.125000  0.125000  0.125000  1
