# generated using pymatgen
data_Zr2Mn2NbGa6
_symmetry_space_group_name_H-M   'P 1'
_cell_length_a   5.37248700
_cell_length_b   7.67122400
_cell_length_c   8.71774700
_cell_angle_alpha   90.00000000
_cell_angle_beta   90.00000000
_cell_angle_gamma   90.00000000
_symmetry_Int_Tables_number   1
_chemical_formula_structural   Zr2Mn2NbGa6
_chemical_formula_sum   'Zr4 Mn4 Nb2 Ga12'
_cell_volume   359.28931246
_cell_formula_units_Z   2
loop_
 _symmetry_equiv_pos_site_id
 _symmetry_equiv_pos_as_xyz
  1  'x, y, z'
loop_
 _atom_site_type_symbol
 _atom_site_label
 _atom_site_symmetry_multiplicity
 _atom_site_fract_x
 _atom_site_fract_y
 _atom_site_fract_z
 _atom_site_occupancy
  Zr  Zr0  1  0.500000  0.155898  0.780840  1
  Zr  Zr1  1  0.500000  0.155898  0.219160  1
  Zr  Zr2  1  0.000000  0.844102  0.719160  1
  Zr  Zr3  1  0.000000  0.844102  0.280840  1
  Mn  Mn4  1  0.250000  0.500000  0.250000  1
  Mn  Mn5  1  0.250000  0.500000  0.750000  1
  Mn  Mn6  1  0.750000  0.500000  0.250000  1
  Mn  Mn7  1  0.750000  0.500000  0.750000  1
  Nb  Nb8  1  0.500000  0.717897  0.500000  1
  Nb  Nb9  1  0.000000  0.282103  0.000000  1
  Ga  Ga10  1  0.500000  0.765414  0.190938  1
  Ga  Ga11  1  0.500000  0.765414  0.809062  1
  Ga  Ga12  1  0.000000  0.234586  0.309062  1
  Ga  Ga13  1  0.000000  0.234586  0.690938  1
  Ga  Ga14  1  0.500000  0.372260  0.500000  1
  Ga  Ga15  1  0.000000  0.627740  0.000000  1
  Ga  Ga16  1  0.000000  0.564766  0.500000  1
  Ga  Ga17  1  0.500000  0.435234  0.000000  1
  Ga  Ga18  1  0.260784  0.038874  0.500000  1
  Ga  Ga19  1  0.739216  0.038874  0.500000  1
  Ga  Ga20  1  0.239216  0.961126  0.000000  1
  Ga  Ga21  1  0.760784  0.961126  0.000000  1
