# generated using pymatgen
data_Ta12Al3Pt5N4
_symmetry_space_group_name_H-M   'P 1'
_cell_length_a   7.04047033
_cell_length_b   7.04031703
_cell_length_c   7.03982600
_cell_angle_alpha   90.23620749
_cell_angle_beta   89.80764974
_cell_angle_gamma   89.81061679
_symmetry_Int_Tables_number   1
_chemical_formula_structural   Ta12Al3Pt5N4
_chemical_formula_sum   'Ta12 Al3 Pt5 N4'
_cell_volume   348.93720944
_cell_formula_units_Z   1
loop_
 _symmetry_equiv_pos_site_id
 _symmetry_equiv_pos_as_xyz
  1  'x, y, z'
loop_
 _atom_site_type_symbol
 _atom_site_label
 _atom_site_symmetry_multiplicity
 _atom_site_fract_x
 _atom_site_fract_y
 _atom_site_fract_z
 _atom_site_occupancy
  Ta  Ta0  1  0.790555  0.957461  0.376388  1
  Ta  Ta1  1  0.708108  0.048895  0.881373  1
  Ta  Ta2  1  0.212745  0.454044  0.125138  1
  Ta  Ta3  1  0.295803  0.540357  0.628920  1
  Ta  Ta4  1  0.950907  0.381336  0.791585  1
  Ta  Ta5  1  0.042240  0.876372  0.709197  1
  Ta  Ta6  1  0.460010  0.129049  0.204632  1
  Ta  Ta7  1  0.546221  0.625019  0.287530  1
  Ta  Ta8  1  0.375056  0.787250  0.953782  1
  Ta  Ta9  1  0.871075  0.704104  0.040098  1
  Ta  Ta10  1  0.123958  0.209645  0.457865  1
  Ta  Ta11  1  0.618745  0.291725  0.549264  1
  Al  Al12  1  0.072725  0.067028  0.071879  1
  Al  Al13  1  0.427773  0.927634  0.566795  1
  Al  Al14  1  0.933402  0.571664  0.426900  1
  Pt  Pt15  1  0.179040  0.821283  0.320075  1
  Pt  Pt16  1  0.310466  0.167309  0.816138  1
  Pt  Pt17  1  0.832941  0.314809  0.188717  1
  Pt  Pt18  1  0.684628  0.689119  0.667388  1
  Pt  Pt19  1  0.565270  0.434518  0.934902  1
  N  N20  1  0.872148  0.127564  0.627562  1
  N  N21  1  0.622858  0.874366  0.122249  1
  N  N22  1  0.125348  0.622119  0.876793  1
  N  N23  1  0.377974  0.377329  0.374832  1
