# generated using pymatgen
data_PrNp(In2Cl5)2
_symmetry_space_group_name_H-M   'P 1'
_cell_length_a   8.16518500
_cell_length_b   8.92268200
_cell_length_c   13.06263800
_cell_angle_alpha   90.00000000
_cell_angle_beta   90.00000000
_cell_angle_gamma   90.00000000
_symmetry_Int_Tables_number   1
_chemical_formula_structural   PrNp(In2Cl5)2
_chemical_formula_sum   'Pr2 Np2 In8 Cl20'
_cell_volume   951.68305331
_cell_formula_units_Z   2
loop_
 _symmetry_equiv_pos_site_id
 _symmetry_equiv_pos_as_xyz
  1  'x, y, z'
loop_
 _atom_site_type_symbol
 _atom_site_label
 _atom_site_symmetry_multiplicity
 _atom_site_fract_x
 _atom_site_fract_y
 _atom_site_fract_z
 _atom_site_occupancy
  Pr  Pr0  1  0.073315  0.250000  0.494517  1
  Pr  Pr1  1  0.426685  0.250000  0.994517  1
  Np  Np2  1  0.926826  0.750000  0.504080  1
  Np  Np3  1  0.573174  0.750000  0.004080  1
  In  In4  1  0.942663  0.008549  0.829595  1
  In  In5  1  0.057084  0.991692  0.170219  1
  In  In6  1  0.557337  0.491451  0.329595  1
  In  In7  1  0.057084  0.508308  0.170219  1
  In  In8  1  0.942663  0.491451  0.829595  1
  In  In9  1  0.442916  0.508308  0.670219  1
  In  In10  1  0.557337  0.008549  0.329595  1
  In  In11  1  0.442916  0.991692  0.670219  1
  Cl  Cl12  1  0.582609  0.750000  0.506625  1
  Cl  Cl13  1  0.167384  0.954915  0.429315  1
  Cl  Cl14  1  0.833057  0.042420  0.571305  1
  Cl  Cl15  1  0.332616  0.545085  0.929315  1
  Cl  Cl16  1  0.167384  0.545085  0.429315  1
  Cl  Cl17  1  0.345333  0.250000  0.204628  1
  Cl  Cl18  1  0.332616  0.954915  0.929315  1
  Cl  Cl19  1  0.833057  0.457580  0.571305  1
  Cl  Cl20  1  0.394754  0.750000  0.184825  1
  Cl  Cl21  1  0.666943  0.042420  0.071305  1
  Cl  Cl22  1  0.154667  0.250000  0.704628  1
  Cl  Cl23  1  0.608665  0.250000  0.812767  1
  Cl  Cl24  1  0.420033  0.250000  0.493730  1
  Cl  Cl25  1  0.105246  0.750000  0.684825  1
  Cl  Cl26  1  0.666943  0.457580  0.071305  1
  Cl  Cl27  1  0.079967  0.250000  0.993730  1
  Cl  Cl28  1  0.917391  0.750000  0.006625  1
  Cl  Cl29  1  0.845626  0.750000  0.297962  1
  Cl  Cl30  1  0.654374  0.750000  0.797962  1
  Cl  Cl31  1  0.891335  0.250000  0.312767  1
