# generated using pymatgen
data_Y7Sn23(RuRh)3
_symmetry_space_group_name_H-M   'P 1'
_cell_length_a   9.89082800
_cell_length_b   9.89083046
_cell_length_c   10.07513400
_cell_angle_alpha   90.00000000
_cell_angle_beta   90.00000000
_cell_angle_gamma   120.00000515
_symmetry_Int_Tables_number   1
_chemical_formula_structural   Y7Sn23(RuRh)3
_chemical_formula_sum   'Y7 Sn23 Ru3 Rh3'
_cell_volume   853.58514315
_cell_formula_units_Z   1
loop_
 _symmetry_equiv_pos_site_id
 _symmetry_equiv_pos_as_xyz
  1  'x, y, z'
loop_
 _atom_site_type_symbol
 _atom_site_label
 _atom_site_symmetry_multiplicity
 _atom_site_fract_x
 _atom_site_fract_y
 _atom_site_fract_z
 _atom_site_occupancy
  Y  Y0  1  0.000000  0.000000  0.994938  1
  Y  Y1  1  0.041320  0.520660  0.307162  1
  Y  Y2  1  0.479340  0.958680  0.307162  1
  Y  Y3  1  0.479340  0.520660  0.307162  1
  Y  Y4  1  0.962448  0.481223  0.693850  1
  Y  Y5  1  0.518777  0.037552  0.693850  1
  Y  Y6  1  0.518777  0.481223  0.693850  1
  Sn  Sn7  1  0.000000  0.000000  0.496158  1
  Sn  Sn8  1  0.118313  0.881687  0.279509  1
  Sn  Sn9  1  0.763373  0.881687  0.279509  1
  Sn  Sn10  1  0.118313  0.236627  0.279509  1
  Sn  Sn11  1  0.883044  0.116956  0.723247  1
  Sn  Sn12  1  0.233912  0.116956  0.723247  1
  Sn  Sn13  1  0.883044  0.766088  0.723247  1
  Sn  Sn14  1  0.349619  0.998916  0.999585  1
  Sn  Sn15  1  0.649297  0.650381  0.999585  1
  Sn  Sn16  1  0.001084  0.350703  0.999585  1
  Sn  Sn17  1  0.349619  0.350703  0.999585  1
  Sn  Sn18  1  0.001084  0.650381  0.999585  1
  Sn  Sn19  1  0.649297  0.998916  0.999585  1
  Sn  Sn20  1  0.778603  0.557206  0.456854  1
  Sn  Sn21  1  0.778603  0.221397  0.456854  1
  Sn  Sn22  1  0.442794  0.221397  0.456854  1
  Sn  Sn23  1  0.221439  0.442878  0.544098  1
  Sn  Sn24  1  0.221439  0.778561  0.544098  1
  Sn  Sn25  1  0.557122  0.778561  0.544098  1
  Sn  Sn26  1  0.666667  0.333333  0.182471  1
  Sn  Sn27  1  0.333333  0.666667  0.817807  1
  Sn  Sn28  1  0.666667  0.333333  0.880146  1
  Sn  Sn29  1  0.333333  0.666667  0.120438  1
  Ru  Ru30  1  0.168279  0.831721  0.800057  1
  Ru  Ru31  1  0.663442  0.831721  0.800057  1
  Ru  Ru32  1  0.168279  0.336558  0.800057  1
  Rh  Rh33  1  0.830671  0.169329  0.198732  1
  Rh  Rh34  1  0.338658  0.169329  0.198732  1
  Rh  Rh35  1  0.830671  0.661342  0.198732  1
