# generated using pymatgen
data_SmLu2Co8ReP6
_symmetry_space_group_name_H-M   'P 1'
_cell_length_a   3.71009800
_cell_length_b   10.48803700
_cell_length_c   12.19791900
_cell_angle_alpha   90.00000000
_cell_angle_beta   90.00000000
_cell_angle_gamma   90.00000000
_symmetry_Int_Tables_number   1
_chemical_formula_structural   SmLu2Co8ReP6
_chemical_formula_sum   'Sm2 Lu4 Co16 Re2 P12'
_cell_volume   474.64109506
_cell_formula_units_Z   2
loop_
 _symmetry_equiv_pos_site_id
 _symmetry_equiv_pos_as_xyz
  1  'x, y, z'
loop_
 _atom_site_type_symbol
 _atom_site_label
 _atom_site_symmetry_multiplicity
 _atom_site_fract_x
 _atom_site_fract_y
 _atom_site_fract_z
 _atom_site_occupancy
  Sm  Sm0  1  0.000000  0.500000  0.525236  1
  Sm  Sm1  1  0.500000  0.000000  0.474764  1
  Lu  Lu2  1  0.500000  0.818455  0.204811  1
  Lu  Lu3  1  0.500000  0.181545  0.204811  1
  Lu  Lu4  1  0.000000  0.681545  0.795189  1
  Lu  Lu5  1  0.000000  0.318455  0.795189  1
  Co  Co6  1  0.500000  0.500000  0.704619  1
  Co  Co7  1  0.000000  0.000000  0.295381  1
  Co  Co8  1  0.000000  0.500000  0.987272  1
  Co  Co9  1  0.500000  0.000000  0.012728  1
  Co  Co10  1  0.500000  0.332390  0.988937  1
  Co  Co11  1  0.500000  0.667610  0.988937  1
  Co  Co12  1  0.000000  0.167610  0.011063  1
  Co  Co13  1  0.000000  0.832390  0.011063  1
  Co  Co14  1  0.500000  0.295976  0.429605  1
  Co  Co15  1  0.500000  0.704024  0.429605  1
  Co  Co16  1  0.000000  0.204024  0.570395  1
  Co  Co17  1  0.000000  0.795976  0.570395  1
  Co  Co18  1  0.500000  0.878411  0.710773  1
  Co  Co19  1  0.500000  0.121589  0.710773  1
  Co  Co20  1  0.000000  0.621589  0.289227  1
  Co  Co21  1  0.000000  0.378411  0.289227  1
  Re  Re22  1  0.500000  0.500000  0.154702  1
  Re  Re23  1  0.000000  0.000000  0.845298  1
  P  P24  1  0.500000  0.500000  0.879857  1
  P  P25  1  0.000000  0.000000  0.120143  1
  P  P26  1  0.500000  0.500000  0.346897  1
  P  P27  1  0.000000  0.000000  0.653103  1
  P  P28  1  0.500000  0.310205  0.618494  1
  P  P29  1  0.500000  0.689795  0.618494  1
  P  P30  1  0.000000  0.189795  0.381506  1
  P  P31  1  0.000000  0.810205  0.381506  1
  P  P32  1  0.500000  0.844846  0.892280  1
  P  P33  1  0.500000  0.155154  0.892280  1
  P  P34  1  0.000000  0.655154  0.107720  1
  P  P35  1  0.000000  0.344846  0.107720  1
