# generated using pymatgen
data_BaSr5(Hg2Pb)6
_symmetry_space_group_name_H-M   'P 1'
_cell_length_a   5.41747955
_cell_length_b   7.95906300
_cell_length_c   16.55602991
_cell_angle_alpha   90.00000000
_cell_angle_beta   90.98271317
_cell_angle_gamma   90.00000000
_symmetry_Int_Tables_number   1
_chemical_formula_structural   BaSr5(Hg2Pb)6
_chemical_formula_sum   'Ba1 Sr5 Hg12 Pb6'
_cell_volume   713.75890900
_cell_formula_units_Z   1
loop_
 _symmetry_equiv_pos_site_id
 _symmetry_equiv_pos_as_xyz
  1  'x, y, z'
loop_
 _atom_site_type_symbol
 _atom_site_label
 _atom_site_symmetry_multiplicity
 _atom_site_fract_x
 _atom_site_fract_y
 _atom_site_fract_z
 _atom_site_occupancy
  Ba  Ba0  1  0.500086  0.500000  0.833500  1
  Sr  Sr1  1  0.000084  0.000000  0.000437  1
  Sr  Sr2  1  0.499675  0.500000  0.166148  1
  Sr  Sr3  1  0.000081  0.000000  0.333501  1
  Sr  Sr4  1  0.499937  0.500000  0.500384  1
  Sr  Sr5  1  0.000170  0.000000  0.666114  1
  Hg  Hg6  1  0.499958  0.247384  0.002590  1
  Hg  Hg7  1  0.499958  0.752616  0.002590  1
  Hg  Hg8  1  0.999939  0.248381  0.167370  1
  Hg  Hg9  1  0.999939  0.751619  0.167370  1
  Hg  Hg10  1  0.499705  0.252226  0.333229  1
  Hg  Hg11  1  0.499705  0.747774  0.333229  1
  Hg  Hg12  1  0.999949  0.248564  0.499418  1
  Hg  Hg13  1  0.999949  0.751437  0.499418  1
  Hg  Hg14  1  0.500115  0.247751  0.664161  1
  Hg  Hg15  1  0.500115  0.752249  0.664161  1
  Hg  Hg16  1  0.000371  0.240630  0.833270  1
  Hg  Hg17  1  0.000371  0.759370  0.833270  1
  Pb  Pb18  1  0.000476  0.500000  0.001245  1
  Pb  Pb19  1  0.499752  0.000000  0.167259  1
  Pb  Pb20  1  0.998808  0.500000  0.333315  1
  Pb  Pb21  1  0.500608  0.000000  0.499392  1
  Pb  Pb22  1  0.999693  0.500000  0.665440  1
  Pb  Pb23  1  0.500552  0.000000  0.833193  1
