# generated using pymatgen
data_Tb(DySn)4
_symmetry_space_group_name_H-M   'P 1'
_cell_length_a   8.04650400
_cell_length_b   8.20441700
_cell_length_c   15.46995900
_cell_angle_alpha   90.00000000
_cell_angle_beta   90.00000000
_cell_angle_gamma   90.00000000
_symmetry_Int_Tables_number   1
_chemical_formula_structural   Tb(DySn)4
_chemical_formula_sum   'Tb4 Dy16 Sn16'
_cell_volume   1021.27833731
_cell_formula_units_Z   4
loop_
 _symmetry_equiv_pos_site_id
 _symmetry_equiv_pos_as_xyz
  1  'x, y, z'
loop_
 _atom_site_type_symbol
 _atom_site_label
 _atom_site_symmetry_multiplicity
 _atom_site_fract_x
 _atom_site_fract_y
 _atom_site_fract_z
 _atom_site_occupancy
  Tb  Tb0  1  0.479710  0.679892  0.097751  1
  Tb  Tb1  1  0.979710  0.820108  0.402249  1
  Tb  Tb2  1  0.520290  0.320108  0.597751  1
  Tb  Tb3  1  0.020290  0.179892  0.902249  1
  Dy  Dy4  1  0.367675  0.835975  0.878108  1
  Dy  Dy5  1  0.867675  0.664025  0.621892  1
  Dy  Dy6  1  0.632325  0.164025  0.378108  1
  Dy  Dy7  1  0.132325  0.335975  0.121892  1
  Dy  Dy8  1  0.632352  0.164033  0.121850  1
  Dy  Dy9  1  0.132352  0.335967  0.378150  1
  Dy  Dy10  1  0.367648  0.835967  0.621850  1
  Dy  Dy11  1  0.867648  0.664033  0.878150  1
  Dy  Dy12  1  0.520449  0.320125  0.902003  1
  Dy  Dy13  1  0.020449  0.179875  0.597997  1
  Dy  Dy14  1  0.479551  0.679875  0.402003  1
  Dy  Dy15  1  0.979551  0.820125  0.097997  1
  Dy  Dy16  1  0.198823  0.502573  0.750054  1
  Dy  Dy17  1  0.698823  0.997427  0.749946  1
  Dy  Dy18  1  0.801177  0.497427  0.250054  1
  Dy  Dy19  1  0.301177  0.002573  0.249946  1
  Sn  Sn20  1  0.292375  0.035141  0.041983  1
  Sn  Sn21  1  0.792375  0.464859  0.458017  1
  Sn  Sn22  1  0.707625  0.964859  0.541983  1
  Sn  Sn23  1  0.207625  0.535141  0.958017  1
  Sn  Sn24  1  0.707244  0.964620  0.958230  1
  Sn  Sn25  1  0.207244  0.535380  0.541770  1
  Sn  Sn26  1  0.292756  0.035380  0.458230  1
  Sn  Sn27  1  0.792756  0.464620  0.041770  1
  Sn  Sn28  1  0.565257  0.619113  0.749988  1
  Sn  Sn29  1  0.065257  0.880887  0.750012  1
  Sn  Sn30  1  0.434743  0.380887  0.249988  1
  Sn  Sn31  1  0.934743  0.119113  0.250012  1
  Sn  Sn32  1  0.328762  0.146536  0.750119  1
  Sn  Sn33  1  0.828762  0.353464  0.749881  1
  Sn  Sn34  1  0.671238  0.853464  0.250119  1
  Sn  Sn35  1  0.171238  0.646536  0.249881  1
