# generated using pymatgen
data_Yb11Pr8DyPt16
_symmetry_space_group_name_H-M   'P 1'
_cell_length_a   7.55862122
_cell_length_b   7.73933465
_cell_length_c   14.50417400
_cell_angle_alpha   89.95671353
_cell_angle_beta   90.11496881
_cell_angle_gamma   90.11820463
_symmetry_Int_Tables_number   1
_chemical_formula_structural   Yb11Pr8DyPt16
_chemical_formula_sum   'Yb11 Pr8 Dy1 Pt16'
_cell_volume   848.47155762
_cell_formula_units_Z   1
loop_
 _symmetry_equiv_pos_site_id
 _symmetry_equiv_pos_as_xyz
  1  'x, y, z'
loop_
 _atom_site_type_symbol
 _atom_site_label
 _atom_site_symmetry_multiplicity
 _atom_site_fract_x
 _atom_site_fract_y
 _atom_site_fract_z
 _atom_site_occupancy
  Yb  Yb0  1  0.336021  0.167220  0.624833  1
  Yb  Yb1  1  0.663354  0.831562  0.376058  1
  Yb  Yb2  1  0.671168  0.003789  0.749680  1
  Yb  Yb3  1  0.163361  0.666848  0.375701  1
  Yb  Yb4  1  0.838409  0.333977  0.874980  1
  Yb  Yb5  1  0.835647  0.331584  0.624596  1
  Yb  Yb6  1  0.830112  0.501464  0.251387  1
  Yb  Yb7  1  0.326271  0.997692  0.251260  1
  Yb  Yb8  1  0.336973  0.166773  0.875734  1
  Yb  Yb9  1  0.162563  0.668261  0.124042  1
  Yb  Yb10  1  0.171025  0.495066  0.749318  1
  Pr  Pr11  1  0.003850  0.180402  0.404407  1
  Pr  Pr12  1  0.504163  0.319153  0.404252  1
  Pr  Pr13  1  0.494417  0.678076  0.901817  1
  Pr  Pr14  1  0.495758  0.678068  0.597199  1
  Pr  Pr15  1  0.995037  0.820368  0.596607  1
  Pr  Pr16  1  0.996402  0.821088  0.902959  1
  Pr  Pr17  1  0.504765  0.321681  0.096563  1
  Pr  Pr18  1  0.007080  0.181138  0.095756  1
  Dy  Dy19  1  0.663751  0.832828  0.125142  1
  Pt  Pt20  1  0.297687  0.855301  0.749541  1
  Pt  Pt21  1  0.462323  0.615580  0.247024  1
  Pt  Pt22  1  0.038164  0.112578  0.750084  1
  Pt  Pt23  1  0.538489  0.386048  0.750609  1
  Pt  Pt24  1  0.176590  0.465830  0.538650  1
  Pt  Pt25  1  0.959409  0.885125  0.248407  1
  Pt  Pt26  1  0.699667  0.143345  0.249296  1
  Pt  Pt27  1  0.820493  0.541292  0.037799  1
  Pt  Pt28  1  0.328369  0.964675  0.039857  1
  Pt  Pt29  1  0.174676  0.464714  0.961137  1
  Pt  Pt30  1  0.674879  0.032775  0.539314  1
  Pt  Pt31  1  0.322114  0.966314  0.461047  1
  Pt  Pt32  1  0.823211  0.532203  0.461253  1
  Pt  Pt33  1  0.798235  0.644105  0.749495  1
  Pt  Pt34  1  0.203228  0.357527  0.251014  1
  Pt  Pt35  1  0.682343  0.035549  0.963178  1
