# generated using pymatgen
data_Ho2LuHfAl17GaIr6
_symmetry_space_group_name_H-M   'P 1'
_cell_length_a   7.51454820
_cell_length_b   7.51138057
_cell_length_c   9.39664800
_cell_angle_alpha   90.00000000
_cell_angle_beta   90.00000000
_cell_angle_gamma   119.50246538
_symmetry_Int_Tables_number   1
_chemical_formula_structural   Ho2LuHfAl17GaIr6
_chemical_formula_sum   'Ho2 Lu1 Hf1 Al17 Ga1 Ir6'
_cell_volume   461.61700824
_cell_formula_units_Z   1
loop_
 _symmetry_equiv_pos_site_id
 _symmetry_equiv_pos_as_xyz
  1  'x, y, z'
loop_
 _atom_site_type_symbol
 _atom_site_label
 _atom_site_symmetry_multiplicity
 _atom_site_fract_x
 _atom_site_fract_y
 _atom_site_fract_z
 _atom_site_occupancy
  Ho  Ho0  1  0.006207  0.323659  0.750000  1
  Ho  Ho1  1  0.325553  0.007349  0.750000  1
  Lu  Lu2  1  0.672622  0.996399  0.250000  1
  Hf  Hf3  1  0.997971  0.673719  0.250000  1
  Al  Al4  1  0.126955  0.124845  0.250000  1
  Al  Al5  1  0.999862  0.337747  0.079869  1
  Al  Al6  1  0.998964  0.664416  0.929496  1
  Al  Al7  1  0.998964  0.664416  0.570504  1
  Al  Al8  1  0.333924  0.998663  0.420038  1
  Al  Al9  1  0.999862  0.337747  0.420131  1
  Al  Al10  1  0.663844  0.997980  0.573573  1
  Al  Al11  1  0.663844  0.997980  0.926427  1
  Al  Al12  1  0.333924  0.998663  0.079962  1
  Al  Al13  1  0.334457  0.334752  0.550030  1
  Al  Al14  1  0.669251  0.667705  0.439425  1
  Al  Al15  1  0.669251  0.667705  0.060575  1
  Al  Al16  1  0.334457  0.334752  0.949970  1
  Al  Al17  1  0.336436  0.550639  0.250000  1
  Al  Al18  1  0.661273  0.450702  0.750000  1
  Al  Al19  1  0.555693  0.343354  0.250000  1
  Al  Al20  1  0.449154  0.659989  0.750000  1
  Ga  Ga21  1  0.865062  0.863738  0.750000  1
  Ir  Ir22  1  0.673164  0.328887  0.001316  1
  Ir  Ir23  1  0.328644  0.673205  0.001981  1
  Ir  Ir24  1  0.328644  0.673205  0.498019  1
  Ir  Ir25  1  0.673164  0.328887  0.498684  1
  Ir  Ir26  1  0.999427  0.999449  0.003946  1
  Ir  Ir27  1  0.999427  0.999449  0.496054  1
