# generated using pymatgen
data_LaPr15MgHg3Ir4
_symmetry_space_group_name_H-M   'P 1'
_cell_length_a   10.00889650
_cell_length_b   10.06028112
_cell_length_c   10.06028126
_cell_angle_alpha   59.93982399
_cell_angle_beta   59.93653845
_cell_angle_gamma   59.93653752
_symmetry_Int_Tables_number   1
_chemical_formula_structural   LaPr15MgHg3Ir4
_chemical_formula_sum   'La1 Pr15 Mg1 Hg3 Ir4'
_cell_volume   715.28096478
_cell_formula_units_Z   1
loop_
 _symmetry_equiv_pos_site_id
 _symmetry_equiv_pos_as_xyz
  1  'x, y, z'
loop_
 _atom_site_type_symbol
 _atom_site_label
 _atom_site_symmetry_multiplicity
 _atom_site_fract_x
 _atom_site_fract_y
 _atom_site_fract_z
 _atom_site_occupancy
  La  La0  1  0.346029  0.345501  0.345501  1
  Pr  Pr1  1  0.349412  0.348350  0.953500  1
  Pr  Pr2  1  0.349412  0.953500  0.348350  1
  Pr  Pr3  1  0.946918  0.350902  0.350902  1
  Pr  Pr4  1  0.807698  0.192128  0.192128  1
  Pr  Pr5  1  0.186791  0.810301  0.810301  1
  Pr  Pr6  1  0.188038  0.811335  0.189367  1
  Pr  Pr7  1  0.805916  0.192014  0.807212  1
  Pr  Pr8  1  0.188038  0.189367  0.811335  1
  Pr  Pr9  1  0.805916  0.807212  0.192014  1
  Pr  Pr10  1  0.939466  0.561970  0.561970  1
  Pr  Pr11  1  0.558192  0.940321  0.940321  1
  Pr  Pr12  1  0.559895  0.940610  0.562178  1
  Pr  Pr13  1  0.939543  0.559430  0.939293  1
  Pr  Pr14  1  0.559895  0.562178  0.940610  1
  Pr  Pr15  1  0.939543  0.939293  0.559430  1
  Mg  Mg16  1  0.286256  0.571366  0.571366  1
  Hg  Hg17  1  0.580675  0.586125  0.586125  1
  Hg  Hg18  1  0.581293  0.587169  0.246503  1
  Hg  Hg19  1  0.581293  0.246503  0.587169  1
  Ir  Ir20  1  0.140546  0.142400  0.142400  1
  Ir  Ir21  1  0.142320  0.143622  0.575077  1
  Ir  Ir22  1  0.142320  0.575077  0.143622  1
  Ir  Ir23  1  0.574598  0.143325  0.143325  1
