# generated using pymatgen
data_Er4MgPd
_symmetry_space_group_name_H-M   'P 1'
_cell_length_a   9.69305983
_cell_length_b   9.69306042
_cell_length_c   9.69306100
_cell_angle_alpha   60.00000142
_cell_angle_beta   59.99999941
_cell_angle_gamma   60.00000359
_symmetry_Int_Tables_number   1
_chemical_formula_structural   Er4MgPd
_chemical_formula_sum   'Er16 Mg4 Pd4'
_cell_volume   643.97317266
_cell_formula_units_Z   4
loop_
 _symmetry_equiv_pos_site_id
 _symmetry_equiv_pos_as_xyz
  1  'x, y, z'
loop_
 _atom_site_type_symbol
 _atom_site_label
 _atom_site_symmetry_multiplicity
 _atom_site_fract_x
 _atom_site_fract_y
 _atom_site_fract_z
 _atom_site_occupancy
  Er  Er0  1  0.350120  0.350120  0.350120  1
  Er  Er1  1  0.350120  0.350120  0.949640  1
  Er  Er2  1  0.350120  0.949640  0.350120  1
  Er  Er3  1  0.949640  0.350120  0.350120  1
  Er  Er4  1  0.810547  0.189453  0.189453  1
  Er  Er5  1  0.189453  0.810547  0.810547  1
  Er  Er6  1  0.189453  0.810547  0.189453  1
  Er  Er7  1  0.810547  0.189453  0.810547  1
  Er  Er8  1  0.189453  0.189453  0.810547  1
  Er  Er9  1  0.810547  0.810547  0.189453  1
  Er  Er10  1  0.932878  0.567122  0.567122  1
  Er  Er11  1  0.567122  0.932878  0.932878  1
  Er  Er12  1  0.567122  0.932878  0.567122  1
  Er  Er13  1  0.932878  0.567122  0.932878  1
  Er  Er14  1  0.567122  0.567122  0.932878  1
  Er  Er15  1  0.932878  0.932878  0.567122  1
  Mg  Mg16  1  0.579871  0.579871  0.579871  1
  Mg  Mg17  1  0.579871  0.579871  0.260387  1
  Mg  Mg18  1  0.579871  0.260387  0.579871  1
  Mg  Mg19  1  0.260387  0.579871  0.579871  1
  Pd  Pd20  1  0.142882  0.142882  0.142882  1
  Pd  Pd21  1  0.142882  0.142882  0.571354  1
  Pd  Pd22  1  0.142882  0.571354  0.142882  1
  Pd  Pd23  1  0.571354  0.142882  0.142882  1
