# generated using pymatgen
data_Hf3Sc5P12(Ir5Rh3)2
_symmetry_space_group_name_H-M   'P 1'
_cell_length_a   12.81385350
_cell_length_b   12.83352716
_cell_length_c   3.87318400
_cell_angle_alpha   90.00000000
_cell_angle_beta   90.00000000
_cell_angle_gamma   120.02084327
_symmetry_Int_Tables_number   1
_chemical_formula_structural   Hf3Sc5P12(Ir5Rh3)2
_chemical_formula_sum   'Hf3 Sc5 P12 Ir10 Rh6'
_cell_volume   551.48448147
_cell_formula_units_Z   1
loop_
 _symmetry_equiv_pos_site_id
 _symmetry_equiv_pos_as_xyz
  1  'x, y, z'
loop_
 _atom_site_type_symbol
 _atom_site_label
 _atom_site_symmetry_multiplicity
 _atom_site_fract_x
 _atom_site_fract_y
 _atom_site_fract_z
 _atom_site_occupancy
  Hf  Hf0  1  0.448167  0.999808  0.000000  1
  Hf  Hf1  1  0.000538  0.448301  0.000000  1
  Hf  Hf2  1  0.551140  0.551084  0.000000  1
  Sc  Sc3  1  0.333038  0.666956  0.000000  1
  Sc  Sc4  1  0.665676  0.333538  0.000000  1
  Sc  Sc5  1  0.816339  0.000460  0.500000  1
  Sc  Sc6  1  0.000494  0.815983  0.500000  1
  Sc  Sc7  1  0.183491  0.183250  0.500000  1
  P  P8  1  0.173087  0.999223  0.000000  1
  P  P9  1  0.999934  0.173763  0.000000  1
  P  P10  1  0.826163  0.826156  0.000000  1
  P  P11  1  0.171658  0.484434  0.500000  1
  P  P12  1  0.515349  0.687710  0.500000  1
  P  P13  1  0.312172  0.827841  0.500000  1
  P  P14  1  0.688672  0.516636  0.500000  1
  P  P15  1  0.828047  0.312132  0.500000  1
  P  P16  1  0.484589  0.171766  0.500000  1
  P  P17  1  0.653801  0.000035  0.000000  1
  P  P18  1  0.000096  0.653468  0.000000  1
  P  P19  1  0.346067  0.346204  0.000000  1
  Ir  Ir20  1  0.494815  0.359640  0.500000  1
  Ir  Ir21  1  0.628960  0.807419  0.000000  1
  Ir  Ir22  1  0.192800  0.821878  0.000000  1
  Ir  Ir23  1  0.807689  0.629395  0.000000  1
  Ir  Ir24  1  0.821964  0.192866  0.000000  1
  Ir  Ir25  1  0.369629  0.177993  0.000000  1
  Ir  Ir26  1  0.277276  0.000091  0.500000  1
  Ir  Ir27  1  0.001014  0.277666  0.500000  1
  Ir  Ir28  1  0.722561  0.722803  0.500000  1
  Ir  Ir29  1  0.999726  0.999997  0.000000  1
  Rh  Rh30  1  0.358336  0.491636  0.500000  1
  Rh  Rh31  1  0.507411  0.866328  0.500000  1
  Rh  Rh32  1  0.133487  0.641725  0.500000  1
  Rh  Rh33  1  0.866022  0.506840  0.500000  1
  Rh  Rh34  1  0.641170  0.134005  0.500000  1
  Rh  Rh35  1  0.178623  0.370969  0.000000  1
