# generated using pymatgen
data_Ho9Er(Sn3O)2
_symmetry_space_group_name_H-M   'P 1'
_cell_length_a   9.01557127
_cell_length_b   9.01553378
_cell_length_c   9.01556000
_cell_angle_alpha   125.90034685
_cell_angle_beta   125.90068434
_cell_angle_gamma   80.05159409
_symmetry_Int_Tables_number   1
_chemical_formula_structural   Ho9Er(Sn3O)2
_chemical_formula_sum   'Ho9 Er1 Sn6 O2'
_cell_volume   464.19356638
_cell_formula_units_Z   1
loop_
 _symmetry_equiv_pos_site_id
 _symmetry_equiv_pos_as_xyz
  1  'x, y, z'
loop_
 _atom_site_type_symbol
 _atom_site_label
 _atom_site_symmetry_multiplicity
 _atom_site_fract_x
 _atom_site_fract_y
 _atom_site_fract_z
 _atom_site_occupancy
  Ho  Ho0  1  0.501018  0.301947  0.500273  1
  Ho  Ho1  1  0.801670  0.000729  0.499709  1
  Ho  Ho2  1  0.000694  0.501029  0.199069  1
  Ho  Ho3  1  0.301966  0.801622  0.800927  1
  Ho  Ho4  1  0.501225  0.700387  0.499787  1
  Ho  Ho5  1  0.200588  0.001416  0.500179  1
  Ho  Ho6  1  0.001460  0.501200  0.800804  1
  Ho  Ho7  1  0.700380  0.200620  0.199155  1
  Ho  Ho8  1  0.502083  0.502074  0.999976  1
  Er  Er9  1  0.002268  0.002268  0.999988  1
  Sn  Sn10  1  0.146306  0.355891  0.500037  1
  Sn  Sn11  1  0.855819  0.646228  0.499891  1
  Sn  Sn12  1  0.646296  0.146315  0.790436  1
  Sn  Sn13  1  0.355875  0.855820  0.209539  1
  Sn  Sn14  1  0.751289  0.751438  0.000135  1
  Sn  Sn15  1  0.251813  0.251760  0.000060  1
  O  O16  1  0.751049  0.251063  0.500013  1
  O  O17  1  0.251042  0.751036  0.500024  1
