# generated using pymatgen
data_Yb11Pr8LuSi16
_symmetry_space_group_name_H-M   'P 1'
_cell_length_a   7.50856608
_cell_length_b   7.92748814
_cell_length_c   15.16154838
_cell_angle_alpha   89.97880631
_cell_angle_beta   90.01533432
_cell_angle_gamma   89.99717120
_symmetry_Int_Tables_number   1
_chemical_formula_structural   Yb11Pr8LuSi16
_chemical_formula_sum   'Yb11 Pr8 Lu1 Si16'
_cell_volume   902.47694941
_cell_formula_units_Z   1
loop_
 _symmetry_equiv_pos_site_id
 _symmetry_equiv_pos_as_xyz
  1  'x, y, z'
loop_
 _atom_site_type_symbol
 _atom_site_label
 _atom_site_symmetry_multiplicity
 _atom_site_fract_x
 _atom_site_fract_y
 _atom_site_fract_z
 _atom_site_occupancy
  Yb  Yb0  1  0.322821  0.181848  0.622940  1
  Yb  Yb1  1  0.676904  0.818234  0.376539  1
  Yb  Yb2  1  0.648035  0.004145  0.750056  1
  Yb  Yb3  1  0.178686  0.681513  0.376688  1
  Yb  Yb4  1  0.822015  0.318476  0.878112  1
  Yb  Yb5  1  0.822885  0.317977  0.622539  1
  Yb  Yb6  1  0.855036  0.500678  0.250956  1
  Yb  Yb7  1  0.348061  0.999717  0.250758  1
  Yb  Yb8  1  0.322857  0.180147  0.879962  1
  Yb  Yb9  1  0.177552  0.683230  0.121612  1
  Yb  Yb10  1  0.146886  0.495020  0.750060  1
  Pr  Pr11  1  0.023638  0.183870  0.400611  1
  Pr  Pr12  1  0.523999  0.316175  0.401343  1
  Pr  Pr13  1  0.474036  0.686002  0.900841  1
  Pr  Pr14  1  0.474541  0.685963  0.599342  1
  Pr  Pr15  1  0.974756  0.814074  0.598868  1
  Pr  Pr16  1  0.973405  0.813375  0.900388  1
  Pr  Pr17  1  0.525957  0.315832  0.099551  1
  Pr  Pr18  1  0.024103  0.185890  0.096915  1
  Lu  Lu19  1  0.677070  0.817091  0.123316  1
  Si  Si20  1  0.259882  0.873931  0.750839  1
  Si  Si21  1  0.471321  0.596693  0.247043  1
  Si  Si22  1  0.034040  0.091344  0.750907  1
  Si  Si23  1  0.533344  0.407851  0.751378  1
  Si  Si24  1  0.144264  0.471076  0.536607  1
  Si  Si25  1  0.961067  0.903342  0.244491  1
  Si  Si26  1  0.737444  0.121883  0.246343  1
  Si  Si27  1  0.849970  0.535002  0.038753  1
  Si  Si28  1  0.365777  0.969466  0.041464  1
  Si  Si29  1  0.139797  0.472881  0.963220  1
  Si  Si30  1  0.643332  0.028595  0.536689  1
  Si  Si31  1  0.356089  0.972430  0.462160  1
  Si  Si32  1  0.857501  0.527647  0.461716  1
  Si  Si33  1  0.758384  0.626016  0.750602  1
  Si  Si34  1  0.243760  0.377314  0.248559  1
  Si  Si35  1  0.650787  0.025270  0.967835  1
