# generated using pymatgen
data_Ba3LuRhS6
_symmetry_space_group_name_H-M   'P 1'
_cell_length_a   8.25268042
_cell_length_b   8.25268066
_cell_length_c   8.25268095
_cell_angle_alpha   93.45297506
_cell_angle_beta   93.45296814
_cell_angle_gamma   93.45298071
_symmetry_Int_Tables_number   1
_chemical_formula_structural   Ba3LuRhS6
_chemical_formula_sum   'Ba6 Lu2 Rh2 S12'
_cell_volume   558.87292190
_cell_formula_units_Z   2
loop_
 _symmetry_equiv_pos_site_id
 _symmetry_equiv_pos_as_xyz
  1  'x, y, z'
loop_
 _atom_site_type_symbol
 _atom_site_label
 _atom_site_symmetry_multiplicity
 _atom_site_fract_x
 _atom_site_fract_y
 _atom_site_fract_z
 _atom_site_occupancy
  Ba  Ba0  1  0.367734  0.750000  0.132266  1
  Ba  Ba1  1  0.132266  0.367734  0.750000  1
  Ba  Ba2  1  0.750000  0.132266  0.367734  1
  Ba  Ba3  1  0.632266  0.250000  0.867734  1
  Ba  Ba4  1  0.867734  0.632266  0.250000  1
  Ba  Ba5  1  0.250000  0.867734  0.632266  1
  Lu  Lu6  1  0.250000  0.250000  0.250000  1
  Lu  Lu7  1  0.750000  0.750000  0.750000  1
  Rh  Rh8  1  0.500000  0.500000  0.500000  1
  Rh  Rh9  1  0.000000  0.000000  0.000000  1
  S  S10  1  0.533495  0.414270  0.213463  1
  S  S11  1  0.213463  0.533495  0.414270  1
  S  S12  1  0.414270  0.213463  0.533495  1
  S  S13  1  0.966505  0.286537  0.085730  1
  S  S14  1  0.085730  0.966505  0.286537  1
  S  S15  1  0.286537  0.085730  0.966505  1
  S  S16  1  0.466505  0.585730  0.786537  1
  S  S17  1  0.786537  0.466505  0.585730  1
  S  S18  1  0.585730  0.786537  0.466505  1
  S  S19  1  0.033495  0.713463  0.914270  1
  S  S20  1  0.713463  0.914270  0.033495  1
  S  S21  1  0.914270  0.033495  0.713463  1
