# generated using pymatgen
data_Ti3BeMo(PRu)2
_symmetry_space_group_name_H-M   'P 1'
_cell_length_a   6.51794628
_cell_length_b   6.59081369
_cell_length_c   3.27368700
_cell_angle_alpha   90.00000000
_cell_angle_beta   90.00000000
_cell_angle_gamma   120.37051344
_symmetry_Int_Tables_number   1
_chemical_formula_structural   Ti3BeMo(PRu)2
_chemical_formula_sum   'Ti3 Be1 Mo1 P2 Ru2'
_cell_volume   121.33441605
_cell_formula_units_Z   1
loop_
 _symmetry_equiv_pos_site_id
 _symmetry_equiv_pos_as_xyz
  1  'x, y, z'
loop_
 _atom_site_type_symbol
 _atom_site_label
 _atom_site_symmetry_multiplicity
 _atom_site_fract_x
 _atom_site_fract_y
 _atom_site_fract_z
 _atom_site_occupancy
  Ti  Ti0  1  0.395219  0.404050  0.500000  1
  Ti  Ti1  1  0.604781  0.008831  0.500000  1
  Ti  Ti2  1  0.000000  0.594093  0.500000  1
  Be  Be3  1  0.000000  0.989857  0.500000  1
  Mo  Mo4  1  0.000000  0.248898  0.000000  1
  P  P5  1  0.664210  0.335523  0.000000  1
  P  P6  1  0.335790  0.671314  0.000000  1
  Ru  Ru7  1  0.253799  0.000617  0.000000  1
  Ru  Ru8  1  0.746201  0.746818  0.000000  1
