# generated using pymatgen
data_Ti6NbTc5P6
_symmetry_space_group_name_H-M   'P 1'
_cell_length_a   7.41389324
_cell_length_b   7.39880174
_cell_length_c   7.39880098
_cell_angle_alpha   126.92472078
_cell_angle_beta   125.30237122
_cell_angle_gamma   79.66115788
_symmetry_Int_Tables_number   1
_chemical_formula_structural   Ti6NbTc5P6
_chemical_formula_sum   'Ti6 Nb1 Tc5 P6'
_cell_volume   255.88998701
_cell_formula_units_Z   1
loop_
 _symmetry_equiv_pos_site_id
 _symmetry_equiv_pos_as_xyz
  1  'x, y, z'
loop_
 _atom_site_type_symbol
 _atom_site_label
 _atom_site_symmetry_multiplicity
 _atom_site_fract_x
 _atom_site_fract_y
 _atom_site_fract_z
 _atom_site_occupancy
  Ti  Ti0  1  0.459627  0.247848  0.288897  1
  Ti  Ti1  1  0.540373  0.829270  0.788222  1
  Ti  Ti2  1  0.745113  0.649753  0.404408  1
  Ti  Ti3  1  0.254887  0.659295  0.904639  1
  Ti  Ti4  1  0.053072  0.844181  0.289588  1
  Ti  Ti5  1  0.946928  0.236516  0.791109  1
  Nb  Nb6  1  0.500000  0.992734  0.492734  1
  Tc  Tc7  1  0.660094  0.504681  0.907156  1
  Tc  Tc8  1  0.339906  0.247063  0.844589  1
  Tc  Tc9  1  0.899888  0.244922  0.400017  1
  Tc  Tc10  1  0.100112  0.500129  0.345035  1
  Tc  Tc11  1  0.000000  0.992382  0.992382  1
  P  P12  1  0.834697  0.575763  0.746273  1
  P  P13  1  0.165303  0.911574  0.741066  1
  P  P14  1  0.672129  0.910954  0.244038  1
  P  P15  1  0.327871  0.571908  0.238825  1
  P  P16  1  0.270116  0.282631  0.508910  1
  P  P17  1  0.729884  0.238793  0.012516  1
