# generated using pymatgen
data_Tb3Er(MoN3)4
_symmetry_space_group_name_H-M   'P 1'
_cell_length_a   7.33836254
_cell_length_b   7.33836190
_cell_length_c   6.28621730
_cell_angle_alpha   73.57405912
_cell_angle_beta   73.57404710
_cell_angle_gamma   81.56080089
_symmetry_Int_Tables_number   1
_chemical_formula_structural   Tb3Er(MoN3)4
_chemical_formula_sum   'Tb3 Er1 Mo4 N12'
_cell_volume   310.63164588
_cell_formula_units_Z   1
loop_
 _symmetry_equiv_pos_site_id
 _symmetry_equiv_pos_as_xyz
  1  'x, y, z'
loop_
 _atom_site_type_symbol
 _atom_site_label
 _atom_site_symmetry_multiplicity
 _atom_site_fract_x
 _atom_site_fract_y
 _atom_site_fract_z
 _atom_site_occupancy
  Tb  Tb0  1  0.706412  0.293588  0.250000  1
  Tb  Tb1  1  0.087648  0.912352  0.250000  1
  Tb  Tb2  1  0.293698  0.706302  0.750000  1
  Er  Er3  1  0.911571  0.088429  0.750000  1
  Mo  Mo4  1  0.800432  0.619453  0.771689  1
  Mo  Mo5  1  0.199646  0.379607  0.229701  1
  Mo  Mo6  1  0.620393  0.800354  0.270299  1
  Mo  Mo7  1  0.380547  0.199568  0.728311  1
  N  N8  1  0.217830  0.001266  0.844510  1
  N  N9  1  0.365757  0.347204  0.434065  1
  N  N10  1  0.636679  0.654101  0.564449  1
  N  N11  1  0.624561  0.111960  0.663347  1
  N  N12  1  0.998734  0.782170  0.655490  1
  N  N13  1  0.780998  0.000520  0.149422  1
  N  N14  1  0.111867  0.622986  0.160867  1
  N  N15  1  0.888040  0.375439  0.836653  1
  N  N16  1  0.999480  0.219002  0.350578  1
  N  N17  1  0.345899  0.363321  0.935551  1
  N  N18  1  0.652796  0.634243  0.065935  1
  N  N19  1  0.377014  0.888133  0.339133  1
