# generated using pymatgen
data_Er7Zn(Co3Sn11)2
_symmetry_space_group_name_H-M   'P 1'
_cell_length_a   9.62383000
_cell_length_b   9.62383027
_cell_length_c   9.91856800
_cell_angle_alpha   90.00000000
_cell_angle_beta   90.00000000
_cell_angle_gamma   120.00000593
_symmetry_Int_Tables_number   1
_chemical_formula_structural   Er7Zn(Co3Sn11)2
_chemical_formula_sum   'Er7 Zn1 Co6 Sn22'
_cell_volume   795.56465237
_cell_formula_units_Z   1
loop_
 _symmetry_equiv_pos_site_id
 _symmetry_equiv_pos_as_xyz
  1  'x, y, z'
loop_
 _atom_site_type_symbol
 _atom_site_label
 _atom_site_symmetry_multiplicity
 _atom_site_fract_x
 _atom_site_fract_y
 _atom_site_fract_z
 _atom_site_occupancy
  Er  Er0  1  0.479344  0.520656  0.305933  1
  Er  Er1  1  0.520656  0.479344  0.694067  1
  Er  Er2  1  0.479344  0.958689  0.305933  1
  Er  Er3  1  0.520656  0.041311  0.694067  1
  Er  Er4  1  0.041311  0.520656  0.305933  1
  Er  Er5  1  0.958689  0.479344  0.694067  1
  Er  Er6  1  0.000000  0.000000  0.000000  1
  Zn  Zn7  1  0.000000  0.000000  0.500000  1
  Co  Co8  1  0.832252  0.167748  0.197635  1
  Co  Co9  1  0.167748  0.832252  0.802365  1
  Co  Co10  1  0.832252  0.664506  0.197635  1
  Co  Co11  1  0.167748  0.335494  0.802365  1
  Co  Co12  1  0.335494  0.167748  0.197635  1
  Co  Co13  1  0.664506  0.832252  0.802365  1
  Sn  Sn14  1  0.115389  0.884611  0.275560  1
  Sn  Sn15  1  0.884611  0.115389  0.724440  1
  Sn  Sn16  1  0.115389  0.230778  0.275560  1
  Sn  Sn17  1  0.884611  0.769222  0.724440  1
  Sn  Sn18  1  0.769222  0.884611  0.275560  1
  Sn  Sn19  1  0.230778  0.115389  0.724440  1
  Sn  Sn20  1  0.782001  0.217999  0.453369  1
  Sn  Sn21  1  0.217999  0.782001  0.546631  1
  Sn  Sn22  1  0.782001  0.564002  0.453369  1
  Sn  Sn23  1  0.217999  0.435998  0.546631  1
  Sn  Sn24  1  0.435998  0.217999  0.453369  1
  Sn  Sn25  1  0.564002  0.782001  0.546631  1
  Sn  Sn26  1  0.345790  0.000000  0.000000  1
  Sn  Sn27  1  0.654210  0.000000  0.000000  1
  Sn  Sn28  1  0.000000  0.345790  0.000000  1
  Sn  Sn29  1  0.000000  0.654210  0.000000  1
  Sn  Sn30  1  0.654210  0.654210  0.000000  1
  Sn  Sn31  1  0.345790  0.345790  0.000000  1
  Sn  Sn32  1  0.333333  0.666667  0.120327  1
  Sn  Sn33  1  0.666667  0.333333  0.879673  1
  Sn  Sn34  1  0.333333  0.666667  0.818525  1
  Sn  Sn35  1  0.666667  0.333333  0.181475  1
