# generated using pymatgen
data_PrEr3Se4
_symmetry_space_group_name_H-M   'P 1'
_cell_length_a   13.48568697
_cell_length_b   13.48568695
_cell_length_c   13.48568853
_cell_angle_alpha   17.56078734
_cell_angle_beta   17.56078941
_cell_angle_gamma   17.56078847
_symmetry_Int_Tables_number   1
_chemical_formula_structural   PrEr3Se4
_chemical_formula_sum   'Pr1 Er3 Se4'
_cell_volume   194.86633227
_cell_formula_units_Z   1
loop_
 _symmetry_equiv_pos_site_id
 _symmetry_equiv_pos_as_xyz
  1  'x, y, z'
loop_
 _atom_site_type_symbol
 _atom_site_label
 _atom_site_symmetry_multiplicity
 _atom_site_fract_x
 _atom_site_fract_y
 _atom_site_fract_z
 _atom_site_occupancy
  Pr  Pr0  1  0.000000  0.000000  0.000000  1
  Er  Er1  1  0.248795  0.248795  0.248795  1
  Er  Er2  1  0.500000  0.500000  0.500000  1
  Er  Er3  1  0.751205  0.751205  0.751205  1
  Se  Se4  1  0.379671  0.379671  0.379671  1
  Se  Se5  1  0.126058  0.126058  0.126058  1
  Se  Se6  1  0.620329  0.620329  0.620329  1
  Se  Se7  1  0.873942  0.873942  0.873942  1
