# generated using pymatgen
data_Dy4Lu8In2Fe2Ru
_symmetry_space_group_name_H-M   'P 1'
_cell_length_a   8.24533350
_cell_length_b   8.24620790
_cell_length_c   8.24515500
_cell_angle_alpha   108.50817564
_cell_angle_beta   108.50400298
_cell_angle_gamma   111.40999514
_symmetry_Int_Tables_number   1
_chemical_formula_structural   Dy4Lu8In2Fe2Ru
_chemical_formula_sum   'Dy4 Lu8 In2 Fe2 Ru1'
_cell_volume   431.23360739
_cell_formula_units_Z   1
loop_
 _symmetry_equiv_pos_site_id
 _symmetry_equiv_pos_as_xyz
  1  'x, y, z'
loop_
 _atom_site_type_symbol
 _atom_site_label
 _atom_site_symmetry_multiplicity
 _atom_site_fract_x
 _atom_site_fract_y
 _atom_site_fract_z
 _atom_site_occupancy
  Dy  Dy0  1  0.306178  0.306167  0.612408  1
  Dy  Dy1  1  0.693822  0.693833  0.387592  1
  Dy  Dy2  1  0.693784  0.306183  0.999991  1
  Dy  Dy3  1  0.306216  0.693817  0.000009  1
  Lu  Lu4  1  0.191851  0.429111  0.237237  1
  Lu  Lu5  1  0.808149  0.570889  0.762763  1
  Lu  Lu6  1  0.191940  0.954719  0.762775  1
  Lu  Lu7  1  0.954672  0.191910  0.762753  1
  Lu  Lu8  1  0.808060  0.045281  0.237225  1
  Lu  Lu9  1  0.045328  0.808090  0.237247  1
  Lu  Lu10  1  0.429153  0.191871  0.237252  1
  Lu  Lu11  1  0.570847  0.808129  0.762748  1
  In  In12  1  0.000000  0.500000  0.500000  1
  In  In13  1  0.500000  0.000000  0.500000  1
  Fe  Fe14  1  0.383185  0.383045  0.999762  1
  Fe  Fe15  1  0.616815  0.616955  0.000238  1
  Ru  Ru16  1  0.000000  0.000000  0.000000  1
