# generated using pymatgen
data_ScNb5Al8Si8Ir7
_symmetry_space_group_name_H-M   'P 1'
_cell_length_a   8.50115579
_cell_length_b   8.50115740
_cell_length_c   8.50555900
_cell_angle_alpha   59.98286712
_cell_angle_beta   59.98286083
_cell_angle_gamma   60.03426714
_symmetry_Int_Tables_number   1
_chemical_formula_structural   ScNb5Al8Si8Ir7
_chemical_formula_sum   'Sc1 Nb5 Al8 Si8 Ir7'
_cell_volume   434.65396608
_cell_formula_units_Z   1
loop_
 _symmetry_equiv_pos_site_id
 _symmetry_equiv_pos_as_xyz
  1  'x, y, z'
loop_
 _atom_site_type_symbol
 _atom_site_label
 _atom_site_symmetry_multiplicity
 _atom_site_fract_x
 _atom_site_fract_y
 _atom_site_fract_z
 _atom_site_occupancy
  Sc  Sc0  1  0.190498  0.190498  0.809502  1
  Nb  Nb1  1  0.198157  0.803912  0.801843  1
  Nb  Nb2  1  0.803912  0.198157  0.196088  1
  Nb  Nb3  1  0.803912  0.198157  0.801843  1
  Nb  Nb4  1  0.803642  0.803642  0.196358  1
  Nb  Nb5  1  0.198157  0.803912  0.196088  1
  Al  Al6  1  0.622309  0.622309  0.620139  1
  Al  Al7  1  0.622309  0.622309  0.135243  1
  Al  Al8  1  0.137545  0.621048  0.620703  1
  Al  Al9  1  0.621048  0.137545  0.620703  1
  Al  Al10  1  0.379297  0.379297  0.378952  1
  Al  Al11  1  0.379297  0.379297  0.862455  1
  Al  Al12  1  0.379861  0.864757  0.377691  1
  Al  Al13  1  0.864757  0.379861  0.377691  1
  Si  Si14  1  0.848045  0.848045  0.849985  1
  Si  Si15  1  0.848045  0.848045  0.453925  1
  Si  Si16  1  0.463267  0.840123  0.848305  1
  Si  Si17  1  0.840123  0.463267  0.848305  1
  Si  Si18  1  0.151695  0.151695  0.159877  1
  Si  Si19  1  0.151695  0.151695  0.536733  1
  Si  Si20  1  0.150015  0.546075  0.151955  1
  Si  Si21  1  0.546075  0.150015  0.151955  1
  Ir  Ir22  1  0.502840  0.502840  0.497160  1
  Ir  Ir23  1  0.000927  0.498713  0.501287  1
  Ir  Ir24  1  0.498713  0.000927  0.999073  1
  Ir  Ir25  1  0.498713  0.000927  0.501287  1
  Ir  Ir26  1  0.497108  0.497108  0.002892  1
  Ir  Ir27  1  0.000927  0.498713  0.999073  1
  Ir  Ir28  1  0.997108  0.997108  0.502892  1
