# generated using pymatgen
data_ZrPa(NiAs)2
_symmetry_space_group_name_H-M   'P 1'
_cell_length_a   4.04151100
_cell_length_b   4.04151195
_cell_length_c   14.64111400
_cell_angle_alpha   90.00000000
_cell_angle_beta   90.00000000
_cell_angle_gamma   120.00000044
_symmetry_Int_Tables_number   1
_chemical_formula_structural   ZrPa(NiAs)2
_chemical_formula_sum   'Zr2 Pa2 Ni4 As4'
_cell_volume   207.10585845
_cell_formula_units_Z   2
loop_
 _symmetry_equiv_pos_site_id
 _symmetry_equiv_pos_as_xyz
  1  'x, y, z'
loop_
 _atom_site_type_symbol
 _atom_site_label
 _atom_site_symmetry_multiplicity
 _atom_site_fract_x
 _atom_site_fract_y
 _atom_site_fract_z
 _atom_site_occupancy
  Zr  Zr0  1  0.000000  0.000000  0.250000  1
  Zr  Zr1  1  0.000000  0.000000  0.750000  1
  Pa  Pa2  1  0.000000  0.000000  0.000000  1
  Pa  Pa3  1  0.000000  0.000000  0.500000  1
  Ni  Ni4  1  0.333333  0.666667  0.154277  1
  Ni  Ni5  1  0.666667  0.333333  0.845723  1
  Ni  Ni6  1  0.666667  0.333333  0.654277  1
  Ni  Ni7  1  0.333333  0.666667  0.345723  1
  As  As8  1  0.333333  0.666667  0.624387  1
  As  As9  1  0.666667  0.333333  0.375613  1
  As  As10  1  0.666667  0.333333  0.124387  1
  As  As11  1  0.333333  0.666667  0.875613  1
