# generated using pymatgen
data_Ho2NiB8Ir
_symmetry_space_group_name_H-M   'P 1'
_cell_length_a   6.90595675
_cell_length_b   6.90595634
_cell_length_c   6.90595644
_cell_angle_alpha   111.19407811
_cell_angle_beta   113.26716783
_cell_angle_gamma   104.09041048
_symmetry_Int_Tables_number   1
_chemical_formula_structural   Ho2NiB8Ir
_chemical_formula_sum   'Ho4 Ni2 B16 Ir2'
_cell_volume   251.79449929
_cell_formula_units_Z   2
loop_
 _symmetry_equiv_pos_site_id
 _symmetry_equiv_pos_as_xyz
  1  'x, y, z'
loop_
 _atom_site_type_symbol
 _atom_site_label
 _atom_site_symmetry_multiplicity
 _atom_site_fract_x
 _atom_site_fract_y
 _atom_site_fract_z
 _atom_site_occupancy
  Ho  Ho0  1  0.790231  0.790231  0.000000  1
  Ho  Ho1  1  0.209769  0.209769  0.000000  1
  Ho  Ho2  1  0.751098  0.251098  0.500000  1
  Ho  Ho3  1  0.248902  0.748902  0.500000  1
  Ni  Ni4  1  0.500000  0.745453  0.245453  1
  Ni  Ni5  1  0.500000  0.254547  0.754547  1
  B  B6  1  0.272948  0.108269  0.381217  1
  B  B7  1  0.727052  0.891731  0.618783  1
  B  B8  1  0.272948  0.891731  0.164680  1
  B  B9  1  0.727052  0.108269  0.835320  1
  B  B10  1  0.110510  0.731283  0.841793  1
  B  B11  1  0.889490  0.268717  0.158207  1
  B  B12  1  0.110510  0.268717  0.379227  1
  B  B13  1  0.889490  0.731283  0.620773  1
  B  B14  1  0.115212  0.109697  0.529286  1
  B  B15  1  0.580410  0.585926  0.470714  1
  B  B16  1  0.115212  0.585926  0.005516  1
  B  B17  1  0.580410  0.109697  0.994484  1
  B  B18  1  0.884788  0.890303  0.470714  1
  B  B19  1  0.419590  0.414074  0.529286  1
  B  B20  1  0.884788  0.414074  0.994484  1
  B  B21  1  0.419590  0.890303  0.005516  1
  Ir  Ir22  1  0.275848  0.500000  0.775848  1
  Ir  Ir23  1  0.724152  0.500000  0.224152  1
