# generated using pymatgen
data_Dy4Cd2AgPd3
_symmetry_space_group_name_H-M   'P 1'
_cell_length_a   7.76686057
_cell_length_b   7.76686057
_cell_length_c   3.77228200
_cell_angle_alpha   90.00000000
_cell_angle_beta   90.00000000
_cell_angle_gamma   90.47444283
_symmetry_Int_Tables_number   1
_chemical_formula_structural   Dy4Cd2AgPd3
_chemical_formula_sum   'Dy4 Cd2 Ag1 Pd3'
_cell_volume   227.55180215
_cell_formula_units_Z   1
loop_
 _symmetry_equiv_pos_site_id
 _symmetry_equiv_pos_as_xyz
  1  'x, y, z'
loop_
 _atom_site_type_symbol
 _atom_site_label
 _atom_site_symmetry_multiplicity
 _atom_site_fract_x
 _atom_site_fract_y
 _atom_site_fract_z
 _atom_site_occupancy
  Dy  Dy0  1  0.332920  0.814810  0.500000  1
  Dy  Dy1  1  0.827437  0.672563  0.500000  1
  Dy  Dy2  1  0.158282  0.341718  0.500000  1
  Dy  Dy3  1  0.685190  0.167080  0.500000  1
  Cd  Cd4  1  0.001613  0.998472  0.000000  1
  Cd  Cd5  1  0.501528  0.498387  0.000000  1
  Ag  Ag6  1  0.371459  0.128541  0.000000  1
  Pd  Pd7  1  0.868082  0.373991  0.000000  1
  Pd  Pd8  1  0.126009  0.631918  0.000000  1
  Pd  Pd9  1  0.627480  0.872520  0.000000  1
