# generated using pymatgen
data_Dy2PaMn2Co7P6
_symmetry_space_group_name_H-M   'P 1'
_cell_length_a   3.72944600
_cell_length_b   10.63096000
_cell_length_c   12.12997300
_cell_angle_alpha   90.00000000
_cell_angle_beta   90.00000000
_cell_angle_gamma   90.00000000
_symmetry_Int_Tables_number   1
_chemical_formula_structural   Dy2PaMn2Co7P6
_chemical_formula_sum   'Dy4 Pa2 Mn4 Co14 P12'
_cell_volume   480.92421136
_cell_formula_units_Z   2
loop_
 _symmetry_equiv_pos_site_id
 _symmetry_equiv_pos_as_xyz
  1  'x, y, z'
loop_
 _atom_site_type_symbol
 _atom_site_label
 _atom_site_symmetry_multiplicity
 _atom_site_fract_x
 _atom_site_fract_y
 _atom_site_fract_z
 _atom_site_occupancy
  Dy  Dy0  1  0.500000  0.817547  0.203523  1
  Dy  Dy1  1  0.500000  0.182453  0.203523  1
  Dy  Dy2  1  0.000000  0.682453  0.796477  1
  Dy  Dy3  1  0.000000  0.317547  0.796477  1
  Pa  Pa4  1  0.000000  0.500000  0.528818  1
  Pa  Pa5  1  0.500000  0.000000  0.471182  1
  Mn  Mn6  1  0.500000  0.500000  0.151030  1
  Mn  Mn7  1  0.000000  0.000000  0.848970  1
  Mn  Mn8  1  0.000000  0.500000  0.987631  1
  Mn  Mn9  1  0.500000  0.000000  0.012369  1
  Co  Co10  1  0.500000  0.500000  0.693100  1
  Co  Co11  1  0.000000  0.000000  0.306900  1
  Co  Co12  1  0.500000  0.332865  0.994511  1
  Co  Co13  1  0.500000  0.667135  0.994511  1
  Co  Co14  1  0.000000  0.167135  0.005489  1
  Co  Co15  1  0.000000  0.832865  0.005489  1
  Co  Co16  1  0.500000  0.299525  0.432465  1
  Co  Co17  1  0.500000  0.700475  0.432465  1
  Co  Co18  1  0.000000  0.200475  0.567535  1
  Co  Co19  1  0.000000  0.799525  0.567535  1
  Co  Co20  1  0.500000  0.879367  0.707851  1
  Co  Co21  1  0.500000  0.120633  0.707851  1
  Co  Co22  1  0.000000  0.620633  0.292149  1
  Co  Co23  1  0.000000  0.379367  0.292149  1
  P  P24  1  0.500000  0.500000  0.880119  1
  P  P25  1  0.000000  0.000000  0.119881  1
  P  P26  1  0.500000  0.500000  0.344779  1
  P  P27  1  0.000000  0.000000  0.655221  1
  P  P28  1  0.500000  0.306011  0.617002  1
  P  P29  1  0.500000  0.693989  0.617002  1
  P  P30  1  0.000000  0.193989  0.382998  1
  P  P31  1  0.000000  0.806011  0.382998  1
  P  P32  1  0.500000  0.844943  0.894424  1
  P  P33  1  0.500000  0.155057  0.894424  1
  P  P34  1  0.000000  0.655057  0.105576  1
  P  P35  1  0.000000  0.344943  0.105576  1
