# generated using pymatgen
data_KTb2PrTe4
_symmetry_space_group_name_H-M   'P 1'
_cell_length_a   4.44479800
_cell_length_b   4.44479888
_cell_length_c   15.80225400
_cell_angle_alpha   90.00000000
_cell_angle_beta   90.00000000
_cell_angle_gamma   119.99999344
_symmetry_Int_Tables_number   1
_chemical_formula_structural   KTb2PrTe4
_chemical_formula_sum   'K1 Tb2 Pr1 Te4'
_cell_volume   270.36709951
_cell_formula_units_Z   1
loop_
 _symmetry_equiv_pos_site_id
 _symmetry_equiv_pos_as_xyz
  1  'x, y, z'
loop_
 _atom_site_type_symbol
 _atom_site_label
 _atom_site_symmetry_multiplicity
 _atom_site_fract_x
 _atom_site_fract_y
 _atom_site_fract_z
 _atom_site_occupancy
  K  K0  1  0.666667  0.333333  0.750000  1
  Tb  Tb1  1  0.000000  0.000000  0.016820  1
  Tb  Tb2  1  0.000000  0.000000  0.483180  1
  Pr  Pr3  1  0.333333  0.666667  0.250000  1
  Te  Te4  1  0.333333  0.666667  0.593607  1
  Te  Te5  1  0.666667  0.333333  0.127071  1
  Te  Te6  1  0.666667  0.333333  0.372929  1
  Te  Te7  1  0.333333  0.666667  0.906393  1
