# generated using pymatgen
data_SrHo2Zr(Al8Pt3)3
_symmetry_space_group_name_H-M   'P 1'
_cell_length_a   7.52893393
_cell_length_b   7.54810280
_cell_length_c   13.20828658
_cell_angle_alpha   84.62631593
_cell_angle_beta   79.18235994
_cell_angle_gamma   59.97772033
_symmetry_Int_Tables_number   1
_chemical_formula_structural   SrHo2Zr(Al8Pt3)3
_chemical_formula_sum   'Sr1 Ho2 Zr1 Al24 Pt9'
_cell_volume   638.35728982
_cell_formula_units_Z   1
loop_
 _symmetry_equiv_pos_site_id
 _symmetry_equiv_pos_as_xyz
  1  'x, y, z'
loop_
 _atom_site_type_symbol
 _atom_site_label
 _atom_site_symmetry_multiplicity
 _atom_site_fract_x
 _atom_site_fract_y
 _atom_site_fract_z
 _atom_site_occupancy
  Sr  Sr0  1  0.607593  0.831631  0.189943  1
  Ho  Ho1  1  0.733532  0.499339  0.806985  1
  Ho  Ho2  1  0.265960  0.501626  0.192286  1
  Zr  Zr3  1  0.394195  0.167383  0.809062  1
  Al  Al4  1  0.682941  0.836194  0.940192  1
  Al  Al5  1  0.314948  0.168203  0.050171  1
  Al  Al6  1  0.146093  0.832449  0.563421  1
  Al  Al7  1  0.852832  0.167246  0.440135  1
  Al  Al8  1  0.478666  0.166960  0.561309  1
  Al  Al9  1  0.520005  0.833265  0.442739  1
  Al  Al10  1  0.215559  0.165248  0.334238  1
  Al  Al11  1  0.779358  0.836748  0.673664  1
  Al  Al12  1  0.435926  0.504585  0.673919  1
  Al  Al13  1  0.560930  0.494065  0.333515  1
  Al  Al14  1  0.110378  0.160146  0.672706  1
  Al  Al15  1  0.889522  0.839864  0.334337  1
  Al  Al16  1  0.354928  0.496103  0.940494  1
  Al  Al17  1  0.649873  0.497435  0.051392  1
  Al  Al18  1  0.019225  0.168521  0.947999  1
  Al  Al19  1  0.988031  0.833661  0.041929  1
  Al  Al20  1  0.186947  0.499295  0.442623  1
  Al  Al21  1  0.812769  0.500739  0.560120  1
  Al  Al22  1  0.732270  0.171528  0.183516  1
  Al  Al23  1  0.265795  0.840674  0.815693  1
  Al  Al24  1  0.066105  0.625966  0.814458  1
  Al  Al25  1  0.946574  0.362609  0.184158  1
  Al  Al26  1  0.849925  0.042298  0.815022  1
  Al  Al27  1  0.138865  0.956194  0.183449  1
  Pt  Pt28  1  0.119555  0.490815  0.639760  1
  Pt  Pt29  1  0.881537  0.505357  0.363299  1
  Pt  Pt30  1  0.658472  0.172178  0.996861  1
  Pt  Pt31  1  0.343883  0.828215  0.996991  1
  Pt  Pt32  1  0.537872  0.168554  0.363756  1
  Pt  Pt33  1  0.462429  0.833530  0.639719  1
  Pt  Pt34  1  0.777381  0.176327  0.638357  1
  Pt  Pt35  1  0.217982  0.825742  0.365097  1
  Pt  Pt36  1  0.001141  0.499306  0.996686  1
