# generated using pymatgen
data_Dy20TcIr2Pt9
_symmetry_space_group_name_H-M   'P 1'
_cell_length_a   11.04706700
_cell_length_b   11.04706700
_cell_length_c   6.35925900
_cell_angle_alpha   90.00000000
_cell_angle_beta   90.00000000
_cell_angle_gamma   90.00000000
_symmetry_Int_Tables_number   1
_chemical_formula_structural   Dy20TcIr2Pt9
_chemical_formula_sum   'Dy20 Tc1 Ir2 Pt9'
_cell_volume   776.06927404
_cell_formula_units_Z   1
loop_
 _symmetry_equiv_pos_site_id
 _symmetry_equiv_pos_as_xyz
  1  'x, y, z'
loop_
 _atom_site_type_symbol
 _atom_site_label
 _atom_site_symmetry_multiplicity
 _atom_site_fract_x
 _atom_site_fract_y
 _atom_site_fract_z
 _atom_site_occupancy
  Dy  Dy0  1  0.293520  0.088318  0.368796  1
  Dy  Dy1  1  0.294835  0.912478  0.878631  1
  Dy  Dy2  1  0.705165  0.087522  0.878631  1
  Dy  Dy3  1  0.706480  0.911682  0.368796  1
  Dy  Dy4  1  0.587522  0.794835  0.878631  1
  Dy  Dy5  1  0.588318  0.206480  0.368796  1
  Dy  Dy6  1  0.411682  0.793520  0.368796  1
  Dy  Dy7  1  0.412478  0.205165  0.878631  1
  Dy  Dy8  1  0.205337  0.411637  0.625472  1
  Dy  Dy9  1  0.204585  0.587726  0.124730  1
  Dy  Dy10  1  0.795415  0.412274  0.124730  1
  Dy  Dy11  1  0.794663  0.588363  0.625472  1
  Dy  Dy12  1  0.912274  0.704585  0.124730  1
  Dy  Dy13  1  0.911637  0.294663  0.625472  1
  Dy  Dy14  1  0.088363  0.705337  0.625472  1
  Dy  Dy15  1  0.087726  0.295415  0.124730  1
  Dy  Dy16  1  0.000000  0.000000  0.500072  1
  Dy  Dy17  1  0.000000  0.000000  0.000549  1
  Dy  Dy18  1  0.500000  0.500000  0.000549  1
  Dy  Dy19  1  0.500000  0.500000  0.500072  1
  Tc  Tc20  1  0.500000  0.000000  0.129286  1
  Ir  Ir21  1  0.000000  0.500000  0.878066  1
  Ir  Ir22  1  0.000000  0.500000  0.378922  1
  Pt  Pt23  1  0.846550  0.154054  0.250395  1
  Pt  Pt24  1  0.846731  0.846165  0.749585  1
  Pt  Pt25  1  0.153269  0.153835  0.749585  1
  Pt  Pt26  1  0.153450  0.845946  0.250395  1
  Pt  Pt27  1  0.653835  0.346731  0.749585  1
  Pt  Pt28  1  0.654054  0.653450  0.250395  1
  Pt  Pt29  1  0.345946  0.346550  0.250395  1
  Pt  Pt30  1  0.346165  0.653269  0.749585  1
  Pt  Pt31  1  0.500000  0.000000  0.622050  1
