# generated using pymatgen
data_Y3Mg3SiGePd
_symmetry_space_group_name_H-M   'P 1'
_cell_length_a   7.28830000
_cell_length_b   7.28830091
_cell_length_c   4.26963200
_cell_angle_alpha   90.00000000
_cell_angle_beta   90.00000000
_cell_angle_gamma   119.99999587
_symmetry_Int_Tables_number   1
_chemical_formula_structural   Y3Mg3SiGePd
_chemical_formula_sum   'Y3 Mg3 Si1 Ge1 Pd1'
_cell_volume   196.41453813
_cell_formula_units_Z   1
loop_
 _symmetry_equiv_pos_site_id
 _symmetry_equiv_pos_as_xyz
  1  'x, y, z'
loop_
 _atom_site_type_symbol
 _atom_site_label
 _atom_site_symmetry_multiplicity
 _atom_site_fract_x
 _atom_site_fract_y
 _atom_site_fract_z
 _atom_site_occupancy
  Y  Y0  1  0.417000  0.418302  0.500000  1
  Y  Y1  1  0.001302  0.583000  0.500000  1
  Y  Y2  1  0.581698  0.998698  0.500000  1
  Mg  Mg3  1  0.755927  0.756671  0.000000  1
  Mg  Mg4  1  0.243329  0.999256  0.000000  1
  Mg  Mg5  1  0.000744  0.244073  0.000000  1
  Si  Si6  1  0.333333  0.666667  0.000000  1
  Ge  Ge7  1  0.666667  0.333333  0.000000  1
  Pd  Pd8  1  0.000000  0.000000  0.500000  1
