# generated using pymatgen
data_CdNiPbO4
_symmetry_space_group_name_H-M   'P 1'
_cell_length_a   6.46394439
_cell_length_b   6.39961103
_cell_length_c   6.46402476
_cell_angle_alpha   60.53174722
_cell_angle_beta   91.23201856
_cell_angle_gamma   119.46440388
_symmetry_Int_Tables_number   1
_chemical_formula_structural   CdNiPbO4
_chemical_formula_sum   'Cd2 Ni2 Pb2 O8'
_cell_volume   193.92880199
_cell_formula_units_Z   2
loop_
 _symmetry_equiv_pos_site_id
 _symmetry_equiv_pos_as_xyz
  1  'x, y, z'
loop_
 _atom_site_type_symbol
 _atom_site_label
 _atom_site_symmetry_multiplicity
 _atom_site_fract_x
 _atom_site_fract_y
 _atom_site_fract_z
 _atom_site_occupancy
  Cd  Cd0  1  0.985604  0.999891  0.985604  1
  Cd  Cd1  1  0.764438  0.499858  0.764443  1
  Ni  Ni2  1  0.374580  0.250688  0.374814  1
  Ni  Ni3  1  0.374888  0.749746  0.374929  1
  Pb  Pb4  1  0.874898  0.250029  0.374883  1
  Pb  Pb5  1  0.375067  0.750084  0.874925  1
  O  O6  1  0.141117  0.269735  0.139055  1
  O  O7  1  0.599758  0.212170  0.173836  1
  O  O8  1  0.576144  0.712056  0.150433  1
  O  O9  1  0.139116  0.730146  0.141073  1
  O  O10  1  0.609056  0.230210  0.611059  1
  O  O11  1  0.150317  0.287900  0.576134  1
  O  O12  1  0.173847  0.787780  0.599822  1
  O  O13  1  0.611173  0.769707  0.608991  1
