# generated using pymatgen
data_TmScBe4Ru5
_symmetry_space_group_name_H-M   'P 1'
_cell_length_a   3.20871700
_cell_length_b   8.79681025
_cell_length_c   10.19603293
_cell_angle_alpha   89.96181526
_cell_angle_beta   90.00000000
_cell_angle_gamma   90.00000000
_symmetry_Int_Tables_number   1
_chemical_formula_structural   TmScBe4Ru5
_chemical_formula_sum   'Tm2 Sc2 Be8 Ru10'
_cell_volume   287.79800061
_cell_formula_units_Z   2
loop_
 _symmetry_equiv_pos_site_id
 _symmetry_equiv_pos_as_xyz
  1  'x, y, z'
loop_
 _atom_site_type_symbol
 _atom_site_label
 _atom_site_symmetry_multiplicity
 _atom_site_fract_x
 _atom_site_fract_y
 _atom_site_fract_z
 _atom_site_occupancy
  Tm  Tm0  1  0.500000  0.835877  0.183726  1
  Tm  Tm1  1  0.500000  0.164123  0.816274  1
  Sc  Sc2  1  0.500000  0.667596  0.684771  1
  Sc  Sc3  1  0.500000  0.332404  0.315229  1
  Be  Be4  1  0.500000  0.964023  0.593650  1
  Be  Be5  1  0.500000  0.035977  0.406350  1
  Be  Be6  1  0.500000  0.837649  0.904123  1
  Be  Be7  1  0.500000  0.162351  0.095877  1
  Be  Be8  1  0.500000  0.661176  0.409635  1
  Be  Be9  1  0.500000  0.338824  0.590365  1
  Be  Be10  1  0.500000  0.466052  0.905624  1
  Be  Be11  1  0.500000  0.533948  0.094376  1
  Ru  Ru12  1  0.000000  0.655941  0.953166  1
  Ru  Ru13  1  0.000000  0.344059  0.046834  1
  Ru  Ru14  1  0.000000  0.842445  0.456130  1
  Ru  Ru15  1  0.000000  0.157555  0.543870  1
  Ru  Ru16  1  0.000000  0.000000  0.000000  1
  Ru  Ru17  1  0.000000  0.418935  0.750182  1
  Ru  Ru18  1  0.000000  0.581065  0.249818  1
  Ru  Ru19  1  0.000000  0.500000  0.500000  1
  Ru  Ru20  1  0.000000  0.902927  0.743905  1
  Ru  Ru21  1  0.000000  0.097073  0.256095  1
