# generated using pymatgen
data_DyHo6Er3Ga3NiBi2
_symmetry_space_group_name_H-M   'P 1'
_cell_length_a   8.53212229
_cell_length_b   8.53270231
_cell_length_c   8.72308016
_cell_angle_alpha   124.28223069
_cell_angle_beta   124.28868090
_cell_angle_gamma   81.26824998
_symmetry_Int_Tables_number   1
_chemical_formula_structural   DyHo6Er3Ga3NiBi2
_chemical_formula_sum   'Dy1 Ho6 Er3 Ga3 Ni1 Bi2'
_cell_volume   420.60273024
_cell_formula_units_Z   1
loop_
 _symmetry_equiv_pos_site_id
 _symmetry_equiv_pos_as_xyz
  1  'x, y, z'
loop_
 _atom_site_type_symbol
 _atom_site_label
 _atom_site_symmetry_multiplicity
 _atom_site_fract_x
 _atom_site_fract_y
 _atom_site_fract_z
 _atom_site_occupancy
  Dy  Dy0  1  0.721226  0.203459  0.205662  1
  Ho  Ho1  1  0.515317  0.706814  0.499979  1
  Ho  Ho2  1  0.195880  0.040997  0.500169  1
  Ho  Ho3  1  0.002098  0.484288  0.205546  1
  Ho  Ho4  1  0.296276  0.778451  0.794262  1
  Ho  Ho5  1  0.459175  0.304231  0.500117  1
  Ho  Ho6  1  0.793252  0.984782  0.500154  1
  Er  Er7  1  0.996761  0.994112  0.990899  1
  Er  Er8  1  0.505502  0.503188  0.008750  1
  Er  Er9  1  0.015974  0.498027  0.794169  1
  Ga  Ga10  1  0.351877  0.854947  0.206934  1
  Ga  Ga11  1  0.644825  0.147990  0.792750  1
  Ga  Ga12  1  0.865385  0.634976  0.500387  1
  Ni  Ni13  1  0.124226  0.375989  0.500267  1
  Bi  Bi14  1  0.756261  0.743712  0.999977  1
  Bi  Bi15  1  0.255964  0.244035  0.999979  1
