# generated using pymatgen
data_Ir3PdCl12
_symmetry_space_group_name_H-M   'P 1'
_cell_length_a   11.86786077
_cell_length_b   11.34788101
_cell_length_c   6.22069105
_cell_angle_alpha   79.12969874
_cell_angle_beta   69.88906199
_cell_angle_gamma   31.20572602
_symmetry_Int_Tables_number   1
_chemical_formula_structural   Ir3PdCl12
_chemical_formula_sum   'Ir3 Pd1 Cl12'
_cell_volume   397.89598163
_cell_formula_units_Z   1
loop_
 _symmetry_equiv_pos_site_id
 _symmetry_equiv_pos_as_xyz
  1  'x, y, z'
loop_
 _atom_site_type_symbol
 _atom_site_label
 _atom_site_symmetry_multiplicity
 _atom_site_fract_x
 _atom_site_fract_y
 _atom_site_fract_z
 _atom_site_occupancy
  Ir  Ir0  1  0.832197  0.832197  0.667803  1
  Ir  Ir1  1  0.666903  0.666903  0.833097  1
  Ir  Ir2  1  0.584441  0.584441  0.415559  1
  Pd  Pd3  1  0.414758  0.414758  0.585242  1
  Cl  Cl4  1  0.722193  0.288760  0.273410  1
  Cl  Cl5  1  0.876105  0.449001  0.092509  1
  Cl  Cl6  1  0.374609  0.804170  0.156468  1
  Cl  Cl7  1  0.449001  0.876105  0.582384  1
  Cl  Cl8  1  0.151120  0.666905  0.376347  1
  Cl  Cl9  1  0.288760  0.722193  0.715637  1
  Cl  Cl10  1  0.535466  0.964067  0.963604  1
  Cl  Cl11  1  0.964067  0.535466  0.536863  1
  Cl  Cl12  1  0.069455  0.599850  0.897527  1
  Cl  Cl13  1  0.804170  0.374609  0.664753  1
  Cl  Cl14  1  0.666905  0.151120  0.805630  1
  Cl  Cl15  1  0.599850  0.069455  0.433167  1
