# generated using pymatgen
data_Eu4Hf3CrO12
_symmetry_space_group_name_H-M   'P 1'
_cell_length_a   5.67990716
_cell_length_b   5.77111559
_cell_length_c   8.10030153
_cell_angle_alpha   89.86869776
_cell_angle_beta   90.10561099
_cell_angle_gamma   89.91210683
_symmetry_Int_Tables_number   1
_chemical_formula_structural   Eu4Hf3CrO12
_chemical_formula_sum   'Eu4 Hf3 Cr1 O12'
_cell_volume   265.52156758
_cell_formula_units_Z   1
loop_
 _symmetry_equiv_pos_site_id
 _symmetry_equiv_pos_as_xyz
  1  'x, y, z'
loop_
 _atom_site_type_symbol
 _atom_site_label
 _atom_site_symmetry_multiplicity
 _atom_site_fract_x
 _atom_site_fract_y
 _atom_site_fract_z
 _atom_site_occupancy
  Eu  Eu0  1  0.509020  0.544971  0.238433  1
  Eu  Eu1  1  0.991293  0.035426  0.239330  1
  Eu  Eu2  1  0.490980  0.455029  0.761567  1
  Eu  Eu3  1  0.008707  0.964574  0.760670  1
  Hf  Hf4  1  0.000000  0.500000  0.000000  1
  Hf  Hf5  1  0.500000  0.000000  0.500000  1
  Hf  Hf6  1  0.000000  0.500000  0.500000  1
  Cr  Cr7  1  0.500000  0.000000  0.000000  1
  O  O8  1  0.418779  0.976287  0.248236  1
  O  O9  1  0.082958  0.476453  0.250527  1
  O  O10  1  0.581221  0.023713  0.751764  1
  O  O11  1  0.917042  0.523547  0.749473  1
  O  O12  1  0.784123  0.787657  0.041037  1
  O  O13  1  0.705812  0.294165  0.454140  1
  O  O14  1  0.204666  0.206597  0.546588  1
  O  O15  1  0.288675  0.715791  0.960592  1
  O  O16  1  0.215877  0.212343  0.958963  1
  O  O17  1  0.294188  0.705835  0.545860  1
  O  O18  1  0.795334  0.793403  0.453412  1
  O  O19  1  0.711325  0.284209  0.039408  1
