# generated using pymatgen
data_TbSm5ErCoI12
_symmetry_space_group_name_H-M   'P 1'
_cell_length_a   9.89080104
_cell_length_b   9.90875084
_cell_length_c   9.85506943
_cell_angle_alpha   106.88910429
_cell_angle_beta   106.98612611
_cell_angle_gamma   107.14836583
_symmetry_Int_Tables_number   1
_chemical_formula_structural   TbSm5ErCoI12
_chemical_formula_sum   'Tb1 Sm5 Er1 Co1 I12'
_cell_volume   804.19392436
_cell_formula_units_Z   1
loop_
 _symmetry_equiv_pos_site_id
 _symmetry_equiv_pos_as_xyz
  1  'x, y, z'
loop_
 _atom_site_type_symbol
 _atom_site_label
 _atom_site_symmetry_multiplicity
 _atom_site_fract_x
 _atom_site_fract_y
 _atom_site_fract_z
 _atom_site_occupancy
  Tb  Tb0  1  0.907103  0.977863  0.712117  1
  Sm  Sm1  1  0.292027  0.094359  0.021652  1
  Sm  Sm2  1  0.022133  0.292111  0.093346  1
  Sm  Sm3  1  0.094205  0.022325  0.292685  1
  Sm  Sm4  1  0.707758  0.905682  0.977932  1
  Sm  Sm5  1  0.977410  0.707552  0.904874  1
  Er  Er6  1  0.499984  0.500125  0.499477  1
  Co  Co7  1  0.999931  0.999851  0.999904  1
  I  I8  1  0.466391  0.167586  0.389132  1
  I  I9  1  0.389525  0.466911  0.167629  1
  I  I10  1  0.167719  0.389536  0.466342  1
  I  I11  1  0.537194  0.833934  0.610842  1
  I  I12  1  0.610506  0.533089  0.831998  1
  I  I13  1  0.832616  0.613669  0.533807  1
  I  I14  1  0.323012  0.773762  0.929540  1
  I  I15  1  0.928703  0.319065  0.771372  1
  I  I16  1  0.774714  0.930252  0.325119  1
  I  I17  1  0.676952  0.226281  0.070421  1
  I  I18  1  0.070352  0.677005  0.225725  1
  I  I19  1  0.221765  0.069042  0.676086  1
