# generated using pymatgen
data_NdGe4(IrRh)3
_symmetry_space_group_name_H-M   'P 1'
_cell_length_a   7.20926900
_cell_length_b   7.20926953
_cell_length_c   3.93731100
_cell_angle_alpha   90.00000000
_cell_angle_beta   90.00000000
_cell_angle_gamma   119.99999297
_symmetry_Int_Tables_number   1
_chemical_formula_structural   NdGe4(IrRh)3
_chemical_formula_sum   'Nd1 Ge4 Ir3 Rh3'
_cell_volume   177.22005870
_cell_formula_units_Z   1
loop_
 _symmetry_equiv_pos_site_id
 _symmetry_equiv_pos_as_xyz
  1  'x, y, z'
loop_
 _atom_site_type_symbol
 _atom_site_label
 _atom_site_symmetry_multiplicity
 _atom_site_fract_x
 _atom_site_fract_y
 _atom_site_fract_z
 _atom_site_occupancy
  Nd  Nd0  1  0.000000  0.000000  0.000000  1
  Ge  Ge1  1  0.333333  0.666667  0.000000  1
  Ge  Ge2  1  0.803047  0.606095  0.500000  1
  Ge  Ge3  1  0.393905  0.196953  0.500000  1
  Ge  Ge4  1  0.803047  0.196953  0.500000  1
  Ir  Ir5  1  0.533462  0.066925  0.000000  1
  Ir  Ir6  1  0.933075  0.466538  0.000000  1
  Ir  Ir7  1  0.533462  0.466538  0.000000  1
  Rh  Rh8  1  0.199953  0.399906  0.500000  1
  Rh  Rh9  1  0.600094  0.800047  0.500000  1
  Rh  Rh10  1  0.199953  0.800047  0.500000  1
