# generated using pymatgen
data_Sc(S8Cl)3
_symmetry_space_group_name_H-M   'P 1'
_cell_length_a   4.61215798
_cell_length_b   15.29349750
_cell_length_c   15.53538287
_cell_angle_alpha   119.81338553
_cell_angle_beta   91.86534631
_cell_angle_gamma   97.75105578
_symmetry_Int_Tables_number   1
_chemical_formula_structural   Sc(S8Cl)3
_chemical_formula_sum   'Sc1 S24 Cl3'
_cell_volume   935.74286447
_cell_formula_units_Z   1
loop_
 _symmetry_equiv_pos_site_id
 _symmetry_equiv_pos_as_xyz
  1  'x, y, z'
loop_
 _atom_site_type_symbol
 _atom_site_label
 _atom_site_symmetry_multiplicity
 _atom_site_fract_x
 _atom_site_fract_y
 _atom_site_fract_z
 _atom_site_occupancy
  Sc  Sc0  1  0.798927  0.997453  0.026278  1
  S  S1  1  0.379108  0.409200  0.994798  1
  S  S2  1  0.559774  0.727942  0.005810  1
  S  S3  1  0.259654  0.521575  0.125796  1
  S  S4  1  0.383357  0.747039  0.133259  1
  S  S5  1  0.554244  0.655808  0.177469  1
  S  S6  1  0.644567  0.377636  0.257736  1
  S  S7  1  0.829070  0.273093  0.278991  1
  S  S8  1  0.906060  0.519618  0.341218  1
  S  S9  1  0.148792  0.872147  0.397411  1
  S  S10  1  0.634878  0.253483  0.387437  1
  S  S11  1  0.399963  0.000928  0.409795  1
  S  S12  1  0.377951  0.819026  0.472790  1
  S  S13  1  0.738836  0.600684  0.475163  1
  S  S14  1  0.274345  0.128392  0.525435  1
  S  S15  1  0.899207  0.343692  0.521580  1
  S  S16  1  0.970760  0.590873  0.584718  1
  S  S17  1  0.241012  0.871049  0.612746  1
  S  S18  1  0.739927  0.477837  0.603947  1
  S  S19  1  0.557339  0.181399  0.653182  1
  S  S20  1  0.532244  0.999355  0.715851  1
  S  S21  1  0.370213  0.128228  0.741114  1
  S  S22  1  0.388660  0.482161  0.823018  1
  S  S23  1  0.270145  0.624275  0.880837  1
  S  S24  1  0.139107  0.400059  0.875600  1
  Cl  Cl25  1  0.884842  0.137625  0.009686  1
  Cl  Cl26  1  0.302350  0.998761  0.098652  1
  Cl  Cl27  1  0.767583  0.860663  0.869686  1
