# generated using pymatgen
data_La7Th(Si3Ni)4
_symmetry_space_group_name_H-M   'P 1'
_cell_length_a   8.08465800
_cell_length_b   8.08465782
_cell_length_c   8.58643200
_cell_angle_alpha   90.00000000
_cell_angle_beta   90.00000000
_cell_angle_gamma   120.00000074
_symmetry_Int_Tables_number   1
_chemical_formula_structural   La7Th(Si3Ni)4
_chemical_formula_sum   'La7 Th1 Si12 Ni4'
_cell_volume   486.03400962
_cell_formula_units_Z   1
loop_
 _symmetry_equiv_pos_site_id
 _symmetry_equiv_pos_as_xyz
  1  'x, y, z'
loop_
 _atom_site_type_symbol
 _atom_site_label
 _atom_site_symmetry_multiplicity
 _atom_site_fract_x
 _atom_site_fract_y
 _atom_site_fract_z
 _atom_site_occupancy
  La  La0  1  0.000000  0.000000  0.750000  1
  La  La1  1  0.500249  0.499751  0.250000  1
  La  La2  1  0.500249  0.000499  0.250000  1
  La  La3  1  0.999501  0.499751  0.250000  1
  La  La4  1  0.499578  0.500422  0.750000  1
  La  La5  1  0.499578  0.999152  0.750000  1
  La  La6  1  0.000848  0.500422  0.750000  1
  Th  Th7  1  0.000000  0.000000  0.250000  1
  Si  Si8  1  0.169729  0.830271  0.497763  1
  Si  Si9  1  0.169729  0.339457  0.497763  1
  Si  Si10  1  0.660543  0.830271  0.497763  1
  Si  Si11  1  0.830241  0.169759  0.497762  1
  Si  Si12  1  0.830241  0.660480  0.497762  1
  Si  Si13  1  0.339520  0.169759  0.497762  1
  Si  Si14  1  0.830241  0.169759  0.002238  1
  Si  Si15  1  0.830241  0.660480  0.002238  1
  Si  Si16  1  0.339520  0.169759  0.002238  1
  Si  Si17  1  0.169729  0.830271  0.002237  1
  Si  Si18  1  0.169729  0.339457  0.002237  1
  Si  Si19  1  0.660543  0.830271  0.002237  1
  Ni  Ni20  1  0.333333  0.666667  0.501070  1
  Ni  Ni21  1  0.666667  0.333333  0.503383  1
  Ni  Ni22  1  0.666667  0.333333  0.996617  1
  Ni  Ni23  1  0.333333  0.666667  0.998930  1
