# generated using pymatgen
data_NdGdTeO6
_symmetry_space_group_name_H-M   'P 1'
_cell_length_a   5.45306700
_cell_length_b   9.33649600
_cell_length_c   10.21528800
_cell_angle_alpha   90.00000000
_cell_angle_beta   90.00000000
_cell_angle_gamma   90.00000000
_symmetry_Int_Tables_number   1
_chemical_formula_structural   NdGdTeO6
_chemical_formula_sum   'Nd4 Gd4 Te4 O24'
_cell_volume   520.08624086
_cell_formula_units_Z   4
loop_
 _symmetry_equiv_pos_site_id
 _symmetry_equiv_pos_as_xyz
  1  'x, y, z'
loop_
 _atom_site_type_symbol
 _atom_site_label
 _atom_site_symmetry_multiplicity
 _atom_site_fract_x
 _atom_site_fract_y
 _atom_site_fract_z
 _atom_site_occupancy
  Nd  Nd0  1  0.033890  0.218273  0.861754  1
  Nd  Nd1  1  0.533890  0.281727  0.138246  1
  Nd  Nd2  1  0.966110  0.718273  0.638246  1
  Nd  Nd3  1  0.466110  0.781727  0.361754  1
  Gd  Gd4  1  0.024310  0.103860  0.458203  1
  Gd  Gd5  1  0.524310  0.396140  0.541797  1
  Gd  Gd6  1  0.975690  0.603860  0.041797  1
  Gd  Gd7  1  0.475690  0.896140  0.958203  1
  Te  Te8  1  0.539959  0.006896  0.643902  1
  Te  Te9  1  0.039959  0.493104  0.356098  1
  Te  Te10  1  0.460041  0.506896  0.856098  1
  Te  Te11  1  0.960041  0.993104  0.143902  1
  O  O12  1  0.251979  0.418664  0.993794  1
  O  O13  1  0.751979  0.081336  0.006206  1
  O  O14  1  0.748021  0.918664  0.506206  1
  O  O15  1  0.248021  0.581336  0.493794  1
  O  O16  1  0.222208  0.111276  0.064327  1
  O  O17  1  0.722208  0.388724  0.935673  1
  O  O18  1  0.777792  0.611276  0.435673  1
  O  O19  1  0.277792  0.888724  0.564327  1
  O  O20  1  0.311098  0.359242  0.326542  1
  O  O21  1  0.811098  0.140758  0.673458  1
  O  O22  1  0.688902  0.859242  0.173458  1
  O  O23  1  0.188902  0.640758  0.826542  1
  O  O24  1  0.165239  0.948489  0.292201  1
  O  O25  1  0.665239  0.551511  0.707799  1
  O  O26  1  0.834761  0.448489  0.207799  1
  O  O27  1  0.334761  0.051511  0.792201  1
  O  O28  1  0.179488  0.636315  0.241280  1
  O  O29  1  0.679488  0.863685  0.758720  1
  O  O30  1  0.820512  0.136315  0.258720  1
  O  O31  1  0.320512  0.363685  0.741280  1
  O  O32  1  0.087053  0.844312  0.028576  1
  O  O33  1  0.587053  0.655688  0.971424  1
  O  O34  1  0.912947  0.344312  0.471424  1
  O  O35  1  0.412947  0.155688  0.528576  1
