# generated using pymatgen
data_Ba2GdAlSe5
_symmetry_space_group_name_H-M   'P 1'
_cell_length_a   7.41714166
_cell_length_b   8.84076865
_cell_length_c   9.58618727
_cell_angle_alpha   103.59731559
_cell_angle_beta   102.81926222
_cell_angle_gamma   107.48440590
_symmetry_Int_Tables_number   1
_chemical_formula_structural   Ba2GdAlSe5
_chemical_formula_sum   'Ba4 Gd2 Al2 Se10'
_cell_volume   552.98293982
_cell_formula_units_Z   2
loop_
 _symmetry_equiv_pos_site_id
 _symmetry_equiv_pos_as_xyz
  1  'x, y, z'
loop_
 _atom_site_type_symbol
 _atom_site_label
 _atom_site_symmetry_multiplicity
 _atom_site_fract_x
 _atom_site_fract_y
 _atom_site_fract_z
 _atom_site_occupancy
  Ba  Ba0  1  0.632927  0.977354  0.289737  1
  Ba  Ba1  1  0.367073  0.022646  0.710263  1
  Ba  Ba2  1  0.342562  0.510593  0.706822  1
  Ba  Ba3  1  0.657438  0.489407  0.293178  1
  Gd  Gd4  1  0.997669  0.730599  0.998115  1
  Gd  Gd5  1  0.002331  0.269401  0.001885  1
  Al  Al6  1  0.806591  0.872569  0.689873  1
  Al  Al7  1  0.193409  0.127431  0.310127  1
  Se  Se8  1  0.987316  0.687391  0.685397  1
  Se  Se9  1  0.012684  0.312609  0.314603  1
  Se  Se10  1  0.983251  0.148735  0.688658  1
  Se  Se11  1  0.016749  0.851265  0.311342  1
  Se  Se12  1  0.712862  0.907850  0.922746  1
  Se  Se13  1  0.287138  0.092150  0.077254  1
  Se  Se14  1  0.706046  0.411256  0.945862  1
  Se  Se15  1  0.293954  0.588744  0.054138  1
  Se  Se16  1  0.495702  0.744241  0.495961  1
  Se  Se17  1  0.504298  0.255759  0.504039  1
