# generated using pymatgen
data_RbLi2VSe4
_symmetry_space_group_name_H-M   'P 1'
_cell_length_a   10.29971952
_cell_length_b   10.29972038
_cell_length_c   7.94636400
_cell_angle_alpha   90.00000000
_cell_angle_beta   90.00000000
_cell_angle_gamma   145.49942760
_symmetry_Int_Tables_number   1
_chemical_formula_structural   RbLi2VSe4
_chemical_formula_sum   'Rb2 Li4 V2 Se8'
_cell_volume   477.47828722
_cell_formula_units_Z   2
loop_
 _symmetry_equiv_pos_site_id
 _symmetry_equiv_pos_as_xyz
  1  'x, y, z'
loop_
 _atom_site_type_symbol
 _atom_site_label
 _atom_site_symmetry_multiplicity
 _atom_site_fract_x
 _atom_site_fract_y
 _atom_site_fract_z
 _atom_site_occupancy
  Rb  Rb0  1  0.178778  0.551596  0.750000  1
  Rb  Rb1  1  0.551596  0.178778  0.250000  1
  Li  Li2  1  0.653018  0.653018  0.500000  1
  Li  Li3  1  0.988124  0.201041  0.250000  1
  Li  Li4  1  0.201041  0.988124  0.750000  1
  Li  Li5  1  0.653018  0.653018  0.000000  1
  V  V6  1  0.713326  0.479539  0.750000  1
  V  V7  1  0.479539  0.713326  0.250000  1
  Se  Se8  1  0.694263  0.934431  0.013631  1
  Se  Se9  1  0.411334  0.376962  0.750000  1
  Se  Se10  1  0.376962  0.411334  0.250000  1
  Se  Se11  1  0.934431  0.694263  0.513631  1
  Se  Se12  1  0.570686  0.156993  0.750000  1
  Se  Se13  1  0.934431  0.694263  0.986369  1
  Se  Se14  1  0.156993  0.570686  0.250000  1
  Se  Se15  1  0.694263  0.934431  0.486369  1
