# generated using pymatgen
data_Yb2Co(CN)2
_symmetry_space_group_name_H-M   'P 1'
_cell_length_a   6.50419557
_cell_length_b   6.50419598
_cell_length_c   6.50419650
_cell_angle_alpha   135.75309665
_cell_angle_beta   111.96649512
_cell_angle_gamma   84.81314899
_symmetry_Int_Tables_number   1
_chemical_formula_structural   Yb2Co(CN)2
_chemical_formula_sum   'Yb4 Co2 C4 N4'
_cell_volume   171.21970522
_cell_formula_units_Z   2
loop_
 _symmetry_equiv_pos_site_id
 _symmetry_equiv_pos_as_xyz
  1  'x, y, z'
loop_
 _atom_site_type_symbol
 _atom_site_label
 _atom_site_symmetry_multiplicity
 _atom_site_fract_x
 _atom_site_fract_y
 _atom_site_fract_z
 _atom_site_occupancy
  Yb  Yb0  1  0.191060  0.350750  0.840309  1
  Yb  Yb1  1  0.808940  0.649250  0.159691  1
  Yb  Yb2  1  0.510441  0.850750  0.659691  1
  Yb  Yb3  1  0.489559  0.149250  0.340309  1
  Co  Co4  1  0.000000  0.250000  0.250000  1
  Co  Co5  1  0.000000  0.750000  0.750000  1
  C  C6  1  0.903787  0.076537  0.827250  1
  C  C7  1  0.096213  0.923463  0.172750  1
  C  C8  1  0.249286  0.576537  0.672750  1
  C  C9  1  0.750714  0.423463  0.327250  1
  N  N10  1  0.784568  0.124031  0.660538  1
  N  N11  1  0.215432  0.875969  0.339462  1
  N  N12  1  0.463493  0.624031  0.839462  1
  N  N13  1  0.536507  0.375969  0.160538  1
