# generated using pymatgen
data_NaGd4MgGe4
_symmetry_space_group_name_H-M   'P 1'
_cell_length_a   7.46110300
_cell_length_b   7.46110300
_cell_length_c   4.27761700
_cell_angle_alpha   90.00000000
_cell_angle_beta   90.00000000
_cell_angle_gamma   90.00000000
_symmetry_Int_Tables_number   1
_chemical_formula_structural   NaGd4MgGe4
_chemical_formula_sum   'Na1 Gd4 Mg1 Ge4'
_cell_volume   238.12663116
_cell_formula_units_Z   1
loop_
 _symmetry_equiv_pos_site_id
 _symmetry_equiv_pos_as_xyz
  1  'x, y, z'
loop_
 _atom_site_type_symbol
 _atom_site_label
 _atom_site_symmetry_multiplicity
 _atom_site_fract_x
 _atom_site_fract_y
 _atom_site_fract_z
 _atom_site_occupancy
  Na  Na0  1  0.500000  0.500000  0.500000  1
  Gd  Gd1  1  0.827890  0.317655  0.000000  1
  Gd  Gd2  1  0.317655  0.172110  0.000000  1
  Gd  Gd3  1  0.172110  0.682345  0.000000  1
  Gd  Gd4  1  0.682345  0.827890  0.000000  1
  Mg  Mg5  1  0.000000  0.000000  0.500000  1
  Ge  Ge6  1  0.625187  0.118234  0.500000  1
  Ge  Ge7  1  0.374813  0.881766  0.500000  1
  Ge  Ge8  1  0.881766  0.625187  0.500000  1
  Ge  Ge9  1  0.118234  0.374813  0.500000  1
