# generated using pymatgen
data_Zr2Nb2Ni10As7
_symmetry_space_group_name_H-M   'P 1'
_cell_length_a   9.52832727
_cell_length_b   9.48362784
_cell_length_c   3.76713900
_cell_angle_alpha   90.00000000
_cell_angle_beta   90.00000000
_cell_angle_gamma   120.52562854
_symmetry_Int_Tables_number   1
_chemical_formula_structural   Zr2Nb2Ni10As7
_chemical_formula_sum   'Zr2 Nb2 Ni10 As7'
_cell_volume   293.23021243
_cell_formula_units_Z   1
loop_
 _symmetry_equiv_pos_site_id
 _symmetry_equiv_pos_as_xyz
  1  'x, y, z'
loop_
 _atom_site_type_symbol
 _atom_site_label
 _atom_site_symmetry_multiplicity
 _atom_site_fract_x
 _atom_site_fract_y
 _atom_site_fract_z
 _atom_site_occupancy
  Zr  Zr0  1  0.991640  0.002601  0.000000  1
  Zr  Zr1  1  0.336249  0.669325  0.500000  1
  Nb  Nb2  1  0.888951  0.456040  0.500000  1
  Nb  Nb3  1  0.544786  0.430012  0.500000  1
  Ni  Ni4  1  0.293194  0.390159  0.000000  1
  Ni  Ni5  1  0.099895  0.709495  0.000000  1
  Ni  Ni6  1  0.375055  0.166474  0.000000  1
  Ni  Ni7  1  0.793965  0.622432  0.000000  1
  Ni  Ni8  1  0.832081  0.210263  0.000000  1
  Ni  Ni9  1  0.236929  0.946918  0.500000  1
  Ni  Ni10  1  0.051903  0.280138  0.500000  1
  Ni  Ni11  1  0.719583  0.774090  0.500000  1
  Ni  Ni12  1  0.567483  0.107345  0.500000  1
  Ni  Ni13  1  0.606064  0.900606  0.000000  1
  As  As14  1  0.660023  0.319565  0.000000  1
  As  As15  1  0.092753  0.458982  0.000000  1
  As  As16  1  0.243996  0.202591  0.500000  1
  As  As17  1  0.783678  0.044756  0.500000  1
  As  As18  1  0.959935  0.756394  0.500000  1
  As  As19  1  0.547301  0.633041  0.000000  1
  As  As20  1  0.374534  0.918773  0.000000  1
