# generated using pymatgen
data_Gd11YSc8(GaO4)12
_symmetry_space_group_name_H-M   'P 1'
_cell_length_a   10.97716324
_cell_length_b   10.97529867
_cell_length_c   10.97529703
_cell_angle_alpha   109.47929970
_cell_angle_beta   109.46372376
_cell_angle_gamma   109.46398764
_symmetry_Int_Tables_number   1
_chemical_formula_structural   Gd11YSc8(GaO4)12
_chemical_formula_sum   'Gd11 Y1 Sc8 Ga12 O48'
_cell_volume   1017.97355341
_cell_formula_units_Z   1
loop_
 _symmetry_equiv_pos_site_id
 _symmetry_equiv_pos_as_xyz
  1  'x, y, z'
loop_
 _atom_site_type_symbol
 _atom_site_label
 _atom_site_symmetry_multiplicity
 _atom_site_fract_x
 _atom_site_fract_y
 _atom_site_fract_z
 _atom_site_occupancy
  Gd  Gd0  1  0.249998  0.375002  0.125001  1
  Gd  Gd1  1  0.374945  0.749944  0.124931  1
  Gd  Gd2  1  0.874859  0.624975  0.249654  1
  Gd  Gd3  1  0.374945  0.125002  0.250015  1
  Gd  Gd4  1  0.125055  0.249983  0.374998  1
  Gd  Gd5  1  0.750001  0.124996  0.375000  1
  Gd  Gd6  1  0.874858  0.749883  0.625203  1
  Gd  Gd7  1  0.249998  0.875003  0.624999  1
  Gd  Gd8  1  0.125059  0.375071  0.750059  1
  Gd  Gd9  1  0.625140  0.874796  0.750114  1
  Gd  Gd10  1  0.625144  0.250345  0.875022  1
  Y  Y11  1  0.750000  0.625001  0.875000  1
  Sc  Sc12  1  0.999754  0.999384  0.999943  1
  Sc  Sc13  1  0.499939  0.999883  0.999934  1
  Sc  Sc14  1  0.999756  0.500369  0.999813  1
  Sc  Sc15  1  0.500245  0.500188  0.999632  1
  Sc  Sc16  1  0.000059  0.999995  0.499942  1
  Sc  Sc17  1  0.500246  0.500057  0.500611  1
  Sc  Sc18  1  0.499935  0.000053  0.500001  1
  Sc  Sc19  1  0.000060  0.500064  0.500116  1
  Ga  Ga20  1  0.749999  0.874505  0.124505  1
  Ga  Ga21  1  0.875037  0.250060  0.125011  1
  Ga  Ga22  1  0.624962  0.374988  0.249939  1
  Ga  Ga23  1  0.124541  0.874682  0.249463  1
  Ga  Ga24  1  0.624963  0.749974  0.375023  1
  Ga  Ga25  1  0.250000  0.624993  0.374993  1
  Ga  Ga26  1  0.750001  0.375494  0.625494  1
  Ga  Ga27  1  0.375459  0.250537  0.625317  1
  Ga  Ga28  1  0.875037  0.124976  0.750026  1
  Ga  Ga29  1  0.375460  0.624922  0.750143  1
  Ga  Ga30  1  0.124541  0.749859  0.875078  1
  Ga  Ga31  1  0.250000  0.125007  0.875007  1
  O  O32  1  0.317034  0.903239  0.028572  1
  O  O33  1  0.211306  0.125176  0.028596  1
  O  O34  1  0.711528  0.681928  0.083950  1
  O  O35  1  0.874647  0.403377  0.086057  1
  O  O36  1  0.970207  0.682932  0.095564  1
  O  O37  1  0.625353  0.413943  0.096622  1
  O  O38  1  0.596822  0.913770  0.125248  1
  O  O39  1  0.028516  0.211150  0.125262  1
  O  O40  1  0.211305  0.586130  0.182712  1
  O  O41  1  0.471485  0.596747  0.182636  1
  O  O42  1  0.586064  0.182706  0.211417  1
  O  O43  1  0.125449  0.028822  0.211521  1
  O  O44  1  0.317034  0.913796  0.288464  1
  O  O45  1  0.471483  0.374738  0.288849  1
  O  O46  1  0.903178  0.028426  0.316948  1
  O  O47  1  0.913936  0.288582  0.317293  1
  O  O48  1  0.586064  0.903356  0.374648  1
  O  O49  1  0.288694  0.471406  0.374826  1
  O  O50  1  0.817097  0.528701  0.403502  1
  O  O51  1  0.085985  0.874404  0.403047  1
  O  O52  1  0.096620  0.625361  0.413868  1
  O  O53  1  0.817095  0.788396  0.413597  1
  O  O54  1  0.596819  0.183047  0.471570  1
  O  O55  1  0.374551  0.288479  0.471175  1
  O  O56  1  0.625354  0.711411  0.528729  1
  O  O57  1  0.403381  0.817248  0.528741  1
  O  O58  1  0.182965  0.211537  0.586203  1
  O  O59  1  0.903181  0.374750  0.586229  1
  O  O60  1  0.913936  0.125353  0.596642  1
  O  O61  1  0.182963  0.471424  0.596759  1
  O  O62  1  0.414016  0.096951  0.625597  1
  O  O63  1  0.711530  0.529603  0.627579  1
  O  O64  1  0.085984  0.711581  0.682937  1
  O  O65  1  0.096618  0.971258  0.682751  1
  O  O66  1  0.682904  0.086404  0.711604  1
  O  O67  1  0.529797  0.625358  0.712724  1
  O  O68  1  0.414015  0.817067  0.788418  1
  O  O69  1  0.874646  0.971269  0.788589  1
  O  O70  1  0.529795  0.404438  0.817070  1
  O  O71  1  0.788470  0.416050  0.818076  1
  O  O72  1  0.970206  0.787277  0.874643  1
  O  O73  1  0.403381  0.086134  0.874640  1
  O  O74  1  0.028516  0.317365  0.903255  1
  O  O75  1  0.374550  0.586071  0.903377  1
  O  O76  1  0.288695  0.317290  0.913871  1
  O  O77  1  0.125449  0.596625  0.913928  1
  O  O78  1  0.682904  0.096500  0.971299  1
  O  O79  1  0.788472  0.872422  0.970399  1
