# generated using pymatgen
data_Hf18Re6AsPW2
_symmetry_space_group_name_H-M   'P 1'
_cell_length_a   8.62484600
_cell_length_b   8.62484623
_cell_length_c   8.61442300
_cell_angle_alpha   90.00000000
_cell_angle_beta   90.00000000
_cell_angle_gamma   119.99999914
_symmetry_Int_Tables_number   1
_chemical_formula_structural   Hf18Re6AsPW2
_chemical_formula_sum   'Hf18 Re6 As1 P1 W2'
_cell_volume   554.95726208
_cell_formula_units_Z   1
loop_
 _symmetry_equiv_pos_site_id
 _symmetry_equiv_pos_as_xyz
  1  'x, y, z'
loop_
 _atom_site_type_symbol
 _atom_site_label
 _atom_site_symmetry_multiplicity
 _atom_site_fract_x
 _atom_site_fract_y
 _atom_site_fract_z
 _atom_site_occupancy
  Hf  Hf0  1  0.194420  0.805580  0.454468  1
  Hf  Hf1  1  0.194420  0.388837  0.454468  1
  Hf  Hf2  1  0.611163  0.805580  0.454468  1
  Hf  Hf3  1  0.803360  0.196640  0.548514  1
  Hf  Hf4  1  0.803360  0.606721  0.548514  1
  Hf  Hf5  1  0.393279  0.196640  0.548514  1
  Hf  Hf6  1  0.803360  0.196640  0.951486  1
  Hf  Hf7  1  0.803360  0.606721  0.951486  1
  Hf  Hf8  1  0.393279  0.196640  0.951486  1
  Hf  Hf9  1  0.194420  0.805580  0.045532  1
  Hf  Hf10  1  0.194420  0.388837  0.045532  1
  Hf  Hf11  1  0.611163  0.805580  0.045532  1
  Hf  Hf12  1  0.540394  0.459606  0.250000  1
  Hf  Hf13  1  0.540394  0.080786  0.250000  1
  Hf  Hf14  1  0.919214  0.459606  0.250000  1
  Hf  Hf15  1  0.460426  0.539574  0.750000  1
  Hf  Hf16  1  0.460426  0.920852  0.750000  1
  Hf  Hf17  1  0.079148  0.539574  0.750000  1
  Re  Re18  1  0.889749  0.110251  0.250000  1
  Re  Re19  1  0.889749  0.779498  0.250000  1
  Re  Re20  1  0.220502  0.110251  0.250000  1
  Re  Re21  1  0.110060  0.889940  0.750000  1
  Re  Re22  1  0.110060  0.220120  0.750000  1
  Re  Re23  1  0.779880  0.889940  0.750000  1
  As  As24  1  0.333333  0.666667  0.250000  1
  P  P25  1  0.666667  0.333333  0.750000  1
  W  W26  1  0.000000  0.000000  0.500122  1
  W  W27  1  0.000000  0.000000  0.999878  1
