# generated using pymatgen
data_Er6C3Cl5
_symmetry_space_group_name_H-M   'P 1'
_cell_length_a   3.61811951
_cell_length_b   8.22575617
_cell_length_c   10.09845249
_cell_angle_alpha   85.68772194
_cell_angle_beta   79.60292458
_cell_angle_gamma   77.36958680
_symmetry_Int_Tables_number   1
_chemical_formula_structural   Er6C3Cl5
_chemical_formula_sum   'Er6 C3 Cl5'
_cell_volume   288.25946729
_cell_formula_units_Z   1
loop_
 _symmetry_equiv_pos_site_id
 _symmetry_equiv_pos_as_xyz
  1  'x, y, z'
loop_
 _atom_site_type_symbol
 _atom_site_label
 _atom_site_symmetry_multiplicity
 _atom_site_fract_x
 _atom_site_fract_y
 _atom_site_fract_z
 _atom_site_occupancy
  Er  Er0  1  0.573586  0.076087  0.779734  1
  Er  Er1  1  0.959679  0.429296  0.657935  1
  Er  Er2  1  0.683691  0.180555  0.455196  1
  Er  Er3  1  0.047697  0.568692  0.341815  1
  Er  Er4  1  0.320000  0.819720  0.542686  1
  Er  Er5  1  0.431865  0.921598  0.218125  1
  C  C6  1  0.127300  0.123248  0.625440  1
  C  C7  1  0.877432  0.874658  0.372576  1
  C  C8  1  0.504489  0.498333  0.499881  1
  Cl  Cl9  1  0.745930  0.746306  0.757054  1
  Cl  Cl10  1  0.379782  0.380123  0.871225  1
  Cl  Cl11  1  0.251929  0.252246  0.239797  1
  Cl  Cl12  1  0.631882  0.616099  0.129333  1
  Cl  Cl13  1  0.001961  0.996628  0.998517  1
