# generated using pymatgen
data_Li3Ho8Sc8Si16Mo
_symmetry_space_group_name_H-M   'P 1'
_cell_length_a   6.91067953
_cell_length_b   7.30059259
_cell_length_c   13.93026490
_cell_angle_alpha   90.07864575
_cell_angle_beta   89.81372121
_cell_angle_gamma   89.57653484
_symmetry_Int_Tables_number   1
_chemical_formula_structural   Li3Ho8Sc8Si16Mo
_chemical_formula_sum   'Li3 Ho8 Sc8 Si16 Mo1'
_cell_volume   702.78690670
_cell_formula_units_Z   1
loop_
 _symmetry_equiv_pos_site_id
 _symmetry_equiv_pos_as_xyz
  1  'x, y, z'
loop_
 _atom_site_type_symbol
 _atom_site_label
 _atom_site_symmetry_multiplicity
 _atom_site_fract_x
 _atom_site_fract_y
 _atom_site_fract_z
 _atom_site_occupancy
  Li  Li0  1  0.162287  0.499395  0.744657  1
  Li  Li1  1  0.838983  0.495779  0.252233  1
  Li  Li2  1  0.338796  0.006039  0.251262  1
  Ho  Ho3  1  0.013731  0.180916  0.099253  1
  Ho  Ho4  1  0.991411  0.820677  0.896821  1
  Ho  Ho5  1  0.485072  0.675972  0.898388  1
  Ho  Ho6  1  0.992046  0.825260  0.596855  1
  Ho  Ho7  1  0.513193  0.319640  0.098831  1
  Ho  Ho8  1  0.013034  0.180695  0.400497  1
  Ho  Ho9  1  0.510491  0.317853  0.407419  1
  Ho  Ho10  1  0.484248  0.671993  0.596986  1
  Sc  Sc11  1  0.661139  0.002935  0.746670  1
  Sc  Sc12  1  0.665667  0.824704  0.377513  1
  Sc  Sc13  1  0.168214  0.680203  0.378506  1
  Sc  Sc14  1  0.667501  0.822840  0.127425  1
  Sc  Sc15  1  0.837774  0.324020  0.624122  1
  Sc  Sc16  1  0.327961  0.181102  0.872549  1
  Sc  Sc17  1  0.830070  0.327371  0.871310  1
  Sc  Sc18  1  0.168881  0.678175  0.126581  1
  Si  Si19  1  0.039298  0.108031  0.742744  1
  Si  Si20  1  0.967193  0.897006  0.251066  1
  Si  Si21  1  0.467194  0.606618  0.252166  1
  Si  Si22  1  0.530886  0.376429  0.745209  1
  Si  Si23  1  0.290021  0.882681  0.745832  1
  Si  Si24  1  0.713728  0.121055  0.250935  1
  Si  Si25  1  0.219947  0.380252  0.251071  1
  Si  Si26  1  0.780401  0.624258  0.746470  1
  Si  Si27  1  0.175934  0.447706  0.535512  1
  Si  Si28  1  0.841670  0.534810  0.466889  1
  Si  Si29  1  0.330962  0.969375  0.476001  1
  Si  Si30  1  0.840180  0.538678  0.035198  1
  Si  Si31  1  0.644844  0.034661  0.544484  1
  Si  Si32  1  0.156722  0.463444  0.964685  1
  Si  Si33  1  0.659034  0.034741  0.960591  1
  Si  Si34  1  0.342573  0.963282  0.034495  1
  Mo  Mo35  1  0.328915  0.181402  0.628777  1
