# generated using pymatgen
data_Zr2U(AlCo)3
_symmetry_space_group_name_H-M   'P 1'
_cell_length_a   6.73070490
_cell_length_b   6.96964781
_cell_length_c   3.59423800
_cell_angle_alpha   90.00000000
_cell_angle_beta   90.00000000
_cell_angle_gamma   121.18146288
_symmetry_Int_Tables_number   1
_chemical_formula_structural   Zr2U(AlCo)3
_chemical_formula_sum   'Zr2 U1 Al3 Co3'
_cell_volume   144.24952052
_cell_formula_units_Z   1
loop_
 _symmetry_equiv_pos_site_id
 _symmetry_equiv_pos_as_xyz
  1  'x, y, z'
loop_
 _atom_site_type_symbol
 _atom_site_label
 _atom_site_symmetry_multiplicity
 _atom_site_fract_x
 _atom_site_fract_y
 _atom_site_fract_z
 _atom_site_occupancy
  Zr  Zr0  1  0.412840  0.407192  0.500000  1
  Zr  Zr1  1  0.587160  0.994352  0.500000  1
  U  U2  1  0.000000  0.575907  0.500000  1
  Al  Al3  1  0.742336  0.756277  0.000000  1
  Al  Al4  1  0.257664  0.013941  0.000000  1
  Al  Al5  1  0.000000  0.227194  0.000000  1
  Co  Co6  1  0.700983  0.366228  0.000000  1
  Co  Co7  1  0.299017  0.665246  0.000000  1
  Co  Co8  1  0.000000  0.993663  0.500000  1
