# generated using pymatgen
data_Ho(NbS2)5
_symmetry_space_group_name_H-M   'P 1'
_cell_length_a   5.85957125
_cell_length_b   7.79023738
_cell_length_c   8.53015297
_cell_angle_alpha   113.62355350
_cell_angle_beta   96.73558188
_cell_angle_gamma   104.34124290
_symmetry_Int_Tables_number   1
_chemical_formula_structural   Ho(NbS2)5
_chemical_formula_sum   'Ho1 Nb5 S10'
_cell_volume   335.18912805
_cell_formula_units_Z   1
loop_
 _symmetry_equiv_pos_site_id
 _symmetry_equiv_pos_as_xyz
  1  'x, y, z'
loop_
 _atom_site_type_symbol
 _atom_site_label
 _atom_site_symmetry_multiplicity
 _atom_site_fract_x
 _atom_site_fract_y
 _atom_site_fract_z
 _atom_site_occupancy
  Ho  Ho0  1  0.668066  0.509101  0.993121  1
  Nb  Nb1  1  0.003296  0.997616  0.000781  1
  Nb  Nb2  1  0.599017  0.202494  0.202790  1
  Nb  Nb3  1  0.198197  0.399377  0.398706  1
  Nb  Nb4  1  0.799073  0.600128  0.602025  1
  Nb  Nb5  1  0.401004  0.796888  0.798801  1
  S  S6  1  0.236198  0.063292  0.291926  1
  S  S7  1  0.046109  0.657551  0.893591  1
  S  S8  1  0.835441  0.262487  0.490189  1
  S  S9  1  0.636016  0.867584  0.099854  1
  S  S10  1  0.427296  0.450163  0.685114  1
  S  S11  1  0.897661  0.543905  0.310252  1
  S  S12  1  0.698320  0.136243  0.907338  1
  S  S13  1  0.496040  0.736470  0.510412  1
  S  S14  1  0.293560  0.339281  0.105845  1
  S  S15  1  0.097507  0.935017  0.710856  1
