# generated using pymatgen
data_DyY3(Al8Pt3)3
_symmetry_space_group_name_H-M   'P 1'
_cell_length_a   7.52923455
_cell_length_b   7.55087065
_cell_length_c   13.18473002
_cell_angle_alpha   84.57826571
_cell_angle_beta   79.12718746
_cell_angle_gamma   59.97313375
_symmetry_Int_Tables_number   1
_chemical_formula_structural   DyY3(Al8Pt3)3
_chemical_formula_sum   'Dy1 Y3 Al24 Pt9'
_cell_volume   637.33086651
_cell_formula_units_Z   1
loop_
 _symmetry_equiv_pos_site_id
 _symmetry_equiv_pos_as_xyz
  1  'x, y, z'
loop_
 _atom_site_type_symbol
 _atom_site_label
 _atom_site_symmetry_multiplicity
 _atom_site_fract_x
 _atom_site_fract_y
 _atom_site_fract_z
 _atom_site_occupancy
  Dy  Dy0  1  0.265847  0.501550  0.192465  1
  Y  Y1  1  0.393398  0.168430  0.807973  1
  Y  Y2  1  0.606598  0.831558  0.192023  1
  Y  Y3  1  0.734129  0.498434  0.807638  1
  Al  Al4  1  0.684566  0.833609  0.944572  1
  Al  Al5  1  0.315422  0.166458  0.055485  1
  Al  Al6  1  0.147001  0.832289  0.561131  1
  Al  Al7  1  0.853006  0.167708  0.438861  1
  Al  Al8  1  0.479764  0.166840  0.558622  1
  Al  Al9  1  0.520234  0.833159  0.441370  1
  Al  Al10  1  0.217117  0.165290  0.330059  1
  Al  Al11  1  0.782903  0.834736  0.669901  1
  Al  Al12  1  0.437959  0.506167  0.669880  1
  Al  Al13  1  0.562013  0.493838  0.330069  1
  Al  Al14  1  0.109835  0.159996  0.669157  1
  Al  Al15  1  0.890207  0.839974  0.330806  1
  Al  Al16  1  0.353161  0.499037  0.944797  1
  Al  Al17  1  0.646720  0.500976  0.055318  1
  Al  Al18  1  0.014704  0.167844  0.953231  1
  Al  Al19  1  0.985342  0.832082  0.046826  1
  Al  Al20  1  0.186809  0.498858  0.441241  1
  Al  Al21  1  0.813208  0.501148  0.558715  1
  Al  Al22  1  0.734235  0.164034  0.183273  1
  Al  Al23  1  0.265679  0.836072  0.816722  1
  Al  Al24  1  0.061867  0.631644  0.815473  1
  Al  Al25  1  0.938218  0.368349  0.184518  1
  Al  Al26  1  0.854783  0.041646  0.815958  1
  Al  Al27  1  0.145209  0.958274  0.184037  1
  Pt  Pt28  1  0.120181  0.492372  0.638664  1
  Pt  Pt29  1  0.879940  0.507627  0.361281  1
  Pt  Pt30  1  0.657368  0.171125  0.999939  1
  Pt  Pt31  1  0.342602  0.828874  0.000086  1
  Pt  Pt32  1  0.538202  0.166796  0.361282  1
  Pt  Pt33  1  0.461729  0.833286  0.638671  1
  Pt  Pt34  1  0.779303  0.174682  0.637111  1
  Pt  Pt35  1  0.220715  0.825237  0.362834  1
  Pt  Pt36  1  0.000024  0.500000  0.000013  1
