# generated using pymatgen
data_Ca6PrNd(Si3Au)4
_symmetry_space_group_name_H-M   'P 1'
_cell_length_a   8.29655100
_cell_length_b   8.29655168
_cell_length_c   8.61720400
_cell_angle_alpha   90.00000000
_cell_angle_beta   90.00000000
_cell_angle_gamma   119.99999331
_symmetry_Int_Tables_number   1
_chemical_formula_structural   Ca6PrNd(Si3Au)4
_chemical_formula_sum   'Ca6 Pr1 Nd1 Si12 Au4'
_cell_volume   513.67951298
_cell_formula_units_Z   1
loop_
 _symmetry_equiv_pos_site_id
 _symmetry_equiv_pos_as_xyz
  1  'x, y, z'
loop_
 _atom_site_type_symbol
 _atom_site_label
 _atom_site_symmetry_multiplicity
 _atom_site_fract_x
 _atom_site_fract_y
 _atom_site_fract_z
 _atom_site_occupancy
  Ca  Ca0  1  0.498670  0.501330  0.750000  1
  Ca  Ca1  1  0.500982  0.499018  0.250000  1
  Ca  Ca2  1  0.002662  0.501330  0.750000  1
  Ca  Ca3  1  0.998036  0.499018  0.250000  1
  Ca  Ca4  1  0.498670  0.997338  0.750000  1
  Ca  Ca5  1  0.500982  0.001964  0.250000  1
  Pr  Pr6  1  0.000000  0.000000  0.750000  1
  Nd  Nd7  1  0.000000  0.000000  0.250000  1
  Si  Si8  1  0.836916  0.163084  0.000501  1
  Si  Si9  1  0.163340  0.836660  0.001022  1
  Si  Si10  1  0.326168  0.163084  0.000501  1
  Si  Si11  1  0.163340  0.836660  0.498978  1
  Si  Si12  1  0.673320  0.836660  0.001022  1
  Si  Si13  1  0.836916  0.163084  0.499499  1
  Si  Si14  1  0.836916  0.673832  0.000501  1
  Si  Si15  1  0.673320  0.836660  0.498978  1
  Si  Si16  1  0.163340  0.326680  0.001022  1
  Si  Si17  1  0.326168  0.163084  0.499499  1
  Si  Si18  1  0.163340  0.326680  0.498978  1
  Si  Si19  1  0.836916  0.673832  0.499499  1
  Au  Au20  1  0.666667  0.333333  0.996395  1
  Au  Au21  1  0.333333  0.666667  0.003158  1
  Au  Au22  1  0.333333  0.666667  0.496842  1
  Au  Au23  1  0.666667  0.333333  0.503605  1
