# generated using pymatgen
data_Ta2TiNb7Si6
_symmetry_space_group_name_H-M   'P 1'
_cell_length_a   7.56507061
_cell_length_b   7.56613425
_cell_length_c   7.56398733
_cell_angle_alpha   128.39765868
_cell_angle_beta   128.38791571
_cell_angle_gamma   75.97116639
_symmetry_Int_Tables_number   1
_chemical_formula_structural   Ta2TiNb7Si6
_chemical_formula_sum   'Ta2 Ti1 Nb7 Si6'
_cell_volume   258.62361306
_cell_formula_units_Z   1
loop_
 _symmetry_equiv_pos_site_id
 _symmetry_equiv_pos_as_xyz
  1  'x, y, z'
loop_
 _atom_site_type_symbol
 _atom_site_label
 _atom_site_symmetry_multiplicity
 _atom_site_fract_x
 _atom_site_fract_y
 _atom_site_fract_z
 _atom_site_occupancy
  Ta  Ta0  1  0.815013  0.315688  0.831654  1
  Ta  Ta1  1  0.500329  0.500097  0.000133  1
  Ti  Ti2  1  0.000056  0.000156  0.000118  1
  Nb  Nb3  1  0.017849  0.185201  0.501005  1
  Nb  Nb4  1  0.684715  0.517390  0.500065  1
  Nb  Nb5  1  0.517791  0.018102  0.833373  1
  Nb  Nb6  1  0.185202  0.684898  0.166912  1
  Nb  Nb7  1  0.981678  0.814753  0.499282  1
  Nb  Nb8  1  0.314967  0.481900  0.499799  1
  Nb  Nb9  1  0.482521  0.982133  0.167502  1
  Si  Si10  1  0.750832  0.750401  0.000037  1
  Si  Si11  1  0.248965  0.249404  0.000008  1
  Si  Si12  1  0.367246  0.126899  0.494214  1
  Si  Si13  1  0.633073  0.873378  0.506482  1
  Si  Si14  1  0.873042  0.366853  0.239944  1
  Si  Si15  1  0.126718  0.632747  0.759473  1
