# generated using pymatgen
data_Y9Er7(C2Br3)4
_symmetry_space_group_name_H-M   'P 1'
_cell_length_a   3.68670600
_cell_length_b   10.69735742
_cell_length_c   20.42152280
_cell_angle_alpha   89.96783676
_cell_angle_beta   90.00000000
_cell_angle_gamma   90.00000000
_symmetry_Int_Tables_number   1
_chemical_formula_structural   Y9Er7(C2Br3)4
_chemical_formula_sum   'Y9 Er7 C8 Br12'
_cell_volume   805.38413022
_cell_formula_units_Z   1
loop_
 _symmetry_equiv_pos_site_id
 _symmetry_equiv_pos_as_xyz
  1  'x, y, z'
loop_
 _atom_site_type_symbol
 _atom_site_label
 _atom_site_symmetry_multiplicity
 _atom_site_fract_x
 _atom_site_fract_y
 _atom_site_fract_z
 _atom_site_occupancy
  Y  Y0  1  0.250000  0.865718  0.580321  1
  Y  Y1  1  0.750000  0.134373  0.419816  1
  Y  Y2  1  0.750000  0.633846  0.080154  1
  Y  Y3  1  0.250000  0.365675  0.919736  1
  Y  Y4  1  0.250000  0.865211  0.744856  1
  Y  Y5  1  0.750000  0.134459  0.255369  1
  Y  Y6  1  0.750000  0.634588  0.244844  1
  Y  Y7  1  0.250000  0.365460  0.755135  1
  Y  Y8  1  0.250000  0.868606  0.168888  1
  Er  Er9  1  0.750000  0.132576  0.830464  1
  Er  Er10  1  0.750000  0.632552  0.669520  1
  Er  Er11  1  0.250000  0.367359  0.330511  1
  Er  Er12  1  0.250000  0.901192  0.327931  1
  Er  Er13  1  0.750000  0.098570  0.672691  1
  Er  Er14  1  0.750000  0.598662  0.827322  1
  Er  Er15  1  0.250000  0.401509  0.172741  1
  C  C16  1  0.250000  0.614527  0.750270  1
  C  C17  1  0.750000  0.385063  0.249935  1
  C  C18  1  0.750000  0.886036  0.251451  1
  C  C19  1  0.250000  0.114651  0.749752  1
  C  C20  1  0.250000  0.631323  0.156355  1
  C  C21  1  0.750000  0.366962  0.843507  1
  C  C22  1  0.750000  0.867119  0.656512  1
  C  C23  1  0.250000  0.133346  0.343717  1
  Br  Br24  1  0.250000  0.610502  0.556655  1
  Br  Br25  1  0.750000  0.389484  0.443504  1
  Br  Br26  1  0.750000  0.889110  0.054982  1
  Br  Br27  1  0.250000  0.110466  0.943344  1
  Br  Br28  1  0.250000  0.628432  0.952186  1
  Br  Br29  1  0.750000  0.371324  0.047451  1
  Br  Br30  1  0.750000  0.871417  0.452507  1
  Br  Br31  1  0.250000  0.128580  0.547721  1
  Br  Br32  1  0.250000  0.636238  0.357466  1
  Br  Br33  1  0.750000  0.363405  0.642587  1
  Br  Br34  1  0.750000  0.863395  0.857364  1
  Br  Br35  1  0.250000  0.138267  0.142437  1
