# generated using pymatgen
data_La4Nd9Er3(CdIr)4
_symmetry_space_group_name_H-M   'P 1'
_cell_length_a   9.92305094
_cell_length_b   9.88803766
_cell_length_c   9.92804339
_cell_angle_alpha   60.09985629
_cell_angle_beta   60.23553410
_cell_angle_gamma   60.15001186
_symmetry_Int_Tables_number   1
_chemical_formula_structural   La4Nd9Er3(CdIr)4
_chemical_formula_sum   'La4 Nd9 Er3 Cd4 Ir4'
_cell_volume   691.33954178
_cell_formula_units_Z   1
loop_
 _symmetry_equiv_pos_site_id
 _symmetry_equiv_pos_as_xyz
  1  'x, y, z'
loop_
 _atom_site_type_symbol
 _atom_site_label
 _atom_site_symmetry_multiplicity
 _atom_site_fract_x
 _atom_site_fract_y
 _atom_site_fract_z
 _atom_site_occupancy
  La  La0  1  0.351174  0.351151  0.346087  1
  La  La1  1  0.347559  0.352443  0.952390  1
  La  La2  1  0.346087  0.951587  0.351174  1
  La  La3  1  0.952390  0.347607  0.347559  1
  Nd  Nd4  1  0.811987  0.188013  0.811987  1
  Nd  Nd5  1  0.186502  0.184311  0.815052  1
  Nd  Nd6  1  0.815052  0.814136  0.186502  1
  Nd  Nd7  1  0.941028  0.563346  0.559038  1
  Nd  Nd8  1  0.559038  0.936587  0.941028  1
  Nd  Nd9  1  0.561297  0.938703  0.561297  1
  Nd  Nd10  1  0.938192  0.561808  0.938192  1
  Nd  Nd11  1  0.559618  0.564414  0.939559  1
  Nd  Nd12  1  0.939559  0.936409  0.559618  1
  Er  Er13  1  0.811796  0.187549  0.189859  1
  Er  Er14  1  0.189859  0.810795  0.811796  1
  Er  Er15  1  0.186931  0.813069  0.186931  1
  Cd  Cd16  1  0.579666  0.580291  0.581852  1
  Cd  Cd17  1  0.581108  0.580576  0.257278  1
  Cd  Cd18  1  0.581852  0.258188  0.579666  1
  Cd  Cd19  1  0.257278  0.581036  0.581108  1
  Ir  Ir20  1  0.136519  0.137569  0.145306  1
  Ir  Ir21  1  0.143935  0.134983  0.576261  1
  Ir  Ir22  1  0.145306  0.580604  0.136519  1
  Ir  Ir23  1  0.576261  0.144819  0.143935  1
