# generated using pymatgen
data_Yb7YSi13Sn
_symmetry_space_group_name_H-M   'P 1'
_cell_length_a   7.99763697
_cell_length_b   7.86740264
_cell_length_c   8.65441120
_cell_angle_alpha   89.88843770
_cell_angle_beta   90.10772142
_cell_angle_gamma   120.96775214
_symmetry_Int_Tables_number   1
_chemical_formula_structural   Yb7YSi13Sn
_chemical_formula_sum   'Yb7 Y1 Si13 Sn1'
_cell_volume   466.91939285
_cell_formula_units_Z   1
loop_
 _symmetry_equiv_pos_site_id
 _symmetry_equiv_pos_as_xyz
  1  'x, y, z'
loop_
 _atom_site_type_symbol
 _atom_site_label
 _atom_site_symmetry_multiplicity
 _atom_site_fract_x
 _atom_site_fract_y
 _atom_site_fract_z
 _atom_site_occupancy
  Yb  Yb0  1  0.750159  0.753312  0.001793  1
  Yb  Yb1  1  0.750538  0.753965  0.497803  1
  Yb  Yb2  1  0.262808  0.251580  0.508225  1
  Yb  Yb3  1  0.251349  0.747231  0.492353  1
  Yb  Yb4  1  0.737505  0.253410  0.513631  1
  Yb  Yb5  1  0.739425  0.255323  0.986673  1
  Yb  Yb6  1  0.252173  0.747759  0.007476  1
  Y  Y7  1  0.267337  0.256503  0.992010  1
  Si  Si8  1  0.944755  0.633241  0.750383  1
  Si  Si9  1  0.586678  0.421652  0.248872  1
  Si  Si10  1  0.413934  0.584550  0.750571  1
  Si  Si11  1  0.415185  0.589542  0.247976  1
  Si  Si12  1  0.591635  0.418548  0.750659  1
  Si  Si13  1  0.071627  0.942185  0.246252  1
  Si  Si14  1  0.937736  0.067589  0.752909  1
  Si  Si15  1  0.621715  0.943910  0.249613  1
  Si  Si16  1  0.378349  0.058956  0.752270  1
  Si  Si17  1  0.925699  0.589272  0.248574  1
  Si  Si18  1  0.070972  0.415904  0.751989  1
  Si  Si19  1  0.412835  0.075183  0.247125  1
  Si  Si20  1  0.591872  0.931086  0.751813  1
  Sn  Sn21  1  0.025714  0.309298  0.251029  1
