# generated using pymatgen
data_ZrSc3(VRe3)2
_symmetry_space_group_name_H-M   'P 1'
_cell_length_a   5.26227379
_cell_length_b   5.27733474
_cell_length_c   8.57193133
_cell_angle_alpha   89.99999980
_cell_angle_beta   89.94484217
_cell_angle_gamma   120.09472224
_symmetry_Int_Tables_number   1
_chemical_formula_structural   ZrSc3(VRe3)2
_chemical_formula_sum   'Zr1 Sc3 V2 Re6'
_cell_volume   205.95949084
_cell_formula_units_Z   1
loop_
 _symmetry_equiv_pos_site_id
 _symmetry_equiv_pos_as_xyz
  1  'x, y, z'
loop_
 _atom_site_type_symbol
 _atom_site_label
 _atom_site_symmetry_multiplicity
 _atom_site_fract_x
 _atom_site_fract_y
 _atom_site_fract_z
 _atom_site_occupancy
  Zr  Zr0  1  0.331096  0.665548  0.439488  1
  Sc  Sc1  1  0.669284  0.334642  0.939437  1
  Sc  Sc2  1  0.668261  0.334131  0.561529  1
  Sc  Sc3  1  0.330679  0.665340  0.060614  1
  V  V4  1  0.666873  0.833437  0.749989  1
  V  V5  1  0.333803  0.166901  0.249993  1
  Re  Re6  1  0.824569  0.170816  0.249482  1
  Re  Re7  1  0.175480  0.346037  0.750086  1
  Re  Re8  1  0.175480  0.829444  0.750086  1
  Re  Re9  1  0.824569  0.653753  0.249482  1
  Re  Re10  1  0.000445  0.000223  0.499936  1
  Re  Re11  1  0.999459  0.999730  0.999879  1
