# generated using pymatgen
data_Tb4Ho8Ga2Co3Ni
_symmetry_space_group_name_H-M   'P 1'
_cell_length_a   8.26591180
_cell_length_b   8.26591092
_cell_length_c   8.26591127
_cell_angle_alpha   112.55450477
_cell_angle_beta   109.18480077
_cell_angle_gamma   106.72758861
_symmetry_Int_Tables_number   1
_chemical_formula_structural   Tb4Ho8Ga2Co3Ni
_chemical_formula_sum   'Tb4 Ho8 Ga2 Co3 Ni1'
_cell_volume   433.62239830
_cell_formula_units_Z   1
loop_
 _symmetry_equiv_pos_site_id
 _symmetry_equiv_pos_as_xyz
  1  'x, y, z'
loop_
 _atom_site_type_symbol
 _atom_site_label
 _atom_site_symmetry_multiplicity
 _atom_site_fract_x
 _atom_site_fract_y
 _atom_site_fract_z
 _atom_site_occupancy
  Tb  Tb0  1  0.435758  0.238544  0.197215  1
  Tb  Tb1  1  0.564909  0.762494  0.802416  1
  Tb  Tb2  1  0.041329  0.238544  0.802785  1
  Tb  Tb3  1  0.960079  0.762494  0.197584  1
  Ho  Ho4  1  0.181702  0.281377  0.459557  1
  Ho  Ho5  1  0.821818  0.722143  0.540443  1
  Ho  Ho6  1  0.181702  0.722143  0.900325  1
  Ho  Ho7  1  0.821818  0.281377  0.099675  1
  Ho  Ho8  1  0.326425  0.638852  0.312427  1
  Ho  Ho9  1  0.668382  0.357827  0.689443  1
  Ho  Ho10  1  0.326425  0.013998  0.687573  1
  Ho  Ho11  1  0.668382  0.978939  0.310557  1
  Ga  Ga12  1  0.500850  0.500850  0.000000  1
  Ga  Ga13  1  0.000602  0.000602  0.000000  1
  Co  Co14  1  0.339736  0.001462  0.338274  1
  Co  Co15  1  0.663188  0.001462  0.661726  1
  Co  Co16  1  0.114987  0.614987  0.500000  1
  Ni  Ni17  1  0.881904  0.381904  0.500000  1
