# generated using pymatgen
data_YbDyEr2(B6Os)2
_symmetry_space_group_name_H-M   'P 1'
_cell_length_a   3.63487500
_cell_length_b   9.12936472
_cell_length_c   11.52209600
_cell_angle_alpha   89.83489755
_cell_angle_beta   90.00000000
_cell_angle_gamma   90.00000000
_symmetry_Int_Tables_number   1
_chemical_formula_structural   YbDyEr2(B6Os)2
_chemical_formula_sum   'Yb2 Dy2 Er4 B24 Os4'
_cell_volume   382.34879352
_cell_formula_units_Z   2
loop_
 _symmetry_equiv_pos_site_id
 _symmetry_equiv_pos_as_xyz
  1  'x, y, z'
loop_
 _atom_site_type_symbol
 _atom_site_label
 _atom_site_symmetry_multiplicity
 _atom_site_fract_x
 _atom_site_fract_y
 _atom_site_fract_z
 _atom_site_occupancy
  Yb  Yb0  1  0.000000  0.324281  0.414603  1
  Yb  Yb1  1  0.000000  0.675719  0.585397  1
  Dy  Dy2  1  0.000000  0.821777  0.086359  1
  Dy  Dy3  1  0.000000  0.178223  0.913641  1
  Er  Er4  1  0.000000  0.941929  0.370631  1
  Er  Er5  1  0.000000  0.058071  0.629369  1
  Er  Er6  1  0.000000  0.442805  0.130274  1
  Er  Er7  1  0.000000  0.557195  0.869726  1
  B  B8  1  0.500000  0.553863  0.432587  1
  B  B9  1  0.500000  0.446137  0.567413  1
  B  B10  1  0.500000  0.053618  0.067015  1
  B  B11  1  0.500000  0.946382  0.932985  1
  B  B12  1  0.500000  0.748078  0.418119  1
  B  B13  1  0.500000  0.251922  0.581881  1
  B  B14  1  0.500000  0.248546  0.081639  1
  B  B15  1  0.500000  0.751454  0.918361  1
  B  B16  1  0.500000  0.790946  0.265100  1
  B  B17  1  0.500000  0.209054  0.734900  1
  B  B18  1  0.500000  0.290220  0.234645  1
  B  B19  1  0.500000  0.709780  0.765355  1
  B  B20  1  0.500000  0.630817  0.185401  1
  B  B21  1  0.500000  0.369183  0.814599  1
  B  B22  1  0.500000  0.130507  0.314273  1
  B  B23  1  0.500000  0.869493  0.685727  1
  B  B24  1  0.500000  0.982767  0.212121  1
  B  B25  1  0.500000  0.017233  0.787879  1
  B  B26  1  0.500000  0.483278  0.288182  1
  B  B27  1  0.500000  0.516722  0.711818  1
  B  B28  1  0.500000  0.602704  0.028294  1
  B  B29  1  0.500000  0.397296  0.971706  1
  B  B30  1  0.500000  0.099177  0.472508  1
  B  B31  1  0.500000  0.900823  0.527492  1
  Os  Os32  1  0.000000  0.639508  0.319112  1
  Os  Os33  1  0.000000  0.360492  0.680888  1
  Os  Os34  1  0.000000  0.136840  0.178288  1
  Os  Os35  1  0.000000  0.863160  0.821712  1
