# generated using pymatgen
data_Li4CeY3Sn4
_symmetry_space_group_name_H-M   'P 1'
_cell_length_a   9.59394300
_cell_length_b   9.59584169
_cell_length_c   7.62520700
_cell_angle_alpha   90.00000000
_cell_angle_beta   90.00000000
_cell_angle_gamma   119.99345140
_symmetry_Int_Tables_number   1
_chemical_formula_structural   Li4CeY3Sn4
_chemical_formula_sum   'Li8 Ce2 Y6 Sn8'
_cell_volume   607.98257522
_cell_formula_units_Z   2
loop_
 _symmetry_equiv_pos_site_id
 _symmetry_equiv_pos_as_xyz
  1  'x, y, z'
loop_
 _atom_site_type_symbol
 _atom_site_label
 _atom_site_symmetry_multiplicity
 _atom_site_fract_x
 _atom_site_fract_y
 _atom_site_fract_z
 _atom_site_occupancy
  Li  Li0  1  0.332040  0.168399  0.711501  1
  Li  Li1  1  0.836357  0.168399  0.711501  1
  Li  Li2  1  0.163643  0.831601  0.211501  1
  Li  Li3  1  0.667960  0.831601  0.211501  1
  Li  Li4  1  0.833310  0.666620  0.709570  1
  Li  Li5  1  0.166690  0.333380  0.209570  1
  Li  Li6  1  0.668241  0.336481  0.327548  1
  Li  Li7  1  0.331759  0.663519  0.827548  1
  Ce  Ce8  1  0.488529  0.977058  0.506153  1
  Ce  Ce9  1  0.511471  0.022942  0.006153  1
  Y  Y10  1  0.000129  0.000258  0.497925  1
  Y  Y11  1  0.999871  0.999742  0.997925  1
  Y  Y12  1  0.024875  0.511402  0.505554  1
  Y  Y13  1  0.486528  0.511402  0.505554  1
  Y  Y14  1  0.513472  0.488598  0.005554  1
  Y  Y15  1  0.975125  0.488598  0.005554  1
  Sn  Sn16  1  0.331991  0.168287  0.272638  1
  Sn  Sn17  1  0.836296  0.168287  0.272638  1
  Sn  Sn18  1  0.163704  0.831713  0.772638  1
  Sn  Sn19  1  0.668009  0.831713  0.772638  1
  Sn  Sn20  1  0.833266  0.666532  0.272538  1
  Sn  Sn21  1  0.166734  0.333468  0.772538  1
  Sn  Sn22  1  0.667961  0.335920  0.735892  1
  Sn  Sn23  1  0.332039  0.664080  0.235892  1
