# generated using pymatgen
data_SrV2Pb3(ClO4)2
_symmetry_space_group_name_H-M   'P 1'
_cell_length_a   6.70897000
_cell_length_b   7.63600100
_cell_length_c   11.75058000
_cell_angle_alpha   90.00000000
_cell_angle_beta   90.00000000
_cell_angle_gamma   90.00000000
_symmetry_Int_Tables_number   1
_chemical_formula_structural   SrV2Pb3(ClO4)2
_chemical_formula_sum   'Sr2 V4 Pb6 Cl4 O16'
_cell_volume   601.97870737
_cell_formula_units_Z   2
loop_
 _symmetry_equiv_pos_site_id
 _symmetry_equiv_pos_as_xyz
  1  'x, y, z'
loop_
 _atom_site_type_symbol
 _atom_site_label
 _atom_site_symmetry_multiplicity
 _atom_site_fract_x
 _atom_site_fract_y
 _atom_site_fract_z
 _atom_site_occupancy
  Sr  Sr0  1  0.375732  0.750000  0.500000  1
  Sr  Sr1  1  0.375732  0.750000  0.000000  1
  V  V2  1  0.128959  0.250000  0.000000  1
  V  V3  1  0.128959  0.250000  0.500000  1
  V  V4  1  0.872547  0.750000  0.500000  1
  V  V5  1  0.872547  0.750000  0.000000  1
  Pb  Pb6  1  0.857909  0.525452  0.750000  1
  Pb  Pb7  1  0.140556  0.475329  0.250000  1
  Pb  Pb8  1  0.140556  0.024671  0.750000  1
  Pb  Pb9  1  0.857909  0.974548  0.250000  1
  Pb  Pb10  1  0.624975  0.250000  0.500000  1
  Pb  Pb11  1  0.624975  0.250000  0.000000  1
  Cl  Cl12  1  0.495184  0.193085  0.250000  1
  Cl  Cl13  1  0.501870  0.694382  0.250000  1
  Cl  Cl14  1  0.501870  0.805618  0.750000  1
  Cl  Cl15  1  0.495184  0.306915  0.750000  1
  O  O16  1  0.283950  0.072103  0.971894  1
  O  O17  1  0.283950  0.427897  0.028106  1
  O  O18  1  0.029558  0.775899  0.618009  1
  O  O19  1  0.972955  0.224226  0.118721  1
  O  O20  1  0.714671  0.925251  0.029052  1
  O  O21  1  0.029558  0.724101  0.118009  1
  O  O22  1  0.714671  0.574749  0.529052  1
  O  O23  1  0.972955  0.275774  0.881279  1
  O  O24  1  0.972955  0.275774  0.618721  1
  O  O25  1  0.714671  0.574749  0.970948  1
  O  O26  1  0.029558  0.775899  0.881991  1
  O  O27  1  0.029558  0.724101  0.381991  1
  O  O28  1  0.972955  0.224226  0.381279  1
  O  O29  1  0.283950  0.072103  0.528106  1
  O  O30  1  0.714671  0.925251  0.470948  1
  O  O31  1  0.283950  0.427897  0.471894  1
