# generated using pymatgen
data_Sm2YCd3Sn2Au
_symmetry_space_group_name_H-M   'P 1'
_cell_length_a   7.54261000
_cell_length_b   7.50951541
_cell_length_c   4.61358700
_cell_angle_alpha   90.00000000
_cell_angle_beta   90.00000000
_cell_angle_gamma   120.14588165
_symmetry_Int_Tables_number   1
_chemical_formula_structural   Sm2YCd3Sn2Au
_chemical_formula_sum   'Sm2 Y1 Cd3 Sn2 Au1'
_cell_volume   225.97615768
_cell_formula_units_Z   1
loop_
 _symmetry_equiv_pos_site_id
 _symmetry_equiv_pos_as_xyz
  1  'x, y, z'
loop_
 _atom_site_type_symbol
 _atom_site_label
 _atom_site_symmetry_multiplicity
 _atom_site_fract_x
 _atom_site_fract_y
 _atom_site_fract_z
 _atom_site_occupancy
  Sm  Sm0  1  0.000277  0.592706  0.000000  1
  Sm  Sm1  1  0.407570  0.407294  0.000000  1
  Y  Y2  1  0.594258  0.000000  0.000000  1
  Cd  Cd3  1  0.238866  0.000000  0.500000  1
  Cd  Cd4  1  0.999507  0.238236  0.500000  1
  Cd  Cd5  1  0.761271  0.761764  0.500000  1
  Sn  Sn6  1  0.335460  0.669867  0.500000  1
  Sn  Sn7  1  0.665595  0.330133  0.500000  1
  Au  Au8  1  0.997196  0.000000  0.000000  1
