# generated using pymatgen
data_Tb12Ir3Pt
_symmetry_space_group_name_H-M   'P 1'
_cell_length_a   6.40977617
_cell_length_b   7.22896919
_cell_length_c   9.46044500
_cell_angle_alpha   90.00000000
_cell_angle_beta   90.00000000
_cell_angle_gamma   89.97368515
_symmetry_Int_Tables_number   1
_chemical_formula_structural   Tb12Ir3Pt
_chemical_formula_sum   'Tb12 Ir3 Pt1'
_cell_volume   438.35983756
_cell_formula_units_Z   1
loop_
 _symmetry_equiv_pos_site_id
 _symmetry_equiv_pos_as_xyz
  1  'x, y, z'
loop_
 _atom_site_type_symbol
 _atom_site_label
 _atom_site_symmetry_multiplicity
 _atom_site_fract_x
 _atom_site_fract_y
 _atom_site_fract_z
 _atom_site_occupancy
  Tb  Tb0  1  0.331452  0.675790  0.061336  1
  Tb  Tb1  1  0.172636  0.180791  0.439147  1
  Tb  Tb2  1  0.673014  0.322009  0.563536  1
  Tb  Tb3  1  0.826372  0.822953  0.934565  1
  Tb  Tb4  1  0.673014  0.322009  0.936464  1
  Tb  Tb5  1  0.826372  0.822953  0.565435  1
  Tb  Tb6  1  0.331452  0.675790  0.438664  1
  Tb  Tb7  1  0.172636  0.180791  0.060853  1
  Tb  Tb8  1  0.865349  0.528618  0.250000  1
  Tb  Tb9  1  0.629059  0.035332  0.250000  1
  Tb  Tb10  1  0.132387  0.466012  0.750000  1
  Tb  Tb11  1  0.366470  0.965609  0.750000  1
  Ir  Ir12  1  0.446330  0.383455  0.250000  1
  Ir  Ir13  1  0.949713  0.117310  0.750000  1
  Ir  Ir14  1  0.550353  0.616706  0.750000  1
  Pt  Pt15  1  0.053390  0.883874  0.250000  1
