# generated using pymatgen
data_LiZn4Ag
_symmetry_space_group_name_H-M   'P 1'
_cell_length_a   5.10819300
_cell_length_b   5.10819333
_cell_length_c   8.30326200
_cell_angle_alpha   90.00000000
_cell_angle_beta   90.00000000
_cell_angle_gamma   120.00000433
_symmetry_Int_Tables_number   1
_chemical_formula_structural   LiZn4Ag
_chemical_formula_sum   'Li2 Zn8 Ag2'
_cell_volume   187.63505462
_cell_formula_units_Z   2
loop_
 _symmetry_equiv_pos_site_id
 _symmetry_equiv_pos_as_xyz
  1  'x, y, z'
loop_
 _atom_site_type_symbol
 _atom_site_label
 _atom_site_symmetry_multiplicity
 _atom_site_fract_x
 _atom_site_fract_y
 _atom_site_fract_z
 _atom_site_occupancy
  Li  Li0  1  0.333333  0.666667  0.060361  1
  Li  Li1  1  0.666667  0.333333  0.560361  1
  Zn  Zn2  1  0.000000  0.000000  0.000108  1
  Zn  Zn3  1  0.000000  0.000000  0.500108  1
  Zn  Zn4  1  0.170814  0.341627  0.751385  1
  Zn  Zn5  1  0.829186  0.170814  0.251385  1
  Zn  Zn6  1  0.341627  0.170814  0.251385  1
  Zn  Zn7  1  0.658373  0.829186  0.751385  1
  Zn  Zn8  1  0.170814  0.829186  0.751385  1
  Zn  Zn9  1  0.829186  0.658373  0.251385  1
  Ag  Ag10  1  0.666667  0.333333  0.935376  1
  Ag  Ag11  1  0.333333  0.666667  0.435376  1
