# generated using pymatgen
data_LiDy5Si24OsRu7
_symmetry_space_group_name_H-M   'P 1'
_cell_length_a   10.10320974
_cell_length_b   10.10321040
_cell_length_c   8.09725202
_cell_angle_alpha   90.00033226
_cell_angle_beta   90.00033001
_cell_angle_gamma   132.69071470
_symmetry_Int_Tables_number   1
_chemical_formula_structural   LiDy5Si24OsRu7
_chemical_formula_sum   'Li1 Dy5 Si24 Os1 Ru7'
_cell_volume   607.51671370
_cell_formula_units_Z   1
loop_
 _symmetry_equiv_pos_site_id
 _symmetry_equiv_pos_as_xyz
  1  'x, y, z'
loop_
 _atom_site_type_symbol
 _atom_site_label
 _atom_site_symmetry_multiplicity
 _atom_site_fract_x
 _atom_site_fract_y
 _atom_site_fract_z
 _atom_site_occupancy
  Li  Li0  1  0.500287  0.499713  0.500000  1
  Dy  Dy1  1  0.000091  0.999909  0.000000  1
  Dy  Dy2  1  0.501202  0.001273  0.749479  1
  Dy  Dy3  1  0.998727  0.498798  0.250521  1
  Dy  Dy4  1  0.497792  0.997928  0.250609  1
  Dy  Dy5  1  0.002072  0.502208  0.749391  1
  Si  Si6  1  0.797321  0.202679  0.500000  1
  Si  Si7  1  0.296437  0.703563  0.000000  1
  Si  Si8  1  0.203353  0.796647  0.500000  1
  Si  Si9  1  0.703485  0.296515  0.000000  1
  Si  Si10  1  0.336423  0.336989  0.826757  1
  Si  Si11  1  0.663011  0.663577  0.173243  1
  Si  Si12  1  0.173345  0.172275  0.336484  1
  Si  Si13  1  0.827725  0.826655  0.663516  1
  Si  Si14  1  0.123044  0.889628  0.728180  1
  Si  Si15  1  0.110372  0.876956  0.271820  1
  Si  Si16  1  0.607846  0.379489  0.233341  1
  Si  Si17  1  0.620511  0.392154  0.766659  1
  Si  Si18  1  0.876224  0.109284  0.271056  1
  Si  Si19  1  0.890716  0.123776  0.728944  1
  Si  Si20  1  0.391928  0.621055  0.765831  1
  Si  Si21  1  0.378945  0.608072  0.234169  1
  Si  Si22  1  0.348082  0.119925  0.506495  1
  Si  Si23  1  0.880075  0.651918  0.493505  1
  Si  Si24  1  0.388188  0.154978  0.005670  1
  Si  Si25  1  0.845022  0.611812  0.994330  1
  Si  Si26  1  0.650032  0.878536  0.491997  1
  Si  Si27  1  0.121464  0.349968  0.508003  1
  Si  Si28  1  0.611743  0.844751  0.994239  1
  Si  Si29  1  0.155249  0.388257  0.005761  1
  Os  Os30  1  0.671772  0.328228  0.500000  1
  Ru  Ru31  1  0.170592  0.829408  0.000000  1
  Ru  Ru32  1  0.328450  0.671550  0.500000  1
  Ru  Ru33  1  0.829034  0.170966  0.000000  1
  Ru  Ru34  1  0.123552  0.123847  0.628508  1
  Ru  Ru35  1  0.876153  0.876448  0.371492  1
  Ru  Ru36  1  0.371089  0.371357  0.123777  1
  Ru  Ru37  1  0.628643  0.628911  0.876223  1
