# generated using pymatgen
data_Ho12Tm4Ga6FeCo
_symmetry_space_group_name_H-M   'P 1'
_cell_length_a   9.92463616
_cell_length_b   9.92083170
_cell_length_c   6.92461600
_cell_angle_alpha   89.99710268
_cell_angle_beta   90.00168304
_cell_angle_gamma   120.08850832
_symmetry_Int_Tables_number   1
_chemical_formula_structural   Ho12Tm4Ga6FeCo
_chemical_formula_sum   'Ho12 Tm4 Ga6 Fe1 Co1'
_cell_volume   589.93067362
_cell_formula_units_Z   1
loop_
 _symmetry_equiv_pos_site_id
 _symmetry_equiv_pos_as_xyz
  1  'x, y, z'
loop_
 _atom_site_type_symbol
 _atom_site_label
 _atom_site_symmetry_multiplicity
 _atom_site_fract_x
 _atom_site_fract_y
 _atom_site_fract_z
 _atom_site_occupancy
  Ho  Ho0  1  0.346503  0.173288  0.011867  1
  Ho  Ho1  1  0.826678  0.653408  0.011850  1
  Ho  Ho2  1  0.333316  0.666706  0.829093  1
  Ho  Ho3  1  0.666985  0.332994  0.329574  1
  Ho  Ho4  1  0.462742  0.537303  0.208396  1
  Ho  Ho5  1  0.074676  0.537154  0.208464  1
  Ho  Ho6  1  0.462813  0.925204  0.208549  1
  Ho  Ho7  1  0.535566  0.464365  0.706010  1
  Ho  Ho8  1  0.928194  0.463403  0.706866  1
  Ho  Ho9  1  0.536626  0.071910  0.706932  1
  Ho  Ho10  1  0.999783  0.000344  0.232683  1
  Ho  Ho11  1  0.999656  0.000204  0.732142  1
  Tm  Tm12  1  0.172941  0.827041  0.511224  1
  Tm  Tm13  1  0.653752  0.826890  0.511002  1
  Tm  Tm14  1  0.173155  0.346350  0.510975  1
  Tm  Tm15  1  0.826614  0.173387  0.012222  1
  Ga  Ga16  1  0.163549  0.836474  0.956471  1
  Ga  Ga17  1  0.673878  0.838075  0.956947  1
  Ga  Ga18  1  0.161916  0.326063  0.956886  1
  Ga  Ga19  1  0.836721  0.163279  0.457034  1
  Ga  Ga20  1  0.326505  0.163216  0.458337  1
  Ga  Ga21  1  0.836795  0.673536  0.458291  1
  Fe  Fe22  1  0.333622  0.666386  0.448091  1
  Co  Co23  1  0.667013  0.333019  0.944139  1
