# generated using pymatgen
data_ErTmBeCoSi4
_symmetry_space_group_name_H-M   'P 1'
_cell_length_a   8.44479908
_cell_length_b   8.44479953
_cell_length_c   3.88711000
_cell_angle_alpha   90.00000000
_cell_angle_beta   90.00000000
_cell_angle_gamma   152.69962070
_symmetry_Int_Tables_number   1
_chemical_formula_structural   ErTmBeCoSi4
_chemical_formula_sum   'Er1 Tm1 Be1 Co1 Si4'
_cell_volume   127.14287929
_cell_formula_units_Z   1
loop_
 _symmetry_equiv_pos_site_id
 _symmetry_equiv_pos_as_xyz
  1  'x, y, z'
loop_
 _atom_site_type_symbol
 _atom_site_label
 _atom_site_symmetry_multiplicity
 _atom_site_fract_x
 _atom_site_fract_y
 _atom_site_fract_z
 _atom_site_occupancy
  Er  Er0  1  0.113189  0.886811  0.250000  1
  Tm  Tm1  1  0.898350  0.101650  0.750000  1
  Be  Be2  1  0.670743  0.329257  0.750000  1
  Co  Co3  1  0.319505  0.680495  0.250000  1
  Si  Si4  1  0.753594  0.246406  0.250000  1
  Si  Si5  1  0.250907  0.749093  0.750000  1
  Si  Si6  1  0.538231  0.461769  0.750000  1
  Si  Si7  1  0.455482  0.544518  0.250000  1
