# generated using pymatgen
data_Tb9NdTh2(Si2Ni)4
_symmetry_space_group_name_H-M   'P 1'
_cell_length_a   4.18570800
_cell_length_b   11.43550423
_cell_length_c   11.32091822
_cell_angle_alpha   90.02278580
_cell_angle_beta   90.00000000
_cell_angle_gamma   90.00000000
_symmetry_Int_Tables_number   1
_chemical_formula_structural   Tb9NdTh2(Si2Ni)4
_chemical_formula_sum   'Tb9 Nd1 Th2 Si8 Ni4'
_cell_volume   541.88342340
_cell_formula_units_Z   1
loop_
 _symmetry_equiv_pos_site_id
 _symmetry_equiv_pos_as_xyz
  1  'x, y, z'
loop_
 _atom_site_type_symbol
 _atom_site_label
 _atom_site_symmetry_multiplicity
 _atom_site_fract_x
 _atom_site_fract_y
 _atom_site_fract_z
 _atom_site_occupancy
  Tb  Tb0  1  0.750000  0.939144  0.116331  1
  Tb  Tb1  1  0.750000  0.561448  0.618062  1
  Tb  Tb2  1  0.250000  0.380074  0.059521  1
  Tb  Tb3  1  0.750000  0.872740  0.437406  1
  Tb  Tb4  1  0.750000  0.625248  0.940104  1
  Tb  Tb5  1  0.250000  0.800920  0.712666  1
  Tb  Tb6  1  0.250000  0.695380  0.211319  1
  Tb  Tb7  1  0.750000  0.193132  0.288099  1
  Tb  Tb8  1  0.750000  0.310492  0.790074  1
  Nd  Nd9  1  0.250000  0.118847  0.558518  1
  Th  Th10  1  0.250000  0.059825  0.886435  1
  Th  Th11  1  0.250000  0.440783  0.385065  1
  Si  Si12  1  0.250000  0.809220  0.974083  1
  Si  Si13  1  0.250000  0.690263  0.473469  1
  Si  Si14  1  0.750000  0.191959  0.029276  1
  Si  Si15  1  0.750000  0.313289  0.530310  1
  Si  Si16  1  0.250000  0.495132  0.803092  1
  Si  Si17  1  0.250000  0.005357  0.298884  1
  Si  Si18  1  0.750000  0.510076  0.192940  1
  Si  Si19  1  0.750000  0.984110  0.695711  1
  Ni  Ni20  1  0.250000  0.366814  0.629371  1
  Ni  Ni21  1  0.250000  0.137155  0.128213  1
  Ni  Ni22  1  0.750000  0.632530  0.369622  1
  Ni  Ni23  1  0.750000  0.866063  0.871431  1
