# generated using pymatgen
data_Dy3Y2Ho5Bi6
_symmetry_space_group_name_H-M   'P 1'
_cell_length_a   8.25058200
_cell_length_b   9.50657100
_cell_length_c   12.05764300
_cell_angle_alpha   89.99943638
_cell_angle_beta   90.00000000
_cell_angle_gamma   90.00000000
_symmetry_Int_Tables_number   1
_chemical_formula_structural   Dy3Y2Ho5Bi6
_chemical_formula_sum   'Dy6 Y4 Ho10 Bi12'
_cell_volume   945.73813679
_cell_formula_units_Z   2
loop_
 _symmetry_equiv_pos_site_id
 _symmetry_equiv_pos_as_xyz
  1  'x, y, z'
loop_
 _atom_site_type_symbol
 _atom_site_label
 _atom_site_symmetry_multiplicity
 _atom_site_fract_x
 _atom_site_fract_y
 _atom_site_fract_z
 _atom_site_occupancy
  Dy  Dy0  1  0.186349  0.749997  0.718962  1
  Dy  Dy1  1  0.686349  0.750003  0.781038  1
  Dy  Dy2  1  0.813628  0.249967  0.281013  1
  Dy  Dy3  1  0.313628  0.250033  0.218987  1
  Dy  Dy4  1  0.306257  0.063172  0.940307  1
  Dy  Dy5  1  0.806257  0.436828  0.559693  1
  Y  Y6  1  0.353916  0.750011  0.215249  1
  Y  Y7  1  0.853916  0.749989  0.284751  1
  Y  Y8  1  0.646042  0.249989  0.784760  1
  Y  Y9  1  0.146042  0.250011  0.715240  1
  Ho  Ho10  1  0.025979  0.749968  0.988668  1
  Ho  Ho11  1  0.525979  0.750032  0.511332  1
  Ho  Ho12  1  0.973828  0.250039  0.011408  1
  Ho  Ho13  1  0.473828  0.249961  0.488592  1
  Ho  Ho14  1  0.306265  0.436800  0.940315  1
  Ho  Ho15  1  0.806265  0.063200  0.559685  1
  Ho  Ho16  1  0.693758  0.936651  0.059711  1
  Ho  Ho17  1  0.193758  0.563349  0.440289  1
  Ho  Ho18  1  0.693790  0.563336  0.059736  1
  Ho  Ho19  1  0.193790  0.936664  0.440264  1
  Bi  Bi20  1  0.433537  0.003630  0.673643  1
  Bi  Bi21  1  0.933537  0.496370  0.826357  1
  Bi  Bi22  1  0.566497  0.503636  0.326287  1
  Bi  Bi23  1  0.066497  0.996364  0.173713  1
  Bi  Bi24  1  0.566506  0.996350  0.326330  1
  Bi  Bi25  1  0.066506  0.503650  0.173670  1
  Bi  Bi26  1  0.433450  0.496375  0.673694  1
  Bi  Bi27  1  0.933450  0.003625  0.826306  1
  Bi  Bi28  1  0.409410  0.749709  0.957937  1
  Bi  Bi29  1  0.909410  0.750291  0.542063  1
  Bi  Bi30  1  0.590787  0.250109  0.042148  1
  Bi  Bi31  1  0.090787  0.249891  0.457852  1
