# generated using pymatgen
data_Ti8Al14SiIr4Rh3
_symmetry_space_group_name_H-M   'P 1'
_cell_length_a   8.62495210
_cell_length_b   8.62643258
_cell_length_c   8.63869096
_cell_angle_alpha   120.03234024
_cell_angle_beta   119.76995329
_cell_angle_gamma   90.05588967
_symmetry_Int_Tables_number   1
_chemical_formula_structural   Ti8Al14SiIr4Rh3
_chemical_formula_sum   'Ti8 Al14 Si1 Ir4 Rh3'
_cell_volume   455.61859311
_cell_formula_units_Z   1
loop_
 _symmetry_equiv_pos_site_id
 _symmetry_equiv_pos_as_xyz
  1  'x, y, z'
loop_
 _atom_site_type_symbol
 _atom_site_label
 _atom_site_symmetry_multiplicity
 _atom_site_fract_x
 _atom_site_fract_y
 _atom_site_fract_z
 _atom_site_occupancy
  Ti  Ti0  1  0.796441  0.296792  0.087988  1
  Ti  Ti1  1  0.209985  0.297712  0.500552  1
  Ti  Ti2  1  0.203096  0.703037  0.501479  1
  Ti  Ti3  1  0.210334  0.709932  0.912168  1
  Ti  Ti4  1  0.797188  0.709582  0.499638  1
  Ti  Ti5  1  0.790193  0.290396  0.498621  1
  Ti  Ti6  1  0.378697  0.122508  0.743447  1
  Ti  Ti7  1  0.380260  0.636178  0.257537  1
  Al  Al8  1  0.154894  0.339773  0.182115  1
  Al  Al9  1  0.155662  0.972832  0.817064  1
  Al  Al10  1  0.151700  0.344772  0.809928  1
  Al  Al11  1  0.534546  0.343747  0.190969  1
  Al  Al12  1  0.844207  0.656531  0.814477  1
  Al  Al13  1  0.843603  0.029213  0.186099  1
  Al  Al14  1  0.841352  0.656960  0.182079  1
  Al  Al15  1  0.475348  0.657748  0.817464  1
  Al  Al16  1  0.379935  0.120361  0.259763  1
  Al  Al17  1  0.860239  0.120190  0.739960  1
  Al  Al18  1  0.620790  0.878767  0.258033  1
  Al  Al19  1  0.620744  0.362286  0.741666  1
  Al  Al20  1  0.620608  0.878788  0.741525  1
  Al  Al21  1  0.137531  0.878739  0.258249  1
  Si  Si22  1  0.997472  0.497472  0.500114  1
  Ir  Ir23  1  0.001929  0.000062  0.502061  1
  Ir  Ir24  1  0.498126  0.000045  0.998030  1
  Ir  Ir25  1  0.497411  0.497489  0.000047  1
  Ir  Ir26  1  0.498094  0.499949  0.497981  1
  Rh  Rh27  1  0.001011  0.499595  0.001142  1
  Rh  Rh28  1  0.999568  0.999620  0.999910  1
  Rh  Rh29  1  0.499035  0.998920  0.499894  1
