# generated using pymatgen
data_Ho7Tm3BiPb5
_symmetry_space_group_name_H-M   'P 1'
_cell_length_a   6.51398402
_cell_length_b   9.04321003
_cell_length_c   9.03791506
_cell_angle_alpha   120.02084005
_cell_angle_beta   90.00502321
_cell_angle_gamma   90.00354372
_symmetry_Int_Tables_number   1
_chemical_formula_structural   Ho7Tm3BiPb5
_chemical_formula_sum   'Ho7 Tm3 Bi1 Pb5'
_cell_volume   460.97455004
_cell_formula_units_Z   1
loop_
 _symmetry_equiv_pos_site_id
 _symmetry_equiv_pos_as_xyz
  1  'x, y, z'
loop_
 _atom_site_type_symbol
 _atom_site_label
 _atom_site_symmetry_multiplicity
 _atom_site_fract_x
 _atom_site_fract_y
 _atom_site_fract_z
 _atom_site_occupancy
  Ho  Ho0  1  0.499112  0.331482  0.664440  1
  Ho  Ho1  1  0.750065  0.235415  0.000046  1
  Ho  Ho2  1  0.750074  0.764215  0.760597  1
  Ho  Ho3  1  0.750056  0.003559  0.239386  1
  Ho  Ho4  1  0.249971  0.762976  0.000038  1
  Ho  Ho5  1  0.249955  0.236975  0.237569  1
  Ho  Ho6  1  0.249940  0.999298  0.762407  1
  Tm  Tm7  1  0.499034  0.667060  0.335658  1
  Tm  Tm8  1  0.000980  0.667070  0.335654  1
  Tm  Tm9  1  0.000972  0.331440  0.664372  1
  Bi  Bi10  1  0.750177  0.606664  0.000226  1
  Pb  Pb11  1  0.750353  0.396041  0.395106  1
  Pb  Pb12  1  0.750355  0.000053  0.604466  1
  Pb  Pb13  1  0.249647  0.394643  0.000452  1
  Pb  Pb14  1  0.249651  0.605002  0.606026  1
  Pb  Pb15  1  0.249658  0.998109  0.393557  1
