# generated using pymatgen
data_NpPbBr6
_symmetry_space_group_name_H-M   'P 1'
_cell_length_a   8.29517971
_cell_length_b   8.29517878
_cell_length_c   8.29518047
_cell_angle_alpha   54.43488030
_cell_angle_beta   54.43487604
_cell_angle_gamma   54.43487480
_symmetry_Int_Tables_number   1
_chemical_formula_structural   NpPbBr6
_chemical_formula_sum   'Np1 Pb1 Br6'
_cell_volume   351.23196341
_cell_formula_units_Z   1
loop_
 _symmetry_equiv_pos_site_id
 _symmetry_equiv_pos_as_xyz
  1  'x, y, z'
loop_
 _atom_site_type_symbol
 _atom_site_label
 _atom_site_symmetry_multiplicity
 _atom_site_fract_x
 _atom_site_fract_y
 _atom_site_fract_z
 _atom_site_occupancy
  Np  Np0  1  0.666592  0.666592  0.666592  1
  Pb  Pb1  1  0.334039  0.334039  0.334039  1
  Br  Br2  1  0.047846  0.449402  0.730600  1
  Br  Br3  1  0.299698  0.897497  0.574325  1
  Br  Br4  1  0.449402  0.730600  0.047846  1
  Br  Br5  1  0.574325  0.299698  0.897497  1
  Br  Br6  1  0.730600  0.047846  0.449402  1
  Br  Br7  1  0.897497  0.574325  0.299698  1
