# generated using pymatgen
data_Tm13Lu7Bi11Sb
_symmetry_space_group_name_H-M   'P 1'
_cell_length_a   8.12569606
_cell_length_b   9.41069124
_cell_length_c   11.84352510
_cell_angle_alpha   90.00165357
_cell_angle_beta   89.98134931
_cell_angle_gamma   90.02577294
_symmetry_Int_Tables_number   1
_chemical_formula_structural   Tm13Lu7Bi11Sb
_chemical_formula_sum   'Tm13 Lu7 Bi11 Sb1'
_cell_volume   905.65547261
_cell_formula_units_Z   1
loop_
 _symmetry_equiv_pos_site_id
 _symmetry_equiv_pos_as_xyz
  1  'x, y, z'
loop_
 _atom_site_type_symbol
 _atom_site_label
 _atom_site_symmetry_multiplicity
 _atom_site_fract_x
 _atom_site_fract_y
 _atom_site_fract_z
 _atom_site_occupancy
  Tm  Tm0  1  0.355845  0.249906  0.285813  1
  Tm  Tm1  1  0.645253  0.750291  0.717187  1
  Tm  Tm2  1  0.144991  0.750228  0.782104  1
  Tm  Tm3  1  0.855277  0.249959  0.217472  1
  Tm  Tm4  1  0.189400  0.249889  0.780133  1
  Tm  Tm5  1  0.812135  0.750093  0.217808  1
  Tm  Tm6  1  0.312643  0.750086  0.282257  1
  Tm  Tm7  1  0.682736  0.249989  0.714973  1
  Tm  Tm8  1  0.806705  0.565725  0.940427  1
  Tm  Tm9  1  0.690566  0.067913  0.441981  1
  Tm  Tm10  1  0.193376  0.433877  0.059904  1
  Tm  Tm11  1  0.690416  0.431974  0.441983  1
  Tm  Tm12  1  0.308066  0.562003  0.559318  1
  Lu  Lu13  1  0.028005  0.250034  0.511236  1
  Lu  Lu14  1  0.976891  0.750059  0.489377  1
  Lu  Lu15  1  0.475689  0.750123  0.011192  1
  Lu  Lu16  1  0.524844  0.249887  0.988646  1
  Lu  Lu17  1  0.193598  0.066428  0.059978  1
  Lu  Lu18  1  0.806475  0.933987  0.940330  1
  Lu  Lu19  1  0.307963  0.937742  0.559370  1
  Bi  Bi20  1  0.594856  0.750161  0.457318  1
  Bi  Bi21  1  0.094541  0.750812  0.042587  1
  Bi  Bi22  1  0.906217  0.249183  0.956498  1
  Bi  Bi23  1  0.066235  0.003541  0.326032  1
  Bi  Bi24  1  0.933143  0.996935  0.674091  1
  Bi  Bi25  1  0.433476  0.996159  0.826035  1
  Bi  Bi26  1  0.933080  0.503164  0.674034  1
  Bi  Bi27  1  0.566359  0.003970  0.174120  1
  Bi  Bi28  1  0.066317  0.496535  0.326074  1
  Bi  Bi29  1  0.566529  0.496087  0.174119  1
  Bi  Bi30  1  0.433385  0.503874  0.826045  1
  Sb  Sb31  1  0.404993  0.249385  0.541559  1
