# generated using pymatgen
data_TmLuFe2Br
_symmetry_space_group_name_H-M   'P 1'
_cell_length_a   3.87708300
_cell_length_b   3.87708380
_cell_length_c   16.18746600
_cell_angle_alpha   90.00000000
_cell_angle_beta   90.00000000
_cell_angle_gamma   120.00000175
_symmetry_Int_Tables_number   1
_chemical_formula_structural   TmLuFe2Br
_chemical_formula_sum   'Tm2 Lu2 Fe4 Br2'
_cell_volume   210.72680338
_cell_formula_units_Z   2
loop_
 _symmetry_equiv_pos_site_id
 _symmetry_equiv_pos_as_xyz
  1  'x, y, z'
loop_
 _atom_site_type_symbol
 _atom_site_label
 _atom_site_symmetry_multiplicity
 _atom_site_fract_x
 _atom_site_fract_y
 _atom_site_fract_z
 _atom_site_occupancy
  Tm  Tm0  1  0.000000  0.000000  0.608574  1
  Tm  Tm1  1  0.000000  0.000000  0.891426  1
  Lu  Lu2  1  0.000000  0.000000  0.107697  1
  Lu  Lu3  1  0.000000  0.000000  0.392303  1
  Fe  Fe4  1  0.333333  0.666665  0.006877  1
  Fe  Fe5  1  0.333333  0.666665  0.493123  1
  Fe  Fe6  1  0.666666  0.333333  0.505983  1
  Fe  Fe7  1  0.666666  0.333333  0.994017  1
  Br  Br8  1  0.666666  0.333333  0.250000  1
  Br  Br9  1  0.333333  0.666665  0.750000  1
