# generated using pymatgen
data_Ca6Ga6Ir3Ru
_symmetry_space_group_name_H-M   'P 1'
_cell_length_a   5.81815396
_cell_length_b   8.25317400
_cell_length_c   14.80828587
_cell_angle_alpha   90.00000000
_cell_angle_beta   90.75263757
_cell_angle_gamma   90.00000000
_symmetry_Int_Tables_number   1
_chemical_formula_structural   Ca6Ga6Ir3Ru
_chemical_formula_sum   'Ca12 Ga12 Ir6 Ru2'
_cell_volume   711.00643199
_cell_formula_units_Z   2
loop_
 _symmetry_equiv_pos_site_id
 _symmetry_equiv_pos_as_xyz
  1  'x, y, z'
loop_
 _atom_site_type_symbol
 _atom_site_label
 _atom_site_symmetry_multiplicity
 _atom_site_fract_x
 _atom_site_fract_y
 _atom_site_fract_z
 _atom_site_occupancy
  Ca  Ca0  1  0.112551  0.549200  0.608755  1
  Ca  Ca1  1  0.616181  0.701089  0.749878  1
  Ca  Ca2  1  0.612148  0.952108  0.108930  1
  Ca  Ca3  1  0.387449  0.049200  0.891245  1
  Ca  Ca4  1  0.611685  0.950102  0.391564  1
  Ca  Ca5  1  0.883819  0.201089  0.750122  1
  Ca  Ca6  1  0.378869  0.299975  0.249968  1
  Ca  Ca7  1  0.386928  0.051379  0.606932  1
  Ca  Ca8  1  0.888315  0.450102  0.108436  1
  Ca  Ca9  1  0.113072  0.551379  0.893068  1
  Ca  Ca10  1  0.121131  0.799975  0.250032  1
  Ca  Ca11  1  0.887852  0.452108  0.391070  1
  Ga  Ga12  1  0.070502  0.860157  0.748257  1
  Ga  Ga13  1  0.867178  0.183147  0.960472  1
  Ga  Ga14  1  0.921549  0.139979  0.252487  1
  Ga  Ga15  1  0.578451  0.639979  0.247513  1
  Ga  Ga16  1  0.133362  0.812517  0.459764  1
  Ga  Ga17  1  0.366638  0.312517  0.040236  1
  Ga  Ga18  1  0.632822  0.683147  0.539528  1
  Ga  Ga19  1  0.635101  0.682591  0.959408  1
  Ga  Ga20  1  0.369877  0.319547  0.459435  1
  Ga  Ga21  1  0.130123  0.819547  0.040565  1
  Ga  Ga22  1  0.429498  0.360157  0.751743  1
  Ga  Ga23  1  0.864899  0.182591  0.540592  1
  Ir  Ir24  1  0.897338  0.897102  0.901257  1
  Ir  Ir25  1  0.399559  0.602223  0.093708  1
  Ir  Ir26  1  0.100441  0.102223  0.406292  1
  Ir  Ir27  1  0.399899  0.602805  0.399463  1
  Ir  Ir28  1  0.602662  0.397102  0.598743  1
  Ir  Ir29  1  0.100101  0.102805  0.100537  1
  Ru  Ru30  1  0.906092  0.896077  0.593149  1
  Ru  Ru31  1  0.593908  0.396077  0.906851  1
