# generated using pymatgen
data_Rb8SnBi4
_symmetry_space_group_name_H-M   'P 1'
_cell_length_a   12.36530230
_cell_length_b   12.36530238
_cell_length_c   12.36530200
_cell_angle_alpha   60.00000103
_cell_angle_beta   60.00000079
_cell_angle_gamma   59.99999768
_symmetry_Int_Tables_number   1
_chemical_formula_structural   Rb8SnBi4
_chemical_formula_sum   'Rb16 Sn2 Bi8'
_cell_volume   1336.90087483
_cell_formula_units_Z   2
loop_
 _symmetry_equiv_pos_site_id
 _symmetry_equiv_pos_as_xyz
  1  'x, y, z'
loop_
 _atom_site_type_symbol
 _atom_site_label
 _atom_site_symmetry_multiplicity
 _atom_site_fract_x
 _atom_site_fract_y
 _atom_site_fract_z
 _atom_site_occupancy
  Rb  Rb0  1  0.625000  0.125000  0.625000  1
  Rb  Rb1  1  0.625000  0.625000  0.125000  1
  Rb  Rb2  1  0.125000  0.625000  0.625000  1
  Rb  Rb3  1  0.625000  0.625000  0.625000  1
  Rb  Rb4  1  0.022938  0.022938  0.477062  1
  Rb  Rb5  1  0.772938  0.227062  0.227062  1
  Rb  Rb6  1  0.227062  0.772938  0.772938  1
  Rb  Rb7  1  0.772938  0.772938  0.227062  1
  Rb  Rb8  1  0.772938  0.227062  0.772938  1
  Rb  Rb9  1  0.227062  0.772938  0.227062  1
  Rb  Rb10  1  0.477062  0.022938  0.477062  1
  Rb  Rb11  1  0.477062  0.022938  0.022938  1
  Rb  Rb12  1  0.022938  0.477062  0.477062  1
  Rb  Rb13  1  0.022938  0.477062  0.022938  1
  Rb  Rb14  1  0.227062  0.227062  0.772938  1
  Rb  Rb15  1  0.477062  0.477062  0.022938  1
  Sn  Sn16  1  0.750000  0.750000  0.750000  1
  Sn  Sn17  1  0.500000  0.500000  0.500000  1
  Bi  Bi18  1  0.398763  0.803710  0.398763  1
  Bi  Bi19  1  0.851237  0.851237  0.446290  1
  Bi  Bi20  1  0.446290  0.851237  0.851237  1
  Bi  Bi21  1  0.851237  0.851237  0.851237  1
  Bi  Bi22  1  0.803710  0.398763  0.398763  1
  Bi  Bi23  1  0.398763  0.398763  0.398763  1
  Bi  Bi24  1  0.398763  0.398763  0.803710  1
  Bi  Bi25  1  0.851237  0.446290  0.851237  1
