# generated using pymatgen
data_Zr12Al8ZnCo(RuC2)2
_symmetry_space_group_name_H-M   'P 1'
_cell_length_a   8.60628590
_cell_length_b   8.60628602
_cell_length_c   8.63931500
_cell_angle_alpha   60.12638416
_cell_angle_beta   60.12638369
_cell_angle_gamma   59.99999620
_symmetry_Int_Tables_number   1
_chemical_formula_structural   Zr12Al8ZnCo(RuC2)2
_chemical_formula_sum   'Zr12 Al8 Zn1 Co1 Ru2 C4'
_cell_volume   453.33874327
_cell_formula_units_Z   1
loop_
 _symmetry_equiv_pos_site_id
 _symmetry_equiv_pos_as_xyz
  1  'x, y, z'
loop_
 _atom_site_type_symbol
 _atom_site_label
 _atom_site_symmetry_multiplicity
 _atom_site_fract_x
 _atom_site_fract_y
 _atom_site_fract_z
 _atom_site_occupancy
  Zr  Zr0  1  0.557814  0.944723  0.552227  1
  Zr  Zr1  1  0.304043  0.693171  0.698743  1
  Zr  Zr2  1  0.695299  0.304277  0.305126  1
  Zr  Zr3  1  0.304573  0.694971  0.306170  1
  Zr  Zr4  1  0.694286  0.694971  0.306170  1
  Zr  Zr5  1  0.304764  0.305277  0.697773  1
  Zr  Zr6  1  0.555714  0.555029  0.943830  1
  Zr  Zr7  1  0.945957  0.556829  0.551257  1
  Zr  Zr8  1  0.554701  0.945723  0.944874  1
  Zr  Zr9  1  0.945236  0.944723  0.552227  1
  Zr  Zr10  1  0.692186  0.305277  0.697773  1
  Zr  Zr11  1  0.945427  0.555029  0.943830  1
  Al  Al12  1  0.918373  0.910529  0.931324  1
  Al  Al13  1  0.010227  0.339471  0.318676  1
  Al  Al14  1  0.333602  0.010293  0.322504  1
  Al  Al15  1  0.327739  0.334507  0.010015  1
  Al  Al16  1  0.916398  0.239707  0.927496  1
  Al  Al17  1  0.922261  0.915493  0.239985  1
  Al  Al18  1  0.239773  0.910529  0.931324  1
  Al  Al19  1  0.331627  0.339471  0.318676  1
  Zn  Zn20  1  0.125000  0.125000  0.625000  1
  Co  Co21  1  0.125000  0.625000  0.125000  1
  Ru  Ru22  1  0.125000  0.125000  0.125000  1
  Ru  Ru23  1  0.625000  0.125000  0.125000  1
  C  C24  1  0.625000  0.625000  0.625000  1
  C  C25  1  0.125000  0.625000  0.625000  1
  C  C26  1  0.625000  0.125000  0.625000  1
  C  C27  1  0.625000  0.625000  0.125000  1
