# generated using pymatgen
data_YbHo(FeB4)2
_symmetry_space_group_name_H-M   'P 1'
_cell_length_a   3.35321300
_cell_length_b   5.88892631
_cell_length_c   11.39121955
_cell_angle_alpha   89.92339661
_cell_angle_beta   90.00000000
_cell_angle_gamma   90.00000000
_symmetry_Int_Tables_number   1
_chemical_formula_structural   YbHo(FeB4)2
_chemical_formula_sum   'Yb2 Ho2 Fe4 B16'
_cell_volume   224.94020963
_cell_formula_units_Z   2
loop_
 _symmetry_equiv_pos_site_id
 _symmetry_equiv_pos_as_xyz
  1  'x, y, z'
loop_
 _atom_site_type_symbol
 _atom_site_label
 _atom_site_symmetry_multiplicity
 _atom_site_fract_x
 _atom_site_fract_y
 _atom_site_fract_z
 _atom_site_occupancy
  Yb  Yb0  1  0.000000  0.625552  0.849538  1
  Yb  Yb1  1  0.000000  0.374448  0.150462  1
  Ho  Ho2  1  0.000000  0.126223  0.651003  1
  Ho  Ho3  1  0.000000  0.873777  0.348997  1
  Fe  Fe4  1  0.000000  0.127677  0.915247  1
  Fe  Fe5  1  0.000000  0.872323  0.084753  1
  Fe  Fe6  1  0.000000  0.632828  0.586833  1
  Fe  Fe7  1  0.000000  0.367172  0.413167  1
  B  B8  1  0.500000  0.361288  0.967715  1
  B  B9  1  0.500000  0.638712  0.032285  1
  B  B10  1  0.500000  0.860830  0.531690  1
  B  B11  1  0.500000  0.139170  0.468310  1
  B  B12  1  0.500000  0.474588  0.690502  1
  B  B13  1  0.500000  0.525412  0.309498  1
  B  B14  1  0.500000  0.975323  0.810015  1
  B  B15  1  0.500000  0.024677  0.189985  1
  B  B16  1  0.500000  0.280598  0.817643  1
  B  B17  1  0.500000  0.719402  0.182357  1
  B  B18  1  0.500000  0.779647  0.683531  1
  B  B19  1  0.500000  0.220353  0.316469  1
  B  B20  1  0.500000  0.388786  0.546353  1
  B  B21  1  0.500000  0.611214  0.453647  1
  B  B22  1  0.500000  0.887317  0.953921  1
  B  B23  1  0.500000  0.112683  0.046079  1
