# generated using pymatgen
data_Nd4YTm5Si8
_symmetry_space_group_name_H-M   'P 1'
_cell_length_a   7.71998900
_cell_length_b   7.72187106
_cell_length_c   14.20500563
_cell_angle_alpha   90.10197509
_cell_angle_beta   90.00000000
_cell_angle_gamma   90.00000000
_symmetry_Int_Tables_number   1
_chemical_formula_structural   Nd4YTm5Si8
_chemical_formula_sum   'Nd8 Y2 Tm10 Si16'
_cell_volume   846.79824456
_cell_formula_units_Z   2
loop_
 _symmetry_equiv_pos_site_id
 _symmetry_equiv_pos_as_xyz
  1  'x, y, z'
loop_
 _atom_site_type_symbol
 _atom_site_label
 _atom_site_symmetry_multiplicity
 _atom_site_fract_x
 _atom_site_fract_y
 _atom_site_fract_z
 _atom_site_occupancy
  Nd  Nd0  1  0.642231  0.992758  0.458917  1
  Nd  Nd1  1  0.357562  0.007004  0.958957  1
  Nd  Nd2  1  0.992840  0.642253  0.540905  1
  Nd  Nd3  1  0.492840  0.857747  0.209095  1
  Nd  Nd4  1  0.506703  0.142411  0.709122  1
  Nd  Nd5  1  0.857562  0.492996  0.791043  1
  Nd  Nd6  1  0.142231  0.507242  0.291083  1
  Nd  Nd7  1  0.006703  0.357589  0.040878  1
  Y  Y8  1  0.492890  0.359919  0.124243  1
  Y  Y9  1  0.992890  0.140081  0.625757  1
  Tm  Tm10  1  0.859833  0.006454  0.874217  1
  Tm  Tm11  1  0.140190  0.993107  0.374212  1
  Tm  Tm12  1  0.506804  0.640230  0.624149  1
  Tm  Tm13  1  0.359833  0.493546  0.875783  1
  Tm  Tm14  1  0.640190  0.506893  0.375788  1
  Tm  Tm15  1  0.006804  0.859770  0.125851  1
  Tm  Tm16  1  0.318664  0.318531  0.499833  1
  Tm  Tm17  1  0.182189  0.817609  0.750216  1
  Tm  Tm18  1  0.818664  0.181469  0.250167  1
  Tm  Tm19  1  0.682189  0.682391  0.999784  1
  Si  Si20  1  0.290425  0.936732  0.561392  1
  Si  Si21  1  0.711432  0.061305  0.061473  1
  Si  Si22  1  0.937433  0.289871  0.437512  1
  Si  Si23  1  0.437433  0.210129  0.312488  1
  Si  Si24  1  0.562258  0.789151  0.811728  1
  Si  Si25  1  0.211432  0.438695  0.688527  1
  Si  Si26  1  0.790425  0.563268  0.188608  1
  Si  Si27  1  0.062258  0.710849  0.938272  1
  Si  Si28  1  0.794902  0.847615  0.688173  1
  Si  Si29  1  0.202987  0.150071  0.188138  1
  Si  Si30  1  0.849052  0.795627  0.312194  1
  Si  Si31  1  0.349052  0.704373  0.437806  1
  Si  Si32  1  0.651605  0.295501  0.937023  1
  Si  Si33  1  0.702987  0.349929  0.561862  1
  Si  Si34  1  0.294902  0.652385  0.061827  1
  Si  Si35  1  0.151605  0.204499  0.812977  1
