# generated using pymatgen
data_HfSc6Co8Si14W
_symmetry_space_group_name_H-M   'P 1'
_cell_length_a   9.45183093
_cell_length_b   9.45181008
_cell_length_c   9.43270235
_cell_angle_alpha   94.10631024
_cell_angle_beta   94.04030883
_cell_angle_gamma   149.12223100
_symmetry_Int_Tables_number   1
_chemical_formula_structural   HfSc6Co8Si14W
_chemical_formula_sum   'Hf1 Sc6 Co8 Si14 W1'
_cell_volume   416.79471737
_cell_formula_units_Z   1
loop_
 _symmetry_equiv_pos_site_id
 _symmetry_equiv_pos_as_xyz
  1  'x, y, z'
loop_
 _atom_site_type_symbol
 _atom_site_label
 _atom_site_symmetry_multiplicity
 _atom_site_fract_x
 _atom_site_fract_y
 _atom_site_fract_z
 _atom_site_occupancy
  Hf  Hf0  1  0.501124  0.304293  0.805248  1
  Sc  Sc1  1  0.863254  0.863148  0.726435  1
  Sc  Sc2  1  0.138303  0.860115  0.998715  1
  Sc  Sc3  1  0.860354  0.138412  0.998595  1
  Sc  Sc4  1  0.303774  0.500861  0.804313  1
  Sc  Sc5  1  0.696131  0.502116  0.198237  1
  Sc  Sc6  1  0.501851  0.695236  0.197746  1
  Co  Co7  1  0.103116  0.603028  0.206546  1
  Co  Co8  1  0.397306  0.898328  0.794860  1
  Co  Co9  1  0.898615  0.102369  0.498308  1
  Co  Co10  1  0.599731  0.395793  0.498627  1
  Co  Co11  1  0.603368  0.103230  0.206341  1
  Co  Co12  1  0.897132  0.398022  0.794964  1
  Co  Co13  1  0.103025  0.899025  0.498726  1
  Co  Co14  1  0.395666  0.599564  0.498302  1
  Si  Si15  1  0.287018  0.287207  0.574034  1
  Si  Si16  1  0.709917  0.709809  0.419892  1
  Si  Si17  1  0.290716  0.709807  0.000394  1
  Si  Si18  1  0.710051  0.291120  0.000986  1
  Si  Si19  1  0.091356  0.500195  0.591728  1
  Si  Si20  1  0.907889  0.499984  0.408257  1
  Si  Si21  1  0.500554  0.907789  0.407991  1
  Si  Si22  1  0.500928  0.091692  0.591523  1
  Si  Si23  1  0.251070  0.250711  0.007057  1
  Si  Si24  1  0.755962  0.755747  0.007031  1
  Si  Si25  1  0.297372  0.002304  0.299559  1
  Si  Si26  1  0.697594  0.999928  0.697043  1
  Si  Si27  1  0.999390  0.698769  0.698059  1
  Si  Si28  1  0.002072  0.296820  0.299631  1
  W  W29  1  0.135361  0.134578  0.270853  1
