# generated using pymatgen
data_PrZr(NiP)2
_symmetry_space_group_name_H-M   'P 1'
_cell_length_a   3.90687900
_cell_length_b   3.90687921
_cell_length_c   15.16344200
_cell_angle_alpha   90.00000000
_cell_angle_beta   90.00000000
_cell_angle_gamma   119.99998972
_symmetry_Int_Tables_number   1
_chemical_formula_structural   PrZr(NiP)2
_chemical_formula_sum   'Pr2 Zr2 Ni4 P4'
_cell_volume   200.44185661
_cell_formula_units_Z   2
loop_
 _symmetry_equiv_pos_site_id
 _symmetry_equiv_pos_as_xyz
  1  'x, y, z'
loop_
 _atom_site_type_symbol
 _atom_site_label
 _atom_site_symmetry_multiplicity
 _atom_site_fract_x
 _atom_site_fract_y
 _atom_site_fract_z
 _atom_site_occupancy
  Pr  Pr0  1  0.000000  0.000000  0.500000  1
  Pr  Pr1  1  0.000000  0.000000  0.000000  1
  Zr  Zr2  1  0.000000  0.000000  0.250000  1
  Zr  Zr3  1  0.000000  0.000000  0.750000  1
  Ni  Ni4  1  0.333333  0.666667  0.348206  1
  Ni  Ni5  1  0.666667  0.333333  0.651794  1
  Ni  Ni6  1  0.666667  0.333333  0.848206  1
  Ni  Ni7  1  0.333333  0.666667  0.151794  1
  P  P8  1  0.333333  0.666667  0.869911  1
  P  P9  1  0.666667  0.333333  0.130089  1
  P  P10  1  0.666667  0.333333  0.369911  1
  P  P11  1  0.333333  0.666667  0.630089  1
