# generated using pymatgen
data_Y2FeCo16
_symmetry_space_group_name_H-M   'P 1'
_cell_length_a   6.27971414
_cell_length_b   6.27971521
_cell_length_c   6.27971542
_cell_angle_alpha   96.90826549
_cell_angle_beta   83.09173853
_cell_angle_gamma   96.90825862
_symmetry_Int_Tables_number   1
_chemical_formula_structural   Y2FeCo16
_chemical_formula_sum   'Y2 Fe1 Co16'
_cell_volume   242.64600197
_cell_formula_units_Z   1
loop_
 _symmetry_equiv_pos_site_id
 _symmetry_equiv_pos_as_xyz
  1  'x, y, z'
loop_
 _atom_site_type_symbol
 _atom_site_label
 _atom_site_symmetry_multiplicity
 _atom_site_fract_x
 _atom_site_fract_y
 _atom_site_fract_z
 _atom_site_occupancy
  Y  Y0  1  0.345423  0.654577  0.345423  1
  Y  Y1  1  0.655676  0.344324  0.655677  1
  Fe  Fe2  1  0.095961  0.904039  0.095961  1
  Co  Co3  1  0.711006  0.711221  0.998999  1
  Co  Co4  1  0.999278  0.498242  0.999278  1
  Co  Co5  1  0.288778  0.288994  0.998999  1
  Co  Co6  1  0.501759  0.000722  0.999278  1
  Co  Co7  1  0.654629  0.345371  0.150313  1
  Co  Co8  1  0.998999  0.288994  0.288778  1
  Co  Co9  1  0.711006  0.001001  0.288778  1
  Co  Co10  1  0.849503  0.653269  0.346732  1
  Co  Co11  1  0.346732  0.150498  0.346732  1
  Co  Co12  1  0.999278  0.000722  0.501760  1
  Co  Co13  1  0.654629  0.849687  0.654630  1
  Co  Co14  1  0.150312  0.345371  0.654630  1
  Co  Co15  1  0.288779  0.001001  0.711006  1
  Co  Co16  1  0.998999  0.711222  0.711006  1
  Co  Co17  1  0.346732  0.653268  0.849503  1
  Co  Co18  1  0.902523  0.097478  0.902523  1
