# generated using pymatgen
data_Dy7Er(TcB6)4
_symmetry_space_group_name_H-M   'P 1'
_cell_length_a   3.68835500
_cell_length_b   9.15987202
_cell_length_c   11.54306702
_cell_angle_alpha   90.00737224
_cell_angle_beta   90.00000000
_cell_angle_gamma   90.00000000
_symmetry_Int_Tables_number   1
_chemical_formula_structural   Dy7Er(TcB6)4
_chemical_formula_sum   'Dy7 Er1 Tc4 B24'
_cell_volume   389.98089738
_cell_formula_units_Z   1
loop_
 _symmetry_equiv_pos_site_id
 _symmetry_equiv_pos_as_xyz
  1  'x, y, z'
loop_
 _atom_site_type_symbol
 _atom_site_label
 _atom_site_symmetry_multiplicity
 _atom_site_fract_x
 _atom_site_fract_y
 _atom_site_fract_z
 _atom_site_occupancy
  Dy  Dy0  1  0.000000  0.324079  0.414202  1
  Dy  Dy1  1  0.000000  0.675869  0.586054  1
  Dy  Dy2  1  0.000000  0.823874  0.085735  1
  Dy  Dy3  1  0.000000  0.176114  0.914119  1
  Dy  Dy4  1  0.000000  0.942783  0.369247  1
  Dy  Dy5  1  0.000000  0.057267  0.630922  1
  Dy  Dy6  1  0.000000  0.442866  0.130397  1
  Er  Er7  1  0.000000  0.557332  0.868855  1
  Tc  Tc8  1  0.000000  0.638741  0.320459  1
  Tc  Tc9  1  0.000000  0.361659  0.679880  1
  Tc  Tc10  1  0.000000  0.138877  0.179294  1
  Tc  Tc11  1  0.000000  0.860488  0.820638  1
  B  B12  1  0.500000  0.553407  0.432954  1
  B  B13  1  0.500000  0.446676  0.567330  1
  B  B14  1  0.500000  0.053364  0.067050  1
  B  B15  1  0.500000  0.946287  0.932859  1
  B  B16  1  0.500000  0.748690  0.418559  1
  B  B17  1  0.500000  0.251451  0.581581  1
  B  B18  1  0.500000  0.248760  0.081434  1
  B  B19  1  0.500000  0.750405  0.918518  1
  B  B20  1  0.500000  0.791821  0.265249  1
  B  B21  1  0.500000  0.208495  0.734828  1
  B  B22  1  0.500000  0.291878  0.234663  1
  B  B23  1  0.500000  0.707496  0.765496  1
  B  B24  1  0.500000  0.630976  0.185612  1
  B  B25  1  0.500000  0.369629  0.814616  1
  B  B26  1  0.500000  0.131055  0.314265  1
  B  B27  1  0.500000  0.868723  0.685885  1
  B  B28  1  0.500000  0.982592  0.211543  1
  B  B29  1  0.500000  0.017284  0.788546  1
  B  B30  1  0.500000  0.482535  0.288402  1
  B  B31  1  0.500000  0.517814  0.712048  1
  B  B32  1  0.500000  0.600198  0.027241  1
  B  B33  1  0.500000  0.400492  0.971419  1
  B  B34  1  0.500000  0.100683  0.471930  1
  B  B35  1  0.500000  0.899340  0.528171  1
