# generated using pymatgen
data_Er4LuTlSb2
_symmetry_space_group_name_H-M   'P 1'
_cell_length_a   8.87243008
_cell_length_b   8.87302089
_cell_length_c   6.36457700
_cell_angle_alpha   90.09541960
_cell_angle_beta   89.95229027
_cell_angle_gamma   120.00220200
_symmetry_Int_Tables_number   1
_chemical_formula_structural   Er4LuTlSb2
_chemical_formula_sum   'Er8 Lu2 Tl2 Sb4'
_cell_volume   433.91436413
_cell_formula_units_Z   2
loop_
 _symmetry_equiv_pos_site_id
 _symmetry_equiv_pos_as_xyz
  1  'x, y, z'
loop_
 _atom_site_type_symbol
 _atom_site_label
 _atom_site_symmetry_multiplicity
 _atom_site_fract_x
 _atom_site_fract_y
 _atom_site_fract_z
 _atom_site_occupancy
  Er  Er0  1  0.002285  0.760207  0.749990  1
  Er  Er1  1  0.002285  0.242080  0.250010  1
  Er  Er2  1  0.759051  0.760616  0.249827  1
  Er  Er3  1  0.759051  0.998435  0.750173  1
  Er  Er4  1  0.240377  0.236490  0.749924  1
  Er  Er5  1  0.240377  0.003889  0.250076  1
  Er  Er6  1  0.664035  0.332017  0.500000  1
  Er  Er7  1  0.334495  0.667248  0.000000  1
  Lu  Lu8  1  0.334570  0.667285  0.500000  1
  Lu  Lu9  1  0.663414  0.331706  0.000000  1
  Tl  Tl10  1  0.394844  0.997688  0.749985  1
  Tl  Tl11  1  0.394844  0.397156  0.250015  1
  Sb  Sb12  1  0.998930  0.606844  0.250081  1
  Sb  Sb13  1  0.998930  0.392086  0.749919  1
  Sb  Sb14  1  0.606255  0.605747  0.750108  1
  Sb  Sb15  1  0.606255  0.000508  0.249892  1
