# generated using pymatgen
data_Pr2Ta5WO18
_symmetry_space_group_name_H-M   'P 1'
_cell_length_a   7.62930816
_cell_length_b   5.47231199
_cell_length_c   8.32873116
_cell_angle_alpha   87.60325644
_cell_angle_beta   90.09275044
_cell_angle_gamma   89.82180984
_symmetry_Int_Tables_number   1
_chemical_formula_structural   Pr2Ta5WO18
_chemical_formula_sum   'Pr2 Ta5 W1 O18'
_cell_volume   347.41774895
_cell_formula_units_Z   1
loop_
 _symmetry_equiv_pos_site_id
 _symmetry_equiv_pos_as_xyz
  1  'x, y, z'
loop_
 _atom_site_type_symbol
 _atom_site_label
 _atom_site_symmetry_multiplicity
 _atom_site_fract_x
 _atom_site_fract_y
 _atom_site_fract_z
 _atom_site_occupancy
  Pr  Pr0  1  0.248123  0.965817  0.434548  1
  Pr  Pr1  1  0.751877  0.034183  0.565452  1
  Ta  Ta2  1  0.494258  0.524882  0.697713  1
  Ta  Ta3  1  0.007481  0.528214  0.698411  1
  Ta  Ta4  1  0.992519  0.471786  0.301589  1
  Ta  Ta5  1  0.505742  0.475118  0.302287  1
  Ta  Ta6  1  0.500000  0.000000  0.000000  1
  W  W7  1  0.000000  0.000000  0.000000  1
  O  O8  1  0.953489  0.681518  0.125168  1
  O  O9  1  0.046511  0.318482  0.874832  1
  O  O10  1  0.057123  0.153904  0.215874  1
  O  O11  1  0.749060  0.355518  0.337526  1
  O  O12  1  0.037109  0.267204  0.531386  1
  O  O13  1  0.447050  0.157173  0.209993  1
  O  O14  1  0.544054  0.685361  0.123044  1
  O  O15  1  0.537263  0.733336  0.468002  1
  O  O16  1  0.753234  0.076628  0.016116  1
  O  O17  1  0.942877  0.846096  0.784126  1
  O  O18  1  0.749527  0.442453  0.687167  1
  O  O19  1  0.552950  0.842827  0.790007  1
  O  O20  1  0.250473  0.557547  0.312833  1
  O  O21  1  0.455946  0.314639  0.876956  1
  O  O22  1  0.962891  0.732796  0.468614  1
  O  O23  1  0.462737  0.266664  0.531998  1
  O  O24  1  0.250940  0.644482  0.662474  1
  O  O25  1  0.246766  0.923372  0.983884  1
