# generated using pymatgen
data_DyYEr2(OsC2)2
_symmetry_space_group_name_H-M   'P 1'
_cell_length_a   5.11218500
_cell_length_b   6.44282506
_cell_length_c   9.73960008
_cell_angle_alpha   90.01497663
_cell_angle_beta   90.00000000
_cell_angle_gamma   90.00000000
_symmetry_Int_Tables_number   1
_chemical_formula_structural   DyYEr2(OsC2)2
_chemical_formula_sum   'Dy2 Y2 Er4 Os4 C8'
_cell_volume   320.79235552
_cell_formula_units_Z   2
loop_
 _symmetry_equiv_pos_site_id
 _symmetry_equiv_pos_as_xyz
  1  'x, y, z'
loop_
 _atom_site_type_symbol
 _atom_site_label
 _atom_site_symmetry_multiplicity
 _atom_site_fract_x
 _atom_site_fract_y
 _atom_site_fract_z
 _atom_site_occupancy
  Dy  Dy0  1  0.250000  0.527335  0.217793  1
  Dy  Dy1  1  0.750000  0.472665  0.782207  1
  Y  Y2  1  0.750000  0.972569  0.717828  1
  Y  Y3  1  0.250000  0.027431  0.282172  1
  Er  Er4  1  0.250000  0.681078  0.553303  1
  Er  Er5  1  0.750000  0.318922  0.446697  1
  Er  Er6  1  0.750000  0.818805  0.053389  1
  Er  Er7  1  0.250000  0.181195  0.946611  1
  Os  Os8  1  0.250000  0.725455  0.865673  1
  Os  Os9  1  0.750000  0.274545  0.134327  1
  Os  Os10  1  0.750000  0.774362  0.365701  1
  Os  Os11  1  0.250000  0.225638  0.634299  1
  C  C12  1  0.250000  0.460761  0.758519  1
  C  C13  1  0.750000  0.539239  0.241481  1
  C  C14  1  0.750000  0.039211  0.258516  1
  C  C15  1  0.250000  0.960789  0.741484  1
  C  C16  1  0.250000  0.828195  0.053342  1
  C  C17  1  0.750000  0.171805  0.946658  1
  C  C18  1  0.750000  0.671602  0.553333  1
  C  C19  1  0.250000  0.328398  0.446667  1
