# generated using pymatgen
data_TbYSi4Tc3
_symmetry_space_group_name_H-M   'P 1'
_cell_length_a   6.80826200
_cell_length_b   6.80418182
_cell_length_c   6.79535700
_cell_angle_alpha   69.76669570
_cell_angle_beta   90.00000000
_cell_angle_gamma   90.00000000
_symmetry_Int_Tables_number   1
_chemical_formula_structural   TbYSi4Tc3
_chemical_formula_sum   'Tb2 Y2 Si8 Tc6'
_cell_volume   295.36738127
_cell_formula_units_Z   2
loop_
 _symmetry_equiv_pos_site_id
 _symmetry_equiv_pos_as_xyz
  1  'x, y, z'
loop_
 _atom_site_type_symbol
 _atom_site_label
 _atom_site_symmetry_multiplicity
 _atom_site_fract_x
 _atom_site_fract_y
 _atom_site_fract_z
 _atom_site_occupancy
  Tb  Tb0  1  0.167626  0.941529  0.191393  1
  Tb  Tb1  1  0.332374  0.441529  0.191393  1
  Y  Y2  1  0.832145  0.058589  0.808490  1
  Y  Y3  1  0.667855  0.558589  0.808490  1
  Si  Si4  1  0.552122  0.121418  0.103429  1
  Si  Si5  1  0.358265  0.630710  0.513841  1
  Si  Si6  1  0.858100  0.869222  0.486409  1
  Si  Si7  1  0.051885  0.378677  0.896443  1
  Si  Si8  1  0.141735  0.130710  0.513841  1
  Si  Si9  1  0.641900  0.369222  0.486409  1
  Si  Si10  1  0.947878  0.621418  0.103429  1
  Si  Si11  1  0.448115  0.878677  0.896443  1
  Tc  Tc12  1  0.849700  0.242686  0.240341  1
  Tc  Tc13  1  0.349790  0.257262  0.759646  1
  Tc  Tc14  1  0.150210  0.757262  0.759646  1
  Tc  Tc15  1  0.650300  0.742686  0.240341  1
  Tc  Tc16  1  0.499983  0.999906  0.500008  1
  Tc  Tc17  1  0.000017  0.499906  0.500008  1
