# generated using pymatgen
data_V8Ga4Tc3Mo
_symmetry_space_group_name_H-M   'P 1'
_cell_length_a   4.78980800
_cell_length_b   4.81518582
_cell_length_c   9.67855951
_cell_angle_alpha   90.19570300
_cell_angle_beta   90.00000000
_cell_angle_gamma   90.00000000
_symmetry_Int_Tables_number   1
_chemical_formula_structural   V8Ga4Tc3Mo
_chemical_formula_sum   'V8 Ga4 Tc3 Mo1'
_cell_volume   223.22320910
_cell_formula_units_Z   1
loop_
 _symmetry_equiv_pos_site_id
 _symmetry_equiv_pos_as_xyz
  1  'x, y, z'
loop_
 _atom_site_type_symbol
 _atom_site_label
 _atom_site_symmetry_multiplicity
 _atom_site_fract_x
 _atom_site_fract_y
 _atom_site_fract_z
 _atom_site_occupancy
  V  V0  1  0.750270  0.997977  0.250270  1
  V  V1  1  0.749734  0.996671  0.752872  1
  V  V2  1  0.000000  0.507544  0.124846  1
  V  V3  1  0.000000  0.505028  0.628020  1
  V  V4  1  0.500000  0.249519  0.997992  1
  V  V5  1  0.500000  0.245422  0.496520  1
  V  V6  1  0.249730  0.997977  0.250270  1
  V  V7  1  0.250266  0.996671  0.752872  1
  Ga  Ga8  1  0.500000  0.494181  0.245479  1
  Ga  Ga9  1  0.500000  0.493228  0.748642  1
  Ga  Ga10  1  0.000000  0.006505  0.003546  1
  Ga  Ga11  1  0.000000  0.006670  0.503902  1
  Tc  Tc12  1  0.000000  0.498563  0.371971  1
  Tc  Tc13  1  0.000000  0.500300  0.873781  1
  Tc  Tc14  1  0.500000  0.754921  0.999596  1
  Mo  Mo15  1  0.500000  0.748821  0.499419  1
