# generated using pymatgen
data_Sr2YbInPt2
_symmetry_space_group_name_H-M   'P 1'
_cell_length_a   4.59677500
_cell_length_b   7.79330100
_cell_length_c   8.87213600
_cell_angle_alpha   90.00000000
_cell_angle_beta   90.00000000
_cell_angle_gamma   90.00000000
_symmetry_Int_Tables_number   1
_chemical_formula_structural   Sr2YbInPt2
_chemical_formula_sum   'Sr4 Yb2 In2 Pt4'
_cell_volume   317.83585436
_cell_formula_units_Z   2
loop_
 _symmetry_equiv_pos_site_id
 _symmetry_equiv_pos_as_xyz
  1  'x, y, z'
loop_
 _atom_site_type_symbol
 _atom_site_label
 _atom_site_symmetry_multiplicity
 _atom_site_fract_x
 _atom_site_fract_y
 _atom_site_fract_z
 _atom_site_occupancy
  Sr  Sr0  1  0.750000  0.957849  0.674447  1
  Sr  Sr1  1  0.250000  0.014672  0.321240  1
  Sr  Sr2  1  0.750000  0.485328  0.821240  1
  Sr  Sr3  1  0.250000  0.542151  0.174447  1
  Yb  Yb4  1  0.750000  0.365381  0.437160  1
  Yb  Yb5  1  0.250000  0.134619  0.937160  1
  In  In6  1  0.250000  0.647242  0.565662  1
  In  In7  1  0.750000  0.852758  0.065662  1
  Pt  Pt8  1  0.250000  0.773458  0.881073  1
  Pt  Pt9  1  0.250000  0.275880  0.620417  1
  Pt  Pt10  1  0.750000  0.726542  0.381073  1
  Pt  Pt11  1  0.750000  0.224120  0.120417  1
