# generated using pymatgen
data_Dy7Y3Si16Ge
_symmetry_space_group_name_H-M   'P 1'
_cell_length_a   11.03923230
_cell_length_b   11.02731714
_cell_length_c   11.03984922
_cell_angle_alpha   144.75838699
_cell_angle_beta   135.77013528
_cell_angle_gamma   57.79497619
_symmetry_Int_Tables_number   1
_chemical_formula_structural   Dy7Y3Si16Ge
_chemical_formula_sum   'Dy7 Y3 Si16 Ge1'
_cell_volume   536.34177731
_cell_formula_units_Z   1
loop_
 _symmetry_equiv_pos_site_id
 _symmetry_equiv_pos_as_xyz
  1  'x, y, z'
loop_
 _atom_site_type_symbol
 _atom_site_label
 _atom_site_symmetry_multiplicity
 _atom_site_fract_x
 _atom_site_fract_y
 _atom_site_fract_z
 _atom_site_occupancy
  Dy  Dy0  1  0.950512  0.963845  0.515146  1
  Dy  Dy1  1  0.151556  0.166876  0.519338  1
  Dy  Dy2  1  0.351356  0.367474  0.519156  1
  Dy  Dy3  1  0.244162  0.759787  0.004357  1
  Dy  Dy4  1  0.548625  0.561873  0.509068  1
  Dy  Dy5  1  0.052813  0.561889  0.013250  1
  Dy  Dy6  1  0.647523  0.166853  0.015302  1
  Y  Y7  1  0.755433  0.759792  0.515643  1
  Y  Y8  1  0.448641  0.963857  0.013339  1
  Y  Y9  1  0.848331  0.367487  0.016101  1
  Si  Si10  1  0.199509  0.577580  0.378149  1
  Si  Si11  1  0.000266  0.081555  0.081513  1
  Si  Si12  1  0.698990  0.290109  0.591141  1
  Si  Si13  1  0.800785  0.180327  0.379658  1
  Si  Si14  1  0.895739  0.504748  0.609109  1
  Si  Si15  1  0.417640  0.872588  0.454829  1
  Si  Si16  1  0.104393  0.713190  0.608877  1
  Si  Si17  1  0.300741  0.896407  0.595555  1
  Si  Si18  1  0.581309  0.037850  0.456324  1
  Si  Si19  1  0.999964  0.430832  0.431127  1
  Si  Si20  1  0.880568  0.843119  0.962586  1
  Si  Si21  1  0.399760  0.500418  0.100559  1
  Si  Si22  1  0.120331  0.084787  0.964462  1
  Si  Si23  1  0.285535  0.241089  0.955431  1
  Si  Si24  1  0.499486  0.387619  0.887942  1
  Si  Si25  1  0.598607  0.701639  0.102914  1
  Ge  Ge26  1  0.717424  0.677908  0.960624  1
