# generated using pymatgen
data_Th10AlBiPb6
_symmetry_space_group_name_H-M   'P 1'
_cell_length_a   9.78153102
_cell_length_b   9.78153075
_cell_length_c   6.63880906
_cell_angle_alpha   90.00777837
_cell_angle_beta   90.00778487
_cell_angle_gamma   119.99943943
_symmetry_Int_Tables_number   1
_chemical_formula_structural   Th10AlBiPb6
_chemical_formula_sum   'Th10 Al1 Bi1 Pb6'
_cell_volume   550.09399994
_cell_formula_units_Z   1
loop_
 _symmetry_equiv_pos_site_id
 _symmetry_equiv_pos_as_xyz
  1  'x, y, z'
loop_
 _atom_site_type_symbol
 _atom_site_label
 _atom_site_symmetry_multiplicity
 _atom_site_fract_x
 _atom_site_fract_y
 _atom_site_fract_z
 _atom_site_occupancy
  Th  Th0  1  0.667488  0.333242  0.500503  1
  Th  Th1  1  0.333242  0.667488  0.500503  1
  Th  Th2  1  0.333340  0.667871  0.999424  1
  Th  Th3  1  0.667871  0.333340  0.999424  1
  Th  Th4  1  0.723272  0.723272  0.258741  1
  Th  Th5  1  0.275769  0.998779  0.258932  1
  Th  Th6  1  0.998779  0.275769  0.258932  1
  Th  Th7  1  0.276773  0.276773  0.740622  1
  Th  Th8  1  0.723041  0.000193  0.741344  1
  Th  Th9  1  0.000193  0.723041  0.741344  1
  Al  Al10  1  0.999517  0.999517  0.500832  1
  Bi  Bi11  1  0.380909  0.380909  0.247655  1
  Pb  Pb12  1  0.999838  0.999838  0.999590  1
  Pb  Pb13  1  0.620411  0.999673  0.248049  1
  Pb  Pb14  1  0.999673  0.620411  0.248049  1
  Pb  Pb15  1  0.620892  0.620892  0.752040  1
  Pb  Pb16  1  0.379233  0.999757  0.752009  1
  Pb  Pb17  1  0.999757  0.379233  0.752009  1
