# generated using pymatgen
data_Hf2Zr4GaBi2
_symmetry_space_group_name_H-M   'P 1'
_cell_length_a   7.71086300
_cell_length_b   7.70843866
_cell_length_c   3.99492200
_cell_angle_alpha   90.00000000
_cell_angle_beta   90.00000000
_cell_angle_gamma   120.01039998
_symmetry_Int_Tables_number   1
_chemical_formula_structural   Hf2Zr4GaBi2
_chemical_formula_sum   'Hf2 Zr4 Ga1 Bi2'
_cell_volume   205.61880060
_cell_formula_units_Z   1
loop_
 _symmetry_equiv_pos_site_id
 _symmetry_equiv_pos_as_xyz
  1  'x, y, z'
loop_
 _atom_site_type_symbol
 _atom_site_label
 _atom_site_symmetry_multiplicity
 _atom_site_fract_x
 _atom_site_fract_y
 _atom_site_fract_z
 _atom_site_occupancy
  Hf  Hf0  1  0.237511  0.236428  0.500000  1
  Hf  Hf1  1  0.001083  0.763572  0.500000  1
  Zr  Zr2  1  0.391175  0.000000  0.000000  1
  Zr  Zr3  1  0.999938  0.392598  0.000000  1
  Zr  Zr4  1  0.607340  0.607402  0.000000  1
  Zr  Zr5  1  0.762029  0.000000  0.500000  1
  Ga  Ga6  1  0.001278  0.000000  0.000000  1
  Bi  Bi7  1  0.667061  0.334478  0.500000  1
  Bi  Bi8  1  0.332584  0.665522  0.500000  1
