# generated using pymatgen
data_Zr4Sc4IrOs7
_symmetry_space_group_name_H-M   'P 1'
_cell_length_a   6.47486600
_cell_length_b   4.61917100
_cell_length_c   9.23960000
_cell_angle_alpha   90.00000000
_cell_angle_beta   89.99896231
_cell_angle_gamma   90.00000000
_symmetry_Int_Tables_number   1
_chemical_formula_structural   Zr4Sc4IrOs7
_chemical_formula_sum   'Zr4 Sc4 Ir1 Os7'
_cell_volume   276.34269906
_cell_formula_units_Z   1
loop_
 _symmetry_equiv_pos_site_id
 _symmetry_equiv_pos_as_xyz
  1  'x, y, z'
loop_
 _atom_site_type_symbol
 _atom_site_label
 _atom_site_symmetry_multiplicity
 _atom_site_fract_x
 _atom_site_fract_y
 _atom_site_fract_z
 _atom_site_occupancy
  Zr  Zr0  1  0.747048  0.250000  0.125031  1
  Zr  Zr1  1  0.251553  0.750000  0.376672  1
  Zr  Zr2  1  0.749813  0.250000  0.625027  1
  Zr  Zr3  1  0.251782  0.750000  0.873282  1
  Sc  Sc4  1  0.251082  0.250000  0.124984  1
  Sc  Sc5  1  0.749182  0.750000  0.375971  1
  Sc  Sc6  1  0.250137  0.250000  0.624990  1
  Sc  Sc7  1  0.749448  0.750000  0.874056  1
  Ir  Ir8  1  0.999678  0.750000  0.124980  1
  Os  Os9  1  0.500158  0.750000  0.125009  1
  Os  Os10  1  0.000162  0.250000  0.374576  1
  Os  Os11  1  0.499636  0.250000  0.374319  1
  Os  Os12  1  0.500359  0.750000  0.625004  1
  Os  Os13  1  0.999851  0.750000  0.625009  1
  Os  Os14  1  0.499801  0.250000  0.875674  1
  Os  Os15  1  0.000309  0.250000  0.875415  1
