# generated using pymatgen
data_Cs10ReTc5Se14
_symmetry_space_group_name_H-M   'P 1'
_cell_length_a   11.54635690
_cell_length_b   11.52819283
_cell_length_c   11.72805893
_cell_angle_alpha   59.67096959
_cell_angle_beta   59.50373618
_cell_angle_gamma   60.07167358
_symmetry_Int_Tables_number   1
_chemical_formula_structural   Cs10ReTc5Se14
_chemical_formula_sum   'Cs10 Re1 Tc5 Se14'
_cell_volume   1097.51407647
_cell_formula_units_Z   1
loop_
 _symmetry_equiv_pos_site_id
 _symmetry_equiv_pos_as_xyz
  1  'x, y, z'
loop_
 _atom_site_type_symbol
 _atom_site_label
 _atom_site_symmetry_multiplicity
 _atom_site_fract_x
 _atom_site_fract_y
 _atom_site_fract_z
 _atom_site_occupancy
  Cs  Cs0  1  0.010193  0.010441  0.988581  1
  Cs  Cs1  1  0.423447  0.986159  0.003584  1
  Cs  Cs2  1  0.413916  0.996507  0.583423  1
  Cs  Cs3  1  0.851232  0.851359  0.857314  1
  Cs  Cs4  1  0.837270  0.837413  0.433753  1
  Cs  Cs5  1  0.996344  0.413528  0.583815  1
  Cs  Cs6  1  0.031350  0.031806  0.441845  1
  Cs  Cs7  1  0.985987  0.423541  0.003858  1
  Cs  Cs8  1  0.187158  0.575192  0.117892  1
  Cs  Cs9  1  0.575358  0.187219  0.117812  1
  Re  Re10  1  0.383268  0.615147  0.613493  1
  Tc  Tc11  1  0.382229  0.382258  0.617794  1
  Tc  Tc12  1  0.381376  0.614780  0.387888  1
  Tc  Tc13  1  0.615462  0.383095  0.613687  1
  Tc  Tc14  1  0.615599  0.615728  0.382271  1
  Tc  Tc15  1  0.615020  0.381179  0.387598  1
  Se  Se16  1  0.219958  0.219865  0.782908  1
  Se  Se17  1  0.211208  0.778056  0.768891  1
  Se  Se18  1  0.389209  0.389570  0.828255  1
  Se  Se19  1  0.166767  0.608403  0.612471  1
  Se  Se20  1  0.609877  0.610559  0.606542  1
  Se  Se21  1  0.203180  0.780544  0.244695  1
  Se  Se22  1  0.388292  0.388085  0.394023  1
  Se  Se23  1  0.394796  0.830800  0.386943  1
  Se  Se24  1  0.608080  0.167943  0.611882  1
  Se  Se25  1  0.779191  0.209702  0.769817  1
  Se  Se26  1  0.829812  0.395125  0.386954  1
  Se  Se27  1  0.607361  0.607169  0.173995  1
  Se  Se28  1  0.780879  0.780842  0.208531  1
  Se  Se29  1  0.780985  0.202788  0.244292  1
