# generated using pymatgen
data_DyLu4Hf2P12Ir17
_symmetry_space_group_name_H-M   'P 1'
_cell_length_a   12.63254700
_cell_length_b   12.87596924
_cell_length_c   3.95808300
_cell_angle_alpha   90.00000000
_cell_angle_beta   90.00000000
_cell_angle_gamma   119.37657084
_symmetry_Int_Tables_number   1
_chemical_formula_structural   DyLu4Hf2P12Ir17
_chemical_formula_sum   'Dy1 Lu4 Hf2 P12 Ir17'
_cell_volume   561.02281230
_cell_formula_units_Z   1
loop_
 _symmetry_equiv_pos_site_id
 _symmetry_equiv_pos_as_xyz
  1  'x, y, z'
loop_
 _atom_site_type_symbol
 _atom_site_label
 _atom_site_symmetry_multiplicity
 _atom_site_fract_x
 _atom_site_fract_y
 _atom_site_fract_z
 _atom_site_occupancy
  Dy  Dy0  1  0.813924  0.000000  0.000000  1
  Lu  Lu1  1  0.330204  0.660972  0.500000  1
  Lu  Lu2  1  0.669233  0.339028  0.500000  1
  Lu  Lu3  1  0.999923  0.817241  0.000000  1
  Lu  Lu4  1  0.182682  0.182759  0.000000  1
  Hf  Hf5  1  0.997166  0.447869  0.500000  1
  Hf  Hf6  1  0.549297  0.552131  0.500000  1
  P  P7  1  0.005989  0.653439  0.500000  1
  P  P8  1  0.352550  0.346561  0.500000  1
  P  P9  1  0.645674  0.000000  0.500000  1
  P  P10  1  0.514703  0.686442  0.000000  1
  P  P11  1  0.309848  0.823808  0.000000  1
  P  P12  1  0.164457  0.481774  0.000000  1
  P  P13  1  0.486040  0.176192  0.000000  1
  P  P14  1  0.682683  0.518226  0.000000  1
  P  P15  1  0.828261  0.313558  0.000000  1
  P  P16  1  0.000248  0.173469  0.500000  1
  P  P17  1  0.826779  0.826531  0.500000  1
  P  P18  1  0.181834  0.000000  0.500000  1
  Ir  Ir19  1  0.504250  0.863372  0.000000  1
  Ir  Ir20  1  0.127660  0.642741  0.000000  1
  Ir  Ir21  1  0.355591  0.498306  0.000000  1
  Ir  Ir22  1  0.484920  0.357259  0.000000  1
  Ir  Ir23  1  0.857287  0.501694  0.000000  1
  Ir  Ir24  1  0.640881  0.136628  0.000000  1
  Ir  Ir25  1  0.465070  0.000000  0.500000  1
  Ir  Ir26  1  0.997572  0.279991  0.000000  1
  Ir  Ir27  1  0.717580  0.720009  0.000000  1
  Ir  Ir28  1  0.291392  0.000000  0.000000  1
  Ir  Ir29  1  0.623665  0.807163  0.500000  1
  Ir  Ir30  1  0.202994  0.825440  0.500000  1
  Ir  Ir31  1  0.177794  0.365008  0.500000  1
  Ir  Ir32  1  0.377554  0.174560  0.500000  1
  Ir  Ir33  1  0.812786  0.634992  0.500000  1
  Ir  Ir34  1  0.816502  0.192837  0.500000  1
  Ir  Ir35  1  0.005009  0.000000  0.500000  1
