# generated using pymatgen
data_Tb15Dy5(Rh5Au)2
_symmetry_space_group_name_H-M   'P 1'
_cell_length_a   11.08312977
_cell_length_b   11.02907913
_cell_length_c   6.35141500
_cell_angle_alpha   90.00008312
_cell_angle_beta   89.90033448
_cell_angle_gamma   89.99131416
_symmetry_Int_Tables_number   1
_chemical_formula_structural   Tb15Dy5(Rh5Au)2
_chemical_formula_sum   'Tb15 Dy5 Rh10 Au2'
_cell_volume   776.37492284
_cell_formula_units_Z   1
loop_
 _symmetry_equiv_pos_site_id
 _symmetry_equiv_pos_as_xyz
  1  'x, y, z'
loop_
 _atom_site_type_symbol
 _atom_site_label
 _atom_site_symmetry_multiplicity
 _atom_site_fract_x
 _atom_site_fract_y
 _atom_site_fract_z
 _atom_site_occupancy
  Tb  Tb0  1  0.290623  0.089807  0.373448  1
  Tb  Tb1  1  0.290768  0.910451  0.873498  1
  Tb  Tb2  1  0.699771  0.092130  0.866646  1
  Tb  Tb3  1  0.699808  0.907855  0.366618  1
  Tb  Tb4  1  0.580256  0.789172  0.878088  1
  Tb  Tb5  1  0.580251  0.210766  0.378030  1
  Tb  Tb6  1  0.407382  0.790007  0.378367  1
  Tb  Tb7  1  0.407294  0.210042  0.878455  1
  Tb  Tb8  1  0.210746  0.409983  0.619583  1
  Tb  Tb9  1  0.210757  0.589645  0.119702  1
  Tb  Tb10  1  0.789484  0.417175  0.122450  1
  Tb  Tb11  1  0.789409  0.582687  0.622482  1
  Tb  Tb12  1  0.916270  0.706620  0.137676  1
  Tb  Tb13  1  0.916408  0.293278  0.637748  1
  Tb  Tb14  1  0.095808  0.703694  0.622874  1
  Dy  Dy15  1  0.095828  0.296642  0.122542  1
  Dy  Dy16  1  0.008532  0.997394  0.499768  1
  Dy  Dy17  1  0.008611  0.002896  0.999840  1
  Dy  Dy18  1  0.499657  0.498450  0.000431  1
  Dy  Dy19  1  0.499635  0.501486  0.500392  1
  Rh  Rh20  1  0.153955  0.154090  0.751383  1
  Rh  Rh21  1  0.154151  0.846184  0.250678  1
  Rh  Rh22  1  0.655712  0.346555  0.747920  1
  Rh  Rh23  1  0.655687  0.653399  0.248108  1
  Rh  Rh24  1  0.347085  0.345996  0.251319  1
  Rh  Rh25  1  0.347572  0.653971  0.751572  1
  Rh  Rh26  1  0.499123  0.999651  0.120821  1
  Rh  Rh27  1  0.499144  0.000379  0.620833  1
  Rh  Rh28  1  0.000126  0.500780  0.879535  1
  Rh  Rh29  1  0.000143  0.498650  0.379058  1
  Au  Au30  1  0.845075  0.155138  0.249987  1
  Au  Au31  1  0.844931  0.845026  0.750142  1
