# generated using pymatgen
data_Ho2Zn13GaCu3
_symmetry_space_group_name_H-M   'P 1'
_cell_length_a   8.91288300
_cell_length_b   8.91288220
_cell_length_c   8.61962600
_cell_angle_alpha   89.99981742
_cell_angle_beta   90.00018306
_cell_angle_gamma   119.99996665
_symmetry_Int_Tables_number   1
_chemical_formula_structural   Ho2Zn13GaCu3
_chemical_formula_sum   'Ho4 Zn26 Ga2 Cu6'
_cell_volume   593.00120003
_cell_formula_units_Z   2
loop_
 _symmetry_equiv_pos_site_id
 _symmetry_equiv_pos_as_xyz
  1  'x, y, z'
loop_
 _atom_site_type_symbol
 _atom_site_label
 _atom_site_symmetry_multiplicity
 _atom_site_fract_x
 _atom_site_fract_y
 _atom_site_fract_z
 _atom_site_occupancy
  Ho  Ho0  1  0.999995  0.000005  0.751313  1
  Ho  Ho1  1  0.000005  0.999995  0.248687  1
  Ho  Ho2  1  0.666677  0.333323  0.250683  1
  Ho  Ho3  1  0.333323  0.666677  0.749317  1
  Zn  Zn4  1  0.333328  0.666672  0.096785  1
  Zn  Zn5  1  0.666672  0.333328  0.903215  1
  Zn  Zn6  1  0.667394  0.034628  0.750567  1
  Zn  Zn7  1  0.367237  0.332594  0.750566  1
  Zn  Zn8  1  0.965383  0.632801  0.750566  1
  Zn  Zn9  1  0.367199  0.034617  0.750566  1
  Zn  Zn10  1  0.965372  0.332606  0.750567  1
  Zn  Zn11  1  0.667406  0.632763  0.750566  1
  Zn  Zn12  1  0.332606  0.965372  0.249433  1
  Zn  Zn13  1  0.632763  0.667406  0.249434  1
  Zn  Zn14  1  0.034617  0.367199  0.249434  1
  Zn  Zn15  1  0.632801  0.965383  0.249434  1
  Zn  Zn16  1  0.034628  0.667394  0.249433  1
  Zn  Zn17  1  0.332594  0.367237  0.249434  1
  Zn  Zn18  1  0.836326  0.672667  0.479773  1
  Zn  Zn19  1  0.836356  0.163644  0.479800  1
  Zn  Zn20  1  0.327333  0.163674  0.479773  1
  Zn  Zn21  1  0.163674  0.327333  0.520227  1
  Zn  Zn22  1  0.163644  0.836356  0.520200  1
  Zn  Zn23  1  0.672667  0.836326  0.520227  1
  Zn  Zn24  1  0.165219  0.330423  0.981183  1
  Zn  Zn25  1  0.165189  0.834811  0.981212  1
  Zn  Zn26  1  0.669577  0.834781  0.981183  1
  Zn  Zn27  1  0.834781  0.669577  0.018817  1
  Zn  Zn28  1  0.834811  0.165189  0.018788  1
  Zn  Zn29  1  0.330423  0.165219  0.018817  1
  Ga  Ga30  1  0.666676  0.333324  0.595615  1
  Ga  Ga31  1  0.333324  0.666676  0.404385  1
  Cu  Cu32  1  0.500000  0.000000  0.500000  1
  Cu  Cu33  1  0.500000  0.500000  0.500000  1
  Cu  Cu34  1  0.000000  0.500000  0.500000  1
  Cu  Cu35  1  0.500000  0.000000  0.000000  1
  Cu  Cu36  1  0.500000  0.500000  0.000000  1
  Cu  Cu37  1  0.000000  0.500000  0.000000  1
