# generated using pymatgen
data_Yb3(SnPt)2
_symmetry_space_group_name_H-M   'P 1'
_cell_length_a   5.80040900
_cell_length_b   8.44568200
_cell_length_c   13.81793100
_cell_angle_alpha   90.00000000
_cell_angle_beta   90.00000000
_cell_angle_gamma   90.00000000
_symmetry_Int_Tables_number   1
_chemical_formula_structural   Yb3(SnPt)2
_chemical_formula_sum   'Yb12 Sn8 Pt8'
_cell_volume   676.91846758
_cell_formula_units_Z   4
loop_
 _symmetry_equiv_pos_site_id
 _symmetry_equiv_pos_as_xyz
  1  'x, y, z'
loop_
 _atom_site_type_symbol
 _atom_site_label
 _atom_site_symmetry_multiplicity
 _atom_site_fract_x
 _atom_site_fract_y
 _atom_site_fract_z
 _atom_site_occupancy
  Yb  Yb0  1  0.160657  0.394666  0.594292  1
  Yb  Yb1  1  0.839343  0.605334  0.094292  1
  Yb  Yb2  1  0.160657  0.105334  0.405708  1
  Yb  Yb3  1  0.839343  0.894666  0.905708  1
  Yb  Yb4  1  0.839343  0.605334  0.405708  1
  Yb  Yb5  1  0.160657  0.394666  0.905708  1
  Yb  Yb6  1  0.839343  0.894666  0.594292  1
  Yb  Yb7  1  0.160657  0.105334  0.094292  1
  Yb  Yb8  1  0.627370  0.258791  0.750000  1
  Yb  Yb9  1  0.372630  0.741209  0.250000  1
  Yb  Yb10  1  0.627370  0.241209  0.250000  1
  Yb  Yb11  1  0.372630  0.758791  0.750000  1
  Sn  Sn12  1  0.662419  0.250000  0.500000  1
  Sn  Sn13  1  0.337581  0.750000  0.000000  1
  Sn  Sn14  1  0.337581  0.750000  0.500000  1
  Sn  Sn15  1  0.662419  0.250000  0.000000  1
  Sn  Sn16  1  0.120570  0.101080  0.750000  1
  Sn  Sn17  1  0.879430  0.898920  0.250000  1
  Sn  Sn18  1  0.120570  0.398920  0.250000  1
  Sn  Sn19  1  0.879430  0.601080  0.750000  1
  Pt  Pt20  1  0.375416  0.039663  0.592089  1
  Pt  Pt21  1  0.624584  0.960337  0.092089  1
  Pt  Pt22  1  0.375416  0.460337  0.407911  1
  Pt  Pt23  1  0.624584  0.539663  0.907911  1
  Pt  Pt24  1  0.624584  0.960337  0.407911  1
  Pt  Pt25  1  0.375416  0.039663  0.907911  1
  Pt  Pt26  1  0.624584  0.539663  0.592089  1
  Pt  Pt27  1  0.375416  0.460337  0.092089  1
