# generated using pymatgen
data_HoNbB6Os
_symmetry_space_group_name_H-M   'P 1'
_cell_length_a   3.50673900
_cell_length_b   8.99934200
_cell_length_c   11.29126200
_cell_angle_alpha   90.00000000
_cell_angle_beta   90.00000000
_cell_angle_gamma   90.00000000
_symmetry_Int_Tables_number   1
_chemical_formula_structural   HoNbB6Os
_chemical_formula_sum   'Ho4 Nb4 B24 Os4'
_cell_volume   356.33352549
_cell_formula_units_Z   4
loop_
 _symmetry_equiv_pos_site_id
 _symmetry_equiv_pos_as_xyz
  1  'x, y, z'
loop_
 _atom_site_type_symbol
 _atom_site_label
 _atom_site_symmetry_multiplicity
 _atom_site_fract_x
 _atom_site_fract_y
 _atom_site_fract_z
 _atom_site_occupancy
  Ho  Ho0  1  0.000000  0.323473  0.413002  1
  Ho  Ho1  1  0.000000  0.676527  0.586998  1
  Ho  Ho2  1  0.000000  0.823473  0.086998  1
  Ho  Ho3  1  0.000000  0.176527  0.913002  1
  Nb  Nb4  1  0.000000  0.946432  0.376982  1
  Nb  Nb5  1  0.000000  0.053568  0.623018  1
  Nb  Nb6  1  0.000000  0.446432  0.123018  1
  Nb  Nb7  1  0.000000  0.553568  0.876982  1
  B  B8  1  0.500000  0.554580  0.434215  1
  B  B9  1  0.500000  0.445420  0.565785  1
  B  B10  1  0.500000  0.054580  0.065785  1
  B  B11  1  0.500000  0.945420  0.934215  1
  B  B12  1  0.500000  0.753478  0.419287  1
  B  B13  1  0.500000  0.246522  0.580713  1
  B  B14  1  0.500000  0.253478  0.080713  1
  B  B15  1  0.500000  0.746522  0.919287  1
  B  B16  1  0.500000  0.797371  0.263030  1
  B  B17  1  0.500000  0.202629  0.736969  1
  B  B18  1  0.500000  0.297371  0.236970  1
  B  B19  1  0.500000  0.702629  0.763031  1
  B  B20  1  0.500000  0.629409  0.181435  1
  B  B21  1  0.500000  0.370591  0.818565  1
  B  B22  1  0.500000  0.129409  0.318565  1
  B  B23  1  0.500000  0.870591  0.681435  1
  B  B24  1  0.500000  0.980614  0.213535  1
  B  B25  1  0.500000  0.019386  0.786465  1
  B  B26  1  0.500000  0.480614  0.286465  1
  B  B27  1  0.500000  0.519386  0.713535  1
  B  B28  1  0.500000  0.601053  0.027125  1
  B  B29  1  0.500000  0.398947  0.972875  1
  B  B30  1  0.500000  0.101053  0.472875  1
  B  B31  1  0.500000  0.898947  0.527125  1
  Os  Os32  1  0.000000  0.642809  0.317952  1
  Os  Os33  1  0.000000  0.357191  0.682048  1
  Os  Os34  1  0.000000  0.142809  0.182048  1
  Os  Os35  1  0.000000  0.857191  0.817952  1
