# generated using pymatgen
data_HoBeSi2Pd
_symmetry_space_group_name_H-M   'P 1'
_cell_length_a   3.92097205
_cell_length_b   3.92097154
_cell_length_c   5.81954104
_cell_angle_alpha   109.68688316
_cell_angle_beta   109.68688431
_cell_angle_gamma   90.00000641
_symmetry_Int_Tables_number   1
_chemical_formula_structural   HoBeSi2Pd
_chemical_formula_sum   'Ho1 Be1 Si2 Pd1'
_cell_volume   78.66339402
_cell_formula_units_Z   1
loop_
 _symmetry_equiv_pos_site_id
 _symmetry_equiv_pos_as_xyz
  1  'x, y, z'
loop_
 _atom_site_type_symbol
 _atom_site_label
 _atom_site_symmetry_multiplicity
 _atom_site_fract_x
 _atom_site_fract_y
 _atom_site_fract_z
 _atom_site_occupancy
  Ho  Ho0  1  0.000000  0.000000  0.000000  1
  Be  Be1  1  0.750001  0.250000  0.500000  1
  Si  Si2  1  0.614331  0.614331  0.228660  1
  Si  Si3  1  0.385670  0.385670  0.771340  1
  Pd  Pd4  1  0.250000  0.750001  0.500000  1
