# generated using pymatgen
data_Ti6GaBSe
_symmetry_space_group_name_H-M   'P 1'
_cell_length_a   6.81986100
_cell_length_b   6.81986086
_cell_length_c   3.36944200
_cell_angle_alpha   90.00000000
_cell_angle_beta   90.00000000
_cell_angle_gamma   119.99999584
_symmetry_Int_Tables_number   1
_chemical_formula_structural   Ti6GaBSe
_chemical_formula_sum   'Ti6 Ga1 B1 Se1'
_cell_volume   135.71869406
_cell_formula_units_Z   1
loop_
 _symmetry_equiv_pos_site_id
 _symmetry_equiv_pos_as_xyz
  1  'x, y, z'
loop_
 _atom_site_type_symbol
 _atom_site_label
 _atom_site_symmetry_multiplicity
 _atom_site_fract_x
 _atom_site_fract_y
 _atom_site_fract_z
 _atom_site_occupancy
  Ti  Ti0  1  0.235281  0.002346  0.500000  1
  Ti  Ti1  1  0.767065  0.764719  0.500000  1
  Ti  Ti2  1  0.997654  0.232935  0.500000  1
  Ti  Ti3  1  0.605957  0.994356  0.000000  1
  Ti  Ti4  1  0.388398  0.394043  0.000000  1
  Ti  Ti5  1  0.005644  0.611602  0.000000  1
  Ga  Ga6  1  0.666667  0.333333  0.500000  1
  B  B7  1  0.000000  0.000000  0.000000  1
  Se  Se8  1  0.333333  0.666667  0.500000  1
