# generated using pymatgen
data_Zr6Zn19Cu3SiPd
_symmetry_space_group_name_H-M   'P 1'
_cell_length_a   8.77294372
_cell_length_b   8.74475350
_cell_length_c   8.76020314
_cell_angle_alpha   59.86463149
_cell_angle_beta   59.83535201
_cell_angle_gamma   60.00996655
_symmetry_Int_Tables_number   1
_chemical_formula_structural   Zr6Zn19Cu3SiPd
_chemical_formula_sum   'Zr6 Zn19 Cu3 Si1 Pd1'
_cell_volume   474.17226946
_cell_formula_units_Z   1
loop_
 _symmetry_equiv_pos_site_id
 _symmetry_equiv_pos_as_xyz
  1  'x, y, z'
loop_
 _atom_site_type_symbol
 _atom_site_label
 _atom_site_symmetry_multiplicity
 _atom_site_fract_x
 _atom_site_fract_y
 _atom_site_fract_z
 _atom_site_occupancy
  Zr  Zr0  1  0.710755  0.289245  0.289245  1
  Zr  Zr1  1  0.289245  0.710755  0.710755  1
  Zr  Zr2  1  0.290196  0.709347  0.290653  1
  Zr  Zr3  1  0.709804  0.290653  0.709347  1
  Zr  Zr4  1  0.288130  0.288657  0.711343  1
  Zr  Zr5  1  0.711870  0.711343  0.288657  1
  Zn  Zn6  1  0.119819  0.120307  0.127963  1
  Zn  Zn7  1  0.880181  0.879693  0.872037  1
  Zn  Zn8  1  0.118294  0.125801  0.630726  1
  Zn  Zn9  1  0.125179  0.630726  0.125801  1
  Zn  Zn10  1  0.881706  0.874199  0.369274  1
  Zn  Zn11  1  0.874821  0.369274  0.874199  1
  Zn  Zn12  1  0.631911  0.127963  0.120307  1
  Zn  Zn13  1  0.368089  0.872037  0.879693  1
  Zn  Zn14  1  0.500000  0.000000  0.000000  1
  Zn  Zn15  1  0.000000  0.500000  0.000000  1
  Zn  Zn16  1  0.500000  0.000000  0.500000  1
  Zn  Zn17  1  0.334196  0.341184  0.334482  1
  Zn  Zn18  1  0.665804  0.658816  0.665518  1
  Zn  Zn19  1  0.338990  0.339227  0.990228  1
  Zn  Zn20  1  0.331555  0.990228  0.339227  1
  Zn  Zn21  1  0.661010  0.660773  0.009772  1
  Zn  Zn22  1  0.668445  0.009772  0.660773  1
  Zn  Zn23  1  0.990138  0.334482  0.341184  1
  Zn  Zn24  1  0.009862  0.665518  0.658816  1
  Cu  Cu25  1  0.000000  0.500000  0.500000  1
  Cu  Cu26  1  0.000000  0.000000  0.500000  1
  Cu  Cu27  1  0.500000  0.500000  0.000000  1
  Si  Si28  1  0.500000  0.500000  0.500000  1
  Pd  Pd29  1  0.000000  0.000000  0.000000  1
