# generated using pymatgen
data_Ac3ErRu4F28
_symmetry_space_group_name_H-M   'P 1'
_cell_length_a   5.73784539
_cell_length_b   9.31051595
_cell_length_c   12.31167400
_cell_angle_alpha   62.52959135
_cell_angle_beta   90.02112951
_cell_angle_gamma   89.93573414
_symmetry_Int_Tables_number   1
_chemical_formula_structural   Ac3ErRu4F28
_chemical_formula_sum   'Ac3 Er1 Ru4 F28'
_cell_volume   583.55906566
_cell_formula_units_Z   1
loop_
 _symmetry_equiv_pos_site_id
 _symmetry_equiv_pos_as_xyz
  1  'x, y, z'
loop_
 _atom_site_type_symbol
 _atom_site_label
 _atom_site_symmetry_multiplicity
 _atom_site_fract_x
 _atom_site_fract_y
 _atom_site_fract_z
 _atom_site_occupancy
  Ac  Ac0  1  0.760456  0.805458  0.266921  1
  Ac  Ac1  1  0.260622  0.191119  0.232987  1
  Ac  Ac2  1  0.238104  0.182977  0.733079  1
  Er  Er3  1  0.734451  0.801536  0.769662  1
  Ru  Ru4  1  0.241215  0.727721  0.555974  1
  Ru  Ru5  1  0.745197  0.286523  0.950500  1
  Ru  Ru6  1  0.749848  0.267891  0.459079  1
  Ru  Ru7  1  0.253129  0.724621  0.033838  1
  F  F8  1  0.962770  0.713269  0.468369  1
  F  F9  1  0.451404  0.297008  0.028199  1
  F  F10  1  0.047158  0.285500  0.532221  1
  F  F11  1  0.543219  0.714225  0.948189  1
  F  F12  1  0.054062  0.705210  0.914570  1
  F  F13  1  0.577476  0.292806  0.586863  1
  F  F14  1  0.923339  0.304900  0.076753  1
  F  F15  1  0.440164  0.708133  0.433461  1
  F  F16  1  0.744749  0.521421  0.856385  1
  F  F17  1  0.235672  0.497923  0.649036  1
  F  F18  1  0.263122  0.492105  0.128401  1
  F  F19  1  0.753569  0.499095  0.364402  1
  F  F20  1  0.737329  0.053251  0.042695  1
  F  F21  1  0.237937  0.957791  0.461282  1
  F  F22  1  0.258580  0.958739  0.951541  1
  F  F23  1  0.757150  0.038494  0.548777  1
  F  F24  1  0.036368  0.753996  0.675713  1
  F  F25  1  0.571305  0.265727  0.823465  1
  F  F26  1  0.921490  0.254388  0.326221  1
  F  F27  1  0.443349  0.738152  0.159165  1
  F  F28  1  0.034199  0.273205  0.870878  1
  F  F29  1  0.523529  0.734817  0.646303  1
  F  F30  1  0.972911  0.727888  0.123353  1
  F  F31  1  0.453413  0.266540  0.380532  1
  F  F32  1  0.120587  0.953897  0.226412  1
  F  F33  1  0.618872  0.040310  0.274116  1
  F  F34  1  0.900484  0.007103  0.769895  1
  F  F35  1  0.432772  0.956260  0.730762  1
