# generated using pymatgen
data_Tm3TiZn2Rh3
_symmetry_space_group_name_H-M   'P 1'
_cell_length_a   6.91420200
_cell_length_b   7.04636438
_cell_length_c   4.01710200
_cell_angle_alpha   90.00000000
_cell_angle_beta   90.00000000
_cell_angle_gamma   119.38145912
_symmetry_Int_Tables_number   1
_chemical_formula_structural   Tm3TiZn2Rh3
_chemical_formula_sum   'Tm3 Ti1 Zn2 Rh3'
_cell_volume   170.53908573
_cell_formula_units_Z   1
loop_
 _symmetry_equiv_pos_site_id
 _symmetry_equiv_pos_as_xyz
  1  'x, y, z'
loop_
 _atom_site_type_symbol
 _atom_site_label
 _atom_site_symmetry_multiplicity
 _atom_site_fract_x
 _atom_site_fract_y
 _atom_site_fract_z
 _atom_site_occupancy
  Tm  Tm0  1  0.608643  0.000000  0.000000  1
  Tm  Tm1  1  0.415350  0.429076  0.000000  1
  Tm  Tm2  1  0.986273  0.570923  0.000000  1
  Ti  Ti3  1  0.235426  0.000000  0.499999  1
  Zn  Zn4  1  0.003279  0.246012  0.499999  1
  Zn  Zn5  1  0.757267  0.753987  0.499999  1
  Rh  Rh6  1  0.025518  0.000000  0.000000  1
  Rh  Rh7  1  0.642351  0.316458  0.499999  1
  Rh  Rh8  1  0.325893  0.683541  0.499999  1
