# generated using pymatgen
data_Ca13Lu7Pb16
_symmetry_space_group_name_H-M   'P 1'
_cell_length_a   7.94884426
_cell_length_b   8.55688031
_cell_length_c   16.23221151
_cell_angle_alpha   89.92164106
_cell_angle_beta   89.97127213
_cell_angle_gamma   90.44343469
_symmetry_Int_Tables_number   1
_chemical_formula_structural   Ca13Lu7Pb16
_chemical_formula_sum   'Ca13 Lu7 Pb16'
_cell_volume   1104.03710180
_cell_formula_units_Z   1
loop_
 _symmetry_equiv_pos_site_id
 _symmetry_equiv_pos_as_xyz
  1  'x, y, z'
loop_
 _atom_site_type_symbol
 _atom_site_label
 _atom_site_symmetry_multiplicity
 _atom_site_fract_x
 _atom_site_fract_y
 _atom_site_fract_z
 _atom_site_occupancy
  Ca  Ca0  1  0.499710  0.811159  0.411251  1
  Ca  Ca1  1  0.000820  0.312993  0.909721  1
  Ca  Ca2  1  0.002825  0.312185  0.589482  1
  Ca  Ca3  1  0.824085  0.842480  0.878434  1
  Ca  Ca4  1  0.498674  0.811736  0.088895  1
  Ca  Ca5  1  0.325532  0.660417  0.879027  1
  Ca  Ca6  1  0.674786  0.342189  0.120081  1
  Ca  Ca7  1  0.675424  0.340411  0.381014  1
  Ca  Ca8  1  0.503369  0.188120  0.590317  1
  Ca  Ca9  1  0.323627  0.657090  0.619180  1
  Ca  Ca10  1  0.501641  0.189096  0.909892  1
  Ca  Ca11  1  0.997479  0.686458  0.410231  1
  Ca  Ca12  1  0.997038  0.687677  0.090056  1
  Lu  Lu13  1  0.833916  0.995777  0.250109  1
  Lu  Lu14  1  0.662428  0.492252  0.750195  1
  Lu  Lu15  1  0.336260  0.508279  0.249622  1
  Lu  Lu16  1  0.166160  0.003449  0.751605  1
  Lu  Lu17  1  0.171038  0.159375  0.122767  1
  Lu  Lu18  1  0.830312  0.839798  0.622545  1
  Lu  Lu19  1  0.172008  0.159264  0.377933  1
  Pb  Pb20  1  0.799024  0.144920  0.747414  1
  Pb  Pb21  1  0.681823  0.536242  0.547323  1
  Pb  Pb22  1  0.979361  0.372994  0.250920  1
  Pb  Pb23  1  0.178817  0.968099  0.958040  1
  Pb  Pb24  1  0.316994  0.464310  0.047170  1
  Pb  Pb25  1  0.526064  0.880159  0.744324  1
  Pb  Pb26  1  0.291379  0.351829  0.749012  1
  Pb  Pb27  1  0.020943  0.621747  0.750004  1
  Pb  Pb28  1  0.827011  0.033717  0.456417  1
  Pb  Pb29  1  0.318923  0.463525  0.452027  1
  Pb  Pb30  1  0.201637  0.857250  0.250669  1
  Pb  Pb31  1  0.176431  0.966031  0.543787  1
  Pb  Pb32  1  0.827331  0.037020  0.046429  1
  Pb  Pb33  1  0.709011  0.646552  0.250442  1
  Pb  Pb34  1  0.676304  0.533342  0.953363  1
  Pb  Pb35  1  0.471814  0.122060  0.250296  1
