# generated using pymatgen
data_HoTm5(LuAu2)2
_symmetry_space_group_name_H-M   'P 1'
_cell_length_a   4.84950300
_cell_length_b   7.04316847
_cell_length_c   8.82742759
_cell_angle_alpha   90.04195617
_cell_angle_beta   90.00000000
_cell_angle_gamma   90.00000000
_symmetry_Int_Tables_number   1
_chemical_formula_structural   HoTm5(LuAu2)2
_chemical_formula_sum   'Ho1 Tm5 Lu2 Au4'
_cell_volume   301.50835871
_cell_formula_units_Z   1
loop_
 _symmetry_equiv_pos_site_id
 _symmetry_equiv_pos_as_xyz
  1  'x, y, z'
loop_
 _atom_site_type_symbol
 _atom_site_label
 _atom_site_symmetry_multiplicity
 _atom_site_fract_x
 _atom_site_fract_y
 _atom_site_fract_z
 _atom_site_occupancy
  Ho  Ho0  1  0.250000  0.483378  0.178154  1
  Tm  Tm1  1  0.750000  0.149342  0.077073  1
  Tm  Tm2  1  0.750000  0.649718  0.423163  1
  Tm  Tm3  1  0.250000  0.983303  0.322187  1
  Tm  Tm4  1  0.750000  0.517401  0.821631  1
  Tm  Tm5  1  0.750000  0.017349  0.678276  1
  Lu  Lu6  1  0.250000  0.850642  0.922480  1
  Lu  Lu7  1  0.250000  0.350438  0.577545  1
  Au  Au8  1  0.250000  0.255528  0.896479  1
  Au  Au9  1  0.250000  0.755726  0.603075  1
  Au  Au10  1  0.750000  0.743873  0.100908  1
  Au  Au11  1  0.750000  0.243299  0.399030  1
