# generated using pymatgen
data_Ho20Ir6(RuRh)3
_symmetry_space_group_name_H-M   'P 1'
_cell_length_a   10.79293073
_cell_length_b   10.79093005
_cell_length_c   6.40133647
_cell_angle_alpha   89.98949403
_cell_angle_beta   90.01746492
_cell_angle_gamma   89.99726918
_symmetry_Int_Tables_number   1
_chemical_formula_structural   Ho20Ir6(RuRh)3
_chemical_formula_sum   'Ho20 Ir6 Ru3 Rh3'
_cell_volume   745.53647208
_cell_formula_units_Z   1
loop_
 _symmetry_equiv_pos_site_id
 _symmetry_equiv_pos_as_xyz
  1  'x, y, z'
loop_
 _atom_site_type_symbol
 _atom_site_label
 _atom_site_symmetry_multiplicity
 _atom_site_fract_x
 _atom_site_fract_y
 _atom_site_fract_z
 _atom_site_occupancy
  Ho  Ho0  1  0.291872  0.087030  0.380190  1
  Ho  Ho1  1  0.291568  0.912979  0.876323  1
  Ho  Ho2  1  0.707601  0.087991  0.874962  1
  Ho  Ho3  1  0.707366  0.911990  0.379046  1
  Ho  Ho4  1  0.586611  0.791744  0.876922  1
  Ho  Ho5  1  0.586673  0.207904  0.380702  1
  Ho  Ho6  1  0.412765  0.792090  0.379806  1
  Ho  Ho7  1  0.412707  0.208191  0.875979  1
  Ho  Ho8  1  0.206327  0.413568  0.621834  1
  Ho  Ho9  1  0.206279  0.586538  0.121983  1
  Ho  Ho10  1  0.793461  0.414091  0.122088  1
  Ho  Ho11  1  0.793467  0.585693  0.622059  1
  Ho  Ho12  1  0.913951  0.706058  0.122947  1
  Ho  Ho13  1  0.914105  0.293988  0.622881  1
  Ho  Ho14  1  0.087183  0.706539  0.622225  1
  Ho  Ho15  1  0.087373  0.293504  0.122441  1
  Ho  Ho16  1  0.000099  0.000491  0.500083  1
  Ho  Ho17  1  0.000091  0.999620  0.000293  1
  Ho  Ho18  1  0.499848  0.500137  0.000585  1
  Ho  Ho19  1  0.499848  0.499749  0.500376  1
  Ir  Ir20  1  0.152909  0.152546  0.750299  1
  Ir  Ir21  1  0.153013  0.847686  0.249782  1
  Ir  Ir22  1  0.652706  0.346957  0.750110  1
  Ir  Ir23  1  0.652389  0.653295  0.249768  1
  Ir  Ir24  1  0.347998  0.346351  0.249623  1
  Ir  Ir25  1  0.347700  0.653535  0.750095  1
  Ru  Ru26  1  0.501219  0.999763  0.622702  1
  Ru  Ru27  1  0.999216  0.500114  0.876571  1
  Ru  Ru28  1  0.999197  0.499967  0.376394  1
  Rh  Rh29  1  0.846672  0.151685  0.249241  1
  Rh  Rh30  1  0.846754  0.848022  0.749623  1
  Rh  Rh31  1  0.501027  0.000187  0.122065  1
