# generated using pymatgen
data_Pr2SiAg2PRh4
_symmetry_space_group_name_H-M   'P 1'
_cell_length_a   4.05637300
_cell_length_b   4.05637300
_cell_length_c   11.24966500
_cell_angle_alpha   90.00000000
_cell_angle_beta   90.00000000
_cell_angle_gamma   90.00000000
_symmetry_Int_Tables_number   1
_chemical_formula_structural   Pr2SiAg2PRh4
_chemical_formula_sum   'Pr2 Si1 Ag2 P1 Rh4'
_cell_volume   185.10380940
_cell_formula_units_Z   1
loop_
 _symmetry_equiv_pos_site_id
 _symmetry_equiv_pos_as_xyz
  1  'x, y, z'
loop_
 _atom_site_type_symbol
 _atom_site_label
 _atom_site_symmetry_multiplicity
 _atom_site_fract_x
 _atom_site_fract_y
 _atom_site_fract_z
 _atom_site_occupancy
  Pr  Pr0  1  0.000000  0.500000  0.243871  1
  Pr  Pr1  1  0.500000  0.000000  0.752376  1
  Si  Si2  1  0.000000  0.500000  0.884394  1
  Ag  Ag3  1  0.000000  0.000000  0.498508  1
  Ag  Ag4  1  0.500000  0.500000  0.498508  1
  P  P5  1  0.500000  0.000000  0.116348  1
  Rh  Rh6  1  0.000000  0.000000  0.004586  1
  Rh  Rh7  1  0.500000  0.500000  0.004586  1
  Rh  Rh8  1  0.000000  0.500000  0.677735  1
  Rh  Rh9  1  0.500000  0.000000  0.319086  1
