# generated using pymatgen
data_ErTmCo8(P3Ru)2
_symmetry_space_group_name_H-M   'P 1'
_cell_length_a   3.67993600
_cell_length_b   10.38340200
_cell_length_c   11.76264900
_cell_angle_alpha   90.00000000
_cell_angle_beta   90.00000000
_cell_angle_gamma   90.00000000
_symmetry_Int_Tables_number   1
_chemical_formula_structural   ErTmCo8(P3Ru)2
_chemical_formula_sum   'Er2 Tm2 Co16 P12 Ru4'
_cell_volume   449.45381567
_cell_formula_units_Z   2
loop_
 _symmetry_equiv_pos_site_id
 _symmetry_equiv_pos_as_xyz
  1  'x, y, z'
loop_
 _atom_site_type_symbol
 _atom_site_label
 _atom_site_symmetry_multiplicity
 _atom_site_fract_x
 _atom_site_fract_y
 _atom_site_fract_z
 _atom_site_occupancy
  Er  Er0  1  0.250000  0.586125  0.704202  1
  Er  Er1  1  0.250000  0.913875  0.204202  1
  Tm  Tm2  1  0.750000  0.413582  0.295849  1
  Tm  Tm3  1  0.750000  0.086418  0.795849  1
  Co  Co4  1  0.250000  0.408700  0.488506  1
  Co  Co5  1  0.250000  0.091300  0.988506  1
  Co  Co6  1  0.750000  0.590632  0.510803  1
  Co  Co7  1  0.750000  0.909368  0.010803  1
  Co  Co8  1  0.250000  0.221267  0.176851  1
  Co  Co9  1  0.250000  0.278733  0.676851  1
  Co  Co10  1  0.750000  0.778921  0.823090  1
  Co  Co11  1  0.750000  0.721079  0.323090  1
  Co  Co12  1  0.250000  0.888362  0.703032  1
  Co  Co13  1  0.250000  0.611638  0.203032  1
  Co  Co14  1  0.750000  0.112422  0.297160  1
  Co  Co15  1  0.750000  0.387578  0.797160  1
  Co  Co16  1  0.250000  0.465193  0.930437  1
  Co  Co17  1  0.250000  0.034807  0.430437  1
  Co  Co18  1  0.750000  0.534475  0.069908  1
  Co  Co19  1  0.750000  0.965525  0.569908  1
  P  P20  1  0.250000  0.419257  0.112443  1
  P  P21  1  0.250000  0.080743  0.612443  1
  P  P22  1  0.750000  0.580580  0.887992  1
  P  P23  1  0.750000  0.919420  0.387992  1
  P  P24  1  0.250000  0.270716  0.866826  1
  P  P25  1  0.250000  0.229284  0.366826  1
  P  P26  1  0.750000  0.729026  0.132929  1
  P  P27  1  0.750000  0.770974  0.632929  1
  P  P28  1  0.250000  0.594751  0.389778  1
  P  P29  1  0.250000  0.905249  0.889778  1
  P  P30  1  0.750000  0.404734  0.609998  1
  P  P31  1  0.750000  0.095266  0.109998  1
  Ru  Ru32  1  0.250000  0.717933  0.993241  1
  Ru  Ru33  1  0.250000  0.782067  0.493241  1
  Ru  Ru34  1  0.750000  0.282452  0.006955  1
  Ru  Ru35  1  0.750000  0.217548  0.506955  1
