# generated using pymatgen
data_Ca3Yb(GePd2)4
_symmetry_space_group_name_H-M   'P 1'
_cell_length_a   5.62435194
_cell_length_b   7.14201600
_cell_length_c   7.55389646
_cell_angle_alpha   90.00000000
_cell_angle_beta   89.98688866
_cell_angle_gamma   90.00000000
_symmetry_Int_Tables_number   1
_chemical_formula_structural   Ca3Yb(GePd2)4
_chemical_formula_sum   'Ca3 Yb1 Ge4 Pd8'
_cell_volume   303.43405670
_cell_formula_units_Z   1
loop_
 _symmetry_equiv_pos_site_id
 _symmetry_equiv_pos_as_xyz
  1  'x, y, z'
loop_
 _atom_site_type_symbol
 _atom_site_label
 _atom_site_symmetry_multiplicity
 _atom_site_fract_x
 _atom_site_fract_y
 _atom_site_fract_z
 _atom_site_occupancy
  Ca  Ca0  1  0.367895  0.750000  0.025014  1
  Ca  Ca1  1  0.131650  0.750000  0.524813  1
  Ca  Ca2  1  0.631977  0.250000  0.974486  1
  Yb  Yb3  1  0.864071  0.250000  0.475289  1
  Ge  Ge4  1  0.630734  0.750000  0.377158  1
  Ge  Ge5  1  0.868876  0.750000  0.877281  1
  Ge  Ge6  1  0.366266  0.250000  0.622355  1
  Ge  Ge7  1  0.131310  0.250000  0.124257  1
  Pd  Pd8  1  0.901000  0.553007  0.173831  1
  Pd  Pd9  1  0.602225  0.947737  0.670738  1
  Pd  Pd10  1  0.097404  0.054261  0.826646  1
  Pd  Pd11  1  0.402979  0.445435  0.328459  1
  Pd  Pd12  1  0.097404  0.445739  0.826646  1
  Pd  Pd13  1  0.402979  0.054565  0.328459  1
  Pd  Pd14  1  0.901000  0.946993  0.173831  1
  Pd  Pd15  1  0.602225  0.552263  0.670738  1
