# generated using pymatgen
data_CaTb6(CCl5)2
_symmetry_space_group_name_H-M   'P 1'
_cell_length_a   10.21299452
_cell_length_b   10.21299498
_cell_length_c   12.76820012
_cell_angle_alpha   80.76351492
_cell_angle_beta   80.76351506
_cell_angle_gamma   21.63829236
_symmetry_Int_Tables_number   1
_chemical_formula_structural   CaTb6(CCl5)2
_chemical_formula_sum   'Ca1 Tb6 C2 Cl10'
_cell_volume   484.49071666
_cell_formula_units_Z   1
loop_
 _symmetry_equiv_pos_site_id
 _symmetry_equiv_pos_as_xyz
  1  'x, y, z'
loop_
 _atom_site_type_symbol
 _atom_site_label
 _atom_site_symmetry_multiplicity
 _atom_site_fract_x
 _atom_site_fract_y
 _atom_site_fract_z
 _atom_site_occupancy
  Ca  Ca0  1  0.000000  0.000000  0.000000  1
  Tb  Tb1  1  0.819058  0.819058  0.509285  1
  Tb  Tb2  1  0.180942  0.180942  0.490715  1
  Tb  Tb3  1  0.697059  0.697059  0.726773  1
  Tb  Tb4  1  0.302941  0.302941  0.273227  1
  Tb  Tb5  1  0.348202  0.348202  0.736285  1
  Tb  Tb6  1  0.651798  0.651798  0.263715  1
  C  C7  1  0.263216  0.263216  0.627598  1
  C  C8  1  0.736784  0.736784  0.372402  1
  Cl  Cl9  1  0.450602  0.450602  0.880934  1
  Cl  Cl10  1  0.549398  0.549398  0.119066  1
  Cl  Cl11  1  0.786530  0.786530  0.871899  1
  Cl  Cl12  1  0.213470  0.213470  0.128101  1
  Cl  Cl13  1  0.124738  0.124738  0.861718  1
  Cl  Cl14  1  0.074137  0.074137  0.370296  1
  Cl  Cl15  1  0.925863  0.925863  0.629704  1
  Cl  Cl16  1  0.403700  0.403700  0.386683  1
  Cl  Cl17  1  0.596300  0.596300  0.613317  1
  Cl  Cl18  1  0.875262  0.875262  0.138282  1
