# generated using pymatgen
data_Pr2ThSn3Pt2Rh
_symmetry_space_group_name_H-M   'P 1'
_cell_length_a   7.63417978
_cell_length_b   7.64686376
_cell_length_c   4.17306800
_cell_angle_alpha   90.00000000
_cell_angle_beta   90.00000000
_cell_angle_gamma   120.05497388
_symmetry_Int_Tables_number   1
_chemical_formula_structural   Pr2ThSn3Pt2Rh
_chemical_formula_sum   'Pr2 Th1 Sn3 Pt2 Rh1'
_cell_volume   210.85843739
_cell_formula_units_Z   1
loop_
 _symmetry_equiv_pos_site_id
 _symmetry_equiv_pos_as_xyz
  1  'x, y, z'
loop_
 _atom_site_type_symbol
 _atom_site_label
 _atom_site_symmetry_multiplicity
 _atom_site_fract_x
 _atom_site_fract_y
 _atom_site_fract_z
 _atom_site_occupancy
  Pr  Pr0  1  0.411017  0.410786  0.500000  1
  Pr  Pr1  1  0.588983  0.999769  0.500000  1
  Th  Th2  1  0.000000  0.587583  0.500000  1
  Sn  Sn3  1  0.746364  0.752723  0.000000  1
  Sn  Sn4  1  0.253636  0.006359  0.000000  1
  Sn  Sn5  1  0.000000  0.240297  0.000000  1
  Pt  Pt6  1  0.684513  0.349406  0.000000  1
  Pt  Pt7  1  0.315487  0.664894  0.000000  1
  Rh  Rh8  1  0.000000  0.988184  0.500000  1
