# generated using pymatgen
data_Ti10GaSi4AsO
_symmetry_space_group_name_H-M   'P 1'
_cell_length_a   7.50571800
_cell_length_b   7.50524016
_cell_length_c   5.13480763
_cell_angle_alpha   90.14882120
_cell_angle_beta   89.84382287
_cell_angle_gamma   120.05782827
_symmetry_Int_Tables_number   1
_chemical_formula_structural   Ti10GaSi4AsO
_chemical_formula_sum   'Ti10 Ga1 Si4 As1 O1'
_cell_volume   250.35497608
_cell_formula_units_Z   1
loop_
 _symmetry_equiv_pos_site_id
 _symmetry_equiv_pos_as_xyz
  1  'x, y, z'
loop_
 _atom_site_type_symbol
 _atom_site_label
 _atom_site_symmetry_multiplicity
 _atom_site_fract_x
 _atom_site_fract_y
 _atom_site_fract_z
 _atom_site_occupancy
  Ti  Ti0  1  0.000305  0.760151  0.255356  1
  Ti  Ti1  1  0.245383  0.241141  0.254823  1
  Ti  Ti2  1  0.758624  0.995834  0.254716  1
  Ti  Ti3  1  0.004263  0.243862  0.744371  1
  Ti  Ti4  1  0.759081  0.755673  0.744600  1
  Ti  Ti5  1  0.238053  0.000677  0.746937  1
  Ti  Ti6  1  0.330890  0.663225  0.500152  1
  Ti  Ti7  1  0.666027  0.337075  0.500174  1
  Ti  Ti8  1  0.666269  0.336670  0.999975  1
  Ti  Ti9  1  0.330911  0.663772  0.999971  1
  Ga  Ga10  1  0.600771  0.000151  0.754688  1
  Si  Si11  1  0.600194  0.602204  0.243617  1
  Si  Si12  1  0.400846  0.999918  0.244766  1
  Si  Si13  1  0.000564  0.604840  0.755171  1
  Si  Si14  1  0.399927  0.399406  0.756707  1
  As  As15  1  0.997757  0.394247  0.244137  1
  O  O16  1  0.000132  0.001155  0.499837  1
