# generated using pymatgen
data_Nb10Al2Si4C
_symmetry_space_group_name_H-M   'P 1'
_cell_length_a   7.66950431
_cell_length_b   7.66338909
_cell_length_c   5.31037326
_cell_angle_alpha   90.14899557
_cell_angle_beta   89.92556841
_cell_angle_gamma   119.97361275
_symmetry_Int_Tables_number   1
_chemical_formula_structural   Nb10Al2Si4C
_chemical_formula_sum   'Nb10 Al2 Si4 C1'
_cell_volume   270.36956318
_cell_formula_units_Z   1
loop_
 _symmetry_equiv_pos_site_id
 _symmetry_equiv_pos_as_xyz
  1  'x, y, z'
loop_
 _atom_site_type_symbol
 _atom_site_label
 _atom_site_symmetry_multiplicity
 _atom_site_fract_x
 _atom_site_fract_y
 _atom_site_fract_z
 _atom_site_occupancy
  Nb  Nb0  1  0.000000  0.759653  0.257486  1
  Nb  Nb1  1  0.238282  0.237317  0.258019  1
  Nb  Nb2  1  0.761718  0.999035  0.258019  1
  Nb  Nb3  1  0.000000  0.243394  0.740023  1
  Nb  Nb4  1  0.764586  0.760164  0.741885  1
  Nb  Nb5  1  0.235414  0.995576  0.741885  1
  Nb  Nb6  1  0.328160  0.665718  0.002131  1
  Nb  Nb7  1  0.671840  0.337557  0.002131  1
  Nb  Nb8  1  0.671944  0.337268  0.499392  1
  Nb  Nb9  1  0.328056  0.665325  0.499392  1
  Al  Al10  1  0.402172  0.401194  0.757287  1
  Al  Al11  1  0.597828  0.999022  0.757287  1
  Si  Si12  1  0.000000  0.397799  0.240757  1
  Si  Si13  1  0.595680  0.598066  0.241722  1
  Si  Si14  1  0.404320  0.002387  0.241722  1
  Si  Si15  1  0.000000  0.600052  0.760001  1
  C  C16  1  0.000000  0.000474  0.500862  1
