# generated using pymatgen
data_Y4HoP12Ru18Pt
_symmetry_space_group_name_H-M   'P 1'
_cell_length_a   12.59860239
_cell_length_b   12.50033128
_cell_length_c   3.99425300
_cell_angle_alpha   90.00000000
_cell_angle_beta   90.00000000
_cell_angle_gamma   119.73378428
_symmetry_Int_Tables_number   1
_chemical_formula_structural   Y4HoP12Ru18Pt
_chemical_formula_sum   'Y4 Ho1 P12 Ru18 Pt1'
_cell_volume   546.22161093
_cell_formula_units_Z   1
loop_
 _symmetry_equiv_pos_site_id
 _symmetry_equiv_pos_as_xyz
  1  'x, y, z'
loop_
 _atom_site_type_symbol
 _atom_site_label
 _atom_site_symmetry_multiplicity
 _atom_site_fract_x
 _atom_site_fract_y
 _atom_site_fract_z
 _atom_site_occupancy
  Y  Y0  1  0.000400  0.182775  0.500000  1
  Y  Y1  1  0.816528  0.815668  0.500000  1
  Y  Y2  1  0.183706  0.999558  0.500000  1
  Y  Y3  1  0.661506  0.330146  0.000000  1
  Ho  Ho4  1  0.338224  0.668038  0.000000  1
  P  P5  1  0.000147  0.812619  0.000000  1
  P  P6  1  0.183181  0.184449  0.000000  1
  P  P7  1  0.816347  0.000765  0.000000  1
  P  P8  1  0.693287  0.172942  0.500000  1
  P  P9  1  0.818536  0.519451  0.500000  1
  P  P10  1  0.474798  0.305791  0.500000  1
  P  P11  1  0.182019  0.700868  0.500000  1
  P  P12  1  0.524834  0.830457  0.500000  1
  P  P13  1  0.306584  0.480233  0.500000  1
  P  P14  1  0.999744  0.364202  0.000000  1
  P  P15  1  0.626809  0.627167  0.000000  1
  P  P16  1  0.373114  0.000541  0.000000  1
  Ru  Ru17  1  0.444680  0.446705  0.000000  1
  Ru  Ru18  1  0.555095  0.001705  0.000000  1
  Ru  Ru19  1  0.000437  0.710703  0.500000  1
  Ru  Ru20  1  0.281834  0.284069  0.500000  1
  Ru  Ru21  1  0.718089  0.001786  0.500000  1
  Ru  Ru22  1  0.807027  0.185900  0.000000  1
  Ru  Ru23  1  0.815117  0.620693  0.000000  1
  Ru  Ru24  1  0.374805  0.191462  0.000000  1
  Ru  Ru25  1  0.185665  0.805720  0.000000  1
  Ru  Ru26  1  0.624729  0.816467  0.000000  1
  Ru  Ru27  1  0.192831  0.379371  0.000000  1
  Ru  Ru28  1  0.872825  0.367258  0.500000  1
  Ru  Ru29  1  0.630069  0.508333  0.500000  1
  Ru  Ru30  1  0.492348  0.127738  0.500000  1
  Ru  Ru31  1  0.369949  0.877419  0.500000  1
  Ru  Ru32  1  0.507387  0.635414  0.500000  1
  Ru  Ru33  1  0.127609  0.495405  0.500000  1
  Ru  Ru34  1  0.999709  0.997974  0.000000  1
  Pt  Pt35  1  0.000032  0.550207  0.000000  1
