# generated using pymatgen
data_Gd2Sc3Sn4
_symmetry_space_group_name_H-M   'P 1'
_cell_length_a   7.84231000
_cell_length_b   7.94660000
_cell_length_c   14.80864000
_cell_angle_alpha   90.00000000
_cell_angle_beta   90.00000000
_cell_angle_gamma   90.00000000
_symmetry_Int_Tables_number   1
_chemical_formula_structural   Gd2Sc3Sn4
_chemical_formula_sum   'Gd8 Sc12 Sn16'
_cell_volume   922.87001177
_cell_formula_units_Z   4
loop_
 _symmetry_equiv_pos_site_id
 _symmetry_equiv_pos_as_xyz
  1  'x, y, z'
loop_
 _atom_site_type_symbol
 _atom_site_label
 _atom_site_symmetry_multiplicity
 _atom_site_fract_x
 _atom_site_fract_y
 _atom_site_fract_z
 _atom_site_occupancy
  Gd  Gd0  1  0.995938  0.174094  0.094276  1
  Gd  Gd1  1  0.004062  0.825906  0.905724  1
  Gd  Gd2  1  0.504062  0.674094  0.905724  1
  Gd  Gd3  1  0.004062  0.825906  0.594276  1
  Gd  Gd4  1  0.495938  0.325906  0.094276  1
  Gd  Gd5  1  0.995938  0.174094  0.405724  1
  Gd  Gd6  1  0.495938  0.325906  0.405724  1
  Gd  Gd7  1  0.504062  0.674094  0.594276  1
  Sc  Sc8  1  0.163763  0.497012  0.750000  1
  Sc  Sc9  1  0.836237  0.502988  0.250000  1
  Sc  Sc10  1  0.336237  0.997012  0.250000  1
  Sc  Sc11  1  0.663763  0.002988  0.750000  1
  Sc  Sc12  1  0.332918  0.162081  0.627500  1
  Sc  Sc13  1  0.667082  0.837919  0.372500  1
  Sc  Sc14  1  0.167082  0.662081  0.372500  1
  Sc  Sc15  1  0.667082  0.837919  0.127500  1
  Sc  Sc16  1  0.832918  0.337919  0.627500  1
  Sc  Sc17  1  0.332918  0.162081  0.872500  1
  Sc  Sc18  1  0.832918  0.337919  0.872500  1
  Sc  Sc19  1  0.167082  0.662081  0.127500  1
  Sn  Sn20  1  0.025182  0.125899  0.750000  1
  Sn  Sn21  1  0.974818  0.874101  0.250000  1
  Sn  Sn22  1  0.474818  0.625899  0.250000  1
  Sn  Sn23  1  0.525182  0.374101  0.750000  1
  Sn  Sn24  1  0.306701  0.851972  0.750000  1
  Sn  Sn25  1  0.693299  0.148028  0.250000  1
  Sn  Sn26  1  0.193299  0.351972  0.250000  1
  Sn  Sn27  1  0.806701  0.648028  0.750000  1
  Sn  Sn28  1  0.175129  0.458176  0.542868  1
  Sn  Sn29  1  0.824871  0.541824  0.457132  1
  Sn  Sn30  1  0.324871  0.958176  0.457132  1
  Sn  Sn31  1  0.824871  0.541824  0.042868  1
  Sn  Sn32  1  0.675129  0.041824  0.542868  1
  Sn  Sn33  1  0.175129  0.458176  0.957132  1
  Sn  Sn34  1  0.675129  0.041824  0.957132  1
  Sn  Sn35  1  0.324871  0.958176  0.042868  1
