# generated using pymatgen
data_Lu6Co2ReSi6Rh
_symmetry_space_group_name_H-M   'P 1'
_cell_length_a   5.60145720
_cell_length_b   5.60145550
_cell_length_c   13.42357619
_cell_angle_alpha   89.34466246
_cell_angle_beta   90.65538126
_cell_angle_gamma   136.90583997
_symmetry_Int_Tables_number   1
_chemical_formula_structural   Lu6Co2ReSi6Rh
_chemical_formula_sum   'Lu6 Co2 Re1 Si6 Rh1'
_cell_volume   287.72973548
_cell_formula_units_Z   1
loop_
 _symmetry_equiv_pos_site_id
 _symmetry_equiv_pos_as_xyz
  1  'x, y, z'
loop_
 _atom_site_type_symbol
 _atom_site_label
 _atom_site_symmetry_multiplicity
 _atom_site_fract_x
 _atom_site_fract_y
 _atom_site_fract_z
 _atom_site_occupancy
  Lu  Lu0  1  0.641726  0.358281  0.248401  1
  Lu  Lu1  1  0.359264  0.640749  0.751532  1
  Lu  Lu2  1  0.920393  0.079603  0.111267  1
  Lu  Lu3  1  0.080238  0.919764  0.889468  1
  Lu  Lu4  1  0.077832  0.922172  0.617542  1
  Lu  Lu5  1  0.923934  0.076068  0.381414  1
  Co  Co6  1  0.213924  0.786071  0.076974  1
  Co  Co7  1  0.784443  0.215555  0.924647  1
  Re  Re8  1  0.786902  0.213098  0.585056  1
  Si  Si9  1  0.334573  0.665428  0.243940  1
  Si  Si10  1  0.670445  0.329563  0.756189  1
  Si  Si11  1  0.617448  0.382552  0.039734  1
  Si  Si12  1  0.381060  0.618933  0.961446  1
  Si  Si13  1  0.388542  0.611459  0.536251  1
  Si  Si14  1  0.609372  0.390621  0.461242  1
  Rh  Rh15  1  0.209906  0.790082  0.414898  1
