# generated using pymatgen
data_Hf5PaCoCl15
_symmetry_space_group_name_H-M   'P 1'
_cell_length_a   9.01934780
_cell_length_b   9.01934665
_cell_length_c   9.01934704
_cell_angle_alpha   110.44019345
_cell_angle_beta   110.44018368
_cell_angle_gamma   107.55019442
_symmetry_Int_Tables_number   1
_chemical_formula_structural   Hf5PaCoCl15
_chemical_formula_sum   'Hf5 Pa1 Co1 Cl15'
_cell_volume   564.33714498
_cell_formula_units_Z   1
loop_
 _symmetry_equiv_pos_site_id
 _symmetry_equiv_pos_as_xyz
  1  'x, y, z'
loop_
 _atom_site_type_symbol
 _atom_site_label
 _atom_site_symmetry_multiplicity
 _atom_site_fract_x
 _atom_site_fract_y
 _atom_site_fract_z
 _atom_site_occupancy
  Hf  Hf0  1  0.776816  0.776816  0.000000  1
  Hf  Hf1  1  0.761775  0.998405  0.763369  1
  Hf  Hf2  1  0.998405  0.761775  0.763369  1
  Hf  Hf3  1  0.998405  0.235037  0.236631  1
  Hf  Hf4  1  0.235037  0.998405  0.236631  1
  Pa  Pa5  1  0.254424  0.254424  0.000000  1
  Co  Co6  1  0.004910  0.004910  0.000000  1
  Cl  Cl7  1  0.760597  0.516370  0.755773  1
  Cl  Cl8  1  0.519747  0.519747  0.000000  1
  Cl  Cl9  1  0.994017  0.494017  0.500000  1
  Cl  Cl10  1  0.494017  0.994017  0.500000  1
  Cl  Cl11  1  0.233635  0.970143  0.736507  1
  Cl  Cl12  1  0.970143  0.233635  0.736507  1
  Cl  Cl13  1  0.760597  0.004824  0.244227  1
  Cl  Cl14  1  0.516370  0.760597  0.755773  1
  Cl  Cl15  1  0.004824  0.760597  0.244227  1
  Cl  Cl16  1  0.243028  0.243028  0.493297  1
  Cl  Cl17  1  0.749731  0.243028  0.000000  1
  Cl  Cl18  1  0.497128  0.233635  0.263493  1
  Cl  Cl19  1  0.233635  0.497128  0.263493  1
  Cl  Cl20  1  0.749731  0.749731  0.506703  1
  Cl  Cl21  1  0.243028  0.749731  0.000000  1
