# generated using pymatgen
data_Dy3Ho(Lu2Os)4
_symmetry_space_group_name_H-M   'P 1'
_cell_length_a   7.36210761
_cell_length_b   8.84253100
_cell_length_c   6.22382912
_cell_angle_alpha   90.00000000
_cell_angle_beta   89.94051913
_cell_angle_gamma   90.00000000
_symmetry_Int_Tables_number   1
_chemical_formula_structural   Dy3Ho(Lu2Os)4
_chemical_formula_sum   'Dy3 Ho1 Lu8 Os4'
_cell_volume   405.16897074
_cell_formula_units_Z   1
loop_
 _symmetry_equiv_pos_site_id
 _symmetry_equiv_pos_as_xyz
  1  'x, y, z'
loop_
 _atom_site_type_symbol
 _atom_site_label
 _atom_site_symmetry_multiplicity
 _atom_site_fract_x
 _atom_site_fract_y
 _atom_site_fract_z
 _atom_site_occupancy
  Dy  Dy0  1  0.539279  0.250000  0.872564  1
  Dy  Dy1  1  0.039546  0.250000  0.627611  1
  Dy  Dy2  1  0.460596  0.750000  0.127741  1
  Ho  Ho3  1  0.960546  0.750000  0.372352  1
  Lu  Lu4  1  0.675059  0.062407  0.335392  1
  Lu  Lu5  1  0.173618  0.437797  0.165224  1
  Lu  Lu6  1  0.325151  0.563013  0.664282  1
  Lu  Lu7  1  0.825814  0.936932  0.834372  1
  Lu  Lu8  1  0.325151  0.936987  0.664282  1
  Lu  Lu9  1  0.825814  0.563068  0.834372  1
  Lu  Lu10  1  0.675059  0.437593  0.335392  1
  Lu  Lu11  1  0.173618  0.062203  0.165224  1
  Os  Os12  1  0.882990  0.250000  0.043324  1
  Os  Os13  1  0.382976  0.250000  0.456504  1
  Os  Os14  1  0.116701  0.750000  0.959191  1
  Os  Os15  1  0.618082  0.750000  0.542174  1
