# generated using pymatgen
data_YbCePr2(Zn4Ru)2
_symmetry_space_group_name_H-M   'P 1'
_cell_length_a   7.10776100
_cell_length_b   7.10776100
_cell_length_c   5.25680500
_cell_angle_alpha   90.00000000
_cell_angle_beta   90.00000000
_cell_angle_gamma   90.00000000
_symmetry_Int_Tables_number   1
_chemical_formula_structural   YbCePr2(Zn4Ru)2
_chemical_formula_sum   'Yb1 Ce1 Pr2 Zn8 Ru2'
_cell_volume   265.57518919
_cell_formula_units_Z   1
loop_
 _symmetry_equiv_pos_site_id
 _symmetry_equiv_pos_as_xyz
  1  'x, y, z'
loop_
 _atom_site_type_symbol
 _atom_site_label
 _atom_site_symmetry_multiplicity
 _atom_site_fract_x
 _atom_site_fract_y
 _atom_site_fract_z
 _atom_site_occupancy
  Yb  Yb0  1  0.000000  0.000000  0.000000  1
  Ce  Ce1  1  0.500000  0.500000  0.000000  1
  Pr  Pr2  1  0.000000  0.500000  0.772798  1
  Pr  Pr3  1  0.500000  0.000000  0.227202  1
  Zn  Zn4  1  0.181986  0.691476  0.291233  1
  Zn  Zn5  1  0.818014  0.691476  0.291233  1
  Zn  Zn6  1  0.818014  0.308524  0.291233  1
  Zn  Zn7  1  0.308524  0.181986  0.708767  1
  Zn  Zn8  1  0.181986  0.308524  0.291233  1
  Zn  Zn9  1  0.691476  0.181986  0.708767  1
  Zn  Zn10  1  0.691476  0.818014  0.708767  1
  Zn  Zn11  1  0.308524  0.818014  0.708767  1
  Ru  Ru12  1  0.500000  0.500000  0.500000  1
  Ru  Ru13  1  0.000000  0.000000  0.500000  1
