# generated using pymatgen
data_SmDyEr2(Si3Rh)2
_symmetry_space_group_name_H-M   'P 1'
_cell_length_a   8.17997309
_cell_length_b   8.18202208
_cell_length_c   7.94750200
_cell_angle_alpha   90.00000000
_cell_angle_beta   90.00000000
_cell_angle_gamma   120.00828587
_symmetry_Int_Tables_number   1
_chemical_formula_structural   SmDyEr2(Si3Rh)2
_chemical_formula_sum   'Sm2 Dy2 Er4 Si12 Rh4'
_cell_volume   460.61442277
_cell_formula_units_Z   2
loop_
 _symmetry_equiv_pos_site_id
 _symmetry_equiv_pos_as_xyz
  1  'x, y, z'
loop_
 _atom_site_type_symbol
 _atom_site_label
 _atom_site_symmetry_multiplicity
 _atom_site_fract_x
 _atom_site_fract_y
 _atom_site_fract_z
 _atom_site_occupancy
  Sm  Sm0  1  0.000159  0.000080  0.250000  1
  Sm  Sm1  1  0.999896  0.999948  0.750000  1
  Dy  Dy2  1  0.492213  0.507533  0.250000  1
  Dy  Dy3  1  0.492213  0.984679  0.250000  1
  Er  Er4  1  0.014570  0.507284  0.250000  1
  Er  Er5  1  0.507700  0.492391  0.750000  1
  Er  Er6  1  0.984785  0.492393  0.750000  1
  Er  Er7  1  0.507700  0.015310  0.750000  1
  Si  Si8  1  0.832394  0.167826  0.502506  1
  Si  Si9  1  0.832394  0.664567  0.502506  1
  Si  Si10  1  0.335535  0.167768  0.502655  1
  Si  Si11  1  0.832394  0.167826  0.997494  1
  Si  Si12  1  0.832394  0.664567  0.997494  1
  Si  Si13  1  0.335535  0.167768  0.997345  1
  Si  Si14  1  0.167615  0.831971  0.001549  1
  Si  Si15  1  0.664485  0.832243  0.001007  1
  Si  Si16  1  0.167615  0.335644  0.001549  1
  Si  Si17  1  0.167615  0.831971  0.498451  1
  Si  Si18  1  0.664485  0.832243  0.498993  1
  Si  Si19  1  0.167615  0.335644  0.498451  1
  Rh  Rh20  1  0.667337  0.333668  0.469982  1
  Rh  Rh21  1  0.667337  0.333668  0.030018  1
  Rh  Rh22  1  0.333007  0.666504  0.966304  1
  Rh  Rh23  1  0.333007  0.666504  0.533696  1
