# generated using pymatgen
data_DySc5Tc4
_symmetry_space_group_name_H-M   'P 1'
_cell_length_a   8.21151584
_cell_length_b   8.20599876
_cell_length_c   5.81327500
_cell_angle_alpha   134.90327036
_cell_angle_beta   45.06754910
_cell_angle_gamma   120.02223288
_symmetry_Int_Tables_number   1
_chemical_formula_structural   DySc5Tc4
_chemical_formula_sum   'Dy1 Sc5 Tc4'
_cell_volume   196.42027791
_cell_formula_units_Z   1
loop_
 _symmetry_equiv_pos_site_id
 _symmetry_equiv_pos_as_xyz
  1  'x, y, z'
loop_
 _atom_site_type_symbol
 _atom_site_label
 _atom_site_symmetry_multiplicity
 _atom_site_fract_x
 _atom_site_fract_y
 _atom_site_fract_z
 _atom_site_occupancy
  Dy  Dy0  1  0.418852  0.250000  0.750000  1
  Sc  Sc1  1  0.581171  0.750001  0.250001  1
  Sc  Sc2  1  0.920693  0.425013  0.251369  1
  Sc  Sc3  1  0.247051  0.074988  0.248633  1
  Sc  Sc4  1  0.752967  0.919755  0.743055  1
  Sc  Sc5  1  0.076268  0.580246  0.756945  1
  Tc  Tc6  1  0.627389  0.376581  0.129958  1
  Tc  Tc7  1  0.880762  0.123420  0.370044  1
  Tc  Tc8  1  0.116313  0.866902  0.629123  1
  Tc  Tc9  1  0.378534  0.633098  0.870876  1
