# generated using pymatgen
data_SmEr2MoO7
_symmetry_space_group_name_H-M   'P 1'
_cell_length_a   6.42986767
_cell_length_b   6.42986744
_cell_length_c   7.53142700
_cell_angle_alpha   90.00000000
_cell_angle_beta   90.00000000
_cell_angle_gamma   109.20685821
_symmetry_Int_Tables_number   1
_chemical_formula_structural   SmEr2MoO7
_chemical_formula_sum   'Sm2 Er4 Mo2 O14'
_cell_volume   294.04129803
_cell_formula_units_Z   2
loop_
 _symmetry_equiv_pos_site_id
 _symmetry_equiv_pos_as_xyz
  1  'x, y, z'
loop_
 _atom_site_type_symbol
 _atom_site_label
 _atom_site_symmetry_multiplicity
 _atom_site_fract_x
 _atom_site_fract_y
 _atom_site_fract_z
 _atom_site_occupancy
  Sm  Sm0  1  0.500000  0.500000  0.500000  1
  Sm  Sm1  1  0.500000  0.500000  0.000000  1
  Er  Er2  1  0.535066  0.001260  0.750000  1
  Er  Er3  1  0.001260  0.535066  0.250000  1
  Er  Er4  1  0.464934  0.998740  0.250000  1
  Er  Er5  1  0.998740  0.464934  0.750000  1
  Mo  Mo6  1  0.000000  0.000000  0.500000  1
  Mo  Mo7  1  0.000000  0.000000  0.000000  1
  O  O8  1  0.676968  0.926958  0.470091  1
  O  O9  1  0.926958  0.676968  0.529909  1
  O  O10  1  0.676968  0.926958  0.029909  1
  O  O11  1  0.926958  0.676968  0.970091  1
  O  O12  1  0.323032  0.073042  0.529909  1
  O  O13  1  0.073042  0.323032  0.470091  1
  O  O14  1  0.323032  0.073042  0.970091  1
  O  O15  1  0.073042  0.323032  0.029909  1
  O  O16  1  0.926247  0.073753  0.750000  1
  O  O17  1  0.073753  0.926247  0.250000  1
  O  O18  1  0.364089  0.635910  0.750000  1
  O  O19  1  0.635910  0.364089  0.250000  1
  O  O20  1  0.640939  0.359061  0.750000  1
  O  O21  1  0.359061  0.640939  0.250000  1
