# generated using pymatgen
data_Ta9Ga2Cu2Si
_symmetry_space_group_name_H-M   'P 1'
_cell_length_a   9.84230304
_cell_length_b   9.84232531
_cell_length_c   9.84230300
_cell_angle_alpha   93.86177298
_cell_angle_beta   93.86241771
_cell_angle_gamma   149.91553524
_symmetry_Int_Tables_number   1
_chemical_formula_structural   Ta9Ga2Cu2Si
_chemical_formula_sum   'Ta18 Ga4 Cu4 Si2'
_cell_volume   461.55832345
_cell_formula_units_Z   2
loop_
 _symmetry_equiv_pos_site_id
 _symmetry_equiv_pos_as_xyz
  1  'x, y, z'
loop_
 _atom_site_type_symbol
 _atom_site_label
 _atom_site_symmetry_multiplicity
 _atom_site_fract_x
 _atom_site_fract_y
 _atom_site_fract_z
 _atom_site_occupancy
  Ta  Ta0  1  0.565297  0.792606  0.357932  1
  Ta  Ta1  1  0.082960  0.157184  0.240138  1
  Ta  Ta2  1  0.582953  0.342816  0.925776  1
  Ta  Ta3  1  0.657146  0.582985  0.240127  1
  Ta  Ta4  1  0.342854  0.417015  0.759873  1
  Ta  Ta5  1  0.792631  0.434604  0.227218  1
  Ta  Ta6  1  0.417047  0.657184  0.074224  1
  Ta  Ta7  1  0.157143  0.917015  0.074163  1
  Ta  Ta8  1  0.707387  0.934604  0.641973  1
  Ta  Ta9  1  0.434703  0.207394  0.642068  1
  Ta  Ta10  1  0.917040  0.842816  0.759862  1
  Ta  Ta11  1  0.065326  0.707394  0.772692  1
  Ta  Ta12  1  0.207369  0.565396  0.772782  1
  Ta  Ta13  1  0.250004  0.750000  0.500004  1
  Ta  Ta14  1  0.292613  0.065396  0.358027  1
  Ta  Ta15  1  0.749996  0.250000  0.499996  1
  Ta  Ta16  1  0.842857  0.082985  0.925837  1
  Ta  Ta17  1  0.934674  0.292606  0.227308  1
  Ga  Ga18  1  0.368552  0.868504  0.237056  1
  Ga  Ga19  1  0.868552  0.631496  0.500048  1
  Ga  Ga20  1  0.131448  0.368504  0.499952  1
  Ga  Ga21  1  0.631448  0.131496  0.762944  1
  Cu  Cu22  1  0.500000  0.000000  0.000000  1
  Cu  Cu23  1  0.000000  0.500000  0.000000  1
  Cu  Cu24  1  0.500000  0.500000  0.500000  1
  Cu  Cu25  1  0.000000  0.000000  0.500000  1
  Si  Si26  1  0.750001  0.750000  0.000001  1
  Si  Si27  1  0.249999  0.250000  0.999999  1
