# generated using pymatgen
data_CaLaPr5CoI12
_symmetry_space_group_name_H-M   'P 1'
_cell_length_a   10.12096940
_cell_length_b   10.11880630
_cell_length_c   9.98513024
_cell_angle_alpha   107.11802759
_cell_angle_beta   106.69312338
_cell_angle_gamma   106.87150935
_symmetry_Int_Tables_number   1
_chemical_formula_structural   CaLaPr5CoI12
_chemical_formula_sum   'Ca1 La1 Pr5 Co1 I12'
_cell_volume   854.06610264
_cell_formula_units_Z   1
loop_
 _symmetry_equiv_pos_site_id
 _symmetry_equiv_pos_as_xyz
  1  'x, y, z'
loop_
 _atom_site_type_symbol
 _atom_site_label
 _atom_site_symmetry_multiplicity
 _atom_site_fract_x
 _atom_site_fract_y
 _atom_site_fract_z
 _atom_site_occupancy
  Ca  Ca0  1  0.499580  0.499684  0.500027  1
  La  La1  1  0.975456  0.905398  0.711361  1
  Pr  Pr2  1  0.025024  0.094841  0.287005  1
  Pr  Pr3  1  0.099936  0.304820  0.025577  1
  Pr  Pr4  1  0.304683  0.026271  0.101135  1
  Pr  Pr5  1  0.900036  0.695296  0.974392  1
  Pr  Pr6  1  0.695781  0.973989  0.900120  1
  Co  Co7  1  0.000004  0.998577  0.995513  1
  I  I8  1  0.540252  0.618865  0.843228  1
  I  I9  1  0.459813  0.381098  0.157133  1
  I  I10  1  0.321114  0.927072  0.774186  1
  I  I11  1  0.381816  0.161073  0.463805  1
  I  I12  1  0.928014  0.777646  0.321111  1
  I  I13  1  0.682773  0.073881  0.228635  1
  I  I14  1  0.073242  0.226490  0.679691  1
  I  I15  1  0.775459  0.317829  0.927343  1
  I  I16  1  0.224451  0.682298  0.073036  1
  I  I17  1  0.838362  0.535920  0.615022  1
  I  I18  1  0.159767  0.460581  0.385310  1
  I  I19  1  0.614439  0.838370  0.536369  1
