# generated using pymatgen
data_Dy5LuAl24IrOs7
_symmetry_space_group_name_H-M   'P 1'
_cell_length_a   8.79527607
_cell_length_b   8.80315964
_cell_length_c   9.57867371
_cell_angle_alpha   89.78539871
_cell_angle_beta   90.22060038
_cell_angle_gamma   119.69139690
_symmetry_Int_Tables_number   1
_chemical_formula_structural   Dy5LuAl24IrOs7
_chemical_formula_sum   'Dy5 Lu1 Al24 Ir1 Os7'
_cell_volume   644.26125233
_cell_formula_units_Z   1
loop_
 _symmetry_equiv_pos_site_id
 _symmetry_equiv_pos_as_xyz
  1  'x, y, z'
loop_
 _atom_site_type_symbol
 _atom_site_label
 _atom_site_symmetry_multiplicity
 _atom_site_fract_x
 _atom_site_fract_y
 _atom_site_fract_z
 _atom_site_occupancy
  Dy  Dy0  1  0.810614  0.614051  0.748527  1
  Dy  Dy1  1  0.615515  0.811167  0.251614  1
  Dy  Dy2  1  0.385370  0.188631  0.748505  1
  Dy  Dy3  1  0.192839  0.806393  0.249998  1
  Dy  Dy4  1  0.806133  0.192920  0.750101  1
  Lu  Lu5  1  0.191417  0.391309  0.252289  1
  Al  Al6  1  0.332863  0.667171  0.022857  1
  Al  Al7  1  0.667403  0.332398  0.978405  1
  Al  Al8  1  0.666590  0.333068  0.520202  1
  Al  Al9  1  0.333119  0.666961  0.479045  1
  Al  Al10  1  0.164767  0.327262  0.574737  1
  Al  Al11  1  0.834587  0.671898  0.423574  1
  Al  Al12  1  0.671941  0.834651  0.575479  1
  Al  Al13  1  0.836611  0.672768  0.075861  1
  Al  Al14  1  0.326908  0.165227  0.423397  1
  Al  Al15  1  0.163536  0.326769  0.925880  1
  Al  Al16  1  0.164348  0.835248  0.573432  1
  Al  Al17  1  0.326562  0.163546  0.075885  1
  Al  Al18  1  0.836116  0.164620  0.426056  1
  Al  Al19  1  0.672765  0.836349  0.924944  1
  Al  Al20  1  0.836757  0.164202  0.074713  1
  Al  Al21  1  0.164129  0.835503  0.926058  1
  Al  Al22  1  0.560806  0.124026  0.249481  1
  Al  Al23  1  0.438785  0.875358  0.750430  1
  Al  Al24  1  0.876070  0.438619  0.249558  1
  Al  Al25  1  0.124034  0.560406  0.750540  1
  Al  Al26  1  0.559860  0.438832  0.250108  1
  Al  Al27  1  0.438639  0.560386  0.749186  1
  Al  Al28  1  0.002370  0.005398  0.250004  1
  Al  Al29  1  0.000367  0.999113  0.749987  1
  Ir  Ir30  1  0.499467  0.499611  0.000231  1
  Os  Os31  1  0.499871  0.999615  0.000017  1
  Os  Os32  1  0.000881  0.499298  0.000951  1
  Os  Os33  1  0.499630  0.999773  0.499975  1
  Os  Os34  1  0.000391  0.499432  0.499161  1
  Os  Os35  1  0.498821  0.499512  0.499044  1
  Os  Os36  1  0.999680  0.999275  0.999854  1
  Os  Os37  1  0.999438  0.999232  0.499912  1
