# generated using pymatgen
data_Y2Er2ReTcB12
_symmetry_space_group_name_H-M   'P 1'
_cell_length_a   3.67038700
_cell_length_b   9.14758671
_cell_length_c   11.53520001
_cell_angle_alpha   90.04956190
_cell_angle_beta   90.00000000
_cell_angle_gamma   90.00000000
_symmetry_Int_Tables_number   1
_chemical_formula_structural   Y2Er2ReTcB12
_chemical_formula_sum   'Y4 Er4 Re2 Tc2 B24'
_cell_volume   387.29631005
_cell_formula_units_Z   2
loop_
 _symmetry_equiv_pos_site_id
 _symmetry_equiv_pos_as_xyz
  1  'x, y, z'
loop_
 _atom_site_type_symbol
 _atom_site_label
 _atom_site_symmetry_multiplicity
 _atom_site_fract_x
 _atom_site_fract_y
 _atom_site_fract_z
 _atom_site_occupancy
  Y  Y0  1  0.000000  0.323652  0.414044  1
  Y  Y1  1  0.000000  0.676348  0.585956  1
  Y  Y2  1  0.000000  0.823181  0.086053  1
  Y  Y3  1  0.000000  0.176819  0.913947  1
  Er  Er4  1  0.000000  0.942427  0.369969  1
  Er  Er5  1  0.000000  0.057573  0.630031  1
  Er  Er6  1  0.000000  0.443916  0.130419  1
  Er  Er7  1  0.000000  0.556084  0.869581  1
  Re  Re8  1  0.000000  0.138899  0.179560  1
  Re  Re9  1  0.000000  0.861101  0.820440  1
  Tc  Tc10  1  0.000000  0.639137  0.320429  1
  Tc  Tc11  1  0.000000  0.360863  0.679571  1
  B  B12  1  0.500000  0.553648  0.432640  1
  B  B13  1  0.500000  0.446352  0.567360  1
  B  B14  1  0.500000  0.053559  0.067254  1
  B  B15  1  0.500000  0.946441  0.932746  1
  B  B16  1  0.500000  0.749456  0.418416  1
  B  B17  1  0.500000  0.250544  0.581584  1
  B  B18  1  0.500000  0.249947  0.081506  1
  B  B19  1  0.500000  0.750053  0.918494  1
  B  B20  1  0.500000  0.792257  0.265660  1
  B  B21  1  0.500000  0.207743  0.734340  1
  B  B22  1  0.500000  0.292599  0.234493  1
  B  B23  1  0.500000  0.707401  0.765507  1
  B  B24  1  0.500000  0.630699  0.185674  1
  B  B25  1  0.500000  0.369301  0.814326  1
  B  B26  1  0.500000  0.130422  0.314609  1
  B  B27  1  0.500000  0.869578  0.685391  1
  B  B28  1  0.500000  0.982171  0.212236  1
  B  B29  1  0.500000  0.017829  0.787764  1
  B  B30  1  0.500000  0.482556  0.287869  1
  B  B31  1  0.500000  0.517444  0.712131  1
  B  B32  1  0.500000  0.599458  0.027664  1
  B  B33  1  0.500000  0.400542  0.972336  1
  B  B34  1  0.500000  0.099317  0.472156  1
  B  B35  1  0.500000  0.900683  0.527844  1
