# generated using pymatgen
data_Ho16In4Ir2PdPt
_symmetry_space_group_name_H-M   'P 1'
_cell_length_a   9.64871805
_cell_length_b   9.67028867
_cell_length_c   9.67008473
_cell_angle_alpha   60.05759576
_cell_angle_beta   59.94820787
_cell_angle_gamma   59.95000282
_symmetry_Int_Tables_number   1
_chemical_formula_structural   Ho16In4Ir2PdPt
_chemical_formula_sum   'Ho16 In4 Ir2 Pd1 Pt1'
_cell_volume   637.79073737
_cell_formula_units_Z   1
loop_
 _symmetry_equiv_pos_site_id
 _symmetry_equiv_pos_as_xyz
  1  'x, y, z'
loop_
 _atom_site_type_symbol
 _atom_site_label
 _atom_site_symmetry_multiplicity
 _atom_site_fract_x
 _atom_site_fract_y
 _atom_site_fract_z
 _atom_site_occupancy
  Ho  Ho0  1  0.440396  0.434467  0.063137  1
  Ho  Ho1  1  0.650090  0.642976  0.056259  1
  Ho  Ho2  1  0.186174  0.808569  0.195109  1
  Ho  Ho3  1  0.061362  0.436132  0.060274  1
  Ho  Ho4  1  0.189558  0.808992  0.809032  1
  Ho  Ho5  1  0.064232  0.437162  0.437156  1
  Ho  Ho6  1  0.810071  0.189707  0.189712  1
  Ho  Ho7  1  0.655548  0.649521  0.649530  1
  Ho  Ho8  1  0.810734  0.193626  0.808846  1
  Ho  Ho9  1  0.186173  0.195107  0.808578  1
  Ho  Ho10  1  0.048895  0.648225  0.648253  1
  Ho  Ho11  1  0.439358  0.061246  0.061248  1
  Ho  Ho12  1  0.061363  0.060249  0.436161  1
  Ho  Ho13  1  0.650088  0.056273  0.642969  1
  Ho  Ho14  1  0.810718  0.808854  0.193609  1
  Ho  Ho15  1  0.440376  0.063138  0.434478  1
  In  In16  1  0.416586  0.416853  0.416843  1
  In  In17  1  0.416527  0.416881  0.750347  1
  In  In18  1  0.416552  0.750329  0.416857  1
  In  In19  1  0.749894  0.417051  0.416971  1
  Ir  Ir20  1  0.856811  0.426755  0.860736  1
  Ir  Ir21  1  0.856821  0.860718  0.426760  1
  Pd  Pd22  1  0.427585  0.859088  0.859082  1
  Pt  Pt23  1  0.854086  0.858082  0.858059  1
