# generated using pymatgen
data_Ho3Er13Cd4Co3Ru
_symmetry_space_group_name_H-M   'P 1'
_cell_length_a   9.49071126
_cell_length_b   9.44582238
_cell_length_c   9.44339453
_cell_angle_alpha   59.99803245
_cell_angle_beta   60.23994388
_cell_angle_gamma   60.23102289
_symmetry_Int_Tables_number   1
_chemical_formula_structural   Ho3Er13Cd4Co3Ru
_chemical_formula_sum   'Ho3 Er13 Cd4 Co3 Ru1'
_cell_volume   600.73346420
_cell_formula_units_Z   1
loop_
 _symmetry_equiv_pos_site_id
 _symmetry_equiv_pos_as_xyz
  1  'x, y, z'
loop_
 _atom_site_type_symbol
 _atom_site_label
 _atom_site_symmetry_multiplicity
 _atom_site_fract_x
 _atom_site_fract_y
 _atom_site_fract_z
 _atom_site_occupancy
  Ho  Ho0  1  0.562983  0.559454  0.938629  1
  Ho  Ho1  1  0.188030  0.812267  0.187910  1
  Ho  Ho2  1  0.962470  0.345689  0.345792  1
  Er  Er3  1  0.937162  0.937004  0.563052  1
  Er  Er4  1  0.815360  0.188050  0.187978  1
  Er  Er5  1  0.937762  0.562257  0.562310  1
  Er  Er6  1  0.937425  0.562898  0.937001  1
  Er  Er7  1  0.815099  0.808515  0.188300  1
  Er  Er8  1  0.342395  0.348987  0.349455  1
  Er  Er9  1  0.563316  0.939037  0.938690  1
  Er  Er10  1  0.562866  0.938881  0.559399  1
  Er  Er11  1  0.188107  0.812126  0.811788  1
  Er  Er12  1  0.188092  0.188006  0.811958  1
  Er  Er13  1  0.341908  0.349285  0.959361  1
  Er  Er14  1  0.342073  0.959329  0.349496  1
  Er  Er15  1  0.815421  0.188186  0.808493  1
  Cd  Cd16  1  0.580979  0.580328  0.258672  1
  Cd  Cd17  1  0.258923  0.580393  0.580527  1
  Cd  Cd18  1  0.581122  0.580480  0.580206  1
  Cd  Cd19  1  0.580855  0.258496  0.580332  1
  Co  Co20  1  0.140494  0.141234  0.141123  1
  Co  Co21  1  0.140077  0.577479  0.141041  1
  Co  Co22  1  0.140209  0.140989  0.577593  1
  Ru  Ru23  1  0.576877  0.140635  0.140899  1
