# generated using pymatgen
data_Sc2Be2FeIr3Rh2
_symmetry_space_group_name_H-M   'P 1'
_cell_length_a   9.42865400
_cell_length_b   9.42865400
_cell_length_c   3.13022600
_cell_angle_alpha   90.00000000
_cell_angle_beta   90.00000000
_cell_angle_gamma   90.00000000
_symmetry_Int_Tables_number   1
_chemical_formula_structural   Sc2Be2FeIr3Rh2
_chemical_formula_sum   'Sc4 Be4 Fe2 Ir6 Rh4'
_cell_volume   278.27557716
_cell_formula_units_Z   2
loop_
 _symmetry_equiv_pos_site_id
 _symmetry_equiv_pos_as_xyz
  1  'x, y, z'
loop_
 _atom_site_type_symbol
 _atom_site_label
 _atom_site_symmetry_multiplicity
 _atom_site_fract_x
 _atom_site_fract_y
 _atom_site_fract_z
 _atom_site_occupancy
  Sc  Sc0  1  0.826040  0.322615  0.000000  1
  Sc  Sc1  1  0.322615  0.173960  0.000000  1
  Sc  Sc2  1  0.677385  0.826040  0.000000  1
  Sc  Sc3  1  0.173960  0.677385  0.000000  1
  Be  Be4  1  0.623539  0.125064  0.000000  1
  Be  Be5  1  0.125064  0.376461  0.000000  1
  Be  Be6  1  0.874936  0.623539  0.000000  1
  Be  Be7  1  0.376461  0.874936  0.000000  1
  Fe  Fe8  1  0.000000  0.000000  0.000000  1
  Fe  Fe9  1  0.500000  0.500000  0.000000  1
  Ir  Ir10  1  0.068437  0.208798  0.500000  1
  Ir  Ir11  1  0.208798  0.931563  0.500000  1
  Ir  Ir12  1  0.791202  0.068437  0.500000  1
  Ir  Ir13  1  0.931563  0.791202  0.500000  1
  Ir  Ir14  1  0.500000  0.000000  0.500000  1
  Ir  Ir15  1  0.000000  0.500000  0.500000  1
  Rh  Rh16  1  0.429965  0.707733  0.500000  1
  Rh  Rh17  1  0.570035  0.292267  0.500000  1
  Rh  Rh18  1  0.707733  0.570035  0.500000  1
  Rh  Rh19  1  0.292267  0.429965  0.500000  1
