# generated using pymatgen
data_TbDyFe8(P3Ru)2
_symmetry_space_group_name_H-M   'P 1'
_cell_length_a   3.71436200
_cell_length_b   10.38058700
_cell_length_c   11.83226900
_cell_angle_alpha   90.00000000
_cell_angle_beta   90.00000000
_cell_angle_gamma   90.00000000
_symmetry_Int_Tables_number   1
_chemical_formula_structural   TbDyFe8(P3Ru)2
_chemical_formula_sum   'Tb2 Dy2 Fe16 P12 Ru4'
_cell_volume   456.21984726
_cell_formula_units_Z   2
loop_
 _symmetry_equiv_pos_site_id
 _symmetry_equiv_pos_as_xyz
  1  'x, y, z'
loop_
 _atom_site_type_symbol
 _atom_site_label
 _atom_site_symmetry_multiplicity
 _atom_site_fract_x
 _atom_site_fract_y
 _atom_site_fract_z
 _atom_site_occupancy
  Tb  Tb0  1  0.750000  0.417871  0.296181  1
  Tb  Tb1  1  0.750000  0.082129  0.796181  1
  Dy  Dy2  1  0.250000  0.582027  0.703792  1
  Dy  Dy3  1  0.250000  0.917973  0.203792  1
  Fe  Fe4  1  0.250000  0.405182  0.489675  1
  Fe  Fe5  1  0.250000  0.094818  0.989675  1
  Fe  Fe6  1  0.750000  0.594861  0.510662  1
  Fe  Fe7  1  0.750000  0.905139  0.010662  1
  Fe  Fe8  1  0.250000  0.219446  0.175125  1
  Fe  Fe9  1  0.250000  0.280554  0.675125  1
  Fe  Fe10  1  0.750000  0.780321  0.824833  1
  Fe  Fe11  1  0.750000  0.719679  0.324833  1
  Fe  Fe12  1  0.250000  0.877499  0.703925  1
  Fe  Fe13  1  0.250000  0.622501  0.203925  1
  Fe  Fe14  1  0.750000  0.122161  0.295955  1
  Fe  Fe15  1  0.750000  0.377839  0.795955  1
  Fe  Fe16  1  0.250000  0.462925  0.932623  1
  Fe  Fe17  1  0.250000  0.037075  0.432623  1
  Fe  Fe18  1  0.750000  0.537203  0.067184  1
  Fe  Fe19  1  0.750000  0.962797  0.567184  1
  P  P20  1  0.250000  0.424756  0.114090  1
  P  P21  1  0.250000  0.075244  0.614090  1
  P  P22  1  0.750000  0.575249  0.885607  1
  P  P23  1  0.750000  0.924751  0.385607  1
  P  P24  1  0.250000  0.267556  0.867402  1
  P  P25  1  0.250000  0.232444  0.367402  1
  P  P26  1  0.750000  0.732803  0.132684  1
  P  P27  1  0.750000  0.767197  0.632684  1
  P  P28  1  0.250000  0.596158  0.395604  1
  P  P29  1  0.250000  0.903842  0.895604  1
  P  P30  1  0.750000  0.404082  0.604588  1
  P  P31  1  0.750000  0.095918  0.104588  1
  Ru  Ru32  1  0.250000  0.707499  0.988308  1
  Ru  Ru33  1  0.250000  0.792501  0.488308  1
  Ru  Ru34  1  0.750000  0.292491  0.011759  1
  Ru  Ru35  1  0.750000  0.207509  0.511759  1
