# generated using pymatgen
data_La5Pr3(MgOs)2
_symmetry_space_group_name_H-M   'P 1'
_cell_length_a   10.14301418
_cell_length_b   10.14301463
_cell_length_c   10.14301400
_cell_angle_alpha   60.00000206
_cell_angle_beta   60.00000058
_cell_angle_gamma   60.00000186
_symmetry_Int_Tables_number   1
_chemical_formula_structural   La5Pr3(MgOs)2
_chemical_formula_sum   'La10 Pr6 Mg4 Os4'
_cell_volume   737.88065795
_cell_formula_units_Z   2
loop_
 _symmetry_equiv_pos_site_id
 _symmetry_equiv_pos_as_xyz
  1  'x, y, z'
loop_
 _atom_site_type_symbol
 _atom_site_label
 _atom_site_symmetry_multiplicity
 _atom_site_fract_x
 _atom_site_fract_y
 _atom_site_fract_z
 _atom_site_occupancy
  La  La0  1  0.343792  0.343792  0.343792  1
  La  La1  1  0.343792  0.343792  0.968627  1
  La  La2  1  0.343792  0.968627  0.343792  1
  La  La3  1  0.968627  0.343792  0.343792  1
  La  La4  1  0.812219  0.187781  0.187781  1
  La  La5  1  0.187781  0.812219  0.812219  1
  La  La6  1  0.187781  0.812219  0.187781  1
  La  La7  1  0.812219  0.187781  0.812219  1
  La  La8  1  0.187781  0.187781  0.812219  1
  La  La9  1  0.812219  0.812219  0.187781  1
  Pr  Pr10  1  0.938264  0.561736  0.561736  1
  Pr  Pr11  1  0.561736  0.938264  0.938264  1
  Pr  Pr12  1  0.561736  0.938264  0.561736  1
  Pr  Pr13  1  0.938264  0.561736  0.938264  1
  Pr  Pr14  1  0.561736  0.561736  0.938264  1
  Pr  Pr15  1  0.938264  0.938264  0.561736  1
  Mg  Mg16  1  0.578721  0.578721  0.578721  1
  Mg  Mg17  1  0.578721  0.578721  0.263836  1
  Mg  Mg18  1  0.578721  0.263836  0.578721  1
  Mg  Mg19  1  0.263836  0.578721  0.578721  1
  Os  Os20  1  0.137356  0.137356  0.137356  1
  Os  Os21  1  0.137356  0.137356  0.587930  1
  Os  Os22  1  0.137356  0.587930  0.137356  1
  Os  Os23  1  0.587930  0.137356  0.137356  1
