# generated using pymatgen
data_Gd4Sc(RhO4)3
_symmetry_space_group_name_H-M   'P 1'
_cell_length_a   5.40967076
_cell_length_b   5.80064581
_cell_length_c   7.80721806
_cell_angle_alpha   89.18522207
_cell_angle_beta   89.14864638
_cell_angle_gamma   90.06792502
_symmetry_Int_Tables_number   1
_chemical_formula_structural   Gd4Sc(RhO4)3
_chemical_formula_sum   'Gd4 Sc1 Rh3 O12'
_cell_volume   244.93520352
_cell_formula_units_Z   1
loop_
 _symmetry_equiv_pos_site_id
 _symmetry_equiv_pos_as_xyz
  1  'x, y, z'
loop_
 _atom_site_type_symbol
 _atom_site_label
 _atom_site_symmetry_multiplicity
 _atom_site_fract_x
 _atom_site_fract_y
 _atom_site_fract_z
 _atom_site_occupancy
  Gd  Gd0  1  0.970427  0.072423  0.747141  1
  Gd  Gd1  1  0.480371  0.425128  0.252161  1
  Gd  Gd2  1  0.519629  0.574872  0.747839  1
  Gd  Gd3  1  0.029573  0.927577  0.252859  1
  Sc  Sc4  1  0.000000  0.500000  0.000000  1
  Rh  Rh5  1  0.000000  0.500000  0.500000  1
  Rh  Rh6  1  0.500000  0.000000  0.500000  1
  Rh  Rh7  1  0.500000  0.000000  0.000000  1
  O  O8  1  0.684657  0.303473  0.563755  1
  O  O9  1  0.186615  0.196203  0.436954  1
  O  O10  1  0.807586  0.802725  0.939200  1
  O  O11  1  0.312740  0.694818  0.058137  1
  O  O12  1  0.315343  0.696527  0.436245  1
  O  O13  1  0.813385  0.803797  0.563046  1
  O  O14  1  0.192414  0.197275  0.060800  1
  O  O15  1  0.687260  0.305182  0.941863  1
  O  O16  1  0.879977  0.546909  0.252464  1
  O  O17  1  0.370929  0.951383  0.751344  1
  O  O18  1  0.629071  0.048617  0.248656  1
  O  O19  1  0.120023  0.453091  0.747536  1
