# generated using pymatgen
data_Ti4AlVRh10
_symmetry_space_group_name_H-M   'P 1'
_cell_length_a   4.04013500
_cell_length_b   5.40094919
_cell_length_c   10.57309965
_cell_angle_alpha   90.77591897
_cell_angle_beta   90.00000000
_cell_angle_gamma   90.00000000
_symmetry_Int_Tables_number   1
_chemical_formula_structural   Ti4AlVRh10
_chemical_formula_sum   'Ti4 Al1 V1 Rh10'
_cell_volume   230.68984063
_cell_formula_units_Z   1
loop_
 _symmetry_equiv_pos_site_id
 _symmetry_equiv_pos_as_xyz
  1  'x, y, z'
loop_
 _atom_site_type_symbol
 _atom_site_label
 _atom_site_symmetry_multiplicity
 _atom_site_fract_x
 _atom_site_fract_y
 _atom_site_fract_z
 _atom_site_occupancy
  Ti  Ti0  1  0.500000  0.335263  0.145150  1
  Ti  Ti1  1  0.500000  0.664737  0.854850  1
  Ti  Ti2  1  0.500000  0.823356  0.361221  1
  Ti  Ti3  1  0.500000  0.176644  0.638779  1
  Al  Al4  1  0.000000  0.500000  0.500000  1
  V  V5  1  0.000000  0.000000  0.000000  1
  Rh  Rh6  1  0.000000  0.000000  0.500000  1
  Rh  Rh7  1  0.000000  0.500000  0.000000  1
  Rh  Rh8  1  0.000000  0.082919  0.236709  1
  Rh  Rh9  1  0.000000  0.917081  0.763291  1
  Rh  Rh10  1  0.000000  0.582698  0.259010  1
  Rh  Rh11  1  0.000000  0.417302  0.740990  1
  Rh  Rh12  1  0.500000  0.306872  0.389364  1
  Rh  Rh13  1  0.500000  0.693128  0.610636  1
  Rh  Rh14  1  0.500000  0.814630  0.102940  1
  Rh  Rh15  1  0.500000  0.185370  0.897060  1
