# generated using pymatgen
data_Tm3Lu3Th2(MgCo)2
_symmetry_space_group_name_H-M   'P 1'
_cell_length_a   9.52362236
_cell_length_b   9.52362331
_cell_length_c   9.52362300
_cell_angle_alpha   60.00000454
_cell_angle_beta   60.00000124
_cell_angle_gamma   59.99999811
_symmetry_Int_Tables_number   1
_chemical_formula_structural   Tm3Lu3Th2(MgCo)2
_chemical_formula_sum   'Tm6 Lu6 Th4 Mg4 Co4'
_cell_volume   610.78953184
_cell_formula_units_Z   2
loop_
 _symmetry_equiv_pos_site_id
 _symmetry_equiv_pos_as_xyz
  1  'x, y, z'
loop_
 _atom_site_type_symbol
 _atom_site_label
 _atom_site_symmetry_multiplicity
 _atom_site_fract_x
 _atom_site_fract_y
 _atom_site_fract_z
 _atom_site_occupancy
  Tm  Tm0  1  0.934875  0.565125  0.565125  1
  Tm  Tm1  1  0.565125  0.934875  0.934875  1
  Tm  Tm2  1  0.565125  0.934875  0.565125  1
  Tm  Tm3  1  0.934875  0.565125  0.934875  1
  Tm  Tm4  1  0.565125  0.565125  0.934875  1
  Tm  Tm5  1  0.934875  0.934875  0.565125  1
  Lu  Lu6  1  0.814762  0.185238  0.185238  1
  Lu  Lu7  1  0.185238  0.814762  0.814762  1
  Lu  Lu8  1  0.185238  0.814762  0.185238  1
  Lu  Lu9  1  0.814762  0.185238  0.814762  1
  Lu  Lu10  1  0.185238  0.185238  0.814762  1
  Lu  Lu11  1  0.814762  0.814762  0.185238  1
  Th  Th12  1  0.345164  0.345164  0.345164  1
  Th  Th13  1  0.345164  0.345164  0.964510  1
  Th  Th14  1  0.345164  0.964510  0.345164  1
  Th  Th15  1  0.964510  0.345164  0.345164  1
  Mg  Mg16  1  0.580423  0.580423  0.580423  1
  Mg  Mg17  1  0.580423  0.580423  0.258729  1
  Mg  Mg18  1  0.580423  0.258729  0.580423  1
  Mg  Mg19  1  0.258729  0.580423  0.580423  1
  Co  Co20  1  0.143743  0.143743  0.143743  1
  Co  Co21  1  0.143743  0.143743  0.568771  1
  Co  Co22  1  0.143743  0.568771  0.143743  1
  Co  Co23  1  0.568771  0.143743  0.143743  1
