# generated using pymatgen
data_Na3Si4IrPt3
_symmetry_space_group_name_H-M   'P 1'
_cell_length_a   6.45542262
_cell_length_b   6.49115133
_cell_length_c   6.49115228
_cell_angle_alpha   109.58244603
_cell_angle_beta   109.35975129
_cell_angle_gamma   109.35977092
_symmetry_Int_Tables_number   1
_chemical_formula_structural   Na3Si4IrPt3
_chemical_formula_sum   'Na3 Si4 Ir1 Pt3'
_cell_volume   209.67270150
_cell_formula_units_Z   1
loop_
 _symmetry_equiv_pos_site_id
 _symmetry_equiv_pos_as_xyz
  1  'x, y, z'
loop_
 _atom_site_type_symbol
 _atom_site_label
 _atom_site_symmetry_multiplicity
 _atom_site_fract_x
 _atom_site_fract_y
 _atom_site_fract_z
 _atom_site_occupancy
  Na  Na0  1  0.498618  0.499030  0.000000  1
  Na  Na1  1  0.498618  0.000000  0.499030  1
  Na  Na2  1  0.999588  0.500970  0.500970  1
  Si  Si3  1  0.368306  0.000000  0.000000  1
  Si  Si4  1  0.992334  0.356479  0.000000  1
  Si  Si5  1  0.992334  0.000000  0.356479  1
  Si  Si6  1  0.635854  0.643521  0.643521  1
  Ir  Ir7  1  0.721408  0.000000  0.000000  1
  Pt  Pt8  1  0.002466  0.714458  0.000000  1
  Pt  Pt9  1  0.288010  0.285543  0.285543  1
  Pt  Pt10  1  0.002466  0.000000  0.714458  1
