# generated using pymatgen
data_Dy5Ge12Rh19
_symmetry_space_group_name_H-M   'P 1'
_cell_length_a   13.11628100
_cell_length_b   13.11628164
_cell_length_c   4.06142700
_cell_angle_alpha   90.00000000
_cell_angle_beta   90.00000000
_cell_angle_gamma   120.00000091
_symmetry_Int_Tables_number   1
_chemical_formula_structural   Dy5Ge12Rh19
_chemical_formula_sum   'Dy5 Ge12 Rh19'
_cell_volume   605.10497725
_cell_formula_units_Z   1
loop_
 _symmetry_equiv_pos_site_id
 _symmetry_equiv_pos_as_xyz
  1  'x, y, z'
loop_
 _atom_site_type_symbol
 _atom_site_label
 _atom_site_symmetry_multiplicity
 _atom_site_fract_x
 _atom_site_fract_y
 _atom_site_fract_z
 _atom_site_occupancy
  Dy  Dy0  1  0.000000  0.187677  0.500000  1
  Dy  Dy1  1  0.812323  0.812323  0.500000  1
  Dy  Dy2  1  0.187677  0.000000  0.500000  1
  Dy  Dy3  1  0.666667  0.333333  0.000000  1
  Dy  Dy4  1  0.333333  0.666667  0.000000  1
  Ge  Ge5  1  0.480908  0.316509  0.500000  1
  Ge  Ge6  1  0.819160  0.000000  0.000000  1
  Ge  Ge7  1  0.180840  0.180840  0.000000  1
  Ge  Ge8  1  0.000000  0.819160  0.000000  1
  Ge  Ge9  1  0.369285  0.000000  0.000000  1
  Ge  Ge10  1  0.683491  0.164398  0.500000  1
  Ge  Ge11  1  0.835602  0.519092  0.500000  1
  Ge  Ge12  1  0.519092  0.835602  0.500000  1
  Ge  Ge13  1  0.164398  0.683491  0.500000  1
  Ge  Ge14  1  0.316509  0.480908  0.500000  1
  Ge  Ge15  1  0.000000  0.369285  0.000000  1
  Ge  Ge16  1  0.630715  0.630715  0.000000  1
  Rh  Rh17  1  0.806325  0.181942  0.000000  1
  Rh  Rh18  1  0.375617  0.193675  0.000000  1
  Rh  Rh19  1  0.642834  0.516575  0.500000  1
  Rh  Rh20  1  0.873741  0.357166  0.500000  1
  Rh  Rh21  1  0.357166  0.873741  0.500000  1
  Rh  Rh22  1  0.516575  0.642834  0.500000  1
  Rh  Rh23  1  0.126259  0.483425  0.500000  1
  Rh  Rh24  1  0.818058  0.624383  0.000000  1
  Rh  Rh25  1  0.624383  0.818058  0.000000  1
  Rh  Rh26  1  0.181942  0.806325  0.000000  1
  Rh  Rh27  1  0.193675  0.375617  0.000000  1
  Rh  Rh28  1  0.000000  0.719691  0.500000  1
  Rh  Rh29  1  0.280309  0.280309  0.500000  1
  Rh  Rh30  1  0.719691  0.000000  0.500000  1
  Rh  Rh31  1  0.000000  0.555869  0.000000  1
  Rh  Rh32  1  0.444131  0.444131  0.000000  1
  Rh  Rh33  1  0.555869  0.000000  0.000000  1
  Rh  Rh34  1  0.000000  0.000000  0.000000  1
  Rh  Rh35  1  0.483425  0.126259  0.500000  1
