# generated using pymatgen
data_La8ZnHgPd23
_symmetry_space_group_name_H-M   'P 1'
_cell_length_a   8.51009000
_cell_length_b   8.63710900
_cell_length_c   8.63710900
_cell_angle_alpha   90.00000000
_cell_angle_beta   90.00000000
_cell_angle_gamma   90.00000000
_symmetry_Int_Tables_number   1
_chemical_formula_structural   La8ZnHgPd23
_chemical_formula_sum   'La8 Zn1 Hg1 Pd23'
_cell_volume   634.84975145
_cell_formula_units_Z   1
loop_
 _symmetry_equiv_pos_site_id
 _symmetry_equiv_pos_as_xyz
  1  'x, y, z'
loop_
 _atom_site_type_symbol
 _atom_site_label
 _atom_site_symmetry_multiplicity
 _atom_site_fract_x
 _atom_site_fract_y
 _atom_site_fract_z
 _atom_site_occupancy
  La  La0  1  0.250486  0.242047  0.242047  1
  La  La1  1  0.748957  0.749076  0.749076  1
  La  La2  1  0.748957  0.749076  0.250924  1
  La  La3  1  0.748957  0.250924  0.749076  1
  La  La4  1  0.250486  0.242047  0.757953  1
  La  La5  1  0.250486  0.757953  0.242047  1
  La  La6  1  0.250486  0.757953  0.757953  1
  La  La7  1  0.748957  0.250924  0.250924  1
  Zn  Zn8  1  0.998614  0.000000  0.000000  1
  Hg  Hg9  1  0.256144  0.500000  0.500000  1
  Pd  Pd10  1  0.261623  0.500000  0.000000  1
  Pd  Pd11  1  0.738232  0.500000  0.000000  1
  Pd  Pd12  1  0.001342  0.259850  0.500000  1
  Pd  Pd13  1  0.500714  0.262554  0.000000  1
  Pd  Pd14  1  0.001342  0.740150  0.500000  1
  Pd  Pd15  1  0.500714  0.737446  0.000000  1
  Pd  Pd16  1  0.500714  0.000000  0.262554  1
  Pd  Pd17  1  0.261623  0.000000  0.500000  1
  Pd  Pd18  1  0.500714  0.000000  0.737446  1
  Pd  Pd19  1  0.738232  0.000000  0.500000  1
  Pd  Pd20  1  0.001342  0.500000  0.259850  1
  Pd  Pd21  1  0.001342  0.500000  0.740150  1
  Pd  Pd22  1  0.746363  0.500000  0.500000  1
  Pd  Pd23  1  0.498725  0.251602  0.500000  1
  Pd  Pd24  1  0.498725  0.748398  0.500000  1
  Pd  Pd25  1  0.498725  0.500000  0.251602  1
  Pd  Pd26  1  0.498725  0.500000  0.748398  1
  Pd  Pd27  1  0.298614  0.000000  0.000000  1
  Pd  Pd28  1  0.702158  0.000000  0.000000  1
  Pd  Pd29  1  0.999375  0.296613  0.000000  1
  Pd  Pd30  1  0.999375  0.703387  0.000000  1
  Pd  Pd31  1  0.999375  0.000000  0.296613  1
  Pd  Pd32  1  0.999375  0.000000  0.703387  1
