# generated using pymatgen
data_Rb3Al2Sb2P
_symmetry_space_group_name_H-M   'P 1'
_cell_length_a   6.27705300
_cell_length_b   8.27503068
_cell_length_c   11.20012506
_cell_angle_alpha   70.23413162
_cell_angle_beta   90.00000000
_cell_angle_gamma   90.00000000
_symmetry_Int_Tables_number   1
_chemical_formula_structural   Rb3Al2Sb2P
_chemical_formula_sum   'Rb6 Al4 Sb4 P2'
_cell_volume   547.48966752
_cell_formula_units_Z   2
loop_
 _symmetry_equiv_pos_site_id
 _symmetry_equiv_pos_as_xyz
  1  'x, y, z'
loop_
 _atom_site_type_symbol
 _atom_site_label
 _atom_site_symmetry_multiplicity
 _atom_site_fract_x
 _atom_site_fract_y
 _atom_site_fract_z
 _atom_site_occupancy
  Rb  Rb0  1  0.250000  0.499855  0.403711  1
  Rb  Rb1  1  0.750000  0.127605  0.936003  1
  Rb  Rb2  1  0.750000  0.455070  0.157780  1
  Rb  Rb3  1  0.250000  0.544930  0.842220  1
  Rb  Rb4  1  0.750000  0.500145  0.596289  1
  Rb  Rb5  1  0.250000  0.872395  0.063997  1
  Al  Al6  1  0.999653  0.013342  0.363862  1
  Al  Al7  1  0.499653  0.986658  0.636138  1
  Al  Al8  1  0.500347  0.013342  0.363862  1
  Al  Al9  1  0.000347  0.986658  0.636138  1
  Sb  Sb10  1  0.250000  0.239892  0.186840  1
  Sb  Sb11  1  0.750000  0.760108  0.813160  1
  Sb  Sb12  1  0.250000  0.185760  0.725605  1
  Sb  Sb13  1  0.750000  0.814240  0.274395  1
  P  P14  1  0.250000  0.841701  0.531370  1
  P  P15  1  0.750000  0.158299  0.468630  1
