# generated using pymatgen
data_Ti3Ga2SnPd6
_symmetry_space_group_name_H-M   'P 1'
_cell_length_a   4.68026401
_cell_length_b   5.66159800
_cell_length_c   14.30329001
_cell_angle_alpha   90.00000000
_cell_angle_beta   89.99398496
_cell_angle_gamma   90.00000000
_symmetry_Int_Tables_number   1
_chemical_formula_structural   Ti3Ga2SnPd6
_chemical_formula_sum   'Ti6 Ga4 Sn2 Pd12'
_cell_volume   379.00533486
_cell_formula_units_Z   2
loop_
 _symmetry_equiv_pos_site_id
 _symmetry_equiv_pos_as_xyz
  1  'x, y, z'
loop_
 _atom_site_type_symbol
 _atom_site_label
 _atom_site_symmetry_multiplicity
 _atom_site_fract_x
 _atom_site_fract_y
 _atom_site_fract_z
 _atom_site_occupancy
  Ti  Ti0  1  0.000226  0.500000  0.014439  1
  Ti  Ti1  1  0.499933  0.000000  0.152230  1
  Ti  Ti2  1  0.999730  0.500000  0.357106  1
  Ti  Ti3  1  0.499848  0.000000  0.482471  1
  Ti  Ti4  1  0.999959  0.500000  0.684177  1
  Ti  Ti5  1  0.500303  0.000000  0.809523  1
  Ga  Ga6  1  0.999751  0.000000  0.356451  1
  Ga  Ga7  1  0.499824  0.500000  0.483666  1
  Ga  Ga8  1  0.000021  0.000000  0.683016  1
  Ga  Ga9  1  0.500265  0.500000  0.810125  1
  Sn  Sn10  1  0.000157  0.000000  0.017530  1
  Sn  Sn11  1  0.499961  0.500000  0.149215  1
  Pd  Pd12  1  0.500288  0.253130  0.971293  1
  Pd  Pd13  1  0.500288  0.746869  0.971293  1
  Pd  Pd14  1  0.999855  0.246723  0.195351  1
  Pd  Pd15  1  0.999855  0.753278  0.195351  1
  Pd  Pd16  1  0.499722  0.247618  0.321307  1
  Pd  Pd17  1  0.499722  0.752381  0.321307  1
  Pd  Pd18  1  0.999877  0.249800  0.521200  1
  Pd  Pd19  1  0.999877  0.750200  0.521200  1
  Pd  Pd20  1  0.499899  0.250087  0.645501  1
  Pd  Pd21  1  0.499899  0.749912  0.645501  1
  Pd  Pd22  1  0.000370  0.252211  0.845375  1
  Pd  Pd23  1  0.000370  0.747790  0.845375  1
