# generated using pymatgen
data_Ce3SmSiPt7Rh5
_symmetry_space_group_name_H-M   'P 1'
_cell_length_a   7.32384666
_cell_length_b   7.32944109
_cell_length_c   7.24178517
_cell_angle_alpha   109.23392945
_cell_angle_beta   109.05493815
_cell_angle_gamma   109.92523975
_symmetry_Int_Tables_number   1
_chemical_formula_structural   Ce3SmSiPt7Rh5
_chemical_formula_sum   'Ce3 Sm1 Si1 Pt7 Rh5'
_cell_volume   299.96999103
_cell_formula_units_Z   1
loop_
 _symmetry_equiv_pos_site_id
 _symmetry_equiv_pos_as_xyz
  1  'x, y, z'
loop_
 _atom_site_type_symbol
 _atom_site_label
 _atom_site_symmetry_multiplicity
 _atom_site_fract_x
 _atom_site_fract_y
 _atom_site_fract_z
 _atom_site_occupancy
  Ce  Ce0  1  0.002901  0.497093  0.999704  1
  Ce  Ce1  1  0.497213  0.002861  0.999729  1
  Ce  Ce2  1  0.497367  0.497366  0.494365  1
  Sm  Sm3  1  0.001724  0.001720  0.503320  1
  Si  Si4  1  0.000046  0.000090  0.999175  1
  Pt  Pt5  1  0.748898  0.252404  0.500286  1
  Pt  Pt6  1  0.750510  0.496875  0.250702  1
  Pt  Pt7  1  0.502566  0.249773  0.749097  1
  Pt  Pt8  1  0.250098  0.502611  0.749205  1
  Pt  Pt9  1  0.252763  0.749295  0.500096  1
  Pt  Pt10  1  0.496860  0.750782  0.250937  1
  Pt  Pt11  1  0.719217  0.718872  0.997426  1
  Rh  Rh12  1  0.278118  0.000028  0.270268  1
  Rh  Rh13  1  0.999882  0.278545  0.270954  1
  Rh  Rh14  1  0.279919  0.280202  0.007100  1
  Rh  Rh15  1  0.721600  0.000271  0.729160  1
  Rh  Rh16  1  0.000317  0.721211  0.728475  1
