# generated using pymatgen
data_Zr6Si9(Ni5P)4
_symmetry_space_group_name_H-M   'P 1'
_cell_length_a   12.58747400
_cell_length_b   12.64220258
_cell_length_c   3.66808000
_cell_angle_alpha   90.00000000
_cell_angle_beta   90.00000000
_cell_angle_gamma   120.04457756
_symmetry_Int_Tables_number   1
_chemical_formula_structural   Zr6Si9(Ni5P)4
_chemical_formula_sum   'Zr6 Si9 Ni20 P4'
_cell_volume   505.28395214
_cell_formula_units_Z   1
loop_
 _symmetry_equiv_pos_site_id
 _symmetry_equiv_pos_as_xyz
  1  'x, y, z'
loop_
 _atom_site_type_symbol
 _atom_site_label
 _atom_site_symmetry_multiplicity
 _atom_site_fract_x
 _atom_site_fract_y
 _atom_site_fract_z
 _atom_site_occupancy
  Zr  Zr0  1  0.807523  0.282859  0.500000  1
  Zr  Zr1  1  0.716388  0.522431  0.500000  1
  Zr  Zr2  1  0.476576  0.193724  0.500000  1
  Zr  Zr3  1  0.193189  0.716366  0.000000  1
  Zr  Zr4  1  0.282757  0.476080  0.000000  1
  Zr  Zr5  1  0.524380  0.807265  0.000000  1
  Si  Si6  1  0.000459  0.999395  0.000000  1
  Si  Si7  1  0.232130  0.285288  0.500000  1
  Si  Si8  1  0.715215  0.948466  0.500000  1
  Si  Si9  1  0.051797  0.765416  0.500000  1
  Si  Si10  1  0.773511  0.718065  0.000000  1
  Si  Si11  1  0.281251  0.055303  0.000000  1
  Si  Si12  1  0.474853  0.613589  0.500000  1
  Si  Si13  1  0.387193  0.861617  0.500000  1
  Si  Si14  1  0.139306  0.525575  0.500000  1
  Ni  Ni15  1  0.420102  0.985028  0.000000  1
  Ni  Ni16  1  0.014800  0.434532  0.000000  1
  Ni  Ni17  1  0.585052  0.026012  0.500000  1
  Ni  Ni18  1  0.564711  0.579168  0.000000  1
  Ni  Ni19  1  0.974639  0.557643  0.500000  1
  Ni  Ni20  1  0.929252  0.079129  0.500000  1
  Ni  Ni21  1  0.153934  0.072584  0.500000  1
  Ni  Ni22  1  0.918313  0.845596  0.500000  1
  Ni  Ni23  1  0.091930  0.888844  0.000000  1
  Ni  Ni24  1  0.797574  0.907491  0.000000  1
  Ni  Ni25  1  0.105395  0.202593  0.000000  1
  Ni  Ni26  1  0.333664  0.667026  0.500000  1
  Ni  Ni27  1  0.666825  0.332600  0.000000  1
  Ni  Ni28  1  0.679343  0.747641  0.500000  1
  Ni  Ni29  1  0.252198  0.931572  0.500000  1
  Ni  Ni30  1  0.922973  0.670463  0.000000  1
  Ni  Ni31  1  0.327069  0.252019  0.000000  1
  Ni  Ni32  1  0.755065  0.082023  0.000000  1
  Ni  Ni33  1  0.440938  0.416632  0.500000  1
  Ni  Ni34  1  0.064492  0.318946  0.500000  1
  P  P35  1  0.857563  0.472055  0.000000  1
  P  P36  1  0.527355  0.385093  0.000000  1
  P  P37  1  0.614442  0.141639  0.000000  1
  P  P38  1  0.945844  0.232231  0.000000  1
