# generated using pymatgen
data_Fe3Sb10OsSe2
_symmetry_space_group_name_H-M   'P 1'
_cell_length_a   7.89960565
_cell_length_b   7.90938667
_cell_length_c   7.89992123
_cell_angle_alpha   108.74921144
_cell_angle_beta   109.70714980
_cell_angle_gamma   110.05238417
_symmetry_Int_Tables_number   1
_chemical_formula_structural   Fe3Sb10OsSe2
_chemical_formula_sum   'Fe3 Sb10 Os1 Se2'
_cell_volume   379.48385514
_cell_formula_units_Z   1
loop_
 _symmetry_equiv_pos_site_id
 _symmetry_equiv_pos_as_xyz
  1  'x, y, z'
loop_
 _atom_site_type_symbol
 _atom_site_label
 _atom_site_symmetry_multiplicity
 _atom_site_fract_x
 _atom_site_fract_y
 _atom_site_fract_z
 _atom_site_occupancy
  Fe  Fe0  1  0.500682  0.997479  0.002931  1
  Fe  Fe1  1  0.984968  0.991567  0.501920  1
  Fe  Fe2  1  0.994059  0.500888  0.985731  1
  Sb  Sb3  1  0.508356  0.670184  0.849827  1
  Sb  Sb4  1  0.664813  0.156813  0.826536  1
  Sb  Sb5  1  0.842210  0.161545  0.321413  1
  Sb  Sb6  1  0.157433  0.823621  0.668483  1
  Sb  Sb7  1  0.174441  0.332122  0.840057  1
  Sb  Sb8  1  0.157023  0.496602  0.331174  1
  Sb  Sb9  1  0.329292  0.154203  0.495007  1
  Sb  Sb10  1  0.492732  0.326185  0.151605  1
  Sb  Sb11  1  0.325140  0.844234  0.169666  1
  Sb  Sb12  1  0.827750  0.665673  0.159675  1
  Os  Os13  1  0.518035  0.512813  0.508625  1
  Se  Se14  1  0.671426  0.849440  0.513554  1
  Se  Se15  1  0.851639  0.516633  0.673796  1
