# generated using pymatgen
data_HoAl3Pt8
_symmetry_space_group_name_H-M   'P 1'
_cell_length_a   16.61256200
_cell_length_b   4.04293600
_cell_length_c   5.63147700
_cell_angle_alpha   90.00000000
_cell_angle_beta   90.00000000
_cell_angle_gamma   90.00000000
_symmetry_Int_Tables_number   1
_chemical_formula_structural   HoAl3Pt8
_chemical_formula_sum   'Ho2 Al6 Pt16'
_cell_volume   378.22984606
_cell_formula_units_Z   2
loop_
 _symmetry_equiv_pos_site_id
 _symmetry_equiv_pos_as_xyz
  1  'x, y, z'
loop_
 _atom_site_type_symbol
 _atom_site_label
 _atom_site_symmetry_multiplicity
 _atom_site_fract_x
 _atom_site_fract_y
 _atom_site_fract_z
 _atom_site_occupancy
  Ho  Ho0  1  0.250000  0.000000  0.798185  1
  Ho  Ho1  1  0.750000  0.000000  0.201816  1
  Al  Al2  1  0.091451  0.000000  0.311505  1
  Al  Al3  1  0.408549  0.000000  0.311505  1
  Al  Al4  1  0.591451  0.000000  0.688495  1
  Al  Al5  1  0.908548  0.000000  0.688495  1
  Al  Al6  1  0.000000  0.499999  0.000000  1
  Al  Al7  1  0.500000  0.499999  0.000000  1
  Pt  Pt8  1  0.250000  0.000000  0.288503  1
  Pt  Pt9  1  0.750000  0.000000  0.711498  1
  Pt  Pt10  1  0.163873  0.499999  0.544033  1
  Pt  Pt11  1  0.336127  0.499999  0.544033  1
  Pt  Pt12  1  0.663872  0.499999  0.455966  1
  Pt  Pt13  1  0.836128  0.499999  0.455966  1
  Pt  Pt14  1  0.153311  0.499999  0.052831  1
  Pt  Pt15  1  0.346690  0.499999  0.052831  1
  Pt  Pt16  1  0.653311  0.499999  0.947168  1
  Pt  Pt17  1  0.846690  0.499999  0.947168  1
  Pt  Pt18  1  0.000000  0.499999  0.499999  1
  Pt  Pt19  1  0.500000  0.499999  0.499999  1
  Pt  Pt20  1  0.065973  0.000000  0.795439  1
  Pt  Pt21  1  0.434027  0.000000  0.795439  1
  Pt  Pt22  1  0.565972  0.000000  0.204561  1
  Pt  Pt23  1  0.934027  0.000000  0.204561  1
