# generated using pymatgen
data_Y6Si4(IrRh)3
_symmetry_space_group_name_H-M   'P 1'
_cell_length_a   5.55072021
_cell_length_b   7.55961200
_cell_length_c   14.86620724
_cell_angle_alpha   90.00000000
_cell_angle_beta   89.92438363
_cell_angle_gamma   90.00000000
_symmetry_Int_Tables_number   1
_chemical_formula_structural   Y6Si4(IrRh)3
_chemical_formula_sum   'Y12 Si8 Ir6 Rh6'
_cell_volume   623.80470611
_cell_formula_units_Z   2
loop_
 _symmetry_equiv_pos_site_id
 _symmetry_equiv_pos_as_xyz
  1  'x, y, z'
loop_
 _atom_site_type_symbol
 _atom_site_label
 _atom_site_symmetry_multiplicity
 _atom_site_fract_x
 _atom_site_fract_y
 _atom_site_fract_z
 _atom_site_occupancy
  Y  Y0  1  0.895508  0.830221  0.749795  1
  Y  Y1  1  0.868521  0.524799  0.391408  1
  Y  Y2  1  0.368272  0.974831  0.609019  1
  Y  Y3  1  0.131919  0.473257  0.890955  1
  Y  Y4  1  0.632473  0.026448  0.109059  1
  Y  Y5  1  0.104039  0.169994  0.250474  1
  Y  Y6  1  0.132473  0.473553  0.609059  1
  Y  Y7  1  0.631919  0.026744  0.390955  1
  Y  Y8  1  0.395508  0.669779  0.249795  1
  Y  Y9  1  0.368521  0.975201  0.891408  1
  Y  Y10  1  0.604039  0.330006  0.750474  1
  Y  Y11  1  0.868272  0.525169  0.109019  1
  Si  Si12  1  0.622758  0.625082  0.896595  1
  Si  Si13  1  0.877938  0.125590  0.603098  1
  Si  Si14  1  0.122623  0.875396  0.103264  1
  Si  Si15  1  0.122758  0.874918  0.396595  1
  Si  Si16  1  0.622623  0.624604  0.603264  1
  Si  Si17  1  0.876117  0.123747  0.896888  1
  Si  Si18  1  0.377938  0.374410  0.103098  1
  Si  Si19  1  0.376117  0.376253  0.396888  1
  Ir  Ir20  1  0.600438  0.332993  0.961059  1
  Ir  Ir21  1  0.100438  0.167007  0.461059  1
  Ir  Ir22  1  0.409722  0.681445  0.750103  1
  Ir  Ir23  1  0.589796  0.319101  0.250029  1
  Ir  Ir24  1  0.909722  0.818555  0.250103  1
  Ir  Ir25  1  0.089796  0.180899  0.750029  1
  Rh  Rh26  1  0.100532  0.167227  0.038111  1
  Rh  Rh27  1  0.900007  0.832288  0.961672  1
  Rh  Rh28  1  0.899336  0.832164  0.538472  1
  Rh  Rh29  1  0.600532  0.332773  0.538111  1
  Rh  Rh30  1  0.400007  0.667712  0.461672  1
  Rh  Rh31  1  0.399336  0.667836  0.038472  1
