# generated using pymatgen
data_Zr6Si7Ni5Rh11
_symmetry_space_group_name_H-M   'P 1'
_cell_length_a   8.41313616
_cell_length_b   8.39247472
_cell_length_c   8.39247574
_cell_angle_alpha   60.15776753
_cell_angle_beta   60.39587535
_cell_angle_gamma   60.39587621
_symmetry_Int_Tables_number   1
_chemical_formula_structural   Zr6Si7Ni5Rh11
_chemical_formula_sum   'Zr6 Si7 Ni5 Rh11'
_cell_volume   422.00465380
_cell_formula_units_Z   1
loop_
 _symmetry_equiv_pos_site_id
 _symmetry_equiv_pos_as_xyz
  1  'x, y, z'
loop_
 _atom_site_type_symbol
 _atom_site_label
 _atom_site_symmetry_multiplicity
 _atom_site_fract_x
 _atom_site_fract_y
 _atom_site_fract_z
 _atom_site_occupancy
  Zr  Zr0  1  0.795626  0.205687  0.798034  1
  Zr  Zr1  1  0.795626  0.798034  0.205687  1
  Zr  Zr2  1  0.208477  0.795141  0.795141  1
  Zr  Zr3  1  0.204438  0.202306  0.795488  1
  Zr  Zr4  1  0.794629  0.203130  0.203130  1
  Zr  Zr5  1  0.204438  0.795488  0.202306  1
  Si  Si6  1  0.995062  0.497895  0.995236  1
  Si  Si7  1  0.499933  0.502307  0.502307  1
  Si  Si8  1  0.507826  0.500233  0.993104  1
  Si  Si9  1  0.507826  0.993104  0.500233  1
  Si  Si10  1  0.988097  0.507099  0.507099  1
  Si  Si11  1  0.995062  0.995236  0.497895  1
  Si  Si12  1  0.500745  0.999048  0.999048  1
  Ni  Ni13  1  0.504136  0.829793  0.829793  1
  Ni  Ni14  1  0.620288  0.620552  0.620552  1
  Ni  Ni15  1  0.827044  0.829921  0.505973  1
  Ni  Ni16  1  0.506546  0.165621  0.165621  1
  Ni  Ni17  1  0.827044  0.505973  0.829921  1
  Rh  Rh18  1  0.162183  0.162946  0.162946  1
  Rh  Rh19  1  0.616489  0.617735  0.142363  1
  Rh  Rh20  1  0.386599  0.377741  0.377741  1
  Rh  Rh21  1  0.161959  0.514475  0.162050  1
  Rh  Rh22  1  0.161959  0.162050  0.514475  1
  Rh  Rh23  1  0.143649  0.616061  0.616061  1
  Rh  Rh24  1  0.616489  0.142363  0.617735  1
  Rh  Rh25  1  0.836201  0.837134  0.837134  1
  Rh  Rh26  1  0.850215  0.386398  0.386398  1
  Rh  Rh27  1  0.390708  0.381253  0.855273  1
  Rh  Rh28  1  0.390708  0.855273  0.381253  1
