# generated using pymatgen
data_Yb5Al2(SiN4)2
_symmetry_space_group_name_H-M   'P 1'
_cell_length_a   9.19469800
_cell_length_b   6.12022200
_cell_length_c   15.41039800
_cell_angle_alpha   90.00000000
_cell_angle_beta   90.00000000
_cell_angle_gamma   90.00000000
_symmetry_Int_Tables_number   1
_chemical_formula_structural   Yb5Al2(SiN4)2
_chemical_formula_sum   'Yb20 Al8 Si8 N32'
_cell_volume   867.19846476
_cell_formula_units_Z   4
loop_
 _symmetry_equiv_pos_site_id
 _symmetry_equiv_pos_as_xyz
  1  'x, y, z'
loop_
 _atom_site_type_symbol
 _atom_site_label
 _atom_site_symmetry_multiplicity
 _atom_site_fract_x
 _atom_site_fract_y
 _atom_site_fract_z
 _atom_site_occupancy
  Yb  Yb0  1  0.301654  0.172220  0.103619  1
  Yb  Yb1  1  0.198346  0.327780  0.603619  1
  Yb  Yb2  1  0.801654  0.327780  0.896381  1
  Yb  Yb3  1  0.698346  0.172220  0.396381  1
  Yb  Yb4  1  0.698346  0.827780  0.896381  1
  Yb  Yb5  1  0.801654  0.672220  0.396381  1
  Yb  Yb6  1  0.198346  0.672220  0.103619  1
  Yb  Yb7  1  0.301654  0.827780  0.603619  1
  Yb  Yb8  1  0.000000  0.364155  0.250000  1
  Yb  Yb9  1  0.500000  0.135847  0.750000  1
  Yb  Yb10  1  0.000000  0.635846  0.750000  1
  Yb  Yb11  1  0.500000  0.864155  0.250000  1
  Yb  Yb12  1  0.361083  0.128563  0.426748  1
  Yb  Yb13  1  0.138917  0.371438  0.926748  1
  Yb  Yb14  1  0.861083  0.371438  0.573252  1
  Yb  Yb15  1  0.638918  0.128563  0.073252  1
  Yb  Yb16  1  0.638918  0.871438  0.573252  1
  Yb  Yb17  1  0.861083  0.628563  0.073252  1
  Yb  Yb18  1  0.138917  0.628563  0.426748  1
  Yb  Yb19  1  0.361083  0.871438  0.926748  1
  Al  Al20  1  0.354405  0.411025  0.263377  1
  Al  Al21  1  0.145595  0.088973  0.763377  1
  Al  Al22  1  0.854405  0.088973  0.736623  1
  Al  Al23  1  0.645595  0.411025  0.236623  1
  Al  Al24  1  0.645595  0.588973  0.736623  1
  Al  Al25  1  0.854405  0.911025  0.236623  1
  Al  Al26  1  0.145595  0.911025  0.263377  1
  Al  Al27  1  0.354405  0.588973  0.763377  1
  Si  Si28  1  0.005752  0.096198  0.070550  1
  Si  Si29  1  0.494248  0.403804  0.570549  1
  Si  Si30  1  0.505753  0.403804  0.929450  1
  Si  Si31  1  0.994247  0.096198  0.429450  1
  Si  Si32  1  0.994247  0.903803  0.929450  1
  Si  Si33  1  0.505753  0.596196  0.429450  1
  Si  Si34  1  0.494248  0.596196  0.070550  1
  Si  Si35  1  0.005752  0.903803  0.570549  1
  N  N36  1  0.047741  0.363669  0.089580  1
  N  N37  1  0.452260  0.136332  0.589580  1
  N  N38  1  0.547741  0.136332  0.910420  1
  N  N39  1  0.952259  0.363669  0.410420  1
  N  N40  1  0.952259  0.636332  0.910420  1
  N  N41  1  0.547741  0.863668  0.410420  1
  N  N42  1  0.452260  0.863668  0.089580  1
  N  N43  1  0.047741  0.636332  0.589580  1
  N  N44  1  0.143002  0.013700  0.494819  1
  N  N45  1  0.356998  0.486298  0.994818  1
  N  N46  1  0.643002  0.486298  0.505181  1
  N  N47  1  0.856998  0.013700  0.005181  1
  N  N48  1  0.856998  0.986298  0.505181  1
  N  N49  1  0.643002  0.513702  0.005181  1
  N  N50  1  0.356998  0.513702  0.494819  1
  N  N51  1  0.143002  0.986298  0.994818  1
  N  N52  1  0.280339  0.131802  0.266917  1
  N  N53  1  0.219662  0.368198  0.766916  1
  N  N54  1  0.780339  0.368198  0.733084  1
  N  N55  1  0.719662  0.131802  0.233083  1
  N  N56  1  0.719662  0.868199  0.733084  1
  N  N57  1  0.780339  0.631802  0.233083  1
  N  N58  1  0.219662  0.631802  0.266917  1
  N  N59  1  0.280339  0.868199  0.766916  1
  N  N60  1  0.480377  0.427798  0.161194  1
  N  N61  1  0.019623  0.072202  0.661194  1
  N  N62  1  0.980376  0.072202  0.838807  1
  N  N63  1  0.519623  0.427798  0.338807  1
  N  N64  1  0.519623  0.572204  0.838807  1
  N  N65  1  0.980376  0.927797  0.338807  1
  N  N66  1  0.019623  0.927797  0.161194  1
  N  N67  1  0.480377  0.572204  0.661194  1
