# generated using pymatgen
data_ErLu3CrOs7
_symmetry_space_group_name_H-M   'P 1'
_cell_length_a   5.20076912
_cell_length_b   5.20055416
_cell_length_c   8.73457902
_cell_angle_alpha   89.99330073
_cell_angle_beta   90.00586872
_cell_angle_gamma   117.60321804
_symmetry_Int_Tables_number   1
_chemical_formula_structural   ErLu3CrOs7
_chemical_formula_sum   'Er1 Lu3 Cr1 Os7'
_cell_volume   209.35335217
_cell_formula_units_Z   1
loop_
 _symmetry_equiv_pos_site_id
 _symmetry_equiv_pos_as_xyz
  1  'x, y, z'
loop_
 _atom_site_type_symbol
 _atom_site_label
 _atom_site_symmetry_multiplicity
 _atom_site_fract_x
 _atom_site_fract_y
 _atom_site_fract_z
 _atom_site_occupancy
  Er  Er0  1  0.331322  0.668676  0.064880  1
  Lu  Lu1  1  0.331099  0.668902  0.435274  1
  Lu  Lu2  1  0.668012  0.331991  0.564231  1
  Lu  Lu3  1  0.668014  0.331987  0.935428  1
  Cr  Cr4  1  0.830301  0.169720  0.250649  1
  Os  Os5  1  0.994069  0.005927  0.496158  1
  Os  Os6  1  0.994070  0.005910  0.003507  1
  Os  Os7  1  0.827066  0.649357  0.250861  1
  Os  Os8  1  0.350649  0.172936  0.250862  1
  Os  Os9  1  0.173495  0.826504  0.749282  1
  Os  Os10  1  0.173265  0.341354  0.749435  1
  Os  Os11  1  0.658640  0.826735  0.749432  1
