# generated using pymatgen
data_Hf9MnNbRe3
_symmetry_space_group_name_H-M   'P 1'
_cell_length_a   8.62643300
_cell_length_b   8.62643128
_cell_length_c   8.51346200
_cell_angle_alpha   90.00000000
_cell_angle_beta   90.00000000
_cell_angle_gamma   119.99999510
_symmetry_Int_Tables_number   1
_chemical_formula_structural   Hf9MnNbRe3
_chemical_formula_sum   'Hf18 Mn2 Nb2 Re6'
_cell_volume   548.65491681
_cell_formula_units_Z   2
loop_
 _symmetry_equiv_pos_site_id
 _symmetry_equiv_pos_as_xyz
  1  'x, y, z'
loop_
 _atom_site_type_symbol
 _atom_site_label
 _atom_site_symmetry_multiplicity
 _atom_site_fract_x
 _atom_site_fract_y
 _atom_site_fract_z
 _atom_site_occupancy
  Hf  Hf0  1  0.201772  0.798228  0.440679  1
  Hf  Hf1  1  0.201772  0.403545  0.440679  1
  Hf  Hf2  1  0.596455  0.798228  0.440679  1
  Hf  Hf3  1  0.798228  0.201772  0.559321  1
  Hf  Hf4  1  0.798228  0.596455  0.559321  1
  Hf  Hf5  1  0.403545  0.201772  0.559321  1
  Hf  Hf6  1  0.798228  0.201772  0.940679  1
  Hf  Hf7  1  0.798228  0.596455  0.940679  1
  Hf  Hf8  1  0.403545  0.201772  0.940679  1
  Hf  Hf9  1  0.201772  0.798228  0.059321  1
  Hf  Hf10  1  0.201772  0.403545  0.059321  1
  Hf  Hf11  1  0.596455  0.798228  0.059321  1
  Hf  Hf12  1  0.540793  0.459207  0.250000  1
  Hf  Hf13  1  0.540793  0.081585  0.250000  1
  Hf  Hf14  1  0.918415  0.459207  0.250000  1
  Hf  Hf15  1  0.459207  0.540793  0.750000  1
  Hf  Hf16  1  0.459207  0.918415  0.750000  1
  Hf  Hf17  1  0.081585  0.540793  0.750000  1
  Mn  Mn18  1  0.333333  0.666667  0.250000  1
  Mn  Mn19  1  0.666667  0.333333  0.750000  1
  Nb  Nb20  1  0.000000  0.000000  0.500000  1
  Nb  Nb21  1  0.000000  0.000000  0.000000  1
  Re  Re22  1  0.885571  0.114429  0.250000  1
  Re  Re23  1  0.885571  0.771145  0.250000  1
  Re  Re24  1  0.228855  0.114429  0.250000  1
  Re  Re25  1  0.114429  0.885571  0.750000  1
  Re  Re26  1  0.114429  0.228855  0.750000  1
  Re  Re27  1  0.771145  0.885571  0.750000  1
