# generated using pymatgen
data_K3Ba3GaSb4
_symmetry_space_group_name_H-M   'P 1'
_cell_length_a   11.08240300
_cell_length_b   11.08240279
_cell_length_c   8.45425600
_cell_angle_alpha   90.00000000
_cell_angle_beta   90.00000000
_cell_angle_gamma   120.00000362
_symmetry_Int_Tables_number   1
_chemical_formula_structural   K3Ba3GaSb4
_chemical_formula_sum   'K6 Ba6 Ga2 Sb8'
_cell_volume   899.23640254
_cell_formula_units_Z   2
loop_
 _symmetry_equiv_pos_site_id
 _symmetry_equiv_pos_as_xyz
  1  'x, y, z'
loop_
 _atom_site_type_symbol
 _atom_site_label
 _atom_site_symmetry_multiplicity
 _atom_site_fract_x
 _atom_site_fract_y
 _atom_site_fract_z
 _atom_site_occupancy
  K  K0  1  0.860232  0.720465  0.960834  1
  K  K1  1  0.860232  0.139768  0.960834  1
  K  K2  1  0.139768  0.279535  0.460834  1
  K  K3  1  0.279535  0.139768  0.960834  1
  K  K4  1  0.139768  0.860232  0.460834  1
  K  K5  1  0.720465  0.860232  0.460834  1
  Ba  Ba6  1  0.480091  0.960181  0.777030  1
  Ba  Ba7  1  0.480091  0.519909  0.777030  1
  Ba  Ba8  1  0.519909  0.039819  0.277030  1
  Ba  Ba9  1  0.039819  0.519909  0.777030  1
  Ba  Ba10  1  0.519909  0.480091  0.277030  1
  Ba  Ba11  1  0.960181  0.480091  0.277030  1
  Ga  Ga12  1  0.666667  0.333333  0.656355  1
  Ga  Ga13  1  0.333333  0.666667  0.156355  1
  Sb  Sb14  1  0.666667  0.333333  0.992269  1
  Sb  Sb15  1  0.333333  0.666667  0.492269  1
  Sb  Sb16  1  0.803474  0.606949  0.554729  1
  Sb  Sb17  1  0.803474  0.196526  0.554729  1
  Sb  Sb18  1  0.196526  0.393051  0.054729  1
  Sb  Sb19  1  0.393051  0.196526  0.554729  1
  Sb  Sb20  1  0.196526  0.803474  0.054729  1
  Sb  Sb21  1  0.606949  0.803474  0.054729  1
