# generated using pymatgen
data_Y3Co8ReP6
_symmetry_space_group_name_H-M   'P 1'
_cell_length_a   3.73737700
_cell_length_b   10.54119300
_cell_length_c   12.24819100
_cell_angle_alpha   90.00000000
_cell_angle_beta   90.00000000
_cell_angle_gamma   90.00000000
_symmetry_Int_Tables_number   1
_chemical_formula_structural   Y3Co8ReP6
_chemical_formula_sum   'Y6 Co16 Re2 P12'
_cell_volume   482.53478221
_cell_formula_units_Z   2
loop_
 _symmetry_equiv_pos_site_id
 _symmetry_equiv_pos_as_xyz
  1  'x, y, z'
loop_
 _atom_site_type_symbol
 _atom_site_label
 _atom_site_symmetry_multiplicity
 _atom_site_fract_x
 _atom_site_fract_y
 _atom_site_fract_z
 _atom_site_occupancy
  Y  Y0  1  0.000000  0.500000  0.524693  1
  Y  Y1  1  0.500000  0.000000  0.475307  1
  Y  Y2  1  0.500000  0.818350  0.205600  1
  Y  Y3  1  0.500000  0.181650  0.205600  1
  Y  Y4  1  0.000000  0.681650  0.794400  1
  Y  Y5  1  0.000000  0.318350  0.794400  1
  Co  Co6  1  0.500000  0.500000  0.702419  1
  Co  Co7  1  0.000000  0.000000  0.297581  1
  Co  Co8  1  0.000000  0.500000  0.988322  1
  Co  Co9  1  0.500000  0.000000  0.011678  1
  Co  Co10  1  0.500000  0.332607  0.989961  1
  Co  Co11  1  0.500000  0.667393  0.989961  1
  Co  Co12  1  0.000000  0.167393  0.010039  1
  Co  Co13  1  0.000000  0.832607  0.010039  1
  Co  Co14  1  0.500000  0.296410  0.431066  1
  Co  Co15  1  0.500000  0.703590  0.431066  1
  Co  Co16  1  0.000000  0.203590  0.568934  1
  Co  Co17  1  0.000000  0.796410  0.568934  1
  Co  Co18  1  0.500000  0.879358  0.709109  1
  Co  Co19  1  0.500000  0.120642  0.709109  1
  Co  Co20  1  0.000000  0.620642  0.290891  1
  Co  Co21  1  0.000000  0.379358  0.290891  1
  Re  Re22  1  0.500000  0.500000  0.156198  1
  Re  Re23  1  0.000000  0.000000  0.843802  1
  P  P24  1  0.500000  0.500000  0.880675  1
  P  P25  1  0.000000  0.000000  0.119325  1
  P  P26  1  0.500000  0.500000  0.348693  1
  P  P27  1  0.000000  0.000000  0.651307  1
  P  P28  1  0.500000  0.311599  0.616198  1
  P  P29  1  0.500000  0.688401  0.616198  1
  P  P30  1  0.000000  0.188401  0.383802  1
  P  P31  1  0.000000  0.811599  0.383802  1
  P  P32  1  0.500000  0.845960  0.892843  1
  P  P33  1  0.500000  0.154040  0.892843  1
  P  P34  1  0.000000  0.654040  0.107157  1
  P  P35  1  0.000000  0.345960  0.107157  1
