# generated using pymatgen
data_LiTm3Ir8
_symmetry_space_group_name_H-M   'P 1'
_cell_length_a   5.29521000
_cell_length_b   5.29521054
_cell_length_c   8.59424800
_cell_angle_alpha   90.00000000
_cell_angle_beta   90.00000000
_cell_angle_gamma   119.99999664
_symmetry_Int_Tables_number   1
_chemical_formula_structural   LiTm3Ir8
_chemical_formula_sum   'Li1 Tm3 Ir8'
_cell_volume   208.69159043
_cell_formula_units_Z   1
loop_
 _symmetry_equiv_pos_site_id
 _symmetry_equiv_pos_as_xyz
  1  'x, y, z'
loop_
 _atom_site_type_symbol
 _atom_site_label
 _atom_site_symmetry_multiplicity
 _atom_site_fract_x
 _atom_site_fract_y
 _atom_site_fract_z
 _atom_site_occupancy
  Li  Li0  1  0.333334  0.666668  0.063062  1
  Tm  Tm1  1  0.333334  0.666668  0.413116  1
  Tm  Tm2  1  0.666667  0.333333  0.570426  1
  Tm  Tm3  1  0.666667  0.333333  0.945385  1
  Ir  Ir4  1  0.000000  0.000000  0.001467  1
  Ir  Ir5  1  0.338973  0.169487  0.249834  1
  Ir  Ir6  1  0.830513  0.169487  0.249834  1
  Ir  Ir7  1  0.830513  0.661025  0.249834  1
  Ir  Ir8  1  0.000000  0.000000  0.502031  1
  Ir  Ir9  1  0.171317  0.342634  0.751669  1
  Ir  Ir10  1  0.171318  0.828684  0.751669  1
  Ir  Ir11  1  0.657366  0.828684  0.751669  1
