# generated using pymatgen
data_ZnGa17Ir4
_symmetry_space_group_name_H-M   'P 1'
_cell_length_a   6.40966591
_cell_length_b   6.51774875
_cell_length_c   8.97223427
_cell_angle_alpha   86.05786961
_cell_angle_beta   90.18250678
_cell_angle_gamma   90.34595060
_symmetry_Int_Tables_number   1
_chemical_formula_structural   ZnGa17Ir4
_chemical_formula_sum   'Zn1 Ga17 Ir4'
_cell_volume   373.93426446
_cell_formula_units_Z   1
loop_
 _symmetry_equiv_pos_site_id
 _symmetry_equiv_pos_as_xyz
  1  'x, y, z'
loop_
 _atom_site_type_symbol
 _atom_site_label
 _atom_site_symmetry_multiplicity
 _atom_site_fract_x
 _atom_site_fract_y
 _atom_site_fract_z
 _atom_site_occupancy
  Zn  Zn0  1  0.738516  0.028512  0.473555  1
  Ga  Ga1  1  0.260471  0.030747  0.971733  1
  Ga  Ga2  1  0.660933  0.217337  0.962869  1
  Ga  Ga3  1  0.346456  0.214540  0.462821  1
  Ga  Ga4  1  0.760927  0.600682  0.772949  1
  Ga  Ga5  1  0.239623  0.596433  0.272372  1
  Ga  Ga6  1  0.737931  0.396004  0.234936  1
  Ga  Ga7  1  0.261229  0.401395  0.735129  1
  Ga  Ga8  1  0.555772  0.616972  0.499105  1
  Ga  Ga9  1  0.447427  0.613938  0.001253  1
  Ga  Ga10  1  0.946161  0.394620  0.507075  1
  Ga  Ga11  1  0.050909  0.399327  0.007428  1
  Ga  Ga12  1  0.476874  0.896066  0.715008  1
  Ga  Ga13  1  0.528386  0.893093  0.222652  1
  Ga  Ga14  1  0.040331  0.089123  0.271856  1
  Ga  Ga15  1  0.953382  0.090380  0.764056  1
  Ga  Ga16  1  0.133738  0.801109  0.542727  1
  Ga  Ga17  1  0.860917  0.798452  0.043036  1
  Ir  Ir18  1  0.620688  0.265246  0.671858  1
  Ir  Ir19  1  0.376554  0.257125  0.169745  1
  Ir  Ir20  1  0.877357  0.732967  0.329813  1
  Ir  Ir21  1  0.125418  0.740235  0.831286  1
