# generated using pymatgen
data_LaEu2PaH12
_symmetry_space_group_name_H-M   'P 1'
_cell_length_a   7.01257600
_cell_length_b   7.12599300
_cell_length_c   7.01257600
_cell_angle_alpha   90.00000000
_cell_angle_beta   90.00000000
_cell_angle_gamma   90.00000000
_symmetry_Int_Tables_number   1
_chemical_formula_structural   LaEu2PaH12
_chemical_formula_sum   'La2 Eu4 Pa2 H24'
_cell_volume   350.42941485
_cell_formula_units_Z   2
loop_
 _symmetry_equiv_pos_site_id
 _symmetry_equiv_pos_as_xyz
  1  'x, y, z'
loop_
 _atom_site_type_symbol
 _atom_site_label
 _atom_site_symmetry_multiplicity
 _atom_site_fract_x
 _atom_site_fract_y
 _atom_site_fract_z
 _atom_site_occupancy
  La  La0  1  0.500000  0.750000  0.000000  1
  La  La1  1  0.500000  0.250000  0.000000  1
  Eu  Eu2  1  0.247538  0.000000  0.500000  1
  Eu  Eu3  1  0.752462  0.000000  0.500000  1
  Eu  Eu4  1  0.000000  0.500000  0.252462  1
  Eu  Eu5  1  0.000000  0.500000  0.747538  1
  Pa  Pa6  1  0.000000  0.000000  0.000000  1
  Pa  Pa7  1  0.500000  0.500000  0.500000  1
  H  H8  1  0.000000  0.148579  0.281538  1
  H  H9  1  0.500000  0.222714  0.651817  1
  H  H10  1  0.500000  0.777286  0.348183  1
  H  H11  1  0.781538  0.648579  0.500000  1
  H  H12  1  0.218462  0.648579  0.500000  1
  H  H13  1  0.352984  0.500000  0.793207  1
  H  H14  1  0.647016  0.500000  0.793207  1
  H  H15  1  0.293207  0.000000  0.147016  1
  H  H16  1  0.151817  0.277286  0.000000  1
  H  H17  1  0.848183  0.722714  0.000000  1
  H  H18  1  0.293207  0.000000  0.852984  1
  H  H19  1  0.848183  0.277286  0.000000  1
  H  H20  1  0.706793  0.000000  0.147016  1
  H  H21  1  0.706793  0.000000  0.852984  1
  H  H22  1  0.151817  0.722714  0.000000  1
  H  H23  1  0.000000  0.851421  0.718462  1
  H  H24  1  0.000000  0.148579  0.718462  1
  H  H25  1  0.000000  0.851421  0.281538  1
  H  H26  1  0.647016  0.500000  0.206793  1
  H  H27  1  0.352984  0.500000  0.206793  1
  H  H28  1  0.781538  0.351421  0.500000  1
  H  H29  1  0.218462  0.351421  0.500000  1
  H  H30  1  0.500000  0.777286  0.651817  1
  H  H31  1  0.500000  0.222714  0.348183  1
