# generated using pymatgen
data_CaPrMn(Si3Pd10)2
_symmetry_space_group_name_H-M   'P 1'
_cell_length_a   8.70635423
_cell_length_b   8.70635299
_cell_length_c   8.70635500
_cell_angle_alpha   59.99999615
_cell_angle_beta   60.00000086
_cell_angle_gamma   59.99999586
_symmetry_Int_Tables_number   1
_chemical_formula_structural   CaPrMn(Si3Pd10)2
_chemical_formula_sum   'Ca1 Pr1 Mn1 Si6 Pd20'
_cell_volume   466.65288386
_cell_formula_units_Z   1
loop_
 _symmetry_equiv_pos_site_id
 _symmetry_equiv_pos_as_xyz
  1  'x, y, z'
loop_
 _atom_site_type_symbol
 _atom_site_label
 _atom_site_symmetry_multiplicity
 _atom_site_fract_x
 _atom_site_fract_y
 _atom_site_fract_z
 _atom_site_occupancy
  Ca  Ca0  1  0.250000  0.250000  0.250000  1
  Pr  Pr1  1  0.750000  0.750000  0.750000  1
  Mn  Mn2  1  0.000000  0.000000  0.000000  1
  Si  Si3  1  0.733537  0.266463  0.266463  1
  Si  Si4  1  0.266463  0.733537  0.733537  1
  Si  Si5  1  0.266463  0.733537  0.266463  1
  Si  Si6  1  0.733537  0.266463  0.733537  1
  Si  Si7  1  0.266463  0.266463  0.733537  1
  Si  Si8  1  0.733537  0.733537  0.266463  1
  Pd  Pd9  1  0.384681  0.384681  0.384681  1
  Pd  Pd10  1  0.614649  0.614649  0.614649  1
  Pd  Pd11  1  0.384681  0.384681  0.845958  1
  Pd  Pd12  1  0.384681  0.845958  0.384681  1
  Pd  Pd13  1  0.614649  0.614649  0.156054  1
  Pd  Pd14  1  0.614649  0.156054  0.614649  1
  Pd  Pd15  1  0.845958  0.384681  0.384681  1
  Pd  Pd16  1  0.156054  0.614649  0.614649  1
  Pd  Pd17  1  0.342564  0.999734  0.999734  1
  Pd  Pd18  1  0.657968  0.999734  0.999734  1
  Pd  Pd19  1  0.999734  0.342564  0.657968  1
  Pd  Pd20  1  0.999734  0.657968  0.342564  1
  Pd  Pd21  1  0.999734  0.342564  0.999734  1
  Pd  Pd22  1  0.657968  0.999734  0.342564  1
  Pd  Pd23  1  0.999734  0.657968  0.999734  1
  Pd  Pd24  1  0.342564  0.999734  0.657968  1
  Pd  Pd25  1  0.999734  0.999734  0.342564  1
  Pd  Pd26  1  0.999734  0.999734  0.657968  1
  Pd  Pd27  1  0.657968  0.342564  0.999734  1
  Pd  Pd28  1  0.342564  0.657968  0.999734  1
