# generated using pymatgen
data_Tb6Al24Co3Os5
_symmetry_space_group_name_H-M   'P 1'
_cell_length_a   8.80444100
_cell_length_b   8.76594552
_cell_length_c   9.49049272
_cell_angle_alpha   90.25208894
_cell_angle_beta   90.00000000
_cell_angle_gamma   120.14537189
_symmetry_Int_Tables_number   1
_chemical_formula_structural   Tb6Al24Co3Os5
_chemical_formula_sum   'Tb6 Al24 Co3 Os5'
_cell_volume   633.39740146
_cell_formula_units_Z   1
loop_
 _symmetry_equiv_pos_site_id
 _symmetry_equiv_pos_as_xyz
  1  'x, y, z'
loop_
 _atom_site_type_symbol
 _atom_site_label
 _atom_site_symmetry_multiplicity
 _atom_site_fract_x
 _atom_site_fract_y
 _atom_site_fract_z
 _atom_site_occupancy
  Tb  Tb0  1  0.194275  0.388549  0.248207  1
  Tb  Tb1  1  0.805725  0.611451  0.751793  1
  Tb  Tb2  1  0.612722  0.803857  0.250493  1
  Tb  Tb3  1  0.387278  0.196143  0.749507  1
  Tb  Tb4  1  0.191135  0.803857  0.250493  1
  Tb  Tb5  1  0.808865  0.196143  0.749507  1
  Al  Al6  1  0.336595  0.673191  0.014576  1
  Al  Al7  1  0.663405  0.326809  0.985424  1
  Al  Al8  1  0.666733  0.333464  0.514349  1
  Al  Al9  1  0.333267  0.666536  0.485651  1
  Al  Al10  1  0.159820  0.319639  0.574503  1
  Al  Al11  1  0.840180  0.680361  0.425497  1
  Al  Al12  1  0.680402  0.840704  0.575785  1
  Al  Al13  1  0.839304  0.678609  0.074939  1
  Al  Al14  1  0.319598  0.159296  0.424215  1
  Al  Al15  1  0.160696  0.321391  0.925061  1
  Al  Al16  1  0.160303  0.840704  0.575785  1
  Al  Al17  1  0.320532  0.158609  0.074654  1
  Al  Al18  1  0.839697  0.159296  0.424215  1
  Al  Al19  1  0.679468  0.841391  0.925346  1
  Al  Al20  1  0.838075  0.158609  0.074654  1
  Al  Al21  1  0.161925  0.841391  0.925346  1
  Al  Al22  1  0.559283  0.118566  0.244514  1
  Al  Al23  1  0.440717  0.881434  0.755486  1
  Al  Al24  1  0.875304  0.436513  0.249148  1
  Al  Al25  1  0.124696  0.563487  0.750852  1
  Al  Al26  1  0.561209  0.436513  0.249148  1
  Al  Al27  1  0.438791  0.563487  0.750852  1
  Al  Al28  1  0.999555  0.999111  0.250119  1
  Al  Al29  1  0.000445  0.000889  0.749881  1
  Co  Co30  1  0.500000  0.000000  0.000000  1
  Co  Co31  1  0.000000  0.000000  0.000000  1
  Co  Co32  1  0.000000  0.000000  0.500000  1
  Os  Os33  1  0.000000  0.500000  0.000000  1
  Os  Os34  1  0.500000  0.000000  0.500000  1
  Os  Os35  1  0.500000  0.500000  0.000000  1
  Os  Os36  1  0.000000  0.500000  0.500000  1
  Os  Os37  1  0.500000  0.500000  0.500000  1
