# generated using pymatgen
data_Ce3Th(B2Os)4
_symmetry_space_group_name_H-M   'P 1'
_cell_length_a   5.38883900
_cell_length_b   5.93120553
_cell_length_c   6.56215756
_cell_angle_alpha   90.13566719
_cell_angle_beta   90.00000000
_cell_angle_gamma   90.00000000
_symmetry_Int_Tables_number   1
_chemical_formula_structural   Ce3Th(B2Os)4
_chemical_formula_sum   'Ce3 Th1 B8 Os4'
_cell_volume   209.74113733
_cell_formula_units_Z   1
loop_
 _symmetry_equiv_pos_site_id
 _symmetry_equiv_pos_as_xyz
  1  'x, y, z'
loop_
 _atom_site_type_symbol
 _atom_site_label
 _atom_site_symmetry_multiplicity
 _atom_site_fract_x
 _atom_site_fract_y
 _atom_site_fract_z
 _atom_site_occupancy
  Ce  Ce0  1  0.250000  0.003806  0.340128  1
  Ce  Ce1  1  0.250000  0.504230  0.163294  1
  Ce  Ce2  1  0.750000  0.996778  0.657614  1
  Th  Th3  1  0.750000  0.497191  0.843738  1
  B  B4  1  0.088372  0.370955  0.535767  1
  B  B5  1  0.411577  0.872421  0.963122  1
  B  B6  1  0.587934  0.628785  0.461382  1
  B  B7  1  0.912794  0.126187  0.037767  1
  B  B8  1  0.912066  0.628785  0.461382  1
  B  B9  1  0.587206  0.126187  0.037767  1
  B  B10  1  0.411628  0.370955  0.535767  1
  B  B11  1  0.088423  0.872421  0.963122  1
  Os  Os12  1  0.250000  0.184639  0.810800  1
  Os  Os13  1  0.250000  0.686582  0.687317  1
  Os  Os14  1  0.750000  0.816024  0.189213  1
  Os  Os15  1  0.750000  0.314055  0.311819  1
