# generated using pymatgen
data_La7Pr9(NdSi4)4
_symmetry_space_group_name_H-M   'P 1'
_cell_length_a   7.95411089
_cell_length_b   7.95669487
_cell_length_c   15.42043506
_cell_angle_alpha   90.04732692
_cell_angle_beta   89.97747656
_cell_angle_gamma   90.04128282
_symmetry_Int_Tables_number   1
_chemical_formula_structural   La7Pr9(NdSi4)4
_chemical_formula_sum   'La7 Pr9 Nd4 Si16'
_cell_volume   975.93451439
_cell_formula_units_Z   1
loop_
 _symmetry_equiv_pos_site_id
 _symmetry_equiv_pos_as_xyz
  1  'x, y, z'
loop_
 _atom_site_type_symbol
 _atom_site_label
 _atom_site_symmetry_multiplicity
 _atom_site_fract_x
 _atom_site_fract_y
 _atom_site_fract_z
 _atom_site_occupancy
  La  La0  1  0.012779  0.378293  0.552517  1
  La  La1  1  0.622193  0.986769  0.947908  1
  La  La2  1  0.121596  0.513332  0.802982  1
  La  La3  1  0.877982  0.487046  0.302167  1
  La  La4  1  0.512647  0.121891  0.197393  1
  La  La5  1  0.486997  0.878132  0.697513  1
  La  La6  1  0.378141  0.012709  0.447259  1
  Pr  Pr7  1  0.373405  0.481076  0.373096  1
  Pr  Pr8  1  0.873256  0.018589  0.376418  1
  Pr  Pr9  1  0.980959  0.126186  0.123090  1
  Pr  Pr10  1  0.018862  0.873508  0.623237  1
  Pr  Pr11  1  0.627102  0.519856  0.873754  1
  Pr  Pr12  1  0.481180  0.373389  0.626710  1
  Pr  Pr13  1  0.519480  0.627155  0.126370  1
  Pr  Pr14  1  0.126000  0.980960  0.877048  1
  Pr  Pr15  1  0.988696  0.619635  0.053454  1
  Nd  Nd16  1  0.691424  0.691792  0.500157  1
  Nd  Nd17  1  0.808512  0.191731  0.750196  1
  Nd  Nd18  1  0.191603  0.807885  0.249797  1
  Nd  Nd19  1  0.308207  0.308656  0.000102  1
  Si  Si20  1  0.079854  0.713328  0.439421  1
  Si  Si21  1  0.920913  0.287958  0.939809  1
  Si  Si22  1  0.713614  0.079909  0.560420  1
  Si  Si23  1  0.213150  0.420974  0.189101  1
  Si  Si24  1  0.786329  0.579482  0.689541  1
  Si  Si25  1  0.420385  0.213432  0.810621  1
  Si  Si26  1  0.580125  0.786152  0.310116  1
  Si  Si27  1  0.285335  0.919636  0.060498  1
  Si  Si28  1  0.830130  0.806524  0.795687  1
  Si  Si29  1  0.169031  0.194387  0.295757  1
  Si  Si30  1  0.806743  0.829885  0.203016  1
  Si  Si31  1  0.305808  0.669342  0.546032  1
  Si  Si32  1  0.695080  0.331935  0.046359  1
  Si  Si33  1  0.669558  0.305890  0.453911  1
  Si  Si34  1  0.328755  0.693168  0.954454  1
  Si  Si35  1  0.194168  0.169407  0.704087  1
