# generated using pymatgen
data_LiSm3In3AgRh
_symmetry_space_group_name_H-M   'P 1'
_cell_length_a   7.85328400
_cell_length_b   7.85328398
_cell_length_c   3.94669500
_cell_angle_alpha   90.00000000
_cell_angle_beta   90.00000000
_cell_angle_gamma   119.99999166
_symmetry_Int_Tables_number   1
_chemical_formula_structural   LiSm3In3AgRh
_chemical_formula_sum   'Li1 Sm3 In3 Ag1 Rh1'
_cell_volume   210.79817126
_cell_formula_units_Z   1
loop_
 _symmetry_equiv_pos_site_id
 _symmetry_equiv_pos_as_xyz
  1  'x, y, z'
loop_
 _atom_site_type_symbol
 _atom_site_label
 _atom_site_symmetry_multiplicity
 _atom_site_fract_x
 _atom_site_fract_y
 _atom_site_fract_z
 _atom_site_occupancy
  Li  Li0  1  0.000000  0.000000  0.500000  1
  Sm  Sm1  1  0.975271  0.401679  0.500000  1
  Sm  Sm2  1  0.598321  0.573592  0.500000  1
  Sm  Sm3  1  0.426408  0.024729  0.500000  1
  In  In4  1  0.251634  0.251503  0.000000  1
  In  In5  1  0.999869  0.748366  0.000000  1
  In  In6  1  0.748497  0.000131  0.000000  1
  Ag  Ag7  1  0.333333  0.666667  0.000000  1
  Rh  Rh8  1  0.666667  0.333333  0.000000  1
