# generated using pymatgen
data_Ba4MnFeReSbO12
_symmetry_space_group_name_H-M   'P 1'
_cell_length_a   10.06885918
_cell_length_b   10.06885968
_cell_length_c   10.06886000
_cell_angle_alpha   34.00432447
_cell_angle_beta   34.00432023
_cell_angle_gamma   34.00432292
_symmetry_Int_Tables_number   1
_chemical_formula_structural   Ba4MnFeReSbO12
_chemical_formula_sum   'Ba4 Mn1 Fe1 Re1 Sb1 O12'
_cell_volume   284.59379525
_cell_formula_units_Z   1
loop_
 _symmetry_equiv_pos_site_id
 _symmetry_equiv_pos_as_xyz
  1  'x, y, z'
loop_
 _atom_site_type_symbol
 _atom_site_label
 _atom_site_symmetry_multiplicity
 _atom_site_fract_x
 _atom_site_fract_y
 _atom_site_fract_z
 _atom_site_occupancy
  Ba  Ba0  1  0.622563  0.622563  0.622563  1
  Ba  Ba1  1  0.127571  0.127571  0.127571  1
  Ba  Ba2  1  0.871495  0.871495  0.871495  1
  Ba  Ba3  1  0.377944  0.377944  0.377944  1
  Mn  Mn4  1  0.248225  0.248225  0.248225  1
  Fe  Fe5  1  0.752293  0.752293  0.752293  1
  Re  Re6  1  0.000666  0.000666  0.000666  1
  Sb  Sb7  1  0.499638  0.499638  0.499638  1
  O  O8  1  0.116057  0.116057  0.654762  1
  O  O9  1  0.617630  0.617630  0.137909  1
  O  O10  1  0.380903  0.861095  0.380903  1
  O  O11  1  0.884793  0.347075  0.884793  1
  O  O12  1  0.654762  0.116057  0.116057  1
  O  O13  1  0.137909  0.617630  0.617630  1
  O  O14  1  0.380903  0.380903  0.861095  1
  O  O15  1  0.884793  0.884793  0.347075  1
  O  O16  1  0.116057  0.654762  0.116057  1
  O  O17  1  0.617630  0.137909  0.617630  1
  O  O18  1  0.861095  0.380903  0.380903  1
  O  O19  1  0.347075  0.884793  0.884793  1
