# generated using pymatgen
data_NdGd6FeI12
_symmetry_space_group_name_H-M   'P 1'
_cell_length_a   9.81056222
_cell_length_b   9.81056219
_cell_length_c   9.81056200
_cell_angle_alpha   106.94893485
_cell_angle_beta   106.94893480
_cell_angle_gamma   106.94893501
_symmetry_Int_Tables_number   1
_chemical_formula_structural   NdGd6FeI12
_chemical_formula_sum   'Nd1 Gd6 Fe1 I12'
_cell_volume   787.46365914
_cell_formula_units_Z   1
loop_
 _symmetry_equiv_pos_site_id
 _symmetry_equiv_pos_as_xyz
  1  'x, y, z'
loop_
 _atom_site_type_symbol
 _atom_site_label
 _atom_site_symmetry_multiplicity
 _atom_site_fract_x
 _atom_site_fract_y
 _atom_site_fract_z
 _atom_site_occupancy
  Nd  Nd0  1  0.500000  0.500000  0.500000  1
  Gd  Gd1  1  0.973267  0.903891  0.704829  1
  Gd  Gd2  1  0.026733  0.096109  0.295171  1
  Gd  Gd3  1  0.096356  0.295080  0.024995  1
  Gd  Gd4  1  0.294568  0.026064  0.097573  1
  Gd  Gd5  1  0.903644  0.704920  0.975005  1
  Gd  Gd6  1  0.705432  0.973936  0.902427  1
  Fe  Fe7  1  0.000000  0.000000  0.000000  1
  I  I8  1  0.536665  0.617394  0.850427  1
  I  I9  1  0.463335  0.382606  0.149573  1
  I  I10  1  0.319737  0.927184  0.774111  1
  I  I11  1  0.382573  0.149563  0.463223  1
  I  I12  1  0.927093  0.774207  0.319648  1
  I  I13  1  0.680263  0.072816  0.225889  1
  I  I14  1  0.072907  0.225793  0.680352  1
  I  I15  1  0.774253  0.319706  0.927147  1
  I  I16  1  0.225747  0.680294  0.072853  1
  I  I17  1  0.850471  0.536764  0.617526  1
  I  I18  1  0.149529  0.463236  0.382474  1
  I  I19  1  0.617427  0.850437  0.536777  1
