# generated using pymatgen
data_Ho3SiPt5
_symmetry_space_group_name_H-M   'P 1'
_cell_length_a   8.19947158
_cell_length_b   8.19947131
_cell_length_c   8.19947072
_cell_angle_alpha   127.58956634
_cell_angle_beta   126.01236436
_cell_angle_gamma   78.58226752
_symmetry_Int_Tables_number   1
_chemical_formula_structural   Ho3SiPt5
_chemical_formula_sum   'Ho6 Si2 Pt10'
_cell_volume   342.05458696
_cell_formula_units_Z   2
loop_
 _symmetry_equiv_pos_site_id
 _symmetry_equiv_pos_as_xyz
  1  'x, y, z'
loop_
 _atom_site_type_symbol
 _atom_site_label
 _atom_site_symmetry_multiplicity
 _atom_site_fract_x
 _atom_site_fract_y
 _atom_site_fract_z
 _atom_site_occupancy
  Ho  Ho0  1  0.827687  0.548473  0.279214  1
  Ho  Ho1  1  0.613687  0.250000  0.363687  1
  Ho  Ho2  1  0.172313  0.451527  0.720786  1
  Ho  Ho3  1  0.386313  0.750000  0.636313  1
  Ho  Ho4  1  0.230741  0.951527  0.279214  1
  Ho  Ho5  1  0.769259  0.048473  0.720786  1
  Si  Si6  1  0.221219  0.250000  0.971219  1
  Si  Si7  1  0.778781  0.750000  0.028781  1
  Pt  Pt8  1  0.169362  0.899286  0.855779  1
  Pt  Pt9  1  0.830638  0.100714  0.144221  1
  Pt  Pt10  1  0.456493  0.186417  0.855779  1
  Pt  Pt11  1  0.543507  0.399286  0.729924  1
  Pt  Pt12  1  0.830638  0.686417  0.729924  1
  Pt  Pt13  1  0.456493  0.600714  0.270076  1
  Pt  Pt14  1  0.543507  0.813583  0.144221  1
  Pt  Pt15  1  0.169362  0.313583  0.270076  1
  Pt  Pt16  1  0.000000  0.000000  0.500000  1
  Pt  Pt17  1  0.000000  0.500000  0.000000  1
