# generated using pymatgen
data_Er4Cu3Rh
_symmetry_space_group_name_H-M   'P 1'
_cell_length_a   6.97682323
_cell_length_b   4.43188200
_cell_length_c   5.42056808
_cell_angle_alpha   90.00000000
_cell_angle_beta   90.23153010
_cell_angle_gamma   90.00000000
_symmetry_Int_Tables_number   1
_chemical_formula_structural   Er4Cu3Rh
_chemical_formula_sum   'Er4 Cu3 Rh1'
_cell_volume   167.60507513
_cell_formula_units_Z   1
loop_
 _symmetry_equiv_pos_site_id
 _symmetry_equiv_pos_as_xyz
  1  'x, y, z'
loop_
 _atom_site_type_symbol
 _atom_site_label
 _atom_site_symmetry_multiplicity
 _atom_site_fract_x
 _atom_site_fract_y
 _atom_site_fract_z
 _atom_site_occupancy
  Er  Er0  1  0.688976  0.750000  0.136590  1
  Er  Er1  1  0.175179  0.750000  0.357547  1
  Er  Er2  1  0.821245  0.250001  0.635609  1
  Er  Er3  1  0.315733  0.250001  0.866551  1
  Cu  Cu4  1  0.466323  0.250001  0.374287  1
  Cu  Cu5  1  0.528799  0.750000  0.622522  1
  Cu  Cu6  1  0.040768  0.750000  0.860388  1
  Rh  Rh7  1  0.962976  0.250001  0.146505  1
