# generated using pymatgen
data_Y5Er11(AgPt)4
_symmetry_space_group_name_H-M   'P 1'
_cell_length_a   9.60134764
_cell_length_b   9.60124631
_cell_length_c   9.60124700
_cell_angle_alpha   60.01331304
_cell_angle_beta   59.99965424
_cell_angle_gamma   59.99966166
_symmetry_Int_Tables_number   1
_chemical_formula_structural   Y5Er11(AgPt)4
_chemical_formula_sum   'Y5 Er11 Ag4 Pt4'
_cell_volume   625.91286997
_cell_formula_units_Z   1
loop_
 _symmetry_equiv_pos_site_id
 _symmetry_equiv_pos_as_xyz
  1  'x, y, z'
loop_
 _atom_site_type_symbol
 _atom_site_label
 _atom_site_symmetry_multiplicity
 _atom_site_fract_x
 _atom_site_fract_y
 _atom_site_fract_z
 _atom_site_occupancy
  Y  Y0  1  0.564014  0.935986  0.935968  1
  Y  Y1  1  0.565267  0.934683  0.564581  1
  Y  Y2  1  0.935490  0.564577  0.934661  1
  Y  Y3  1  0.565260  0.564575  0.934693  1
  Y  Y4  1  0.935497  0.934675  0.564545  1
  Er  Er5  1  0.353291  0.355075  0.355067  1
  Er  Er6  1  0.354689  0.356699  0.933904  1
  Er  Er7  1  0.354695  0.933898  0.356712  1
  Er  Er8  1  0.936576  0.355077  0.355048  1
  Er  Er9  1  0.811516  0.188482  0.188501  1
  Er  Er10  1  0.188043  0.811968  0.811962  1
  Er  Er11  1  0.188186  0.811604  0.188531  1
  Er  Er12  1  0.811687  0.188516  0.811601  1
  Er  Er13  1  0.188197  0.188522  0.811603  1
  Er  Er14  1  0.811690  0.811593  0.188533  1
  Er  Er15  1  0.936095  0.563889  0.563888  1
  Ag  Ag16  1  0.583905  0.581924  0.581912  1
  Ag  Ag17  1  0.582191  0.581873  0.253762  1
  Ag  Ag18  1  0.582172  0.253773  0.581867  1
  Ag  Ag19  1  0.252243  0.581906  0.581943  1
  Pt  Pt20  1  0.144768  0.144278  0.144288  1
  Pt  Pt21  1  0.143923  0.144252  0.567905  1
  Pt  Pt22  1  0.143929  0.567908  0.144245  1
  Pt  Pt23  1  0.566676  0.144268  0.144282  1
