# generated using pymatgen
data_ErLuZnB2Ir5
_symmetry_space_group_name_H-M   'P 1'
_cell_length_a   9.57635262
_cell_length_b   9.57635262
_cell_length_c   3.11852400
_cell_angle_alpha   90.00000000
_cell_angle_beta   90.00000000
_cell_angle_gamma   89.62742296
_symmetry_Int_Tables_number   1
_chemical_formula_structural   ErLuZnB2Ir5
_chemical_formula_sum   'Er2 Lu2 Zn2 B4 Ir10'
_cell_volume   285.98296652
_cell_formula_units_Z   2
loop_
 _symmetry_equiv_pos_site_id
 _symmetry_equiv_pos_as_xyz
  1  'x, y, z'
loop_
 _atom_site_type_symbol
 _atom_site_label
 _atom_site_symmetry_multiplicity
 _atom_site_fract_x
 _atom_site_fract_y
 _atom_site_fract_z
 _atom_site_occupancy
  Er  Er0  1  0.677729  0.177729  0.000000  1
  Er  Er1  1  0.322271  0.822271  0.000000  1
  Lu  Lu2  1  0.177101  0.322899  0.000000  1
  Lu  Lu3  1  0.822899  0.677101  0.000000  1
  Zn  Zn4  1  0.000000  0.000000  0.000000  1
  Zn  Zn5  1  0.500000  0.500000  0.000000  1
  B  B6  1  0.124463  0.624463  0.000000  1
  B  B7  1  0.875537  0.375537  0.000000  1
  B  B8  1  0.625415  0.874585  0.000000  1
  B  B9  1  0.374585  0.125415  0.000000  1
  Ir  Ir10  1  0.218860  0.069638  0.500000  1
  Ir  Ir11  1  0.781140  0.930362  0.500000  1
  Ir  Ir12  1  0.066314  0.779810  0.500000  1
  Ir  Ir13  1  0.720190  0.433686  0.500000  1
  Ir  Ir14  1  0.933686  0.220190  0.500000  1
  Ir  Ir15  1  0.279810  0.566314  0.500000  1
  Ir  Ir16  1  0.569638  0.718860  0.500000  1
  Ir  Ir17  1  0.430362  0.281140  0.500000  1
  Ir  Ir18  1  0.500000  0.000000  0.500000  1
  Ir  Ir19  1  0.000000  0.500000  0.500000  1
