# generated using pymatgen
data_La9Pa2In9Rh4
_symmetry_space_group_name_H-M   'P 1'
_cell_length_a   13.77995698
_cell_length_b   13.77975300
_cell_length_c   3.73956300
_cell_angle_alpha   90.00000000
_cell_angle_beta   90.00000000
_cell_angle_gamma   111.87414116
_symmetry_Int_Tables_number   1
_chemical_formula_structural   La9Pa2In9Rh4
_chemical_formula_sum   'La9 Pa2 In9 Rh4'
_cell_volume   658.96178556
_cell_formula_units_Z   1
loop_
 _symmetry_equiv_pos_site_id
 _symmetry_equiv_pos_as_xyz
  1  'x, y, z'
loop_
 _atom_site_type_symbol
 _atom_site_label
 _atom_site_symmetry_multiplicity
 _atom_site_fract_x
 _atom_site_fract_y
 _atom_site_fract_z
 _atom_site_occupancy
  La  La0  1  0.000000  0.000000  0.000000  1
  La  La1  1  0.072697  0.417533  0.000000  1
  La  La2  1  0.927303  0.582467  0.000000  1
  La  La3  1  0.417541  0.072702  0.000000  1
  La  La4  1  0.582459  0.927298  0.000000  1
  La  La5  1  0.842306  0.157685  0.000000  1
  La  La6  1  0.157694  0.842315  0.000000  1
  La  La7  1  0.625296  0.374706  0.000000  1
  La  La8  1  0.374704  0.625294  0.000000  1
  Pa  Pa9  1  0.317289  0.317295  0.000000  1
  Pa  Pa10  1  0.682711  0.682705  0.000000  1
  In  In11  1  0.837667  0.365248  0.500000  1
  In  In12  1  0.162333  0.634752  0.500000  1
  In  In13  1  0.365256  0.837655  0.500000  1
  In  In14  1  0.634744  0.162345  0.500000  1
  In  In15  1  0.082168  0.219771  0.500000  1
  In  In16  1  0.917832  0.780229  0.500000  1
  In  In17  1  0.219773  0.082169  0.500000  1
  In  In18  1  0.780227  0.917831  0.500000  1
  In  In19  1  0.500000  0.500000  0.500000  1
  Rh  Rh20  1  0.252990  0.420994  0.500000  1
  Rh  Rh21  1  0.747010  0.579006  0.500000  1
  Rh  Rh22  1  0.420972  0.252998  0.500000  1
  Rh  Rh23  1  0.579028  0.747002  0.500000  1
