# generated using pymatgen
data_Er10Cd2InNi
_symmetry_space_group_name_H-M   'P 1'
_cell_length_a   9.60174396
_cell_length_b   9.64908138
_cell_length_c   9.54297400
_cell_angle_alpha   90.00000000
_cell_angle_beta   90.00000000
_cell_angle_gamma   120.16321105
_symmetry_Int_Tables_number   1
_chemical_formula_structural   Er10Cd2InNi
_chemical_formula_sum   'Er20 Cd4 In2 Ni2'
_cell_volume   764.42320113
_cell_formula_units_Z   2
loop_
 _symmetry_equiv_pos_site_id
 _symmetry_equiv_pos_as_xyz
  1  'x, y, z'
loop_
 _atom_site_type_symbol
 _atom_site_label
 _atom_site_symmetry_multiplicity
 _atom_site_fract_x
 _atom_site_fract_y
 _atom_site_fract_z
 _atom_site_occupancy
  Er  Er0  1  0.003154  0.001577  0.504009  1
  Er  Er1  1  0.003154  0.001577  0.995991  1
  Er  Er2  1  0.540843  0.453372  0.250000  1
  Er  Er3  1  0.540843  0.087472  0.250000  1
  Er  Er4  1  0.912661  0.456331  0.250000  1
  Er  Er5  1  0.455867  0.544241  0.750000  1
  Er  Er6  1  0.455867  0.911624  0.750000  1
  Er  Er7  1  0.088254  0.544127  0.750000  1
  Er  Er8  1  0.211587  0.788599  0.439366  1
  Er  Er9  1  0.211587  0.422988  0.439366  1
  Er  Er10  1  0.577755  0.788877  0.437764  1
  Er  Er11  1  0.788218  0.211155  0.561600  1
  Er  Er12  1  0.788218  0.577064  0.561600  1
  Er  Er13  1  0.422649  0.211325  0.564063  1
  Er  Er14  1  0.788218  0.211155  0.938400  1
  Er  Er15  1  0.788218  0.577064  0.938400  1
  Er  Er16  1  0.422649  0.211325  0.935937  1
  Er  Er17  1  0.211587  0.788599  0.060634  1
  Er  Er18  1  0.211587  0.422988  0.060634  1
  Er  Er19  1  0.577755  0.788877  0.062236  1
  Cd  Cd20  1  0.230741  0.115371  0.250000  1
  Cd  Cd21  1  0.115701  0.883175  0.750000  1
  Cd  Cd22  1  0.115701  0.232525  0.750000  1
  Cd  Cd23  1  0.768182  0.884090  0.750000  1
  In  In24  1  0.884175  0.116267  0.250000  1
  In  In25  1  0.884175  0.767909  0.250000  1
  Ni  Ni26  1  0.333006  0.666504  0.250000  1
  Ni  Ni27  1  0.667646  0.333823  0.750000  1
