# generated using pymatgen
data_Ce2B4Ir2Ru3
_symmetry_space_group_name_H-M   'P 1'
_cell_length_a   7.53845234
_cell_length_b   6.41908034
_cell_length_c   5.57309075
_cell_angle_alpha   77.54117070
_cell_angle_beta   56.24898577
_cell_angle_gamma   46.20985316
_symmetry_Int_Tables_number   1
_chemical_formula_structural   Ce2B4Ir2Ru3
_chemical_formula_sum   'Ce2 B4 Ir2 Ru3'
_cell_volume   155.33840972
_cell_formula_units_Z   1
loop_
 _symmetry_equiv_pos_site_id
 _symmetry_equiv_pos_as_xyz
  1  'x, y, z'
loop_
 _atom_site_type_symbol
 _atom_site_label
 _atom_site_symmetry_multiplicity
 _atom_site_fract_x
 _atom_site_fract_y
 _atom_site_fract_z
 _atom_site_occupancy
  Ce  Ce0  1  0.864473  0.864472  0.135528  1
  Ce  Ce1  1  0.135527  0.135527  0.864473  1
  B  B2  1  0.464560  0.795696  0.210061  1
  B  B3  1  0.210061  0.529682  0.464561  1
  B  B4  1  0.795696  0.464560  0.529683  1
  B  B5  1  0.529683  0.210060  0.795697  1
  Ir  Ir6  1  0.500000  0.500000  0.500000  1
  Ir  Ir7  1  0.750000  0.750000  0.750000  1
  Ru  Ru8  1  0.500184  0.500184  0.999816  1
  Ru  Ru9  1  0.249999  0.250000  0.250000  1
  Ru  Ru10  1  0.999816  0.999816  0.500184  1
