# generated using pymatgen
data_Dy10Sn6P
_symmetry_space_group_name_H-M   'P 1'
_cell_length_a   6.56947301
_cell_length_b   9.06875661
_cell_length_c   9.06852300
_cell_angle_alpha   120.00086054
_cell_angle_beta   89.99764046
_cell_angle_gamma   90.00471370
_symmetry_Int_Tables_number   1
_chemical_formula_structural   Dy10Sn6P
_chemical_formula_sum   'Dy10 Sn6 P1'
_cell_volume   467.88777925
_cell_formula_units_Z   1
loop_
 _symmetry_equiv_pos_site_id
 _symmetry_equiv_pos_as_xyz
  1  'x, y, z'
loop_
 _atom_site_type_symbol
 _atom_site_label
 _atom_site_symmetry_multiplicity
 _atom_site_fract_x
 _atom_site_fract_y
 _atom_site_fract_z
 _atom_site_occupancy
  Dy  Dy0  1  0.500000  0.333344  0.666689  1
  Dy  Dy1  1  0.500000  0.666655  0.333311  1
  Dy  Dy2  1  0.000000  0.666660  0.333320  1
  Dy  Dy3  1  0.000000  0.333341  0.666680  1
  Dy  Dy4  1  0.747349  0.244809  0.000000  1
  Dy  Dy5  1  0.747352  0.755194  0.755205  1
  Dy  Dy6  1  0.747352  0.999988  0.244795  1
  Dy  Dy7  1  0.252651  0.755191  0.000000  1
  Dy  Dy8  1  0.252648  0.244808  0.244795  1
  Dy  Dy9  1  0.252648  0.000013  0.755205  1
  Sn  Sn10  1  0.749945  0.605743  0.000000  1
  Sn  Sn11  1  0.749945  0.394260  0.394269  1
  Sn  Sn12  1  0.749945  0.999991  0.605731  1
  Sn  Sn13  1  0.250055  0.394257  0.000000  1
  Sn  Sn14  1  0.250055  0.605740  0.605731  1
  Sn  Sn15  1  0.250055  0.000009  0.394269  1
  P  P16  1  0.499999  0.000001  0.000000  1
