# generated using pymatgen
data_Ho7Tm3Co4
_symmetry_space_group_name_H-M   'P 1'
_cell_length_a   6.21634965
_cell_length_b   6.84960756
_cell_length_c   8.44543301
_cell_angle_alpha   96.27810053
_cell_angle_beta   111.59452333
_cell_angle_gamma   90.04462072
_symmetry_Int_Tables_number   1
_chemical_formula_structural   Ho7Tm3Co4
_chemical_formula_sum   'Ho7 Tm3 Co4'
_cell_volume   332.03004746
_cell_formula_units_Z   1
loop_
 _symmetry_equiv_pos_site_id
 _symmetry_equiv_pos_as_xyz
  1  'x, y, z'
loop_
 _atom_site_type_symbol
 _atom_site_label
 _atom_site_symmetry_multiplicity
 _atom_site_fract_x
 _atom_site_fract_y
 _atom_site_fract_z
 _atom_site_occupancy
  Ho  Ho0  1  0.794431  0.086018  0.812503  1
  Ho  Ho1  1  0.982212  0.414510  0.188547  1
  Ho  Ho2  1  0.205219  0.913556  0.187998  1
  Ho  Ho3  1  0.018344  0.586147  0.811498  1
  Ho  Ho4  1  0.215572  0.185327  0.567201  1
  Ho  Ho5  1  0.647530  0.315097  0.433003  1
  Ho  Ho6  1  0.785251  0.814785  0.432933  1
  Tm  Tm7  1  0.353360  0.685200  0.567675  1
  Tm  Tm8  1  0.428118  0.249886  0.000106  1
  Tm  Tm9  1  0.571118  0.749588  0.999408  1
  Co  Co10  1  0.600487  0.428612  0.779540  1
  Co  Co11  1  0.820056  0.071016  0.218750  1
  Co  Co12  1  0.398824  0.571983  0.221437  1
  Co  Co13  1  0.179477  0.928276  0.779403  1
