# generated using pymatgen
data_Eu2Ho4TaRuO14
_symmetry_space_group_name_H-M   'P 1'
_cell_length_a   6.42749463
_cell_length_b   6.42749430
_cell_length_c   7.50506228
_cell_angle_alpha   89.99391123
_cell_angle_beta   90.00610345
_cell_angle_gamma   108.93081220
_symmetry_Int_Tables_number   1
_chemical_formula_structural   Eu2Ho4TaRuO14
_chemical_formula_sum   'Eu2 Ho4 Ta1 Ru1 O14'
_cell_volume   293.28375503
_cell_formula_units_Z   1
loop_
 _symmetry_equiv_pos_site_id
 _symmetry_equiv_pos_as_xyz
  1  'x, y, z'
loop_
 _atom_site_type_symbol
 _atom_site_label
 _atom_site_symmetry_multiplicity
 _atom_site_fract_x
 _atom_site_fract_y
 _atom_site_fract_z
 _atom_site_occupancy
  Eu  Eu0  1  0.500000  0.500000  0.500000  1
  Eu  Eu1  1  0.500000  0.500000  0.000000  1
  Ho  Ho2  1  0.535665  0.999500  0.750353  1
  Ho  Ho3  1  0.999500  0.535665  0.249647  1
  Ho  Ho4  1  0.464335  0.000500  0.249647  1
  Ho  Ho5  1  0.000500  0.464335  0.750353  1
  Ta  Ta6  1  0.000000  0.000000  0.000000  1
  Ru  Ru7  1  0.000000  0.000000  0.500000  1
  O  O8  1  0.681420  0.933239  0.468332  1
  O  O9  1  0.933239  0.681420  0.531668  1
  O  O10  1  0.678205  0.932659  0.032444  1
  O  O11  1  0.932659  0.678205  0.967556  1
  O  O12  1  0.318580  0.066761  0.531668  1
  O  O13  1  0.066761  0.318580  0.468332  1
  O  O14  1  0.321795  0.067341  0.967556  1
  O  O15  1  0.067341  0.321795  0.032444  1
  O  O16  1  0.932488  0.067512  0.748394  1
  O  O17  1  0.067512  0.932488  0.251606  1
  O  O18  1  0.365084  0.634915  0.749488  1
  O  O19  1  0.634915  0.365084  0.250512  1
  O  O20  1  0.639677  0.360323  0.747929  1
  O  O21  1  0.360323  0.639677  0.252071  1
