# generated using pymatgen
data_SbSe23
_symmetry_space_group_name_H-M   'P 1'
_cell_length_a   5.69352307
_cell_length_b   10.54543178
_cell_length_c   17.02230284
_cell_angle_alpha   88.08159817
_cell_angle_beta   86.67378398
_cell_angle_gamma   90.44262363
_symmetry_Int_Tables_number   1
_chemical_formula_structural   SbSe23
_chemical_formula_sum   'Sb1 Se23'
_cell_volume   1019.68880798
_cell_formula_units_Z   1
loop_
 _symmetry_equiv_pos_site_id
 _symmetry_equiv_pos_as_xyz
  1  'x, y, z'
loop_
 _atom_site_type_symbol
 _atom_site_label
 _atom_site_symmetry_multiplicity
 _atom_site_fract_x
 _atom_site_fract_y
 _atom_site_fract_z
 _atom_site_occupancy
  Sb  Sb0  1  0.497717  0.168742  0.381717  1
  Se  Se1  1  0.520563  0.812497  0.386032  1
  Se  Se2  1  0.003752  0.310664  0.112474  1
  Se  Se3  1  0.764180  0.246096  0.489327  1
  Se  Se4  1  0.281177  0.774166  0.502753  1
  Se  Se5  1  0.221611  0.261971  0.995178  1
  Se  Se6  1  0.775160  0.737092  0.005452  1
  Se  Se7  1  0.229329  0.365510  0.368869  1
  Se  Se8  1  0.717802  0.618232  0.362098  1
  Se  Se9  1  0.773423  0.128714  0.149853  1
  Se  Se10  1  0.226237  0.868958  0.136253  1
  Se  Se11  1  0.721709  0.635063  0.642176  1
  Se  Se12  1  0.280438  0.368630  0.632541  1
  Se  Se13  1  0.230549  0.876001  0.855493  1
  Se  Se14  1  0.770231  0.130529  0.864050  1
  Se  Se15  1  0.999951  0.686269  0.114214  1
  Se  Se16  1  0.504513  0.818352  0.611364  1
  Se  Se17  1  0.517247  0.193013  0.604611  1
  Se  Se18  1  0.004162  0.691387  0.889802  1
  Se  Se19  1  0.991383  0.314506  0.888096  1
  Se  Se20  1  0.484779  0.496710  0.283367  1
  Se  Se21  1  0.006899  0.993830  0.226416  1
  Se  Se22  1  0.475840  0.495240  0.721698  1
  Se  Se23  1  0.001346  0.007823  0.776168  1
