# generated using pymatgen
data_Y7TaGaPd24
_symmetry_space_group_name_H-M   'P 1'
_cell_length_a   8.37016757
_cell_length_b   8.37016738
_cell_length_c   8.37016800
_cell_angle_alpha   90.25908626
_cell_angle_beta   90.25908625
_cell_angle_gamma   89.74091536
_symmetry_Int_Tables_number   1
_chemical_formula_structural   Y7TaGaPd24
_chemical_formula_sum   'Y7 Ta1 Ga1 Pd24'
_cell_volume   586.39355716
_cell_formula_units_Z   1
loop_
 _symmetry_equiv_pos_site_id
 _symmetry_equiv_pos_as_xyz
  1  'x, y, z'
loop_
 _atom_site_type_symbol
 _atom_site_label
 _atom_site_symmetry_multiplicity
 _atom_site_fract_x
 _atom_site_fract_y
 _atom_site_fract_z
 _atom_site_occupancy
  Y  Y0  1  0.250917  0.748823  0.251177  1
  Y  Y1  1  0.748823  0.250917  0.251177  1
  Y  Y2  1  0.748823  0.748823  0.749083  1
  Y  Y3  1  0.746214  0.746214  0.253786  1
  Y  Y4  1  0.750755  0.252636  0.747364  1
  Y  Y5  1  0.252636  0.750755  0.747364  1
  Y  Y6  1  0.252636  0.252636  0.249245  1
  Ta  Ta7  1  0.259352  0.259352  0.740648  1
  Ga  Ga8  1  0.990642  0.990642  0.009358  1
  Pd  Pd9  1  0.494024  0.494024  0.745491  1
  Pd  Pd10  1  0.494024  0.254509  0.505976  1
  Pd  Pd11  1  0.254509  0.494024  0.505976  1
  Pd  Pd12  1  0.498186  0.498186  0.251289  1
  Pd  Pd13  1  0.498186  0.748711  0.501814  1
  Pd  Pd14  1  0.748711  0.498186  0.501814  1
  Pd  Pd15  1  0.010874  0.010874  0.718240  1
  Pd  Pd16  1  0.010874  0.281760  0.989126  1
  Pd  Pd17  1  0.281760  0.010874  0.989126  1
  Pd  Pd18  1  0.000035  0.000035  0.298468  1
  Pd  Pd19  1  0.000035  0.701532  0.999965  1
  Pd  Pd20  1  0.701532  0.000035  0.999965  1
  Pd  Pd21  1  0.012546  0.493270  0.739900  1
  Pd  Pd22  1  0.493270  0.260100  0.987454  1
  Pd  Pd23  1  0.260100  0.012546  0.506730  1
  Pd  Pd24  1  0.012546  0.260100  0.506730  1
  Pd  Pd25  1  0.493270  0.012546  0.739900  1
  Pd  Pd26  1  0.260100  0.493270  0.987454  1
  Pd  Pd27  1  0.000868  0.495843  0.259404  1
  Pd  Pd28  1  0.495843  0.740596  0.999132  1
  Pd  Pd29  1  0.000868  0.740596  0.504157  1
  Pd  Pd30  1  0.495843  0.000868  0.259404  1
  Pd  Pd31  1  0.740596  0.000868  0.504157  1
  Pd  Pd32  1  0.740596  0.495843  0.999132  1
