# generated using pymatgen
data_Lu2Co6Si3Ge
_symmetry_space_group_name_H-M   'P 1'
_cell_length_a   6.26433071
_cell_length_b   6.25614650
_cell_length_c   6.26433147
_cell_angle_alpha   130.76841890
_cell_angle_beta   112.34517989
_cell_angle_gamma   88.14454483
_symmetry_Int_Tables_number   1
_chemical_formula_structural   Lu2Co6Si3Ge
_chemical_formula_sum   'Lu2 Co6 Si3 Ge1'
_cell_volume   163.60023556
_cell_formula_units_Z   1
loop_
 _symmetry_equiv_pos_site_id
 _symmetry_equiv_pos_as_xyz
  1  'x, y, z'
loop_
 _atom_site_type_symbol
 _atom_site_label
 _atom_site_symmetry_multiplicity
 _atom_site_fract_x
 _atom_site_fract_y
 _atom_site_fract_z
 _atom_site_occupancy
  Lu  Lu0  1  0.251696  0.534470  0.282775  1
  Lu  Lu1  1  0.748259  0.470017  0.721757  1
  Co  Co2  1  0.991815  0.999554  0.488021  1
  Co  Co3  1  0.511533  0.999554  0.007739  1
  Co  Co4  1  0.719057  0.001434  0.722146  1
  Co  Co5  1  0.229529  0.496265  0.727429  1
  Co  Co6  1  0.279288  0.001434  0.282377  1
  Co  Co7  1  0.768836  0.496265  0.266736  1
  Si  Si8  1  0.922627  0.134294  0.211666  1
  Si  Si9  1  0.578480  0.785808  0.207327  1
  Si  Si10  1  0.414512  0.205977  0.791466  1
  Ge  Ge11  1  0.084368  0.874926  0.790559  1
