# generated using pymatgen
data_Nd2Dy3Er3(Si3Rh)4
_symmetry_space_group_name_H-M   'P 1'
_cell_length_a   8.17735800
_cell_length_b   8.17735770
_cell_length_c   7.99931100
_cell_angle_alpha   90.00000000
_cell_angle_beta   90.00000000
_cell_angle_gamma   119.99999310
_symmetry_Int_Tables_number   1
_chemical_formula_structural   Nd2Dy3Er3(Si3Rh)4
_chemical_formula_sum   'Nd2 Dy3 Er3 Si12 Rh4'
_cell_volume   463.24341080
_cell_formula_units_Z   1
loop_
 _symmetry_equiv_pos_site_id
 _symmetry_equiv_pos_as_xyz
  1  'x, y, z'
loop_
 _atom_site_type_symbol
 _atom_site_label
 _atom_site_symmetry_multiplicity
 _atom_site_fract_x
 _atom_site_fract_y
 _atom_site_fract_z
 _atom_site_occupancy
  Nd  Nd0  1  0.000000  0.000000  0.250000  1
  Nd  Nd1  1  0.000000  0.000000  0.750000  1
  Dy  Dy2  1  0.491991  0.508009  0.250000  1
  Dy  Dy3  1  0.491991  0.983981  0.250000  1
  Dy  Dy4  1  0.016019  0.508009  0.250000  1
  Er  Er5  1  0.508134  0.491866  0.750000  1
  Er  Er6  1  0.983731  0.491866  0.750000  1
  Er  Er7  1  0.508134  0.016269  0.750000  1
  Si  Si8  1  0.831585  0.168415  0.503177  1
  Si  Si9  1  0.831585  0.663171  0.503177  1
  Si  Si10  1  0.336829  0.168415  0.503177  1
  Si  Si11  1  0.831585  0.168415  0.996823  1
  Si  Si12  1  0.831585  0.663171  0.996823  1
  Si  Si13  1  0.336829  0.168415  0.996823  1
  Si  Si14  1  0.168541  0.831459  0.001339  1
  Si  Si15  1  0.662919  0.831459  0.001339  1
  Si  Si16  1  0.168541  0.337081  0.001339  1
  Si  Si17  1  0.168541  0.831459  0.498661  1
  Si  Si18  1  0.662919  0.831459  0.498661  1
  Si  Si19  1  0.168541  0.337081  0.498661  1
  Rh  Rh20  1  0.666667  0.333333  0.468586  1
  Rh  Rh21  1  0.666667  0.333333  0.031414  1
  Rh  Rh22  1  0.333333  0.666667  0.961489  1
  Rh  Rh23  1  0.333333  0.666667  0.538511  1
