# generated using pymatgen
data_Tm4Ge2B8Rh
_symmetry_space_group_name_H-M   'P 1'
_cell_length_a   7.08524300
_cell_length_b   7.08524300
_cell_length_c   7.52674700
_cell_angle_alpha   90.00000000
_cell_angle_beta   90.00000000
_cell_angle_gamma   90.00000000
_symmetry_Int_Tables_number   1
_chemical_formula_structural   Tm4Ge2B8Rh
_chemical_formula_sum   'Tm8 Ge4 B16 Rh2'
_cell_volume   377.84773004
_cell_formula_units_Z   2
loop_
 _symmetry_equiv_pos_site_id
 _symmetry_equiv_pos_as_xyz
  1  'x, y, z'
loop_
 _atom_site_type_symbol
 _atom_site_label
 _atom_site_symmetry_multiplicity
 _atom_site_fract_x
 _atom_site_fract_y
 _atom_site_fract_z
 _atom_site_occupancy
  Tm  Tm0  1  0.677939  0.177939  0.233714  1
  Tm  Tm1  1  0.322061  0.822061  0.766286  1
  Tm  Tm2  1  0.322061  0.822061  0.233714  1
  Tm  Tm3  1  0.822061  0.677939  0.233714  1
  Tm  Tm4  1  0.822061  0.677939  0.766286  1
  Tm  Tm5  1  0.677939  0.177939  0.766286  1
  Tm  Tm6  1  0.177939  0.322061  0.766286  1
  Tm  Tm7  1  0.177939  0.322061  0.233714  1
  Ge  Ge8  1  0.126817  0.626817  0.500000  1
  Ge  Ge9  1  0.873183  0.373183  0.500000  1
  Ge  Ge10  1  0.373183  0.126817  0.500000  1
  Ge  Ge11  1  0.626817  0.873183  0.500000  1
  B  B12  1  0.172577  0.041268  0.000000  1
  B  B13  1  0.827423  0.958732  0.000000  1
  B  B14  1  0.958732  0.172577  0.000000  1
  B  B15  1  0.327423  0.541268  0.000000  1
  B  B16  1  0.041268  0.827423  0.000000  1
  B  B17  1  0.672577  0.458732  0.000000  1
  B  B18  1  0.541268  0.672577  0.000000  1
  B  B19  1  0.458732  0.327423  0.000000  1
  B  B20  1  0.089822  0.589822  0.000000  1
  B  B21  1  0.910178  0.410178  0.000000  1
  B  B22  1  0.410178  0.089822  0.000000  1
  B  B23  1  0.589822  0.910178  0.000000  1
  B  B24  1  0.000000  0.000000  0.174648  1
  B  B25  1  0.000000  0.000000  0.825352  1
  B  B26  1  0.500000  0.500000  0.825352  1
  B  B27  1  0.500000  0.500000  0.174648  1
  Rh  Rh28  1  0.000000  0.000000  0.500000  1
  Rh  Rh29  1  0.500000  0.500000  0.500000  1
