# generated using pymatgen
data_Y7Er3(InSb)4
_symmetry_space_group_name_H-M   'P 1'
_cell_length_a   8.81731507
_cell_length_b   8.81012594
_cell_length_c   8.10494044
_cell_angle_alpha   90.02860477
_cell_angle_beta   90.00384203
_cell_angle_gamma   125.17217597
_symmetry_Int_Tables_number   1
_chemical_formula_structural   Y7Er3(InSb)4
_chemical_formula_sum   'Y7 Er3 In4 Sb4'
_cell_volume   514.65474541
_cell_formula_units_Z   1
loop_
 _symmetry_equiv_pos_site_id
 _symmetry_equiv_pos_as_xyz
  1  'x, y, z'
loop_
 _atom_site_type_symbol
 _atom_site_label
 _atom_site_symmetry_multiplicity
 _atom_site_fract_x
 _atom_site_fract_y
 _atom_site_fract_z
 _atom_site_occupancy
  Y  Y0  1  0.032126  0.307274  0.334105  1
  Y  Y1  1  0.967895  0.692899  0.665684  1
  Y  Y2  1  0.467888  0.192658  0.834168  1
  Y  Y3  1  0.806990  0.531897  0.165886  1
  Y  Y4  1  0.532321  0.807502  0.166061  1
  Y  Y5  1  0.193172  0.468130  0.834106  1
  Y  Y6  1  0.693491  0.967935  0.665925  1
  Er  Er7  1  0.305745  0.032096  0.334674  1
  Er  Er8  1  0.000424  0.000043  0.000306  1
  Er  Er9  1  0.499751  0.499582  0.499766  1
  In  In10  1  0.370039  0.369501  0.129299  1
  In  In11  1  0.630051  0.629988  0.870941  1
  In  In12  1  0.130474  0.130011  0.628779  1
  In  In13  1  0.870467  0.869996  0.370814  1
  Sb  Sb14  1  0.797921  0.202600  0.999738  1
  Sb  Sb15  1  0.202720  0.798065  0.001283  1
  Sb  Sb16  1  0.700835  0.295923  0.499026  1
  Sb  Sb17  1  0.297690  0.703902  0.499438  1
