# generated using pymatgen
data_Nd7Er(Sc3Pt4)4
_symmetry_space_group_name_H-M   'P 1'
_cell_length_a   7.60381610
_cell_length_b   7.43600315
_cell_length_c   13.78734595
_cell_angle_alpha   89.84655798
_cell_angle_beta   90.02921800
_cell_angle_gamma   89.78128774
_symmetry_Int_Tables_number   1
_chemical_formula_structural   Nd7Er(Sc3Pt4)4
_chemical_formula_sum   'Nd7 Er1 Sc12 Pt16'
_cell_volume   779.55554022
_cell_formula_units_Z   1
loop_
 _symmetry_equiv_pos_site_id
 _symmetry_equiv_pos_as_xyz
  1  'x, y, z'
loop_
 _atom_site_type_symbol
 _atom_site_label
 _atom_site_symmetry_multiplicity
 _atom_site_fract_x
 _atom_site_fract_y
 _atom_site_fract_z
 _atom_site_occupancy
  Nd  Nd0  1  0.009174  0.173005  0.096579  1
  Nd  Nd1  1  0.990647  0.826422  0.901110  1
  Nd  Nd2  1  0.490302  0.674204  0.903301  1
  Nd  Nd3  1  0.990713  0.825594  0.596453  1
  Nd  Nd4  1  0.509458  0.326395  0.097234  1
  Nd  Nd5  1  0.011292  0.172816  0.403787  1
  Nd  Nd6  1  0.510615  0.329949  0.405620  1
  Er  Er7  1  0.489826  0.676571  0.599753  1
  Sc  Sc8  1  0.168970  0.494482  0.748793  1
  Sc  Sc9  1  0.833721  0.505693  0.250844  1
  Sc  Sc10  1  0.334622  0.994989  0.251266  1
  Sc  Sc11  1  0.665735  0.005877  0.748522  1
  Sc  Sc12  1  0.333333  0.161766  0.623748  1
  Sc  Sc13  1  0.663449  0.835170  0.378001  1
  Sc  Sc14  1  0.167214  0.661825  0.375480  1
  Sc  Sc15  1  0.666073  0.839221  0.125281  1
  Sc  Sc16  1  0.833041  0.339650  0.623276  1
  Sc  Sc17  1  0.335227  0.161814  0.874399  1
  Sc  Sc18  1  0.833103  0.339603  0.873725  1
  Sc  Sc19  1  0.164294  0.662129  0.124223  1
  Pt  Pt20  1  0.036138  0.137182  0.748695  1
  Pt  Pt21  1  0.963411  0.862684  0.251267  1
  Pt  Pt22  1  0.463647  0.637060  0.249782  1
  Pt  Pt23  1  0.532960  0.366537  0.746698  1
  Pt  Pt24  1  0.295398  0.859143  0.746864  1
  Pt  Pt25  1  0.706031  0.137012  0.251857  1
  Pt  Pt26  1  0.206304  0.362880  0.250502  1
  Pt  Pt27  1  0.788406  0.637908  0.747204  1
  Pt  Pt28  1  0.175149  0.457876  0.546083  1
  Pt  Pt29  1  0.834799  0.547287  0.455880  1
  Pt  Pt30  1  0.334324  0.947353  0.456900  1
  Pt  Pt31  1  0.832061  0.547886  0.045195  1
  Pt  Pt32  1  0.663928  0.040482  0.548157  1
  Pt  Pt33  1  0.166248  0.451259  0.953834  1
  Pt  Pt34  1  0.666746  0.047177  0.953409  1
  Pt  Pt35  1  0.333641  0.953100  0.046276  1
