# generated using pymatgen
data_Ba3AlSe4Cl
_symmetry_space_group_name_H-M   'P 1'
_cell_length_a   8.87336200
_cell_length_b   9.99297300
_cell_length_c   12.88258100
_cell_angle_alpha   90.00000000
_cell_angle_beta   90.00000000
_cell_angle_gamma   90.00000000
_symmetry_Int_Tables_number   1
_chemical_formula_structural   Ba3AlSe4Cl
_chemical_formula_sum   'Ba12 Al4 Se16 Cl4'
_cell_volume   1142.31477802
_cell_formula_units_Z   4
loop_
 _symmetry_equiv_pos_site_id
 _symmetry_equiv_pos_as_xyz
  1  'x, y, z'
loop_
 _atom_site_type_symbol
 _atom_site_label
 _atom_site_symmetry_multiplicity
 _atom_site_fract_x
 _atom_site_fract_y
 _atom_site_fract_z
 _atom_site_occupancy
  Ba  Ba0  1  0.416824  0.750000  0.488154  1
  Ba  Ba1  1  0.083176  0.750000  0.988154  1
  Ba  Ba2  1  0.583176  0.250000  0.511846  1
  Ba  Ba3  1  0.916824  0.250000  0.011846  1
  Ba  Ba4  1  0.080069  0.479868  0.670672  1
  Ba  Ba5  1  0.419931  0.020132  0.170672  1
  Ba  Ba6  1  0.919931  0.979868  0.329328  1
  Ba  Ba7  1  0.580069  0.520132  0.829328  1
  Ba  Ba8  1  0.919931  0.520132  0.329328  1
  Ba  Ba9  1  0.580069  0.979868  0.829328  1
  Ba  Ba10  1  0.080069  0.020132  0.670672  1
  Ba  Ba11  1  0.419931  0.479868  0.170672  1
  Al  Al12  1  0.813230  0.750000  0.607730  1
  Al  Al13  1  0.686770  0.750000  0.107730  1
  Al  Al14  1  0.186770  0.250000  0.392270  1
  Al  Al15  1  0.313230  0.250000  0.892270  1
  Se  Se16  1  0.311809  0.454187  0.425723  1
  Se  Se17  1  0.188191  0.045813  0.925723  1
  Se  Se18  1  0.688191  0.954187  0.574277  1
  Se  Se19  1  0.811809  0.545813  0.074277  1
  Se  Se20  1  0.688191  0.545813  0.574277  1
  Se  Se21  1  0.811809  0.954187  0.074277  1
  Se  Se22  1  0.311809  0.045813  0.425723  1
  Se  Se23  1  0.188191  0.454187  0.925723  1
  Se  Se24  1  0.636693  0.750000  0.290160  1
  Se  Se25  1  0.863307  0.750000  0.790160  1
  Se  Se26  1  0.363307  0.250000  0.709840  1
  Se  Se27  1  0.136693  0.250000  0.209840  1
  Se  Se28  1  0.038302  0.750000  0.505772  1
  Se  Se29  1  0.461698  0.750000  0.005772  1
  Se  Se30  1  0.961698  0.250000  0.494228  1
  Se  Se31  1  0.538302  0.250000  0.994228  1
  Cl  Cl32  1  0.338594  0.750000  0.726627  1
  Cl  Cl33  1  0.161406  0.750000  0.226627  1
  Cl  Cl34  1  0.661406  0.250000  0.273373  1
  Cl  Cl35  1  0.838594  0.250000  0.773373  1
