# generated using pymatgen
data_Fe(S8F)3
_symmetry_space_group_name_H-M   'P 1'
_cell_length_a   15.05124152
_cell_length_b   15.05124146
_cell_length_c   15.05124004
_cell_angle_alpha   118.67016768
_cell_angle_beta   118.67016648
_cell_angle_gamma   118.67017338
_symmetry_Int_Tables_number   1
_chemical_formula_structural   Fe(S8F)3
_chemical_formula_sum   'Fe1 S24 F3'
_cell_volume   1014.98124989
_cell_formula_units_Z   1
loop_
 _symmetry_equiv_pos_site_id
 _symmetry_equiv_pos_as_xyz
  1  'x, y, z'
loop_
 _atom_site_type_symbol
 _atom_site_label
 _atom_site_symmetry_multiplicity
 _atom_site_fract_x
 _atom_site_fract_y
 _atom_site_fract_z
 _atom_site_occupancy
  Fe  Fe0  1  0.927856  0.927856  0.927856  1
  S  S1  1  0.801439  0.520195  0.520195  1
  S  S2  1  0.520195  0.520195  0.801439  1
  S  S3  1  0.520195  0.801439  0.520195  1
  S  S4  1  0.247304  0.377164  0.636081  1
  S  S5  1  0.352019  0.951596  0.352019  1
  S  S6  1  0.352019  0.352019  0.951596  1
  S  S7  1  0.951596  0.352019  0.352019  1
  S  S8  1  0.129160  0.741683  0.258490  1
  S  S9  1  0.258490  0.129160  0.741683  1
  S  S10  1  0.741683  0.258490  0.129160  1
  S  S11  1  0.741683  0.129160  0.258490  1
  S  S12  1  0.258490  0.741683  0.129160  1
  S  S13  1  0.129160  0.258490  0.741683  1
  S  S14  1  0.347395  0.879106  0.530047  1
  S  S15  1  0.530047  0.347395  0.879106  1
  S  S16  1  0.879106  0.530047  0.347395  1
  S  S17  1  0.879106  0.347395  0.530047  1
  S  S18  1  0.530047  0.879106  0.347395  1
  S  S19  1  0.347395  0.530047  0.879106  1
  S  S20  1  0.247304  0.636081  0.377164  1
  S  S21  1  0.377164  0.247304  0.636081  1
  S  S22  1  0.636081  0.377164  0.247304  1
  S  S23  1  0.636081  0.247304  0.377164  1
  S  S24  1  0.377164  0.636081  0.247304  1
  F  F25  1  0.856250  0.975434  0.975434  1
  F  F26  1  0.975434  0.975434  0.856250  1
  F  F27  1  0.975434  0.856250  0.975434  1
