# generated using pymatgen
data_TbDyCoB8Ir
_symmetry_space_group_name_H-M   'P 1'
_cell_length_a   6.92656495
_cell_length_b   6.92656589
_cell_length_c   6.92656500
_cell_angle_alpha   111.24950340
_cell_angle_beta   113.24981129
_cell_angle_gamma   104.05359315
_symmetry_Int_Tables_number   1
_chemical_formula_structural   TbDyCoB8Ir
_chemical_formula_sum   'Tb2 Dy2 Co2 B16 Ir2'
_cell_volume   254.03894967
_cell_formula_units_Z   2
loop_
 _symmetry_equiv_pos_site_id
 _symmetry_equiv_pos_as_xyz
  1  'x, y, z'
loop_
 _atom_site_type_symbol
 _atom_site_label
 _atom_site_symmetry_multiplicity
 _atom_site_fract_x
 _atom_site_fract_y
 _atom_site_fract_z
 _atom_site_occupancy
  Tb  Tb0  1  0.791825  0.791829  0.000005  1
  Tb  Tb1  1  0.208175  0.208171  0.999995  1
  Dy  Dy2  1  0.749511  0.249499  0.499988  1
  Dy  Dy3  1  0.250489  0.750501  0.500012  1
  Co  Co4  1  0.499990  0.741138  0.241148  1
  Co  Co5  1  0.500010  0.258862  0.758852  1
  B  B6  1  0.274072  0.108368  0.382443  1
  B  B7  1  0.725928  0.891632  0.617557  1
  B  B8  1  0.274074  0.891632  0.165705  1
  B  B9  1  0.725926  0.108368  0.834295  1
  B  B10  1  0.110479  0.732947  0.843431  1
  B  B11  1  0.889521  0.267053  0.156569  1
  B  B12  1  0.110484  0.267053  0.377532  1
  B  B13  1  0.889516  0.732947  0.622468  1
  B  B14  1  0.118869  0.111691  0.532772  1
  B  B15  1  0.578914  0.586096  0.467220  1
  B  B16  1  0.118876  0.586096  0.007182  1
  B  B17  1  0.578918  0.111691  0.992821  1
  B  B18  1  0.881131  0.888309  0.467228  1
  B  B19  1  0.421086  0.413904  0.532780  1
  B  B20  1  0.881124  0.413904  0.992818  1
  B  B21  1  0.421082  0.888309  0.007179  1
  Ir  Ir22  1  0.275038  0.500000  0.775038  1
  Ir  Ir23  1  0.724962  0.500000  0.224962  1
