# generated using pymatgen
data_ErLuZn2In
_symmetry_space_group_name_H-M   'P 1'
_cell_length_a   7.32265000
_cell_length_b   7.32155200
_cell_length_c   4.10466500
_cell_angle_alpha   90.00000000
_cell_angle_beta   90.00000000
_cell_angle_gamma   90.00000000
_symmetry_Int_Tables_number   1
_chemical_formula_structural   ErLuZn2In
_chemical_formula_sum   'Er2 Lu2 Zn4 In2'
_cell_volume   220.06407269
_cell_formula_units_Z   2
loop_
 _symmetry_equiv_pos_site_id
 _symmetry_equiv_pos_as_xyz
  1  'x, y, z'
loop_
 _atom_site_type_symbol
 _atom_site_label
 _atom_site_symmetry_multiplicity
 _atom_site_fract_x
 _atom_site_fract_y
 _atom_site_fract_z
 _atom_site_occupancy
  Er  Er0  1  0.329624  0.170136  0.500000  1
  Er  Er1  1  0.829624  0.329863  0.500000  1
  Lu  Lu2  1  0.170379  0.670540  0.500000  1
  Lu  Lu3  1  0.670379  0.829459  0.500000  1
  Zn  Zn4  1  0.624235  0.123213  0.000000  1
  Zn  Zn5  1  0.124234  0.376786  0.000000  1
  Zn  Zn6  1  0.875844  0.625108  0.000000  1
  Zn  Zn7  1  0.375844  0.874892  0.000000  1
  In  In8  1  0.999916  0.999589  0.000000  1
  In  In9  1  0.499916  0.500411  0.000000  1
