# generated using pymatgen
data_Ho10Zn2CdCo
_symmetry_space_group_name_H-M   'P 1'
_cell_length_a   9.38081732
_cell_length_b   9.38073469
_cell_length_c   9.58777100
_cell_angle_alpha   90.00000000
_cell_angle_beta   90.00000000
_cell_angle_gamma   119.75032948
_symmetry_Int_Tables_number   1
_chemical_formula_structural   Ho10Zn2CdCo
_chemical_formula_sum   'Ho20 Zn4 Cd2 Co2'
_cell_volume   732.50896693
_cell_formula_units_Z   2
loop_
 _symmetry_equiv_pos_site_id
 _symmetry_equiv_pos_as_xyz
  1  'x, y, z'
loop_
 _atom_site_type_symbol
 _atom_site_label
 _atom_site_symmetry_multiplicity
 _atom_site_fract_x
 _atom_site_fract_y
 _atom_site_fract_z
 _atom_site_occupancy
  Ho  Ho0  1  0.003541  0.996459  0.483937  1
  Ho  Ho1  1  0.003541  0.996459  0.016063  1
  Ho  Ho2  1  0.542318  0.457681  0.250000  1
  Ho  Ho3  1  0.542091  0.086180  0.250000  1
  Ho  Ho4  1  0.913820  0.457911  0.250000  1
  Ho  Ho5  1  0.456510  0.543485  0.750000  1
  Ho  Ho6  1  0.451599  0.915978  0.750000  1
  Ho  Ho7  1  0.084027  0.548399  0.750000  1
  Ho  Ho8  1  0.210073  0.789928  0.436639  1
  Ho  Ho9  1  0.209222  0.419530  0.435664  1
  Ho  Ho10  1  0.580471  0.790780  0.435669  1
  Ho  Ho11  1  0.789528  0.210471  0.561452  1
  Ho  Ho12  1  0.788658  0.578652  0.561679  1
  Ho  Ho13  1  0.421349  0.211344  0.561679  1
  Ho  Ho14  1  0.789528  0.210471  0.938548  1
  Ho  Ho15  1  0.788658  0.578652  0.938321  1
  Ho  Ho16  1  0.421349  0.211344  0.938321  1
  Ho  Ho17  1  0.210073  0.789928  0.063361  1
  Ho  Ho18  1  0.209222  0.419530  0.064336  1
  Ho  Ho19  1  0.580471  0.790780  0.064331  1
  Zn  Zn20  1  0.883186  0.116813  0.250000  1
  Zn  Zn21  1  0.880946  0.763477  0.250000  1
  Zn  Zn22  1  0.236522  0.119056  0.250000  1
  Zn  Zn23  1  0.112138  0.887863  0.750000  1
  Cd  Cd24  1  0.111614  0.220965  0.750000  1
  Cd  Cd25  1  0.779033  0.888384  0.750000  1
  Co  Co26  1  0.333991  0.666007  0.250000  1
  Co  Co27  1  0.666522  0.333470  0.750000  1
