# generated using pymatgen
data_Sm4Co3Ni(SnH)4
_symmetry_space_group_name_H-M   'P 1'
_cell_length_a   4.32926400
_cell_length_b   7.20649915
_cell_length_c   8.31644000
_cell_angle_alpha   90.50902260
_cell_angle_beta   90.00000000
_cell_angle_gamma   90.00000000
_symmetry_Int_Tables_number   1
_chemical_formula_structural   Sm4Co3Ni(SnH)4
_chemical_formula_sum   'Sm4 Co3 Ni1 Sn4 H4'
_cell_volume   259.45301914
_cell_formula_units_Z   1
loop_
 _symmetry_equiv_pos_site_id
 _symmetry_equiv_pos_as_xyz
  1  'x, y, z'
loop_
 _atom_site_type_symbol
 _atom_site_label
 _atom_site_symmetry_multiplicity
 _atom_site_fract_x
 _atom_site_fract_y
 _atom_site_fract_z
 _atom_site_occupancy
  Sm  Sm0  1  0.750000  0.013797  0.688155  1
  Sm  Sm1  1  0.250000  0.988386  0.313235  1
  Sm  Sm2  1  0.250000  0.485065  0.188688  1
  Sm  Sm3  1  0.750000  0.509893  0.810284  1
  Co  Co4  1  0.250000  0.222608  0.900087  1
  Co  Co5  1  0.250000  0.723190  0.602406  1
  Co  Co6  1  0.750000  0.275657  0.395986  1
  Ni  Ni7  1  0.750000  0.779513  0.101876  1
  Sn  Sn8  1  0.750000  0.654455  0.430731  1
  Sn  Sn9  1  0.250000  0.343644  0.571332  1
  Sn  Sn10  1  0.250000  0.844896  0.926806  1
  Sn  Sn11  1  0.750000  0.159359  0.071487  1
  H  H12  1  0.250000  0.441293  0.918406  1
  H  H13  1  0.750000  0.558983  0.080237  1
  H  H14  1  0.750000  0.057488  0.418681  1
  H  H15  1  0.250000  0.941772  0.581603  1
