# generated using pymatgen
data_Rb2TmInBr6
_symmetry_space_group_name_H-M   'P 1'
_cell_length_a   8.14519422
_cell_length_b   8.14519484
_cell_length_c   8.38898303
_cell_angle_alpha   119.16481926
_cell_angle_beta   119.16482557
_cell_angle_gamma   60.74423679
_symmetry_Int_Tables_number   1
_chemical_formula_structural   Rb2TmInBr6
_chemical_formula_sum   'Rb2 Tm1 In1 Br6'
_cell_volume   400.69108744
_cell_formula_units_Z   1
loop_
 _symmetry_equiv_pos_site_id
 _symmetry_equiv_pos_as_xyz
  1  'x, y, z'
loop_
 _atom_site_type_symbol
 _atom_site_label
 _atom_site_symmetry_multiplicity
 _atom_site_fract_x
 _atom_site_fract_y
 _atom_site_fract_z
 _atom_site_occupancy
  Rb  Rb0  1  0.245536  0.245536  0.227375  1
  Rb  Rb1  1  0.754464  0.754464  0.772626  1
  Tm  Tm2  1  0.500000  0.500000  0.000000  1
  In  In3  1  0.000000  0.000000  0.499999  1
  Br  Br4  1  0.675225  0.203988  0.164234  1
  Br  Br5  1  0.203988  0.675225  0.164234  1
  Br  Br6  1  0.725287  0.725287  0.328824  1
  Br  Br7  1  0.274713  0.274713  0.671176  1
  Br  Br8  1  0.796012  0.324776  0.835765  1
  Br  Br9  1  0.324776  0.796012  0.835765  1
