# generated using pymatgen
data_TbDy5HoCo6Sn23
_symmetry_space_group_name_H-M   'P 1'
_cell_length_a   9.71121953
_cell_length_b   9.70971139
_cell_length_c   9.96033810
_cell_angle_alpha   89.99249482
_cell_angle_beta   90.01618255
_cell_angle_gamma   120.06750163
_symmetry_Int_Tables_number   1
_chemical_formula_structural   TbDy5HoCo6Sn23
_chemical_formula_sum   'Tb1 Dy5 Ho1 Co6 Sn23'
_cell_volume   812.80989690
_cell_formula_units_Z   1
loop_
 _symmetry_equiv_pos_site_id
 _symmetry_equiv_pos_as_xyz
  1  'x, y, z'
loop_
 _atom_site_type_symbol
 _atom_site_label
 _atom_site_symmetry_multiplicity
 _atom_site_fract_x
 _atom_site_fract_y
 _atom_site_fract_z
 _atom_site_occupancy
  Tb  Tb0  1  0.000016  0.000055  0.000141  1
  Dy  Dy1  1  0.521969  0.478047  0.693720  1
  Dy  Dy2  1  0.521940  0.043852  0.693694  1
  Dy  Dy3  1  0.956155  0.478064  0.693732  1
  Dy  Dy4  1  0.043861  0.522022  0.306281  1
  Dy  Dy5  1  0.477969  0.956131  0.306248  1
  Ho  Ho6  1  0.478320  0.521760  0.306090  1
  Co  Co7  1  0.167382  0.832570  0.803514  1
  Co  Co8  1  0.167434  0.334849  0.803312  1
  Co  Co9  1  0.665083  0.832519  0.803260  1
  Co  Co10  1  0.334991  0.167748  0.196696  1
  Co  Co11  1  0.832215  0.665015  0.196711  1
  Co  Co12  1  0.832644  0.167304  0.196652  1
  Sn  Sn13  1  0.666584  0.333339  0.181954  1
  Sn  Sn14  1  0.666662  0.333321  0.883658  1
  Sn  Sn15  1  0.333807  0.666163  0.116733  1
  Sn  Sn16  1  0.345996  0.345971  0.000020  1
  Sn  Sn17  1  0.999914  0.653986  0.000175  1
  Sn  Sn18  1  0.654042  0.999965  0.999942  1
  Sn  Sn19  1  0.654052  0.654062  0.999946  1
  Sn  Sn20  1  0.333469  0.666765  0.818170  1
  Sn  Sn21  1  0.437548  0.219198  0.450504  1
  Sn  Sn22  1  0.218750  0.781237  0.549311  1
  Sn  Sn23  1  0.219086  0.437725  0.549041  1
  Sn  Sn24  1  0.562269  0.780927  0.549072  1
  Sn  Sn25  1  0.118057  0.882008  0.274896  1
  Sn  Sn26  1  0.780801  0.562417  0.450566  1
  Sn  Sn27  1  0.781219  0.218788  0.450665  1
  Sn  Sn28  1  0.346009  0.000034  0.000156  1
  Sn  Sn29  1  0.118488  0.236598  0.274880  1
  Sn  Sn30  1  0.763449  0.881617  0.274865  1
  Sn  Sn31  1  0.236188  0.118034  0.725161  1
  Sn  Sn32  1  0.881880  0.763886  0.725187  1
  Sn  Sn33  1  0.881819  0.117953  0.725127  1
  Sn  Sn34  1  0.999948  0.000165  0.499881  1
  Sn  Sn35  1  0.999985  0.345907  0.000034  1
