# generated using pymatgen
data_Tb2Mn3Fe8NiP7
_symmetry_space_group_name_H-M   'P 1'
_cell_length_a   9.08598971
_cell_length_b   9.05984426
_cell_length_c   3.62173600
_cell_angle_alpha   90.00000000
_cell_angle_beta   90.00000000
_cell_angle_gamma   119.96026036
_symmetry_Int_Tables_number   1
_chemical_formula_structural   Tb2Mn3Fe8NiP7
_chemical_formula_sum   'Tb2 Mn3 Fe8 Ni1 P7'
_cell_volume   258.29390932
_cell_formula_units_Z   1
loop_
 _symmetry_equiv_pos_site_id
 _symmetry_equiv_pos_as_xyz
  1  'x, y, z'
loop_
 _atom_site_type_symbol
 _atom_site_label
 _atom_site_symmetry_multiplicity
 _atom_site_fract_x
 _atom_site_fract_y
 _atom_site_fract_z
 _atom_site_occupancy
  Tb  Tb0  1  0.665946  0.333532  0.000000  1
  Tb  Tb1  1  0.334645  0.666845  0.500000  1
  Mn  Mn2  1  0.104104  0.880535  0.500000  1
  Mn  Mn3  1  0.782083  0.897443  0.500000  1
  Mn  Mn4  1  0.113508  0.215845  0.500000  1
  Fe  Fe5  1  0.575558  0.943198  0.000000  1
  Fe  Fe6  1  0.367376  0.425137  0.000000  1
  Fe  Fe7  1  0.272071  0.119905  0.000000  1
  Fe  Fe8  1  0.844797  0.725031  0.000000  1
  Fe  Fe9  1  0.879673  0.154318  0.000000  1
  Fe  Fe10  1  0.435500  0.051380  0.500000  1
  Fe  Fe11  1  0.611920  0.564715  0.500000  1
  Fe  Fe12  1  0.951107  0.387549  0.500000  1
  Ni  Ni13  1  0.062499  0.632946  0.000000  1
  P  P14  1  0.309597  0.897382  0.000000  1
  P  P15  1  0.587853  0.696997  0.000000  1
  P  P16  1  0.110777  0.408093  0.000000  1
  P  P17  1  0.405301  0.290225  0.500000  1
  P  P18  1  0.876107  0.593571  0.500000  1
  P  P19  1  0.710928  0.117308  0.500000  1
  P  P20  1  0.998650  0.998045  0.000000  1
