# generated using pymatgen
data_Zr4(Pd3Pt)3
_symmetry_space_group_name_H-M   'P 1'
_cell_length_a   5.71403443
_cell_length_b   5.70483266
_cell_length_c   9.38150523
_cell_angle_alpha   89.80491568
_cell_angle_beta   90.00948348
_cell_angle_gamma   119.94834930
_symmetry_Int_Tables_number   1
_chemical_formula_structural   Zr4(Pd3Pt)3
_chemical_formula_sum   'Zr4 Pd9 Pt3'
_cell_volume   264.97903914
_cell_formula_units_Z   1
loop_
 _symmetry_equiv_pos_site_id
 _symmetry_equiv_pos_as_xyz
  1  'x, y, z'
loop_
 _atom_site_type_symbol
 _atom_site_label
 _atom_site_symmetry_multiplicity
 _atom_site_fract_x
 _atom_site_fract_y
 _atom_site_fract_z
 _atom_site_occupancy
  Zr  Zr0  1  0.999240  0.000804  0.498702  1
  Zr  Zr1  1  0.999266  0.000717  0.000900  1
  Zr  Zr2  1  0.333658  0.664156  0.251057  1
  Zr  Zr3  1  0.667393  0.335173  0.749408  1
  Pd  Pd4  1  0.499554  0.000121  0.500560  1
  Pd  Pd5  1  0.499653  0.500270  0.998928  1
  Pd  Pd6  1  0.499638  0.000244  0.999583  1
  Pd  Pd7  1  0.999677  0.500451  0.999631  1
  Pd  Pd8  1  0.830637  0.659653  0.249236  1
  Pd  Pd9  1  0.338792  0.167805  0.248943  1
  Pd  Pd10  1  0.170091  0.831636  0.750909  1
  Pd  Pd11  1  0.169628  0.339758  0.750631  1
  Pd  Pd12  1  0.662238  0.832282  0.750993  1
  Pt  Pt13  1  0.499773  0.500068  0.501555  1
  Pt  Pt14  1  0.999618  0.500551  0.500588  1
  Pt  Pt15  1  0.831144  0.166310  0.248375  1
