# generated using pymatgen
data_Tb4As6Ru3Rh4
_symmetry_space_group_name_H-M   'P 1'
_cell_length_a   7.29176953
_cell_length_b   7.28497287
_cell_length_c   7.28497381
_cell_angle_alpha   109.33959032
_cell_angle_beta   109.51812979
_cell_angle_gamma   109.51813065
_symmetry_Int_Tables_number   1
_chemical_formula_structural   Tb4As6Ru3Rh4
_chemical_formula_sum   'Tb4 As6 Ru3 Rh4'
_cell_volume   298.03578740
_cell_formula_units_Z   1
loop_
 _symmetry_equiv_pos_site_id
 _symmetry_equiv_pos_as_xyz
  1  'x, y, z'
loop_
 _atom_site_type_symbol
 _atom_site_label
 _atom_site_symmetry_multiplicity
 _atom_site_fract_x
 _atom_site_fract_y
 _atom_site_fract_z
 _atom_site_occupancy
  Tb  Tb0  1  0.000000  0.000929  0.500859  1
  Tb  Tb1  1  0.500000  0.999774  0.000226  1
  Tb  Tb2  1  0.000000  0.499141  0.999071  1
  Tb  Tb3  1  0.500000  0.499774  0.500226  1
  As  As4  1  0.680405  0.682105  0.998299  1
  As  As5  1  0.315777  0.317986  0.997791  1
  As  As6  1  0.000000  0.678165  0.682894  1
  As  As7  1  0.000000  0.317106  0.321835  1
  As  As8  1  0.684223  0.002209  0.682014  1
  As  As9  1  0.319595  0.001701  0.317895  1
  Ru  Ru10  1  0.000000  0.000057  0.999943  1
  Ru  Ru11  1  0.250454  0.499606  0.750848  1
  Ru  Ru12  1  0.749546  0.249152  0.500394  1
  Rh  Rh13  1  0.500000  0.251186  0.748814  1
  Rh  Rh14  1  0.500000  0.751186  0.248814  1
  Rh  Rh15  1  0.748295  0.499108  0.249186  1
  Rh  Rh16  1  0.251705  0.750814  0.500892  1
