# generated using pymatgen
data_Dy4HoAlSb2
_symmetry_space_group_name_H-M   'P 1'
_cell_length_a   8.89393900
_cell_length_b   8.89757160
_cell_length_c   6.41115200
_cell_angle_alpha   90.00194118
_cell_angle_beta   89.99903427
_cell_angle_gamma   120.01351313
_symmetry_Int_Tables_number   1
_chemical_formula_structural   Dy4HoAlSb2
_chemical_formula_sum   'Dy8 Ho2 Al2 Sb4'
_cell_volume   439.31212518
_cell_formula_units_Z   2
loop_
 _symmetry_equiv_pos_site_id
 _symmetry_equiv_pos_as_xyz
  1  'x, y, z'
loop_
 _atom_site_type_symbol
 _atom_site_label
 _atom_site_symmetry_multiplicity
 _atom_site_fract_x
 _atom_site_fract_y
 _atom_site_fract_z
 _atom_site_occupancy
  Dy  Dy0  1  0.335774  0.667887  0.000000  1
  Dy  Dy1  1  0.655908  0.327953  0.500000  1
  Dy  Dy2  1  0.755948  0.998940  0.750013  1
  Dy  Dy3  1  0.755948  0.757008  0.249987  1
  Dy  Dy4  1  0.008334  0.242728  0.250018  1
  Dy  Dy5  1  0.008334  0.765605  0.749982  1
  Dy  Dy6  1  0.241358  0.232163  0.750019  1
  Dy  Dy7  1  0.241358  0.009194  0.249981  1
  Ho  Ho8  1  0.655790  0.327894  0.000000  1
  Ho  Ho9  1  0.335794  0.667897  0.500000  1
  Al  Al10  1  0.398165  0.997038  0.750012  1
  Al  Al11  1  0.398165  0.401127  0.249988  1
  Sb  Sb12  1  0.998603  0.606374  0.250020  1
  Sb  Sb13  1  0.998603  0.392229  0.749980  1
  Sb  Sb14  1  0.605961  0.605065  0.750017  1
  Sb  Sb15  1  0.605961  0.000894  0.249983  1
