# generated using pymatgen
data_K4MnCdSe4
_symmetry_space_group_name_H-M   'P 1'
_cell_length_a   8.30289206
_cell_length_b   8.30293699
_cell_length_c   8.30291954
_cell_angle_alpha   132.62506062
_cell_angle_beta   128.46498535
_cell_angle_gamma   72.58843116
_symmetry_Int_Tables_number   1
_chemical_formula_structural   K4MnCdSe4
_chemical_formula_sum   'K4 Mn1 Cd1 Se4'
_cell_volume   322.28777438
_cell_formula_units_Z   1
loop_
 _symmetry_equiv_pos_site_id
 _symmetry_equiv_pos_as_xyz
  1  'x, y, z'
loop_
 _atom_site_type_symbol
 _atom_site_label
 _atom_site_symmetry_multiplicity
 _atom_site_fract_x
 _atom_site_fract_y
 _atom_site_fract_z
 _atom_site_occupancy
  K  K0  1  0.478666  0.145035  0.333531  1
  K  K1  1  0.521333  0.854861  0.666367  1
  K  K2  1  0.188495  0.354961  0.833626  1
  K  K3  1  0.811506  0.645140  0.166472  1
  Mn  Mn4  1  0.000002  0.750005  0.750002  1
  Cd  Cd5  1  0.000000  0.249999  0.250000  1
  Se  Se6  1  0.093215  0.879493  0.187402  1
  Se  Se7  1  0.906784  0.094186  0.786278  1
  Se  Se8  1  0.307909  0.620507  0.713723  1
  Se  Se9  1  0.692091  0.405813  0.312599  1
