# generated using pymatgen
data_Nd2SmCo8P6W
_symmetry_space_group_name_H-M   'P 1'
_cell_length_a   3.76686900
_cell_length_b   10.66938100
_cell_length_c   12.39998000
_cell_angle_alpha   90.00000000
_cell_angle_beta   90.00000000
_cell_angle_gamma   90.00000000
_symmetry_Int_Tables_number   1
_chemical_formula_structural   Nd2SmCo8P6W
_chemical_formula_sum   'Nd4 Sm2 Co16 P12 W2'
_cell_volume   498.35718687
_cell_formula_units_Z   2
loop_
 _symmetry_equiv_pos_site_id
 _symmetry_equiv_pos_as_xyz
  1  'x, y, z'
loop_
 _atom_site_type_symbol
 _atom_site_label
 _atom_site_symmetry_multiplicity
 _atom_site_fract_x
 _atom_site_fract_y
 _atom_site_fract_z
 _atom_site_occupancy
  Nd  Nd0  1  0.000000  0.500000  0.523260  1
  Nd  Nd1  1  0.500000  0.000000  0.476124  1
  Nd  Nd2  1  0.000000  0.681104  0.795085  1
  Nd  Nd3  1  0.000000  0.318896  0.795085  1
  Sm  Sm4  1  0.500000  0.818967  0.204609  1
  Sm  Sm5  1  0.500000  0.181033  0.204609  1
  Co  Co6  1  0.500000  0.500000  0.702631  1
  Co  Co7  1  0.000000  0.000000  0.296379  1
  Co  Co8  1  0.000000  0.500000  0.989002  1
  Co  Co9  1  0.500000  0.000000  0.013003  1
  Co  Co10  1  0.500000  0.332203  0.992649  1
  Co  Co11  1  0.500000  0.667797  0.992649  1
  Co  Co12  1  0.000000  0.166895  0.009285  1
  Co  Co13  1  0.000000  0.833105  0.009285  1
  Co  Co14  1  0.500000  0.295416  0.429833  1
  Co  Co15  1  0.500000  0.704584  0.429833  1
  Co  Co16  1  0.000000  0.204119  0.568552  1
  Co  Co17  1  0.000000  0.795881  0.568552  1
  Co  Co18  1  0.500000  0.880572  0.709130  1
  Co  Co19  1  0.500000  0.119428  0.709130  1
  Co  Co20  1  0.000000  0.620101  0.290148  1
  Co  Co21  1  0.000000  0.379899  0.290148  1
  P  P22  1  0.500000  0.500000  0.885516  1
  P  P23  1  0.000000  0.000000  0.116623  1
  P  P24  1  0.500000  0.500000  0.345278  1
  P  P25  1  0.000000  0.000000  0.654592  1
  P  P26  1  0.500000  0.306769  0.613837  1
  P  P27  1  0.500000  0.693231  0.613837  1
  P  P28  1  0.000000  0.192438  0.384169  1
  P  P29  1  0.000000  0.807562  0.384169  1
  P  P30  1  0.500000  0.846365  0.895443  1
  P  P31  1  0.500000  0.153635  0.895443  1
  P  P32  1  0.000000  0.654763  0.105763  1
  P  P33  1  0.000000  0.345237  0.105763  1
  W  W34  1  0.500000  0.500000  0.154440  1
  W  W35  1  0.000000  0.000000  0.846147  1
