# generated using pymatgen
data_CaLaTb5OsBr12
_symmetry_space_group_name_H-M   'P 1'
_cell_length_a   9.25668136
_cell_length_b   9.44557881
_cell_length_c   9.48392239
_cell_angle_alpha   106.86155215
_cell_angle_beta   106.75685384
_cell_angle_gamma   107.35503327
_symmetry_Int_Tables_number   1
_chemical_formula_structural   CaLaTb5OsBr12
_chemical_formula_sum   'Ca1 La1 Tb5 Os1 Br12'
_cell_volume   690.73579287
_cell_formula_units_Z   1
loop_
 _symmetry_equiv_pos_site_id
 _symmetry_equiv_pos_as_xyz
  1  'x, y, z'
loop_
 _atom_site_type_symbol
 _atom_site_label
 _atom_site_symmetry_multiplicity
 _atom_site_fract_x
 _atom_site_fract_y
 _atom_site_fract_z
 _atom_site_occupancy
  Ca  Ca0  1  0.500775  0.499632  0.498654  1
  La  La1  1  0.694060  0.900011  0.973483  1
  Tb  Tb2  1  0.298861  0.099347  0.027300  1
  Tb  Tb3  1  0.027746  0.320513  0.105395  1
  Tb  Tb4  1  0.108101  0.028759  0.318620  1
  Tb  Tb5  1  0.896496  0.972248  0.683478  1
  Tb  Tb6  1  0.970877  0.679912  0.894313  1
  Os  Os7  1  0.990317  0.997085  0.000809  1
  Br  Br8  1  0.687390  0.235371  0.074594  1
  Br  Br9  1  0.379051  0.451302  0.159297  1
  Br  Br10  1  0.070235  0.682179  0.217805  1
  Br  Br11  1  0.788777  0.933330  0.329292  1
  Br  Br12  1  0.455209  0.158707  0.375202  1
  Br  Br13  1  0.157067  0.377682  0.453184  1
  Br  Br14  1  0.845456  0.622719  0.547463  1
  Br  Br15  1  0.543229  0.837629  0.607393  1
  Br  Br16  1  0.222438  0.071082  0.688961  1
  Br  Br17  1  0.932018  0.318534  0.782655  1
  Br  Br18  1  0.620072  0.531983  0.830867  1
  Br  Br19  1  0.311829  0.781980  0.931239  1
