# generated using pymatgen
data_K4Rb4Hf(ZrTe4)3
_symmetry_space_group_name_H-M   'P 1'
_cell_length_a   14.53496763
_cell_length_b   6.99707157
_cell_length_c   9.65580728
_cell_angle_alpha   71.27237195
_cell_angle_beta   89.99550490
_cell_angle_gamma   90.05649536
_symmetry_Int_Tables_number   1
_chemical_formula_structural   K4Rb4Hf(ZrTe4)3
_chemical_formula_sum   'K4 Rb4 Hf1 Zr3 Te12'
_cell_volume   930.02406687
_cell_formula_units_Z   1
loop_
 _symmetry_equiv_pos_site_id
 _symmetry_equiv_pos_as_xyz
  1  'x, y, z'
loop_
 _atom_site_type_symbol
 _atom_site_label
 _atom_site_symmetry_multiplicity
 _atom_site_fract_x
 _atom_site_fract_y
 _atom_site_fract_z
 _atom_site_occupancy
  K  K0  1  0.864122  0.066026  0.900808  1
  K  K1  1  0.363849  0.437567  0.099566  1
  K  K2  1  0.135889  0.934680  0.099396  1
  K  K3  1  0.636083  0.563314  0.901025  1
  Rb  Rb4  1  0.956112  0.665905  0.655854  1
  Rb  Rb5  1  0.456037  0.835626  0.343672  1
  Rb  Rb6  1  0.044052  0.333403  0.343841  1
  Rb  Rb7  1  0.543891  0.163796  0.656150  1
  Hf  Hf8  1  0.749063  0.680331  0.286429  1
  Zr  Zr9  1  0.249017  0.819211  0.713340  1
  Zr  Zr10  1  0.250972  0.319439  0.713069  1
  Zr  Zr11  1  0.750826  0.181037  0.287969  1
  Te  Te12  1  0.912543  0.913220  0.265385  1
  Te  Te13  1  0.413649  0.583574  0.735874  1
  Te  Te14  1  0.086374  0.083370  0.735971  1
  Te  Te15  1  0.587195  0.418065  0.265978  1
  Te  Te16  1  0.811303  0.305399  0.524009  1
  Te  Te17  1  0.309559  0.198509  0.473807  1
  Te  Te18  1  0.190581  0.698385  0.473839  1
  Te  Te19  1  0.688701  0.800149  0.523335  1
  Te  Te20  1  0.846955  0.504630  0.077752  1
  Te  Te21  1  0.348319  0.997671  0.922953  1
  Te  Te22  1  0.151429  0.497233  0.922941  1
  Te  Te23  1  0.653478  0.999460  0.077036  1
