# generated using pymatgen
data_Y4TaNbOs6
_symmetry_space_group_name_H-M   'P 1'
_cell_length_a   5.56361600
_cell_length_b   5.56361531
_cell_length_c   8.55194600
_cell_angle_alpha   90.00000000
_cell_angle_beta   90.00000000
_cell_angle_gamma   120.00000408
_symmetry_Int_Tables_number   1
_chemical_formula_structural   Y4TaNbOs6
_chemical_formula_sum   'Y4 Ta1 Nb1 Os6'
_cell_volume   229.25024315
_cell_formula_units_Z   1
loop_
 _symmetry_equiv_pos_site_id
 _symmetry_equiv_pos_as_xyz
  1  'x, y, z'
loop_
 _atom_site_type_symbol
 _atom_site_label
 _atom_site_symmetry_multiplicity
 _atom_site_fract_x
 _atom_site_fract_y
 _atom_site_fract_z
 _atom_site_occupancy
  Y  Y0  1  0.333333  0.666667  0.433729  1
  Y  Y1  1  0.666667  0.333333  0.566271  1
  Y  Y2  1  0.666667  0.333333  0.933832  1
  Y  Y3  1  0.333333  0.666667  0.066168  1
  Ta  Ta4  1  0.000000  0.000000  0.500000  1
  Nb  Nb5  1  0.000000  0.000000  0.000000  1
  Os  Os6  1  0.826337  0.173663  0.250634  1
  Os  Os7  1  0.826337  0.652674  0.250634  1
  Os  Os8  1  0.347326  0.173663  0.250634  1
  Os  Os9  1  0.173663  0.826337  0.749366  1
  Os  Os10  1  0.173663  0.347326  0.749366  1
  Os  Os11  1  0.652674  0.826337  0.749366  1
