# generated using pymatgen
data_TbSm2Ga6(CuNi2)3
_symmetry_space_group_name_H-M   'P 1'
_cell_length_a   4.11811800
_cell_length_b   8.84345965
_cell_length_c   8.84345855
_cell_angle_alpha   60.02112490
_cell_angle_beta   90.00000000
_cell_angle_gamma   90.00000000
_symmetry_Int_Tables_number   1
_chemical_formula_structural   TbSm2Ga6(CuNi2)3
_chemical_formula_sum   'Tb1 Sm2 Ga6 Cu3 Ni6'
_cell_volume   278.97556755
_cell_formula_units_Z   1
loop_
 _symmetry_equiv_pos_site_id
 _symmetry_equiv_pos_as_xyz
  1  'x, y, z'
loop_
 _atom_site_type_symbol
 _atom_site_label
 _atom_site_symmetry_multiplicity
 _atom_site_fract_x
 _atom_site_fract_y
 _atom_site_fract_z
 _atom_site_occupancy
  Tb  Tb0  1  0.000000  0.999836  0.000164  1
  Sm  Sm1  1  0.500000  0.333347  0.333328  1
  Sm  Sm2  1  0.500000  0.666672  0.666653  1
  Ga  Ga3  1  0.500000  0.721434  0.278566  1
  Ga  Ga4  1  0.500000  0.278433  0.000003  1
  Ga  Ga5  1  0.500000  0.999997  0.721567  1
  Ga  Ga6  1  0.000000  0.481747  0.518253  1
  Ga  Ga7  1  0.000000  0.518356  0.999841  1
  Ga  Ga8  1  0.000000  0.000159  0.481644  1
  Cu  Cu9  1  0.500000  0.291956  0.708044  1
  Cu  Cu10  1  0.500000  0.708077  0.999984  1
  Cu  Cu11  1  0.500000  0.000016  0.291923  1
  Ni  Ni12  1  0.000000  0.198759  0.172324  1
  Ni  Ni13  1  0.000000  0.172337  0.629231  1
  Ni  Ni14  1  0.000000  0.628971  0.198639  1
  Ni  Ni15  1  0.000000  0.827675  0.801241  1
  Ni  Ni16  1  0.000000  0.370769  0.827663  1
  Ni  Ni17  1  0.000000  0.801361  0.371029  1
