# generated using pymatgen
data_Tb2Co12Si4P3
_symmetry_space_group_name_H-M   'P 1'
_cell_length_a   9.08833200
_cell_length_b   9.08833166
_cell_length_c   3.59867700
_cell_angle_alpha   90.00000000
_cell_angle_beta   90.00000000
_cell_angle_gamma   120.00000123
_symmetry_Int_Tables_number   1
_chemical_formula_structural   Tb2Co12Si4P3
_chemical_formula_sum   'Tb2 Co12 Si4 P3'
_cell_volume   257.41973896
_cell_formula_units_Z   1
loop_
 _symmetry_equiv_pos_site_id
 _symmetry_equiv_pos_as_xyz
  1  'x, y, z'
loop_
 _atom_site_type_symbol
 _atom_site_label
 _atom_site_symmetry_multiplicity
 _atom_site_fract_x
 _atom_site_fract_y
 _atom_site_fract_z
 _atom_site_occupancy
  Tb  Tb0  1  0.333333  0.666667  0.000000  1
  Tb  Tb1  1  0.666667  0.333333  0.500000  1
  Co  Co2  1  0.435482  0.381420  0.000000  1
  Co  Co3  1  0.618580  0.054062  0.000000  1
  Co  Co4  1  0.945938  0.564518  0.000000  1
  Co  Co5  1  0.149109  0.869921  0.000000  1
  Co  Co6  1  0.130079  0.279186  0.000000  1
  Co  Co7  1  0.720814  0.850891  0.000000  1
  Co  Co8  1  0.379469  0.941924  0.500000  1
  Co  Co9  1  0.058076  0.437545  0.500000  1
  Co  Co10  1  0.562455  0.620531  0.500000  1
  Co  Co11  1  0.234465  0.130277  0.500000  1
  Co  Co12  1  0.869723  0.104187  0.500000  1
  Co  Co13  1  0.895813  0.765535  0.500000  1
  Si  Si14  1  0.397286  0.110838  0.000000  1
  Si  Si15  1  0.889162  0.286448  0.000000  1
  Si  Si16  1  0.713552  0.602714  0.000000  1
  Si  Si17  1  0.000000  0.000000  0.000000  1
  P  P18  1  0.107418  0.706873  0.500000  1
  P  P19  1  0.293127  0.400545  0.500000  1
  P  P20  1  0.599455  0.892582  0.500000  1
