# generated using pymatgen
data_Sr5(Zn2Pd)2
_symmetry_space_group_name_H-M   'P 1'
_cell_length_a   15.98585300
_cell_length_b   15.98585280
_cell_length_c   4.48439100
_cell_angle_alpha   90.00000000
_cell_angle_beta   90.00000000
_cell_angle_gamma   164.03080773
_symmetry_Int_Tables_number   1
_chemical_formula_structural   Sr5(Zn2Pd)2
_chemical_formula_sum   'Sr5 Zn4 Pd2'
_cell_volume   315.28112282
_cell_formula_units_Z   1
loop_
 _symmetry_equiv_pos_site_id
 _symmetry_equiv_pos_as_xyz
  1  'x, y, z'
loop_
 _atom_site_type_symbol
 _atom_site_label
 _atom_site_symmetry_multiplicity
 _atom_site_fract_x
 _atom_site_fract_y
 _atom_site_fract_z
 _atom_site_occupancy
  Sr  Sr0  1  0.994302  0.005698  0.000000  1
  Sr  Sr1  1  0.618779  0.381219  0.000000  1
  Sr  Sr2  1  0.384074  0.615924  0.000000  1
  Sr  Sr3  1  0.803295  0.196703  0.500001  1
  Sr  Sr4  1  0.198117  0.801881  0.500001  1
  Zn  Zn5  1  0.272436  0.727562  0.000000  1
  Zn  Zn6  1  0.538428  0.461570  0.500001  1
  Zn  Zn7  1  0.456021  0.543977  0.500001  1
  Zn  Zn8  1  0.089676  0.910323  0.500001  1
  Pd  Pd9  1  0.730059  0.269939  0.000000  1
  Pd  Pd10  1  0.914804  0.085195  0.500001  1
