# generated using pymatgen
data_Ho2Al9ZnCu12
_symmetry_space_group_name_H-M   'P 1'
_cell_length_a   10.36373116
_cell_length_b   8.19084487
_cell_length_c   7.86732900
_cell_angle_alpha   80.36180795
_cell_angle_beta   51.18570768
_cell_angle_gamma   48.45249235
_symmetry_Int_Tables_number   1
_chemical_formula_structural   Ho2Al9ZnCu12
_chemical_formula_sum   'Ho2 Al9 Zn1 Cu12'
_cell_volume   352.38154575
_cell_formula_units_Z   1
loop_
 _symmetry_equiv_pos_site_id
 _symmetry_equiv_pos_as_xyz
  1  'x, y, z'
loop_
 _atom_site_type_symbol
 _atom_site_label
 _atom_site_symmetry_multiplicity
 _atom_site_fract_x
 _atom_site_fract_y
 _atom_site_fract_z
 _atom_site_occupancy
  Ho  Ho0  1  0.000000  0.000000  0.000000  1
  Ho  Ho1  1  0.250000  0.250000  0.250000  1
  Al  Al2  1  0.750000  0.750000  0.750000  1
  Al  Al3  1  0.755924  0.070651  0.833473  1
  Al  Al4  1  0.833473  0.339953  0.755924  1
  Al  Al5  1  0.070651  0.755924  0.339953  1
  Al  Al6  1  0.339953  0.833473  0.070651  1
  Al  Al7  1  0.494103  0.180455  0.417115  1
  Al  Al8  1  0.417115  0.908325  0.494103  1
  Al  Al9  1  0.180455  0.494103  0.908325  1
  Al  Al10  1  0.908325  0.417115  0.180455  1
  Zn  Zn11  1  0.500000  0.500000  0.500000  1
  Cu  Cu12  1  0.625058  0.124258  0.626155  1
  Cu  Cu13  1  0.626155  0.624530  0.625058  1
  Cu  Cu14  1  0.124258  0.625058  0.624530  1
  Cu  Cu15  1  0.624530  0.626155  0.124258  1
  Cu  Cu16  1  0.491143  0.434086  0.182692  1
  Cu  Cu17  1  0.182692  0.892078  0.491143  1
  Cu  Cu18  1  0.434086  0.491143  0.892078  1
  Cu  Cu19  1  0.892078  0.182692  0.434086  1
  Cu  Cu20  1  0.758330  0.816391  0.066841  1
  Cu  Cu21  1  0.066841  0.358439  0.758330  1
  Cu  Cu22  1  0.816391  0.758330  0.358439  1
  Cu  Cu23  1  0.358439  0.066841  0.816391  1
