# generated using pymatgen
data_PrY4Zr3(As3Rh4)4
_symmetry_space_group_name_H-M   'P 1'
_cell_length_a   13.36457100
_cell_length_b   13.36457125
_cell_length_c   4.03253300
_cell_angle_alpha   90.00000000
_cell_angle_beta   90.00000000
_cell_angle_gamma   120.00000185
_symmetry_Int_Tables_number   1
_chemical_formula_structural   PrY4Zr3(As3Rh4)4
_chemical_formula_sum   'Pr1 Y4 Zr3 As12 Rh16'
_cell_volume   623.76155951
_cell_formula_units_Z   1
loop_
 _symmetry_equiv_pos_site_id
 _symmetry_equiv_pos_as_xyz
  1  'x, y, z'
loop_
 _atom_site_type_symbol
 _atom_site_label
 _atom_site_symmetry_multiplicity
 _atom_site_fract_x
 _atom_site_fract_y
 _atom_site_fract_z
 _atom_site_occupancy
  Pr  Pr0  1  0.333333  0.666667  0.000000  1
  Y  Y1  1  0.187403  0.187917  0.500000  1
  Y  Y2  1  0.812083  0.999486  0.500000  1
  Y  Y3  1  0.000514  0.812597  0.500000  1
  Y  Y4  1  0.666667  0.333333  0.000000  1
  Zr  Zr5  1  0.556831  0.555658  0.000000  1
  Zr  Zr6  1  0.444342  0.001173  0.000000  1
  Zr  Zr7  1  0.998827  0.443169  0.000000  1
  As  As8  1  0.825462  0.824511  0.000000  1
  As  As9  1  0.175489  0.000951  0.000000  1
  As  As10  1  0.999049  0.174538  0.000000  1
  As  As11  1  0.167686  0.482742  0.500000  1
  As  As12  1  0.517258  0.684944  0.500000  1
  As  As13  1  0.315056  0.832314  0.500000  1
  As  As14  1  0.685286  0.514452  0.500000  1
  As  As15  1  0.829166  0.314714  0.500000  1
  As  As16  1  0.485548  0.170834  0.500000  1
  As  As17  1  0.354669  0.354308  0.000000  1
  As  As18  1  0.645692  0.000361  0.000000  1
  As  As19  1  0.999639  0.645331  0.000000  1
  Rh  Rh20  1  0.720842  0.719413  0.500000  1
  Rh  Rh21  1  0.280587  0.001430  0.500000  1
  Rh  Rh22  1  0.998570  0.279158  0.500000  1
  Rh  Rh23  1  0.175040  0.371727  0.000000  1
  Rh  Rh24  1  0.628273  0.803313  0.000000  1
  Rh  Rh25  1  0.196687  0.824960  0.000000  1
  Rh  Rh26  1  0.802928  0.626057  0.000000  1
  Rh  Rh27  1  0.823129  0.197072  0.000000  1
  Rh  Rh28  1  0.373943  0.176871  0.000000  1
  Rh  Rh29  1  0.354057  0.478921  0.500000  1
  Rh  Rh30  1  0.521079  0.875137  0.500000  1
  Rh  Rh31  1  0.124863  0.645943  0.500000  1
  Rh  Rh32  1  0.870856  0.516303  0.500000  1
  Rh  Rh33  1  0.645449  0.129144  0.500000  1
  Rh  Rh34  1  0.483697  0.354551  0.500000  1
  Rh  Rh35  1  0.000000  0.000000  0.000000  1
