# generated using pymatgen
data_Sm6MgCo(P3Rh4)4
_symmetry_space_group_name_H-M   'P 1'
_cell_length_a   3.93862000
_cell_length_b   11.25444200
_cell_length_c   12.92814500
_cell_angle_alpha   90.00000000
_cell_angle_beta   90.00000000
_cell_angle_gamma   90.00000000
_symmetry_Int_Tables_number   1
_chemical_formula_structural   Sm6MgCo(P3Rh4)4
_chemical_formula_sum   'Sm6 Mg1 Co1 P12 Rh16'
_cell_volume   573.06550010
_cell_formula_units_Z   1
loop_
 _symmetry_equiv_pos_site_id
 _symmetry_equiv_pos_as_xyz
  1  'x, y, z'
loop_
 _atom_site_type_symbol
 _atom_site_label
 _atom_site_symmetry_multiplicity
 _atom_site_fract_x
 _atom_site_fract_y
 _atom_site_fract_z
 _atom_site_occupancy
  Sm  Sm0  1  0.000000  0.500000  0.519141  1
  Sm  Sm1  1  0.500000  0.000000  0.478614  1
  Sm  Sm2  1  0.500000  0.820655  0.204292  1
  Sm  Sm3  1  0.500000  0.179345  0.204292  1
  Sm  Sm4  1  0.000000  0.685984  0.797422  1
  Sm  Sm5  1  0.000000  0.314016  0.797422  1
  Mg  Mg6  1  0.500000  0.500000  0.155607  1
  Co  Co7  1  0.500000  0.000000  0.019581  1
  P  P8  1  0.500000  0.500000  0.880951  1
  P  P9  1  0.000000  0.000000  0.117447  1
  P  P10  1  0.500000  0.500000  0.351713  1
  P  P11  1  0.000000  0.000000  0.649039  1
  P  P12  1  0.500000  0.313909  0.618301  1
  P  P13  1  0.500000  0.686091  0.618301  1
  P  P14  1  0.000000  0.187589  0.383313  1
  P  P15  1  0.000000  0.812411  0.383313  1
  P  P16  1  0.500000  0.857990  0.894433  1
  P  P17  1  0.500000  0.142010  0.894433  1
  P  P18  1  0.000000  0.662614  0.105076  1
  P  P19  1  0.000000  0.337386  0.105076  1
  Rh  Rh20  1  0.000000  0.000000  0.828331  1
  Rh  Rh21  1  0.500000  0.500000  0.703519  1
  Rh  Rh22  1  0.000000  0.000000  0.297589  1
  Rh  Rh23  1  0.000000  0.500000  0.984497  1
  Rh  Rh24  1  0.500000  0.328888  0.994880  1
  Rh  Rh25  1  0.500000  0.671112  0.994880  1
  Rh  Rh26  1  0.000000  0.158829  0.003407  1
  Rh  Rh27  1  0.000000  0.841171  0.003407  1
  Rh  Rh28  1  0.500000  0.288870  0.433141  1
  Rh  Rh29  1  0.500000  0.711130  0.433141  1
  Rh  Rh30  1  0.000000  0.204753  0.572243  1
  Rh  Rh31  1  0.000000  0.795247  0.572243  1
  Rh  Rh32  1  0.500000  0.875615  0.711108  1
  Rh  Rh33  1  0.500000  0.124385  0.711108  1
  Rh  Rh34  1  0.000000  0.625999  0.289370  1
  Rh  Rh35  1  0.000000  0.374001  0.289370  1
