# generated using pymatgen
data_Sc2Co11Si7Rh
_symmetry_space_group_name_H-M   'P 1'
_cell_length_a   9.13590556
_cell_length_b   9.13828533
_cell_length_c   3.58726500
_cell_angle_alpha   90.00000000
_cell_angle_beta   90.00000000
_cell_angle_gamma   120.05786105
_symmetry_Int_Tables_number   1
_chemical_formula_structural   Sc2Co11Si7Rh
_chemical_formula_sum   'Sc2 Co11 Si7 Rh1'
_cell_volume   259.21307162
_cell_formula_units_Z   1
loop_
 _symmetry_equiv_pos_site_id
 _symmetry_equiv_pos_as_xyz
  1  'x, y, z'
loop_
 _atom_site_type_symbol
 _atom_site_label
 _atom_site_symmetry_multiplicity
 _atom_site_fract_x
 _atom_site_fract_y
 _atom_site_fract_z
 _atom_site_occupancy
  Sc  Sc0  1  0.666734  0.335754  0.000000  1
  Sc  Sc1  1  0.006528  0.999104  0.500000  1
  Co  Co2  1  0.953077  0.722501  0.000000  1
  Co  Co3  1  0.278157  0.228926  0.000000  1
  Co  Co4  1  0.484672  0.538832  0.000000  1
  Co  Co5  1  0.453300  0.944273  0.000000  1
  Co  Co6  1  0.056717  0.516506  0.000000  1
  Co  Co7  1  0.713035  0.611284  0.500000  1
  Co  Co8  1  0.382401  0.099997  0.500000  1
  Co  Co9  1  0.902366  0.291037  0.500000  1
  Co  Co10  1  0.552569  0.785309  0.500000  1
  Co  Co11  1  0.206483  0.770426  0.500000  1
  Co  Co12  1  0.233958  0.442436  0.500000  1
  Si  Si13  1  0.735273  0.774795  0.000000  1
  Si  Si14  1  0.214557  0.951897  0.000000  1
  Si  Si15  1  0.058116  0.272672  0.000000  1
  Si  Si16  1  0.447166  0.373395  0.500000  1
  Si  Si17  1  0.618628  0.073875  0.500000  1
  Si  Si18  1  0.926679  0.553328  0.500000  1
  Si  Si19  1  0.334410  0.667547  0.000000  1
  Rh  Rh20  1  0.775173  0.046108  0.000000  1
