# generated using pymatgen
data_La7Lu3Zn2(Si2O)3
_symmetry_space_group_name_H-M   'P 1'
_cell_length_a   10.89321540
_cell_length_b   10.86618122
_cell_length_c   4.44855200
_cell_angle_alpha   90.00000000
_cell_angle_beta   90.00000000
_cell_angle_gamma   119.91624633
_symmetry_Int_Tables_number   1
_chemical_formula_structural   La7Lu3Zn2(Si2O)3
_chemical_formula_sum   'La7 Lu3 Zn2 Si6 O3'
_cell_volume   456.40274316
_cell_formula_units_Z   1
loop_
 _symmetry_equiv_pos_site_id
 _symmetry_equiv_pos_as_xyz
  1  'x, y, z'
loop_
 _atom_site_type_symbol
 _atom_site_label
 _atom_site_symmetry_multiplicity
 _atom_site_fract_x
 _atom_site_fract_y
 _atom_site_fract_z
 _atom_site_occupancy
  La  La0  1  0.214110  0.787600  0.000000  1
  La  La1  1  0.574546  0.787275  0.000000  1
  La  La2  1  0.785885  0.573482  0.000000  1
  La  La3  1  0.000000  0.000000  0.000000  1
  La  La4  1  0.214115  0.426518  0.000000  1
  La  La5  1  0.425454  0.212725  0.000000  1
  La  La6  1  0.785890  0.212400  0.000000  1
  Lu  Lu7  1  0.000000  0.500000  0.500000  1
  Lu  Lu8  1  0.500000  0.500000  0.500000  1
  Lu  Lu9  1  0.500000  0.000000  0.500000  1
  Zn  Zn10  1  0.000002  0.776644  0.500000  1
  Zn  Zn11  1  0.999998  0.223356  0.500000  1
  Si  Si12  1  0.225465  0.222699  0.500000  1
  Si  Si13  1  0.774534  0.997241  0.500000  1
  Si  Si14  1  0.332536  0.666277  0.500000  1
  Si  Si15  1  0.225466  0.002759  0.500000  1
  Si  Si16  1  0.667464  0.333723  0.500000  1
  Si  Si17  1  0.774535  0.777301  0.500000  1
  O  O18  1  0.000000  0.500000  0.000000  1
  O  O19  1  0.500000  0.500000  0.000000  1
  O  O20  1  0.500000  0.000000  0.000000  1
