# generated using pymatgen
data_Pr2Dy(HoSn2)2
_symmetry_space_group_name_H-M   'P 1'
_cell_length_a   8.12957900
_cell_length_b   8.30539400
_cell_length_c   15.66722300
_cell_angle_alpha   90.00000000
_cell_angle_beta   90.00000000
_cell_angle_gamma   90.00000000
_symmetry_Int_Tables_number   1
_chemical_formula_structural   Pr2Dy(HoSn2)2
_chemical_formula_sum   'Pr8 Dy4 Ho8 Sn16'
_cell_volume   1057.84081744
_cell_formula_units_Z   4
loop_
 _symmetry_equiv_pos_site_id
 _symmetry_equiv_pos_as_xyz
  1  'x, y, z'
loop_
 _atom_site_type_symbol
 _atom_site_label
 _atom_site_symmetry_multiplicity
 _atom_site_fract_x
 _atom_site_fract_y
 _atom_site_fract_z
 _atom_site_occupancy
  Pr  Pr0  1  0.514127  0.321770  0.903096  1
  Pr  Pr1  1  0.014127  0.178230  0.596904  1
  Pr  Pr2  1  0.485873  0.678230  0.403096  1
  Pr  Pr3  1  0.985873  0.821770  0.096904  1
  Pr  Pr4  1  0.485822  0.678201  0.096871  1
  Pr  Pr5  1  0.985822  0.821799  0.403129  1
  Pr  Pr6  1  0.514178  0.321799  0.596871  1
  Pr  Pr7  1  0.014178  0.178201  0.903129  1
  Dy  Dy8  1  0.639210  0.163990  0.122952  1
  Dy  Dy9  1  0.139210  0.336010  0.377048  1
  Dy  Dy10  1  0.360790  0.836010  0.622952  1
  Dy  Dy11  1  0.860790  0.663990  0.877048  1
  Ho  Ho12  1  0.360758  0.836089  0.877053  1
  Ho  Ho13  1  0.860758  0.663911  0.622947  1
  Ho  Ho14  1  0.639242  0.163911  0.377053  1
  Ho  Ho15  1  0.139242  0.336089  0.122947  1
  Ho  Ho16  1  0.195129  0.502510  0.750019  1
  Ho  Ho17  1  0.695129  0.997490  0.749981  1
  Ho  Ho18  1  0.804871  0.497490  0.250019  1
  Ho  Ho19  1  0.304871  0.002510  0.249981  1
  Sn  Sn20  1  0.303664  0.041188  0.041987  1
  Sn  Sn21  1  0.803664  0.458812  0.458013  1
  Sn  Sn22  1  0.696336  0.958812  0.541987  1
  Sn  Sn23  1  0.196336  0.541188  0.958013  1
  Sn  Sn24  1  0.696015  0.958812  0.957901  1
  Sn  Sn25  1  0.196015  0.541188  0.542099  1
  Sn  Sn26  1  0.303985  0.041188  0.457901  1
  Sn  Sn27  1  0.803985  0.458812  0.042099  1
  Sn  Sn28  1  0.560188  0.624514  0.749995  1
  Sn  Sn29  1  0.060188  0.875486  0.750005  1
  Sn  Sn30  1  0.439812  0.375486  0.249995  1
  Sn  Sn31  1  0.939812  0.124514  0.250005  1
  Sn  Sn32  1  0.323813  0.141801  0.750052  1
  Sn  Sn33  1  0.823813  0.358199  0.749948  1
  Sn  Sn34  1  0.676187  0.858199  0.250052  1
  Sn  Sn35  1  0.176187  0.641801  0.249948  1
