# generated using pymatgen
data_Tb3DyMoOs7
_symmetry_space_group_name_H-M   'P 1'
_cell_length_a   5.30247805
_cell_length_b   5.30248023
_cell_length_c   8.91776302
_cell_angle_alpha   89.99274645
_cell_angle_beta   90.00725237
_cell_angle_gamma   117.91340443
_symmetry_Int_Tables_number   1
_chemical_formula_structural   Tb3DyMoOs7
_chemical_formula_sum   'Tb3 Dy1 Mo1 Os7'
_cell_volume   221.56295854
_cell_formula_units_Z   1
loop_
 _symmetry_equiv_pos_site_id
 _symmetry_equiv_pos_as_xyz
  1  'x, y, z'
loop_
 _atom_site_type_symbol
 _atom_site_label
 _atom_site_symmetry_multiplicity
 _atom_site_fract_x
 _atom_site_fract_y
 _atom_site_fract_z
 _atom_site_occupancy
  Tb  Tb0  1  0.330017  0.669983  0.437884  1
  Tb  Tb1  1  0.666441  0.333559  0.566020  1
  Tb  Tb2  1  0.666445  0.333555  0.934095  1
  Dy  Dy3  1  0.329907  0.670093  0.062092  1
  Mo  Mo4  1  0.833075  0.166925  0.249781  1
  Os  Os5  1  0.993086  0.006914  0.501759  1
  Os  Os6  1  0.993181  0.006819  0.998295  1
  Os  Os7  1  0.826990  0.652916  0.249624  1
  Os  Os8  1  0.347084  0.173010  0.249624  1
  Os  Os9  1  0.178394  0.821606  0.750322  1
  Os  Os10  1  0.172417  0.337038  0.750252  1
  Os  Os11  1  0.662962  0.827583  0.750252  1
