# generated using pymatgen
data_Dy2Ho2TcB12Ru
_symmetry_space_group_name_H-M   'P 1'
_cell_length_a   3.66776700
_cell_length_b   9.14198607
_cell_length_c   11.53198600
_cell_angle_alpha   89.85139046
_cell_angle_beta   90.00000000
_cell_angle_gamma   90.00000000
_symmetry_Int_Tables_number   1
_chemical_formula_structural   Dy2Ho2TcB12Ru
_chemical_formula_sum   'Dy4 Ho4 Tc2 B24 Ru2'
_cell_volume   386.67397203
_cell_formula_units_Z   2
loop_
 _symmetry_equiv_pos_site_id
 _symmetry_equiv_pos_as_xyz
  1  'x, y, z'
loop_
 _atom_site_type_symbol
 _atom_site_label
 _atom_site_symmetry_multiplicity
 _atom_site_fract_x
 _atom_site_fract_y
 _atom_site_fract_z
 _atom_site_occupancy
  Dy  Dy0  1  0.000000  0.325060  0.415541  1
  Dy  Dy1  1  0.000000  0.674940  0.584459  1
  Dy  Dy2  1  0.000000  0.821391  0.087392  1
  Dy  Dy3  1  0.000000  0.178609  0.912608  1
  Ho  Ho4  1  0.000000  0.942182  0.370605  1
  Ho  Ho5  1  0.000000  0.057818  0.629395  1
  Ho  Ho6  1  0.000000  0.443152  0.130007  1
  Ho  Ho7  1  0.000000  0.556848  0.869993  1
  Tc  Tc8  1  0.000000  0.638692  0.320085  1
  Tc  Tc9  1  0.000000  0.361308  0.679915  1
  B  B10  1  0.500000  0.553199  0.432874  1
  B  B11  1  0.500000  0.446801  0.567126  1
  B  B12  1  0.500000  0.053924  0.067139  1
  B  B13  1  0.500000  0.946076  0.932861  1
  B  B14  1  0.500000  0.748514  0.418805  1
  B  B15  1  0.500000  0.251486  0.581195  1
  B  B16  1  0.500000  0.248556  0.081210  1
  B  B17  1  0.500000  0.751444  0.918790  1
  B  B18  1  0.500000  0.791518  0.265379  1
  B  B19  1  0.500000  0.208482  0.734621  1
  B  B20  1  0.500000  0.290600  0.234129  1
  B  B21  1  0.500000  0.709400  0.765871  1
  B  B22  1  0.500000  0.631297  0.185240  1
  B  B23  1  0.500000  0.368703  0.814760  1
  B  B24  1  0.500000  0.130983  0.313996  1
  B  B25  1  0.500000  0.869017  0.686004  1
  B  B26  1  0.500000  0.983243  0.212018  1
  B  B27  1  0.500000  0.016757  0.787982  1
  B  B28  1  0.500000  0.482713  0.287520  1
  B  B29  1  0.500000  0.517287  0.712480  1
  B  B30  1  0.500000  0.603676  0.028545  1
  B  B31  1  0.500000  0.396324  0.971455  1
  B  B32  1  0.500000  0.103712  0.471130  1
  B  B33  1  0.500000  0.896288  0.528870  1
  Ru  Ru34  1  0.000000  0.137890  0.178600  1
  Ru  Ru35  1  0.000000  0.862110  0.821400  1
