# generated using pymatgen
data_Ho2ThZnAu5
_symmetry_space_group_name_H-M   'P 1'
_cell_length_a   8.46410218
_cell_length_b   8.46410291
_cell_length_c   13.53351900
_cell_angle_alpha   90.00000000
_cell_angle_beta   90.00000000
_cell_angle_gamma   127.21973039
_symmetry_Int_Tables_number   1
_chemical_formula_structural   Ho2ThZnAu5
_chemical_formula_sum   'Ho8 Th4 Zn4 Au20'
_cell_volume   772.07786938
_cell_formula_units_Z   4
loop_
 _symmetry_equiv_pos_site_id
 _symmetry_equiv_pos_as_xyz
  1  'x, y, z'
loop_
 _atom_site_type_symbol
 _atom_site_label
 _atom_site_symmetry_multiplicity
 _atom_site_fract_x
 _atom_site_fract_y
 _atom_site_fract_z
 _atom_site_occupancy
  Ho  Ho0  1  0.630606  0.369394  0.460712  1
  Ho  Ho1  1  0.369394  0.630606  0.539288  1
  Ho  Ho2  1  0.630606  0.369394  0.039288  1
  Ho  Ho3  1  0.369394  0.630606  0.960712  1
  Ho  Ho4  1  0.882125  0.117875  0.951657  1
  Ho  Ho5  1  0.117875  0.882125  0.048343  1
  Ho  Ho6  1  0.882125  0.117875  0.548343  1
  Ho  Ho7  1  0.117875  0.882125  0.451657  1
  Th  Th8  1  0.930543  0.069457  0.250000  1
  Th  Th9  1  0.069457  0.930543  0.750000  1
  Th  Th10  1  0.319453  0.680547  0.250000  1
  Th  Th11  1  0.680547  0.319453  0.750000  1
  Zn  Zn12  1  0.718750  0.281250  0.250000  1
  Zn  Zn13  1  0.281250  0.718750  0.750000  1
  Zn  Zn14  1  0.534121  0.465879  0.250000  1
  Zn  Zn15  1  0.465879  0.534121  0.750000  1
  Au  Au16  1  0.318253  0.064748  0.250000  1
  Au  Au17  1  0.064748  0.318253  0.750000  1
  Au  Au18  1  0.681747  0.935252  0.750000  1
  Au  Au19  1  0.935252  0.681747  0.250000  1
  Au  Au20  1  0.570333  0.005215  0.398471  1
  Au  Au21  1  0.005215  0.570333  0.601529  1
  Au  Au22  1  0.570333  0.005215  0.101529  1
  Au  Au23  1  0.005215  0.570333  0.898471  1
  Au  Au24  1  0.429667  0.994785  0.601529  1
  Au  Au25  1  0.994785  0.429667  0.398471  1
  Au  Au26  1  0.429667  0.994785  0.898471  1
  Au  Au27  1  0.994785  0.429667  0.101529  1
  Au  Au28  1  0.684607  0.739790  0.396673  1
  Au  Au29  1  0.739790  0.684607  0.603327  1
  Au  Au30  1  0.684607  0.739790  0.103327  1
  Au  Au31  1  0.739790  0.684607  0.896673  1
  Au  Au32  1  0.315393  0.260210  0.603327  1
  Au  Au33  1  0.260210  0.315393  0.396673  1
  Au  Au34  1  0.315393  0.260210  0.896673  1
  Au  Au35  1  0.260210  0.315393  0.103327  1
