# generated using pymatgen
data_Si16Mo4IrPt10Rh
_symmetry_space_group_name_H-M   'P 1'
_cell_length_a   3.51594500
_cell_length_b   5.52913610
_cell_length_c   24.60042344
_cell_angle_alpha   89.97842909
_cell_angle_beta   90.00000000
_cell_angle_gamma   90.00000000
_symmetry_Int_Tables_number   1
_chemical_formula_structural   Si16Mo4IrPt10Rh
_chemical_formula_sum   'Si16 Mo4 Ir1 Pt10 Rh1'
_cell_volume   478.23560284
_cell_formula_units_Z   1
loop_
 _symmetry_equiv_pos_site_id
 _symmetry_equiv_pos_as_xyz
  1  'x, y, z'
loop_
 _atom_site_type_symbol
 _atom_site_label
 _atom_site_symmetry_multiplicity
 _atom_site_fract_x
 _atom_site_fract_y
 _atom_site_fract_z
 _atom_site_occupancy
  Si  Si0  1  0.250000  0.174482  0.521091  1
  Si  Si1  1  0.750000  0.323890  0.021194  1
  Si  Si2  1  0.250000  0.672488  0.982509  1
  Si  Si3  1  0.750000  0.827861  0.482212  1
  Si  Si4  1  0.750000  0.318416  0.644406  1
  Si  Si5  1  0.250000  0.180773  0.144123  1
  Si  Si6  1  0.750000  0.819878  0.854161  1
  Si  Si7  1  0.250000  0.680432  0.354052  1
  Si  Si8  1  0.250000  0.669527  0.608980  1
  Si  Si9  1  0.750000  0.831844  0.108865  1
  Si  Si10  1  0.250000  0.161659  0.890474  1
  Si  Si11  1  0.750000  0.338145  0.390398  1
  Si  Si12  1  0.750000  0.829797  0.726016  1
  Si  Si13  1  0.250000  0.670508  0.225902  1
  Si  Si14  1  0.750000  0.331122  0.773595  1
  Si  Si15  1  0.250000  0.168731  0.273502  1
  Mo  Mo16  1  0.250000  0.503171  0.709698  1
  Mo  Mo17  1  0.750000  0.996732  0.209776  1
  Mo  Mo18  1  0.250000  0.004923  0.789566  1
  Mo  Mo19  1  0.750000  0.495098  0.289664  1
  Ir  Ir20  1  0.750000  0.000509  0.573554  1
  Pt  Pt21  1  0.750000  0.502425  0.925493  1
  Pt  Pt22  1  0.250000  0.997550  0.425509  1
  Pt  Pt23  1  0.250000  0.005018  0.670369  1
  Pt  Pt24  1  0.750000  0.494667  0.170216  1
  Pt  Pt25  1  0.250000  0.503826  0.829862  1
  Pt  Pt26  1  0.750000  0.996113  0.329956  1
  Pt  Pt27  1  0.750000  0.501648  0.549138  1
  Pt  Pt28  1  0.250000  0.999367  0.049055  1
  Pt  Pt29  1  0.750000  0.003645  0.951432  1
  Pt  Pt30  1  0.250000  0.496154  0.451522  1
  Rh  Rh31  1  0.250000  0.499600  0.073711  1
