# generated using pymatgen
data_Th2CdCoPd
_symmetry_space_group_name_H-M   'P 1'
_cell_length_a   7.79674600
_cell_length_b   7.75351900
_cell_length_c   3.73524600
_cell_angle_alpha   90.00000000
_cell_angle_beta   90.00000000
_cell_angle_gamma   90.00000000
_symmetry_Int_Tables_number   1
_chemical_formula_structural   Th2CdCoPd
_chemical_formula_sum   'Th4 Cd2 Co2 Pd2'
_cell_volume   225.80390641
_cell_formula_units_Z   2
loop_
 _symmetry_equiv_pos_site_id
 _symmetry_equiv_pos_as_xyz
  1  'x, y, z'
loop_
 _atom_site_type_symbol
 _atom_site_label
 _atom_site_symmetry_multiplicity
 _atom_site_fract_x
 _atom_site_fract_y
 _atom_site_fract_z
 _atom_site_occupancy
  Th  Th0  1  0.328640  0.852695  0.500000  1
  Th  Th1  1  0.828640  0.647305  0.500000  1
  Th  Th2  1  0.174135  0.310343  0.500000  1
  Th  Th3  1  0.674135  0.189657  0.500000  1
  Cd  Cd4  1  0.995110  0.998974  0.000000  1
  Cd  Cd5  1  0.495110  0.501026  0.000000  1
  Co  Co6  1  0.369198  0.129574  0.000000  1
  Co  Co7  1  0.869198  0.370426  0.000000  1
  Pd  Pd8  1  0.132917  0.625932  0.000000  1
  Pd  Pd9  1  0.632917  0.874068  0.000000  1
