# generated using pymatgen
data_Nd12TlCo4Pd
_symmetry_space_group_name_H-M   'P 1'
_cell_length_a   8.60247147
_cell_length_b   8.60247220
_cell_length_c   8.60247100
_cell_angle_alpha   111.21926601
_cell_angle_beta   109.66467166
_cell_angle_gamma   107.55056048
_symmetry_Int_Tables_number   1
_chemical_formula_structural   Nd12TlCo4Pd
_chemical_formula_sum   'Nd12 Tl1 Co4 Pd1'
_cell_volume   489.55367928
_cell_formula_units_Z   1
loop_
 _symmetry_equiv_pos_site_id
 _symmetry_equiv_pos_as_xyz
  1  'x, y, z'
loop_
 _atom_site_type_symbol
 _atom_site_label
 _atom_site_symmetry_multiplicity
 _atom_site_fract_x
 _atom_site_fract_y
 _atom_site_fract_z
 _atom_site_occupancy
  Nd  Nd0  1  0.405973  0.208270  0.197701  1
  Nd  Nd1  1  0.594027  0.791730  0.802299  1
  Nd  Nd2  1  0.010569  0.208270  0.802298  1
  Nd  Nd3  1  0.989431  0.791730  0.197702  1
  Nd  Nd4  1  0.184747  0.297609  0.482356  1
  Nd  Nd5  1  0.815253  0.702391  0.517644  1
  Nd  Nd6  1  0.184747  0.702391  0.887139  1
  Nd  Nd7  1  0.815253  0.297609  0.112861  1
  Nd  Nd8  1  0.317560  0.623834  0.306273  1
  Nd  Nd9  1  0.682440  0.376166  0.693727  1
  Nd  Nd10  1  0.317560  0.011286  0.693726  1
  Nd  Nd11  1  0.682440  0.988714  0.306274  1
  Tl  Tl12  1  0.500000  0.500000  0.000000  1
  Co  Co13  1  0.377351  0.000000  0.377351  1
  Co  Co14  1  0.622649  0.000000  0.622649  1
  Co  Co15  1  0.112162  0.612162  0.500000  1
  Co  Co16  1  0.887838  0.387838  0.500000  1
  Pd  Pd17  1  0.000000  0.000000  0.000000  1
