# generated using pymatgen
data_Nd19Ho(IrPt)6
_symmetry_space_group_name_H-M   'P 1'
_cell_length_a   11.39547253
_cell_length_b   11.39141194
_cell_length_c   6.49982318
_cell_angle_alpha   89.98780696
_cell_angle_beta   90.08574432
_cell_angle_gamma   90.04506387
_symmetry_Int_Tables_number   1
_chemical_formula_structural   Nd19Ho(IrPt)6
_chemical_formula_sum   'Nd19 Ho1 Ir6 Pt6'
_cell_volume   843.74421453
_cell_formula_units_Z   1
loop_
 _symmetry_equiv_pos_site_id
 _symmetry_equiv_pos_as_xyz
  1  'x, y, z'
loop_
 _atom_site_type_symbol
 _atom_site_label
 _atom_site_symmetry_multiplicity
 _atom_site_fract_x
 _atom_site_fract_y
 _atom_site_fract_z
 _atom_site_occupancy
  Nd  Nd0  1  0.295078  0.091699  0.374020  1
  Nd  Nd1  1  0.295116  0.908508  0.874054  1
  Nd  Nd2  1  0.704343  0.088281  0.873707  1
  Nd  Nd3  1  0.704633  0.911636  0.373297  1
  Nd  Nd4  1  0.585292  0.791492  0.873876  1
  Nd  Nd5  1  0.584978  0.209274  0.374656  1
  Nd  Nd6  1  0.409800  0.791548  0.380228  1
  Nd  Nd7  1  0.409586  0.207634  0.879466  1
  Nd  Nd8  1  0.211061  0.413042  0.621028  1
  Nd  Nd9  1  0.210187  0.587023  0.121766  1
  Nd  Nd10  1  0.794436  0.411078  0.124707  1
  Nd  Nd11  1  0.793796  0.588666  0.623722  1
  Nd  Nd12  1  0.912881  0.704994  0.125665  1
  Nd  Nd13  1  0.912742  0.294857  0.626216  1
  Nd  Nd14  1  0.092767  0.704463  0.626852  1
  Nd  Nd15  1  0.092675  0.295552  0.126461  1
  Nd  Nd16  1  0.999750  0.998980  0.499853  1
  Nd  Nd17  1  0.999896  0.000955  0.000082  1
  Nd  Nd18  1  0.496940  0.499037  0.000170  1
  Ho  Ho19  1  0.496694  0.501093  0.500236  1
  Ir  Ir20  1  0.348807  0.348350  0.253642  1
  Ir  Ir21  1  0.348933  0.651774  0.746119  1
  Ir  Ir22  1  0.500282  0.999267  0.117427  1
  Ir  Ir23  1  0.500228  0.000615  0.617292  1
  Ir  Ir24  1  0.999025  0.500065  0.882619  1
  Ir  Ir25  1  0.999117  0.499964  0.382792  1
  Pt  Pt26  1  0.845010  0.154276  0.250375  1
  Pt  Pt27  1  0.844970  0.845854  0.750169  1
  Pt  Pt28  1  0.153526  0.154268  0.749617  1
  Pt  Pt29  1  0.153499  0.845628  0.249519  1
  Pt  Pt30  1  0.652081  0.348456  0.745884  1
  Pt  Pt31  1  0.651870  0.651672  0.254484  1
