# generated using pymatgen
data_La3Tb13(CdRu)4
_symmetry_space_group_name_H-M   'P 1'
_cell_length_a   9.74543584
_cell_length_b   9.76240252
_cell_length_c   9.74722333
_cell_angle_alpha   59.45309987
_cell_angle_beta   59.51201512
_cell_angle_gamma   59.83384919
_symmetry_Int_Tables_number   1
_chemical_formula_structural   La3Tb13(CdRu)4
_chemical_formula_sum   'La3 Tb13 Cd4 Ru4'
_cell_volume   649.74465007
_cell_formula_units_Z   1
loop_
 _symmetry_equiv_pos_site_id
 _symmetry_equiv_pos_as_xyz
  1  'x, y, z'
loop_
 _atom_site_type_symbol
 _atom_site_label
 _atom_site_symmetry_multiplicity
 _atom_site_fract_x
 _atom_site_fract_y
 _atom_site_fract_z
 _atom_site_occupancy
  La  La0  1  0.060842  0.440300  0.435504  1
  La  La1  1  0.441374  0.059010  0.435549  1
  La  La2  1  0.686042  0.311351  0.687754  1
  Tb  Tb3  1  0.905487  0.903757  0.904320  1
  Tb  Tb4  1  0.441684  0.443029  0.055091  1
  Tb  Tb5  1  0.058942  0.054238  0.440141  1
  Tb  Tb6  1  0.438302  0.058522  0.060076  1
  Tb  Tb7  1  0.313908  0.688448  0.311235  1
  Tb  Tb8  1  0.686840  0.689188  0.307254  1
  Tb  Tb9  1  0.688349  0.313966  0.308044  1
  Tb  Tb10  1  0.287153  0.903327  0.906907  1
  Tb  Tb11  1  0.904717  0.286690  0.907684  1
  Tb  Tb12  1  0.309335  0.687366  0.687508  1
  Tb  Tb13  1  0.906010  0.905609  0.288277  1
  Tb  Tb14  1  0.060230  0.439461  0.057869  1
  Tb  Tb15  1  0.308586  0.312117  0.691262  1
  Cd  Cd16  1  0.670185  0.669860  0.991226  1
  Cd  Cd17  1  0.991014  0.671276  0.671779  1
  Cd  Cd18  1  0.670737  0.988218  0.670770  1
  Cd  Cd19  1  0.668607  0.672420  0.672868  1
  Ru  Ru20  1  0.117640  0.116174  0.660520  1
  Ru  Ru21  1  0.111592  0.113030  0.110005  1
  Ru  Ru22  1  0.108120  0.664279  0.118224  1
  Ru  Ru23  1  0.664305  0.108365  0.120129  1
