# generated using pymatgen
data_LaSc2SiNi8
_symmetry_space_group_name_H-M   'P 1'
_cell_length_a   8.33643566
_cell_length_b   8.33643552
_cell_length_c   8.33643512
_cell_angle_alpha   34.80851739
_cell_angle_beta   34.80851640
_cell_angle_gamma   34.80851905
_symmetry_Int_Tables_number   1
_chemical_formula_structural   LaSc2SiNi8
_chemical_formula_sum   'La1 Sc2 Si1 Ni8'
_cell_volume   168.50586237
_cell_formula_units_Z   1
loop_
 _symmetry_equiv_pos_site_id
 _symmetry_equiv_pos_as_xyz
  1  'x, y, z'
loop_
 _atom_site_type_symbol
 _atom_site_label
 _atom_site_symmetry_multiplicity
 _atom_site_fract_x
 _atom_site_fract_y
 _atom_site_fract_z
 _atom_site_occupancy
  La  La0  1  0.000000  0.000000  0.000000  1
  Sc  Sc1  1  0.858415  0.858415  0.858415  1
  Sc  Sc2  1  0.141585  0.141585  0.141585  1
  Si  Si3  1  0.500000  0.500000  0.500000  1
  Ni  Ni4  1  0.409652  0.409652  0.916539  1
  Ni  Ni5  1  0.916539  0.409652  0.409652  1
  Ni  Ni6  1  0.409652  0.916539  0.409652  1
  Ni  Ni7  1  0.332490  0.332490  0.332490  1
  Ni  Ni8  1  0.667510  0.667510  0.667510  1
  Ni  Ni9  1  0.083461  0.590348  0.590348  1
  Ni  Ni10  1  0.590348  0.590348  0.083461  1
  Ni  Ni11  1  0.590348  0.083461  0.590348  1
