# generated using pymatgen
data_LiYbY2(Al3Pd)6
_symmetry_space_group_name_H-M   'P 1'
_cell_length_a   7.65626337
_cell_length_b   7.61703558
_cell_length_c   9.40814200
_cell_angle_alpha   90.00000000
_cell_angle_beta   90.00000000
_cell_angle_gamma   119.60328365
_symmetry_Int_Tables_number   1
_chemical_formula_structural   LiYbY2(Al3Pd)6
_chemical_formula_sum   'Li1 Yb1 Y2 Al18 Pd6'
_cell_volume   477.04530448
_cell_formula_units_Z   1
loop_
 _symmetry_equiv_pos_site_id
 _symmetry_equiv_pos_as_xyz
  1  'x, y, z'
loop_
 _atom_site_type_symbol
 _atom_site_label
 _atom_site_symmetry_multiplicity
 _atom_site_fract_x
 _atom_site_fract_y
 _atom_site_fract_z
 _atom_site_occupancy
  Li  Li0  1  0.985249  0.677161  0.250000  1
  Yb  Yb1  1  0.008881  0.333390  0.750000  1
  Y  Y2  1  0.672755  0.998735  0.250000  1
  Y  Y3  1  0.325715  0.998781  0.750000  1
  Al  Al4  1  0.125777  0.131588  0.250000  1
  Al  Al5  1  0.871849  0.864354  0.750000  1
  Al  Al6  1  0.000310  0.344944  0.085365  1
  Al  Al7  1  0.997765  0.664066  0.934466  1
  Al  Al8  1  0.997765  0.664066  0.565534  1
  Al  Al9  1  0.326406  0.989513  0.412528  1
  Al  Al10  1  0.000310  0.344944  0.414635  1
  Al  Al11  1  0.666736  0.999428  0.576759  1
  Al  Al12  1  0.666736  0.999428  0.923241  1
  Al  Al13  1  0.326406  0.989513  0.087472  1
  Al  Al14  1  0.334394  0.332982  0.547826  1
  Al  Al15  1  0.672920  0.668577  0.433650  1
  Al  Al16  1  0.672920  0.668577  0.066350  1
  Al  Al17  1  0.334394  0.332982  0.952174  1
  Al  Al18  1  0.345378  0.554088  0.250000  1
  Al  Al19  1  0.660400  0.450208  0.750000  1
  Al  Al20  1  0.547362  0.336103  0.250000  1
  Al  Al21  1  0.459666  0.658868  0.750000  1
  Pd  Pd22  1  0.668800  0.323680  0.000329  1
  Pd  Pd23  1  0.330852  0.672551  0.997970  1
  Pd  Pd24  1  0.330852  0.672551  0.502030  1
  Pd  Pd25  1  0.668800  0.323680  0.499671  1
  Pd  Pd26  1  0.000301  0.002621  0.000052  1
  Pd  Pd27  1  0.000301  0.002621  0.499948  1
