# generated using pymatgen
data_Dy2Sc3Si7Pt9
_symmetry_space_group_name_H-M   'P 1'
_cell_length_a   10.04923000
_cell_length_b   10.04922959
_cell_length_c   3.97462000
_cell_angle_alpha   90.00000000
_cell_angle_beta   90.00000000
_cell_angle_gamma   120.00000134
_symmetry_Int_Tables_number   1
_chemical_formula_structural   Dy2Sc3Si7Pt9
_chemical_formula_sum   'Dy2 Sc3 Si7 Pt9'
_cell_volume   347.60962584
_cell_formula_units_Z   1
loop_
 _symmetry_equiv_pos_site_id
 _symmetry_equiv_pos_as_xyz
  1  'x, y, z'
loop_
 _atom_site_type_symbol
 _atom_site_label
 _atom_site_symmetry_multiplicity
 _atom_site_fract_x
 _atom_site_fract_y
 _atom_site_fract_z
 _atom_site_occupancy
  Dy  Dy0  1  0.000000  0.000000  0.000000  1
  Dy  Dy1  1  0.333333  0.666667  0.500000  1
  Sc  Sc2  1  0.895201  0.456306  0.500000  1
  Sc  Sc3  1  0.561106  0.104799  0.500000  1
  Sc  Sc4  1  0.543694  0.438894  0.500000  1
  Si  Si5  1  0.245339  0.194375  0.500000  1
  Si  Si6  1  0.805625  0.050965  0.500000  1
  Si  Si7  1  0.949035  0.754661  0.500000  1
  Si  Si8  1  0.556744  0.647256  0.000000  1
  Si  Si9  1  0.352744  0.909486  0.000000  1
  Si  Si10  1  0.090514  0.443256  0.000000  1
  Si  Si11  1  0.666667  0.333333  0.000000  1
  Pt  Pt12  1  0.218733  0.935750  0.500000  1
  Pt  Pt13  1  0.064250  0.282984  0.500000  1
  Pt  Pt14  1  0.717016  0.781267  0.500000  1
  Pt  Pt15  1  0.314388  0.413444  0.000000  1
  Pt  Pt16  1  0.586556  0.900945  0.000000  1
  Pt  Pt17  1  0.099055  0.685612  0.000000  1
  Pt  Pt18  1  0.383638  0.171448  0.000000  1
  Pt  Pt19  1  0.828552  0.212189  0.000000  1
  Pt  Pt20  1  0.787811  0.616362  0.000000  1
