# generated using pymatgen
data_TbYb3DyGe4
_symmetry_space_group_name_H-M   'P 1'
_cell_length_a   7.45301500
_cell_length_b   7.88671000
_cell_length_c   15.21160400
_cell_angle_alpha   90.00000000
_cell_angle_beta   90.00000000
_cell_angle_gamma   90.00000000
_symmetry_Int_Tables_number   1
_chemical_formula_structural   TbYb3DyGe4
_chemical_formula_sum   'Tb4 Yb12 Dy4 Ge16'
_cell_volume   894.13455297
_cell_formula_units_Z   4
loop_
 _symmetry_equiv_pos_site_id
 _symmetry_equiv_pos_as_xyz
  1  'x, y, z'
loop_
 _atom_site_type_symbol
 _atom_site_label
 _atom_site_symmetry_multiplicity
 _atom_site_fract_x
 _atom_site_fract_y
 _atom_site_fract_z
 _atom_site_occupancy
  Tb  Tb0  1  0.317317  0.172427  0.378681  1
  Tb  Tb1  1  0.817317  0.327573  0.121319  1
  Tb  Tb2  1  0.182683  0.672427  0.621319  1
  Tb  Tb3  1  0.682683  0.827573  0.878681  1
  Yb  Yb4  1  0.977649  0.812751  0.404570  1
  Yb  Yb5  1  0.477649  0.687249  0.095430  1
  Yb  Yb6  1  0.522351  0.312751  0.595430  1
  Yb  Yb7  1  0.022351  0.187249  0.904570  1
  Yb  Yb8  1  0.022285  0.187242  0.595430  1
  Yb  Yb9  1  0.522285  0.312758  0.904570  1
  Yb  Yb10  1  0.477715  0.687242  0.404570  1
  Yb  Yb11  1  0.977715  0.812758  0.095430  1
  Yb  Yb12  1  0.346551  0.020013  0.750006  1
  Yb  Yb13  1  0.846551  0.479987  0.749994  1
  Yb  Yb14  1  0.153449  0.520013  0.249994  1
  Yb  Yb15  1  0.653449  0.979987  0.250006  1
  Dy  Dy16  1  0.317292  0.172349  0.121310  1
  Dy  Dy17  1  0.817292  0.327651  0.378690  1
  Dy  Dy18  1  0.182708  0.672349  0.878690  1
  Dy  Dy19  1  0.682708  0.827651  0.621310  1
  Ge  Ge20  1  0.846796  0.533208  0.540242  1
  Ge  Ge21  1  0.346796  0.966792  0.959758  1
  Ge  Ge22  1  0.653204  0.033208  0.459758  1
  Ge  Ge23  1  0.153204  0.466792  0.040242  1
  Ge  Ge24  1  0.152966  0.466773  0.459711  1
  Ge  Ge25  1  0.652966  0.033227  0.040289  1
  Ge  Ge26  1  0.347034  0.966773  0.540289  1
  Ge  Ge27  1  0.847034  0.533227  0.959711  1
  Ge  Ge28  1  0.978893  0.882334  0.749978  1
  Ge  Ge29  1  0.478893  0.617666  0.750022  1
  Ge  Ge30  1  0.521107  0.382334  0.250022  1
  Ge  Ge31  1  0.021107  0.117666  0.249978  1
  Ge  Ge32  1  0.237308  0.384702  0.750032  1
  Ge  Ge33  1  0.737308  0.115298  0.749968  1
  Ge  Ge34  1  0.262692  0.884702  0.249968  1
  Ge  Ge35  1  0.762692  0.615298  0.250032  1
