# generated using pymatgen
data_PrNd3Re4F28
_symmetry_space_group_name_H-M   'P 1'
_cell_length_a   5.75189319
_cell_length_b   9.23853412
_cell_length_c   12.41291964
_cell_angle_alpha   62.09940808
_cell_angle_beta   90.00837825
_cell_angle_gamma   90.00234623
_symmetry_Int_Tables_number   1
_chemical_formula_structural   PrNd3Re4F28
_chemical_formula_sum   'Pr1 Nd3 Re4 F28'
_cell_volume   582.93824801
_cell_formula_units_Z   1
loop_
 _symmetry_equiv_pos_site_id
 _symmetry_equiv_pos_as_xyz
  1  'x, y, z'
loop_
 _atom_site_type_symbol
 _atom_site_label
 _atom_site_symmetry_multiplicity
 _atom_site_fract_x
 _atom_site_fract_y
 _atom_site_fract_z
 _atom_site_occupancy
  Pr  Pr0  1  0.741687  0.811962  0.264524  1
  Nd  Nd1  1  0.758279  0.812046  0.764574  1
  Nd  Nd2  1  0.258421  0.188316  0.735489  1
  Nd  Nd3  1  0.241460  0.188881  0.235471  1
  Re  Re4  1  0.756045  0.274167  0.957053  1
  Re  Re5  1  0.255971  0.726287  0.543433  1
  Re  Re6  1  0.244421  0.726315  0.041746  1
  Re  Re7  1  0.744052  0.272703  0.457865  1
  F  F8  1  0.443245  0.709269  0.917873  1
  F  F9  1  0.944159  0.290428  0.581106  1
  F  F10  1  0.556091  0.290536  0.080744  1
  F  F11  1  0.057938  0.708809  0.419617  1
  F  F12  1  0.458132  0.281454  0.544917  1
  F  F13  1  0.957039  0.718313  0.955281  1
  F  F14  1  0.542056  0.717395  0.456972  1
  F  F15  1  0.041846  0.282048  0.044516  1
  F  F16  1  0.765891  0.516360  0.860656  1
  F  F17  1  0.265467  0.484099  0.639769  1
  F  F18  1  0.234528  0.484271  0.138523  1
  F  F19  1  0.733921  0.514385  0.361292  1
  F  F20  1  0.759395  0.032561  0.051441  1
  F  F21  1  0.259516  0.967999  0.447732  1
  F  F22  1  0.241214  0.968192  0.947252  1
  F  F23  1  0.740824  0.030834  0.552800  1
  F  F24  1  0.977290  0.730749  0.635814  1
  F  F25  1  0.478450  0.269659  0.864074  1
  F  F26  1  0.022080  0.269489  0.364704  1
  F  F27  1  0.523264  0.729726  0.134008  1
  F  F28  1  0.051427  0.742650  0.168135  1
  F  F29  1  0.548629  0.256046  0.332112  1
  F  F30  1  0.951850  0.256973  0.831569  1
  F  F31  1  0.450825  0.743688  0.669047  1
  F  F32  1  0.408371  0.968855  0.230667  1
  F  F33  1  0.911309  0.034195  0.269105  1
  F  F34  1  0.587604  0.031709  0.768767  1
  F  F35  1  0.087306  0.968633  0.731355  1
