# generated using pymatgen
data_Sr6Fe(IrO6)2
_symmetry_space_group_name_H-M   'P 1'
_cell_length_a   8.86595158
_cell_length_b   8.86595134
_cell_length_c   6.94774295
_cell_angle_alpha   67.49762125
_cell_angle_beta   67.49762237
_cell_angle_gamma   36.86478290
_symmetry_Int_Tables_number   1
_chemical_formula_structural   Sr6Fe(IrO6)2
_chemical_formula_sum   'Sr6 Fe1 Ir2 O12'
_cell_volume   299.79373394
_cell_formula_units_Z   1
loop_
 _symmetry_equiv_pos_site_id
 _symmetry_equiv_pos_as_xyz
  1  'x, y, z'
loop_
 _atom_site_type_symbol
 _atom_site_label
 _atom_site_symmetry_multiplicity
 _atom_site_fract_x
 _atom_site_fract_y
 _atom_site_fract_z
 _atom_site_occupancy
  Sr  Sr0  1  0.885978  0.885978  0.706784  1
  Sr  Sr1  1  0.211154  0.211154  0.707987  1
  Sr  Sr2  1  0.548022  0.548022  0.711720  1
  Sr  Sr3  1  0.451978  0.451978  0.288280  1
  Sr  Sr4  1  0.788846  0.788846  0.292013  1
  Sr  Sr5  1  0.114022  0.114022  0.293216  1
  Fe  Fe6  1  0.000000  0.000000  0.000000  1
  Ir  Ir7  1  0.667558  0.667558  0.000200  1
  Ir  Ir8  1  0.332442  0.332442  0.999800  1
  O  O9  1  0.946341  0.946341  0.321993  1
  O  O10  1  0.280547  0.280547  0.324311  1
  O  O11  1  0.611401  0.611401  0.323622  1
  O  O12  1  0.388599  0.388599  0.676378  1
  O  O13  1  0.719453  0.719453  0.675689  1
  O  O14  1  0.053659  0.053659  0.678007  1
  O  O15  1  0.500000  0.000000  0.000000  1
  O  O16  1  0.831115  0.337850  0.999677  1
  O  O17  1  0.168885  0.662150  0.000323  1
  O  O18  1  0.000000  0.500000  0.000000  1
  O  O19  1  0.337850  0.831115  0.999677  1
  O  O20  1  0.662150  0.168885  0.000323  1
