# generated using pymatgen
data_CaRh2F12
_symmetry_space_group_name_H-M   'P 1'
_cell_length_a   10.13996284
_cell_length_b   10.13996351
_cell_length_c   10.13996200
_cell_angle_alpha   131.67727363
_cell_angle_beta   131.67727699
_cell_angle_gamma   70.73922066
_symmetry_Int_Tables_number   1
_chemical_formula_structural   CaRh2F12
_chemical_formula_sum   'Ca2 Rh4 F24'
_cell_volume   569.71615036
_cell_formula_units_Z   2
loop_
 _symmetry_equiv_pos_site_id
 _symmetry_equiv_pos_as_xyz
  1  'x, y, z'
loop_
 _atom_site_type_symbol
 _atom_site_label
 _atom_site_symmetry_multiplicity
 _atom_site_fract_x
 _atom_site_fract_y
 _atom_site_fract_z
 _atom_site_occupancy
  Ca  Ca0  1  0.749946  0.250004  0.500089  1
  Ca  Ca1  1  0.000136  0.000036  0.999940  1
  Rh  Rh2  1  0.783855  0.784014  0.000082  1
  Rh  Rh3  1  0.216161  0.216139  0.000035  1
  Rh  Rh4  1  0.966728  0.466647  0.499925  1
  Rh  Rh5  1  0.533274  0.033221  0.499980  1
  F  F6  1  0.867746  0.742986  0.196531  1
  F  F7  1  0.546272  0.671494  0.803542  1
  F  F8  1  0.424560  0.794896  0.307051  1
  F  F9  1  0.328568  0.132011  0.874749  1
  F  F10  1  0.257276  0.453839  0.125271  1
  F  F11  1  0.205085  0.511965  0.629647  1
  F  F12  1  0.650265  0.271068  0.679111  1
  F  F13  1  0.729065  0.407995  0.379137  1
  F  F14  1  0.028858  0.349761  0.620776  1
  F  F15  1  0.096321  0.277965  0.117304  1
  F  F16  1  0.160701  0.979019  0.882735  1
  F  F17  1  0.591986  0.971183  0.320930  1
  F  F18  1  0.722093  0.839320  0.818297  1
  F  F19  1  0.020911  0.903871  0.181758  1
  F  F20  1  0.304083  0.076396  0.313550  1
  F  F21  1  0.923630  0.237094  0.227832  1
  F  F22  1  0.009319  0.695637  0.772047  1
  F  F23  1  0.444592  0.263309  0.275986  1
  F  F24  1  0.987305  0.168625  0.724028  1
  F  F25  1  0.762922  0.990514  0.686435  1
  F  F26  1  0.736482  0.012703  0.181005  1
  F  F27  1  0.831530  0.555623  0.819036  1
  F  F28  1  0.487900  0.117436  0.692963  1
  F  F29  1  0.882432  0.575228  0.370231  1
