# generated using pymatgen
data_Dy16InAg3Rh4
_symmetry_space_group_name_H-M   'P 1'
_cell_length_a   9.56711982
_cell_length_b   9.56646143
_cell_length_c   9.56646235
_cell_angle_alpha   60.09860599
_cell_angle_beta   60.10157060
_cell_angle_gamma   60.10157352
_symmetry_Int_Tables_number   1
_chemical_formula_structural   Dy16InAg3Rh4
_chemical_formula_sum   'Dy16 In1 Ag3 Rh4'
_cell_volume   620.52252099
_cell_formula_units_Z   1
loop_
 _symmetry_equiv_pos_site_id
 _symmetry_equiv_pos_as_xyz
  1  'x, y, z'
loop_
 _atom_site_type_symbol
 _atom_site_label
 _atom_site_symmetry_multiplicity
 _atom_site_fract_x
 _atom_site_fract_y
 _atom_site_fract_z
 _atom_site_occupancy
  Dy  Dy0  1  0.688440  0.312233  0.312233  1
  Dy  Dy1  1  0.689219  0.689217  0.310524  1
  Dy  Dy2  1  0.312238  0.688427  0.312249  1
  Dy  Dy3  1  0.935307  0.935287  0.561132  1
  Dy  Dy4  1  0.148124  0.148151  0.553966  1
  Dy  Dy5  1  0.564604  0.934982  0.564578  1
  Dy  Dy6  1  0.148633  0.148629  0.148629  1
  Dy  Dy7  1  0.312238  0.312249  0.688427  1
  Dy  Dy8  1  0.934978  0.564583  0.564583  1
  Dy  Dy9  1  0.564604  0.564578  0.934982  1
  Dy  Dy10  1  0.561119  0.935320  0.935320  1
  Dy  Dy11  1  0.935307  0.561132  0.935287  1
  Dy  Dy12  1  0.148124  0.553966  0.148151  1
  Dy  Dy13  1  0.310528  0.689224  0.689224  1
  Dy  Dy14  1  0.689219  0.310524  0.689217  1
  Dy  Dy15  1  0.553946  0.148119  0.148119  1
  In  In16  1  0.920445  0.920444  0.920444  1
  Ag  Ag17  1  0.917678  0.917670  0.247779  1
  Ag  Ag18  1  0.247801  0.917663  0.917663  1
  Ag  Ag19  1  0.917678  0.247779  0.917670  1
  Rh  Rh20  1  0.356922  0.356904  0.356904  1
  Rh  Rh21  1  0.929009  0.356942  0.356942  1
  Rh  Rh22  1  0.356918  0.356949  0.929026  1
  Rh  Rh23  1  0.356918  0.929026  0.356949  1
