# generated using pymatgen
data_Dy7Tm4Ni4Hg9
_symmetry_space_group_name_H-M   'P 1'
_cell_length_a   3.58877800
_cell_length_b   12.84080318
_cell_length_c   12.84080201
_cell_angle_alpha   112.45587732
_cell_angle_beta   90.00000000
_cell_angle_gamma   90.00000000
_symmetry_Int_Tables_number   1
_chemical_formula_structural   Dy7Tm4Ni4Hg9
_chemical_formula_sum   'Dy7 Tm4 Ni4 Hg9'
_cell_volume   546.87070458
_cell_formula_units_Z   1
loop_
 _symmetry_equiv_pos_site_id
 _symmetry_equiv_pos_as_xyz
  1  'x, y, z'
loop_
 _atom_site_type_symbol
 _atom_site_label
 _atom_site_symmetry_multiplicity
 _atom_site_fract_x
 _atom_site_fract_y
 _atom_site_fract_z
 _atom_site_occupancy
  Dy  Dy0  1  0.000000  0.165094  0.834906  1
  Dy  Dy1  1  0.000000  0.834906  0.165094  1
  Dy  Dy2  1  0.000000  0.372182  0.627818  1
  Dy  Dy3  1  0.000000  0.627818  0.372182  1
  Dy  Dy4  1  0.000000  0.689931  0.689931  1
  Dy  Dy5  1  0.000000  0.310069  0.310069  1
  Dy  Dy6  1  0.000000  0.000000  0.000000  1
  Tm  Tm7  1  0.000000  0.918069  0.583104  1
  Tm  Tm8  1  0.000000  0.081931  0.416896  1
  Tm  Tm9  1  0.000000  0.583104  0.918069  1
  Tm  Tm10  1  0.000000  0.416896  0.081931  1
  Ni  Ni11  1  0.500000  0.749069  0.549971  1
  Ni  Ni12  1  0.500000  0.250931  0.450029  1
  Ni  Ni13  1  0.500000  0.549971  0.749069  1
  Ni  Ni14  1  0.500000  0.450029  0.250931  1
  Hg  Hg15  1  0.500000  0.152055  0.628311  1
  Hg  Hg16  1  0.500000  0.847945  0.371689  1
  Hg  Hg17  1  0.500000  0.628311  0.152055  1
  Hg  Hg18  1  0.500000  0.371689  0.847945  1
  Hg  Hg19  1  0.500000  0.926803  0.779498  1
  Hg  Hg20  1  0.500000  0.073197  0.220502  1
  Hg  Hg21  1  0.500000  0.779498  0.926803  1
  Hg  Hg22  1  0.500000  0.220502  0.073197  1
  Hg  Hg23  1  0.500000  0.500000  0.500000  1
