# generated using pymatgen
data_Er2LuIn3RhAu2
_symmetry_space_group_name_H-M   'P 1'
_cell_length_a   7.72155104
_cell_length_b   7.72155041
_cell_length_c   3.83186700
_cell_angle_alpha   90.00000000
_cell_angle_beta   90.00000000
_cell_angle_gamma   119.79762593
_symmetry_Int_Tables_number   1
_chemical_formula_structural   Er2LuIn3RhAu2
_chemical_formula_sum   'Er2 Lu1 In3 Rh1 Au2'
_cell_volume   198.25865084
_cell_formula_units_Z   1
loop_
 _symmetry_equiv_pos_site_id
 _symmetry_equiv_pos_as_xyz
  1  'x, y, z'
loop_
 _atom_site_type_symbol
 _atom_site_label
 _atom_site_symmetry_multiplicity
 _atom_site_fract_x
 _atom_site_fract_y
 _atom_site_fract_z
 _atom_site_occupancy
  Er  Er0  1  0.398454  0.999860  0.500000  1
  Er  Er1  1  0.999860  0.398454  0.500000  1
  Lu  Lu2  1  0.602238  0.602238  0.500000  1
  In  In3  1  0.742928  0.998945  0.000000  1
  In  In4  1  0.998945  0.742928  0.000000  1
  In  In5  1  0.257038  0.257038  0.000000  1
  Rh  Rh6  1  0.999424  0.999424  0.500000  1
  Au  Au7  1  0.335097  0.666017  0.000000  1
  Au  Au8  1  0.666017  0.335097  0.000000  1
