# generated using pymatgen
data_Er3Lu5(Co4P3)4
_symmetry_space_group_name_H-M   'P 1'
_cell_length_a   12.30789000
_cell_length_b   12.30441099
_cell_length_c   3.72406000
_cell_angle_alpha   90.00000000
_cell_angle_beta   90.00000000
_cell_angle_gamma   120.00935358
_symmetry_Int_Tables_number   1
_chemical_formula_structural   Er3Lu5(Co4P3)4
_chemical_formula_sum   'Er3 Lu5 Co16 P12'
_cell_volume   488.37204334
_cell_formula_units_Z   1
loop_
 _symmetry_equiv_pos_site_id
 _symmetry_equiv_pos_as_xyz
  1  'x, y, z'
loop_
 _atom_site_type_symbol
 _atom_site_label
 _atom_site_symmetry_multiplicity
 _atom_site_fract_x
 _atom_site_fract_y
 _atom_site_fract_z
 _atom_site_occupancy
  Er  Er0  1  0.819183  0.000000  0.500000  1
  Er  Er1  1  0.333773  0.667416  0.000000  1
  Er  Er2  1  0.666358  0.332584  0.000000  1
  Lu  Lu3  1  0.000173  0.818428  0.500000  1
  Lu  Lu4  1  0.181746  0.181572  0.500000  1
  Lu  Lu5  1  0.442063  0.000000  0.000000  1
  Lu  Lu6  1  0.000155  0.442548  0.000000  1
  Lu  Lu7  1  0.557607  0.557452  0.000000  1
  Co  Co8  1  0.274683  0.000000  0.500000  1
  Co  Co9  1  0.001175  0.276102  0.500000  1
  Co  Co10  1  0.725073  0.723898  0.500000  1
  Co  Co11  1  0.628788  0.806995  0.000000  1
  Co  Co12  1  0.192262  0.821683  0.000000  1
  Co  Co13  1  0.179144  0.372201  0.000000  1
  Co  Co14  1  0.370577  0.178317  0.000000  1
  Co  Co15  1  0.806943  0.627799  0.000000  1
  Co  Co16  1  0.821793  0.193005  0.000000  1
  Co  Co17  1  0.522257  0.876109  0.500000  1
  Co  Co18  1  0.123200  0.646816  0.500000  1
  Co  Co19  1  0.353749  0.477647  0.500000  1
  Co  Co20  1  0.476385  0.353184  0.500000  1
  Co  Co21  1  0.876102  0.522353  0.500000  1
  Co  Co22  1  0.646148  0.123891  0.500000  1
  Co  Co23  1  0.000609  0.000000  0.000000  1
  P  P24  1  0.176926  0.000000  0.000000  1
  P  P25  1  0.001276  0.178326  0.000000  1
  P  P26  1  0.822949  0.821674  0.000000  1
  P  P27  1  0.522446  0.695995  0.500000  1
  P  P28  1  0.303940  0.826415  0.500000  1
  P  P29  1  0.174146  0.478772  0.500000  1
  P  P30  1  0.477527  0.173585  0.500000  1
  P  P31  1  0.695374  0.521228  0.500000  1
  P  P32  1  0.826451  0.304005  0.500000  1
  P  P33  1  0.651351  0.000000  0.000000  1
  P  P34  1  0.999807  0.651943  0.000000  1
  P  P35  1  0.347864  0.348057  0.000000  1
