# generated using pymatgen
data_Y8Tm8TlIn5Co2
_symmetry_space_group_name_H-M   'P 1'
_cell_length_a   10.33250900
_cell_length_b   10.33469475
_cell_length_c   7.15534000
_cell_angle_alpha   90.03367865
_cell_angle_beta   90.00009795
_cell_angle_gamma   119.99322690
_symmetry_Int_Tables_number   1
_chemical_formula_structural   Y8Tm8TlIn5Co2
_chemical_formula_sum   'Y8 Tm8 Tl1 In5 Co2'
_cell_volume   661.74990683
_cell_formula_units_Z   1
loop_
 _symmetry_equiv_pos_site_id
 _symmetry_equiv_pos_as_xyz
  1  'x, y, z'
loop_
 _atom_site_type_symbol
 _atom_site_label
 _atom_site_symmetry_multiplicity
 _atom_site_fract_x
 _atom_site_fract_y
 _atom_site_fract_z
 _atom_site_occupancy
  Y  Y0  1  0.461671  0.533594  0.211180  1
  Y  Y1  1  0.071922  0.533594  0.211179  1
  Y  Y2  1  0.464817  0.929636  0.215980  1
  Y  Y3  1  0.539877  0.467112  0.714085  1
  Y  Y4  1  0.927235  0.467112  0.714084  1
  Y  Y5  1  0.534510  0.069020  0.712145  1
  Y  Y6  1  0.000663  0.001326  0.225396  1
  Y  Y7  1  0.998317  0.996634  0.727167  1
  Tm  Tm8  1  0.176370  0.819588  0.505677  1
  Tm  Tm9  1  0.643217  0.819589  0.505677  1
  Tm  Tm10  1  0.178984  0.357970  0.511296  1
  Tm  Tm11  1  0.820257  0.179961  0.008381  1
  Tm  Tm12  1  0.359705  0.179961  0.008380  1
  Tm  Tm13  1  0.821403  0.642807  0.017667  1
  Tm  Tm14  1  0.333595  0.667190  0.816319  1
  Tm  Tm15  1  0.667427  0.334854  0.320829  1
  Tl  Tl16  1  0.836644  0.673289  0.458831  1
  In  In17  1  0.163840  0.836411  0.959650  1
  In  In18  1  0.672571  0.836411  0.959650  1
  In  In19  1  0.162617  0.325232  0.959106  1
  In  In20  1  0.835584  0.162842  0.461200  1
  In  In21  1  0.327259  0.162843  0.461200  1
  Co  Co22  1  0.333532  0.667066  0.443348  1
  Co  Co23  1  0.667980  0.335958  0.945617  1
