# generated using pymatgen
data_Li2Er6Zn21As
_symmetry_space_group_name_H-M   'P 1'
_cell_length_a   9.02257485
_cell_length_b   9.04815414
_cell_length_c   9.04815500
_cell_angle_alpha   60.00000051
_cell_angle_beta   59.90617401
_cell_angle_gamma   59.90617532
_symmetry_Int_Tables_number   1
_chemical_formula_structural   Li2Er6Zn21As
_chemical_formula_sum   'Li2 Er6 Zn21 As1'
_cell_volume   521.57667125
_cell_formula_units_Z   1
loop_
 _symmetry_equiv_pos_site_id
 _symmetry_equiv_pos_as_xyz
  1  'x, y, z'
loop_
 _atom_site_type_symbol
 _atom_site_label
 _atom_site_symmetry_multiplicity
 _atom_site_fract_x
 _atom_site_fract_y
 _atom_site_fract_z
 _atom_site_occupancy
  Li  Li0  1  0.624345  0.125219  0.125219  1
  Li  Li1  1  0.004487  0.998504  0.998504  1
  Er  Er2  1  0.716104  0.285461  0.285461  1
  Er  Er3  1  0.716104  0.285461  0.712975  1
  Er  Er4  1  0.716104  0.712975  0.285461  1
  Er  Er5  1  0.283287  0.716590  0.716590  1
  Er  Er6  1  0.283287  0.716590  0.283534  1
  Er  Er7  1  0.283287  0.283534  0.716590  1
  Zn  Zn8  1  0.123986  0.627740  0.124138  1
  Zn  Zn9  1  0.123986  0.124138  0.627740  1
  Zn  Zn10  1  0.123986  0.124138  0.124138  1
  Zn  Zn11  1  0.374661  0.875113  0.875113  1
  Zn  Zn12  1  0.872062  0.370944  0.878497  1
  Zn  Zn13  1  0.872062  0.878497  0.370944  1
  Zn  Zn14  1  0.872062  0.878497  0.878497  1
  Zn  Zn15  1  0.501472  0.000369  0.000369  1
  Zn  Zn16  1  0.501472  0.000369  0.497791  1
  Zn  Zn17  1  0.501472  0.497791  0.000369  1
  Zn  Zn18  1  0.001233  0.500044  0.500044  1
  Zn  Zn19  1  0.001233  0.500044  0.998680  1
  Zn  Zn20  1  0.001233  0.998680  0.500044  1
  Zn  Zn21  1  0.007842  0.330719  0.330719  1
  Zn  Zn22  1  0.332219  0.008404  0.329688  1
  Zn  Zn23  1  0.332219  0.329688  0.008404  1
  Zn  Zn24  1  0.332219  0.329688  0.329688  1
  Zn  Zn25  1  0.992422  0.669193  0.669193  1
  Zn  Zn26  1  0.669284  0.992146  0.669286  1
  Zn  Zn27  1  0.669284  0.669286  0.992146  1
  Zn  Zn28  1  0.669284  0.669286  0.669286  1
  As  As29  1  0.497306  0.500898  0.500898  1
