# generated using pymatgen
data_Np2SiRu3
_symmetry_space_group_name_H-M   'P 1'
_cell_length_a   5.59848403
_cell_length_b   5.59826232
_cell_length_c   7.24159700
_cell_angle_alpha   90.00000000
_cell_angle_beta   90.00000000
_cell_angle_gamma   60.00130320
_symmetry_Int_Tables_number   1
_chemical_formula_structural   Np2SiRu3
_chemical_formula_sum   'Np4 Si2 Ru6'
_cell_volume   196.55965236
_cell_formula_units_Z   2
loop_
 _symmetry_equiv_pos_site_id
 _symmetry_equiv_pos_as_xyz
  1  'x, y, z'
loop_
 _atom_site_type_symbol
 _atom_site_label
 _atom_site_symmetry_multiplicity
 _atom_site_fract_x
 _atom_site_fract_y
 _atom_site_fract_z
 _atom_site_occupancy
  Np  Np0  1  0.333601  0.333199  0.585364  1
  Np  Np1  1  0.666399  0.666801  0.414636  1
  Np  Np2  1  0.666399  0.666801  0.085364  1
  Np  Np3  1  0.333601  0.333199  0.914636  1
  Si  Si4  1  0.000000  0.000000  0.500000  1
  Si  Si5  1  0.000000  0.000000  0.000000  1
  Ru  Ru6  1  0.829841  0.340779  0.750000  1
  Ru  Ru7  1  0.341013  0.829492  0.750000  1
  Ru  Ru8  1  0.829841  0.829380  0.750000  1
  Ru  Ru9  1  0.170159  0.659221  0.250000  1
  Ru  Ru10  1  0.658987  0.170508  0.250000  1
  Ru  Ru11  1  0.170159  0.170620  0.250000  1
