# generated using pymatgen
data_Dy9YAl4(HgC4)2
_symmetry_space_group_name_H-M   'P 1'
_cell_length_a   10.99428515
_cell_length_b   10.99683415
_cell_length_c   3.51186500
_cell_angle_alpha   90.00000000
_cell_angle_beta   90.00000000
_cell_angle_gamma   90.01904030
_symmetry_Int_Tables_number   1
_chemical_formula_structural   Dy9YAl4(HgC4)2
_chemical_formula_sum   'Dy9 Y1 Al4 Hg2 C8'
_cell_volume   424.59263922
_cell_formula_units_Z   1
loop_
 _symmetry_equiv_pos_site_id
 _symmetry_equiv_pos_as_xyz
  1  'x, y, z'
loop_
 _atom_site_type_symbol
 _atom_site_label
 _atom_site_symmetry_multiplicity
 _atom_site_fract_x
 _atom_site_fract_y
 _atom_site_fract_z
 _atom_site_occupancy
  Dy  Dy0  1  0.549542  0.732297  0.500000  1
  Dy  Dy1  1  0.450553  0.267799  0.500000  1
  Dy  Dy2  1  0.049573  0.767740  0.500000  1
  Dy  Dy3  1  0.950517  0.232248  0.500000  1
  Dy  Dy4  1  0.267826  0.549470  0.500000  1
  Dy  Dy5  1  0.732197  0.450459  0.500000  1
  Dy  Dy6  1  0.232295  0.049478  0.500000  1
  Dy  Dy7  1  0.500139  0.000046  0.000000  1
  Dy  Dy8  1  0.000000  0.499992  0.000000  1
  Y  Y9  1  0.768088  0.950476  0.500000  1
  Al  Al10  1  0.703602  0.203657  0.000000  1
  Al  Al11  1  0.296433  0.796350  0.000000  1
  Al  Al12  1  0.203649  0.296336  0.000000  1
  Al  Al13  1  0.796290  0.703498  0.000000  1
  Hg  Hg14  1  0.500003  0.499977  0.000000  1
  Hg  Hg15  1  0.000184  0.000077  0.000000  1
  C  C16  1  0.631661  0.132676  0.500000  1
  C  C17  1  0.367826  0.867897  0.500000  1
  C  C18  1  0.132133  0.367890  0.500000  1
  C  C19  1  0.867981  0.632101  0.500000  1
  C  C20  1  0.161944  0.661964  0.000000  1
  C  C21  1  0.838093  0.338051  0.000000  1
  C  C22  1  0.661431  0.837555  0.000000  1
  C  C23  1  0.338040  0.161964  0.000000  1
