# generated using pymatgen
data_Dy4Y4Sc12Si15As
_symmetry_space_group_name_H-M   'P 1'
_cell_length_a   7.13528792
_cell_length_b   7.37510799
_cell_length_c   13.97684532
_cell_angle_alpha   90.06409661
_cell_angle_beta   88.91905098
_cell_angle_gamma   90.16584008
_symmetry_Int_Tables_number   1
_chemical_formula_structural   Dy4Y4Sc12Si15As
_chemical_formula_sum   'Dy4 Y4 Sc12 Si15 As1'
_cell_volume   735.37639560
_cell_formula_units_Z   1
loop_
 _symmetry_equiv_pos_site_id
 _symmetry_equiv_pos_as_xyz
  1  'x, y, z'
loop_
 _atom_site_type_symbol
 _atom_site_label
 _atom_site_symmetry_multiplicity
 _atom_site_fract_x
 _atom_site_fract_y
 _atom_site_fract_z
 _atom_site_occupancy
  Dy  Dy0  1  0.512462  0.324983  0.097583  1
  Dy  Dy1  1  0.006555  0.177975  0.403708  1
  Dy  Dy2  1  0.505375  0.322046  0.402085  1
  Dy  Dy3  1  0.499063  0.676788  0.597596  1
  Y  Y4  1  0.012397  0.175768  0.097275  1
  Y  Y5  1  0.988089  0.824679  0.902512  1
  Y  Y6  1  0.488209  0.675232  0.902751  1
  Y  Y7  1  0.992216  0.822398  0.595703  1
  Sc  Sc8  1  0.163882  0.500919  0.749786  1
  Sc  Sc9  1  0.835797  0.498846  0.252864  1
  Sc  Sc10  1  0.336185  0.000917  0.251244  1
  Sc  Sc11  1  0.663803  0.999166  0.749126  1
  Sc  Sc12  1  0.339097  0.171618  0.626655  1
  Sc  Sc13  1  0.661983  0.827057  0.373888  1
  Sc  Sc14  1  0.159469  0.672655  0.377179  1
  Sc  Sc15  1  0.668969  0.823523  0.125463  1
  Sc  Sc16  1  0.837919  0.328078  0.622602  1
  Sc  Sc17  1  0.330701  0.176087  0.874088  1
  Sc  Sc18  1  0.831922  0.323069  0.874475  1
  Sc  Sc19  1  0.168456  0.676920  0.124953  1
  Si  Si20  1  0.035265  0.117339  0.749211  1
  Si  Si21  1  0.964441  0.883156  0.249890  1
  Si  Si22  1  0.460789  0.617510  0.249032  1
  Si  Si23  1  0.538200  0.382637  0.750591  1
  Si  Si24  1  0.287983  0.871560  0.749893  1
  Si  Si25  1  0.712849  0.127148  0.249490  1
  Si  Si26  1  0.211445  0.374447  0.250091  1
  Si  Si27  1  0.789956  0.626116  0.750081  1
  Si  Si28  1  0.814001  0.539597  0.457093  1
  Si  Si29  1  0.334217  0.962888  0.460756  1
  Si  Si30  1  0.843551  0.535229  0.039560  1
  Si  Si31  1  0.665317  0.037335  0.539896  1
  Si  Si32  1  0.155853  0.464984  0.960182  1
  Si  Si33  1  0.655337  0.035187  0.959838  1
  Si  Si34  1  0.344731  0.965940  0.040151  1
  As  As35  1  0.183511  0.460207  0.542707  1
