# generated using pymatgen
data_LaTa3ZnFeH12
_symmetry_space_group_name_H-M   'P 1'
_cell_length_a   6.05185400
_cell_length_b   6.05185237
_cell_length_c   4.72185200
_cell_angle_alpha   90.00000000
_cell_angle_beta   90.00000000
_cell_angle_gamma   119.99999797
_symmetry_Int_Tables_number   1
_chemical_formula_structural   LaTa3ZnFeH12
_chemical_formula_sum   'La1 Ta3 Zn1 Fe1 H12'
_cell_volume   149.76825807
_cell_formula_units_Z   1
loop_
 _symmetry_equiv_pos_site_id
 _symmetry_equiv_pos_as_xyz
  1  'x, y, z'
loop_
 _atom_site_type_symbol
 _atom_site_label
 _atom_site_symmetry_multiplicity
 _atom_site_fract_x
 _atom_site_fract_y
 _atom_site_fract_z
 _atom_site_occupancy
  La  La0  1  0.000000  0.000000  0.000000  1
  Ta  Ta1  1  0.498334  0.996669  0.500000  1
  Ta  Ta2  1  0.003331  0.501666  0.500000  1
  Ta  Ta3  1  0.498334  0.501666  0.500000  1
  Zn  Zn4  1  0.666667  0.333333  0.000000  1
  Fe  Fe5  1  0.333333  0.666667  0.000000  1
  H  H6  1  0.805733  0.611468  0.723856  1
  H  H7  1  0.208794  0.417587  0.238857  1
  H  H8  1  0.208794  0.791206  0.238857  1
  H  H9  1  0.805733  0.194267  0.276144  1
  H  H10  1  0.582413  0.791206  0.238857  1
  H  H11  1  0.388532  0.194267  0.276144  1
  H  H12  1  0.388532  0.194267  0.723856  1
  H  H13  1  0.208794  0.417587  0.761143  1
  H  H14  1  0.805733  0.194267  0.723856  1
  H  H15  1  0.582413  0.791206  0.761143  1
  H  H16  1  0.805733  0.611468  0.276144  1
  H  H17  1  0.208794  0.791206  0.761143  1
