# generated using pymatgen
data_Ta5NbSi6Mo5Ru
_symmetry_space_group_name_H-M   'P 1'
_cell_length_a   7.67440042
_cell_length_b   7.69611648
_cell_length_c   7.67354418
_cell_angle_alpha   126.48197745
_cell_angle_beta   128.24086307
_cell_angle_gamma   77.60688323
_symmetry_Int_Tables_number   1
_chemical_formula_structural   Ta5NbSi6Mo5Ru
_chemical_formula_sum   'Ta5 Nb1 Si6 Mo5 Ru1'
_cell_volume   277.64162641
_cell_formula_units_Z   1
loop_
 _symmetry_equiv_pos_site_id
 _symmetry_equiv_pos_as_xyz
  1  'x, y, z'
loop_
 _atom_site_type_symbol
 _atom_site_label
 _atom_site_symmetry_multiplicity
 _atom_site_fract_x
 _atom_site_fract_y
 _atom_site_fract_z
 _atom_site_occupancy
  Ta  Ta0  1  0.056063  0.502308  0.950314  1
  Ta  Ta1  1  0.551883  0.503856  0.447413  1
  Ta  Ta2  1  0.449672  0.914276  0.962391  1
  Ta  Ta3  1  0.746518  0.091122  0.849235  1
  Ta  Ta4  1  0.242141  0.091970  0.344996  1
  Nb  Nb5  1  0.951985  0.916389  0.466034  1
  Si  Si6  1  0.753813  0.504596  0.249621  1
  Si  Si7  1  0.255167  0.502998  0.749726  1
  Si  Si8  1  0.664868  0.177729  0.511816  1
  Si  Si9  1  0.330411  0.833832  0.502113  1
  Si  Si10  1  0.165688  0.172175  0.006898  1
  Si  Si11  1  0.827863  0.828068  0.001237  1
  Mo  Mo12  1  0.500577  0.761410  0.259634  1
  Mo  Mo13  1  0.999362  0.759256  0.762086  1
  Mo  Mo14  1  0.870667  0.245669  0.373912  1
  Mo  Mo15  1  0.130730  0.502560  0.371465  1
  Mo  Mo16  1  0.373239  0.247479  0.875966  1
  Ru  Ru17  1  0.629353  0.502106  0.872942  1
