# generated using pymatgen
data_DyLu2Mg3Sn2Au
_symmetry_space_group_name_H-M   'P 1'
_cell_length_a   7.48628270
_cell_length_b   7.48628232
_cell_length_c   4.41211800
_cell_angle_alpha   90.00000000
_cell_angle_beta   90.00000000
_cell_angle_gamma   120.21103857
_symmetry_Int_Tables_number   1
_chemical_formula_structural   DyLu2Mg3Sn2Au
_chemical_formula_sum   'Dy1 Lu2 Mg3 Sn2 Au1'
_cell_volume   213.68925525
_cell_formula_units_Z   1
loop_
 _symmetry_equiv_pos_site_id
 _symmetry_equiv_pos_as_xyz
  1  'x, y, z'
loop_
 _atom_site_type_symbol
 _atom_site_label
 _atom_site_symmetry_multiplicity
 _atom_site_fract_x
 _atom_site_fract_y
 _atom_site_fract_z
 _atom_site_occupancy
  Dy  Dy0  1  0.406573  0.406573  0.000000  1
  Lu  Lu1  1  0.595351  0.000619  0.000000  1
  Lu  Lu2  1  0.000619  0.595351  0.000000  1
  Mg  Mg3  1  0.237084  0.999229  0.500000  1
  Mg  Mg4  1  0.999229  0.237084  0.500000  1
  Mg  Mg5  1  0.763051  0.763051  0.500000  1
  Sn  Sn6  1  0.332094  0.668261  0.500000  1
  Sn  Sn7  1  0.668261  0.332094  0.500000  1
  Au  Au8  1  0.997737  0.997737  0.000000  1
