# generated using pymatgen
data_Tb9ErIn8(AgPt)2
_symmetry_space_group_name_H-M   'P 1'
_cell_length_a   3.65869800
_cell_length_b   8.22812275
_cell_length_c   18.47944651
_cell_angle_alpha   90.09003414
_cell_angle_beta   90.00000000
_cell_angle_gamma   90.00000000
_symmetry_Int_Tables_number   1
_chemical_formula_structural   Tb9ErIn8(AgPt)2
_chemical_formula_sum   'Tb9 Er1 In8 Ag2 Pt2'
_cell_volume   556.30856716
_cell_formula_units_Z   1
loop_
 _symmetry_equiv_pos_site_id
 _symmetry_equiv_pos_as_xyz
  1  'x, y, z'
loop_
 _atom_site_type_symbol
 _atom_site_label
 _atom_site_symmetry_multiplicity
 _atom_site_fract_x
 _atom_site_fract_y
 _atom_site_fract_z
 _atom_site_occupancy
  Tb  Tb0  1  0.000000  0.121595  0.421387  1
  Tb  Tb1  1  0.000000  0.877996  0.578147  1
  Tb  Tb2  1  0.000000  0.382678  0.916571  1
  Tb  Tb3  1  0.000000  0.617477  0.083853  1
  Tb  Tb4  1  0.000000  0.256792  0.215747  1
  Tb  Tb5  1  0.000000  0.743730  0.784461  1
  Tb  Tb6  1  0.000000  0.275295  0.720406  1
  Tb  Tb7  1  0.000000  0.999979  0.000152  1
  Tb  Tb8  1  0.000000  0.499947  0.499986  1
  Er  Er9  1  0.000000  0.724310  0.279075  1
  In  In10  1  0.500000  0.420108  0.352132  1
  In  In11  1  0.500000  0.581271  0.647779  1
  In  In12  1  0.500000  0.075732  0.851421  1
  In  In13  1  0.500000  0.923416  0.148938  1
  In  In14  1  0.500000  0.291904  0.065797  1
  In  In15  1  0.500000  0.708557  0.934294  1
  In  In16  1  0.500000  0.208964  0.568977  1
  In  In17  1  0.500000  0.790461  0.430212  1
  Ag  Ag18  1  0.500000  0.023667  0.301524  1
  Ag  Ag19  1  0.500000  0.973529  0.698146  1
  Pt  Pt20  1  0.500000  0.473177  0.804203  1
  Pt  Pt21  1  0.500000  0.529413  0.196793  1
