# generated using pymatgen
data_Tb3ThMgRu
_symmetry_space_group_name_H-M   'P 1'
_cell_length_a   9.79160107
_cell_length_b   9.79160154
_cell_length_c   9.79160100
_cell_angle_alpha   59.99999844
_cell_angle_beta   59.99999685
_cell_angle_gamma   59.99999754
_symmetry_Int_Tables_number   1
_chemical_formula_structural   Tb3ThMgRu
_chemical_formula_sum   'Tb12 Th4 Mg4 Ru4'
_cell_volume   663.81357525
_cell_formula_units_Z   4
loop_
 _symmetry_equiv_pos_site_id
 _symmetry_equiv_pos_as_xyz
  1  'x, y, z'
loop_
 _atom_site_type_symbol
 _atom_site_label
 _atom_site_symmetry_multiplicity
 _atom_site_fract_x
 _atom_site_fract_y
 _atom_site_fract_z
 _atom_site_occupancy
  Tb  Tb0  1  0.062926  0.437074  0.437074  1
  Tb  Tb1  1  0.437074  0.062926  0.062926  1
  Tb  Tb2  1  0.437074  0.062926  0.437074  1
  Tb  Tb3  1  0.062926  0.437074  0.062926  1
  Tb  Tb4  1  0.437074  0.437074  0.062926  1
  Tb  Tb5  1  0.062926  0.062926  0.437074  1
  Tb  Tb6  1  0.185997  0.814003  0.814003  1
  Tb  Tb7  1  0.814003  0.185997  0.185997  1
  Tb  Tb8  1  0.814003  0.185997  0.814003  1
  Tb  Tb9  1  0.185997  0.814003  0.185997  1
  Tb  Tb10  1  0.814003  0.814003  0.185997  1
  Tb  Tb11  1  0.185997  0.185997  0.814003  1
  Th  Th12  1  0.595731  0.595731  0.595731  1
  Th  Th13  1  0.595731  0.595731  0.212809  1
  Th  Th14  1  0.595731  0.212809  0.595731  1
  Th  Th15  1  0.212809  0.595731  0.595731  1
  Mg  Mg16  1  0.829871  0.829871  0.829871  1
  Mg  Mg17  1  0.829871  0.829871  0.510387  1
  Mg  Mg18  1  0.829871  0.510387  0.829871  1
  Mg  Mg19  1  0.510387  0.829871  0.829871  1
  Ru  Ru20  1  0.394024  0.394024  0.394024  1
  Ru  Ru21  1  0.394024  0.394024  0.817928  1
  Ru  Ru22  1  0.394024  0.817928  0.394024  1
  Ru  Ru23  1  0.817928  0.394024  0.394024  1
