# generated using pymatgen
data_TaBi(TeO4)2
_symmetry_space_group_name_H-M   'P 1'
_cell_length_a   5.68935500
_cell_length_b   8.22799100
_cell_length_c   31.93595800
_cell_angle_alpha   90.00000000
_cell_angle_beta   90.00000000
_cell_angle_gamma   90.00000000
_symmetry_Int_Tables_number   1
_chemical_formula_structural   TaBi(TeO4)2
_chemical_formula_sum   'Ta8 Bi8 Te16 O64'
_cell_volume   1494.98484389
_cell_formula_units_Z   8
loop_
 _symmetry_equiv_pos_site_id
 _symmetry_equiv_pos_as_xyz
  1  'x, y, z'
loop_
 _atom_site_type_symbol
 _atom_site_label
 _atom_site_symmetry_multiplicity
 _atom_site_fract_x
 _atom_site_fract_y
 _atom_site_fract_z
 _atom_site_occupancy
  Ta  Ta0  1  0.733686  0.947531  0.209403  1
  Ta  Ta1  1  0.766314  0.052469  0.709403  1
  Ta  Ta2  1  0.233686  0.552469  0.790597  1
  Ta  Ta3  1  0.766314  0.447531  0.209403  1
  Ta  Ta4  1  0.266314  0.447531  0.290597  1
  Ta  Ta5  1  0.266314  0.052469  0.790597  1
  Ta  Ta6  1  0.733686  0.552469  0.709403  1
  Ta  Ta7  1  0.233686  0.947531  0.290597  1
  Bi  Bi8  1  0.294195  0.137091  0.040184  1
  Bi  Bi9  1  0.205805  0.862909  0.540184  1
  Bi  Bi10  1  0.705805  0.862909  0.959816  1
  Bi  Bi11  1  0.705805  0.637091  0.459816  1
  Bi  Bi12  1  0.205805  0.637091  0.040184  1
  Bi  Bi13  1  0.294195  0.362909  0.540184  1
  Bi  Bi14  1  0.794195  0.137091  0.459816  1
  Bi  Bi15  1  0.794195  0.362909  0.959816  1
  Te  Te16  1  0.765485  0.370388  0.078999  1
  Te  Te17  1  0.265485  0.370388  0.421001  1
  Te  Te18  1  0.234515  0.870388  0.421001  1
  Te  Te19  1  0.235553  0.369970  0.664594  1
  Te  Te20  1  0.764447  0.630030  0.335406  1
  Te  Te21  1  0.734515  0.629612  0.578999  1
  Te  Te22  1  0.735553  0.369970  0.835406  1
  Te  Te23  1  0.735553  0.130030  0.335406  1
  Te  Te24  1  0.264447  0.869970  0.664594  1
  Te  Te25  1  0.734515  0.870388  0.078999  1
  Te  Te26  1  0.264447  0.630030  0.164594  1
  Te  Te27  1  0.235553  0.130030  0.164594  1
  Te  Te28  1  0.265485  0.129612  0.921001  1
  Te  Te29  1  0.765485  0.129612  0.578999  1
  Te  Te30  1  0.764447  0.869970  0.835406  1
  Te  Te31  1  0.234515  0.629612  0.921001  1
  O  O32  1  0.685257  0.177537  0.392553  1
  O  O33  1  0.314743  0.822463  0.607447  1
  O  O34  1  0.506683  0.541897  0.833512  1
  O  O35  1  0.988378  0.384907  0.455619  1
  O  O36  1  0.002976  0.989349  0.340721  1
  O  O37  1  0.667153  0.104257  0.067949  1
  O  O38  1  0.167153  0.395743  0.932051  1
  O  O39  1  0.487591  0.337789  0.466241  1
  O  O40  1  0.814743  0.822463  0.892553  1
  O  O41  1  0.997024  0.010651  0.659279  1
  O  O42  1  0.506683  0.958103  0.333512  1
  O  O43  1  0.832847  0.604257  0.067949  1
  O  O44  1  0.832847  0.895743  0.567949  1
  O  O45  1  0.502976  0.989349  0.159279  1
  O  O46  1  0.952334  0.525919  0.755411  1
  O  O47  1  0.185257  0.322463  0.607447  1
  O  O48  1  0.487591  0.162211  0.966241  1
  O  O49  1  0.230618  0.723247  0.294979  1
  O  O50  1  0.993317  0.458103  0.333512  1
  O  O51  1  0.512409  0.837789  0.033759  1
  O  O52  1  0.952334  0.974081  0.255411  1
  O  O53  1  0.493317  0.458103  0.166488  1
  O  O54  1  0.547666  0.474081  0.255411  1
  O  O55  1  0.511622  0.884907  0.455619  1
  O  O56  1  0.012409  0.837789  0.466241  1
  O  O57  1  0.006683  0.541897  0.666488  1
  O  O58  1  0.997024  0.489349  0.159279  1
  O  O59  1  0.002976  0.510651  0.840721  1
  O  O60  1  0.987591  0.337789  0.033759  1
  O  O61  1  0.493317  0.041897  0.666488  1
  O  O62  1  0.230618  0.776753  0.794979  1
  O  O63  1  0.452334  0.525919  0.744589  1
  O  O64  1  0.667153  0.395743  0.567949  1
  O  O65  1  0.547666  0.025919  0.755411  1
  O  O66  1  0.511622  0.615093  0.955619  1
  O  O67  1  0.269382  0.276753  0.794979  1
  O  O68  1  0.047666  0.025919  0.744589  1
  O  O69  1  0.012409  0.662211  0.966241  1
  O  O70  1  0.769382  0.276753  0.705021  1
  O  O71  1  0.047666  0.474081  0.244589  1
  O  O72  1  0.269382  0.223247  0.294979  1
  O  O73  1  0.502976  0.510651  0.659279  1
  O  O74  1  0.011622  0.615093  0.544381  1
  O  O75  1  0.332847  0.895743  0.932051  1
  O  O76  1  0.814743  0.677537  0.392553  1
  O  O77  1  0.452334  0.974081  0.244589  1
  O  O78  1  0.993317  0.041897  0.833512  1
  O  O79  1  0.987591  0.162211  0.533759  1
  O  O80  1  0.488378  0.115093  0.544381  1
  O  O81  1  0.988378  0.115093  0.955619  1
  O  O82  1  0.488378  0.384907  0.044381  1
  O  O83  1  0.185257  0.177537  0.107447  1
  O  O84  1  0.011622  0.884907  0.044381  1
  O  O85  1  0.730618  0.723247  0.205021  1
  O  O86  1  0.769382  0.223247  0.205021  1
  O  O87  1  0.332847  0.604257  0.432051  1
  O  O88  1  0.006683  0.958103  0.166488  1
  O  O89  1  0.730618  0.776753  0.705021  1
  O  O90  1  0.167153  0.104257  0.432051  1
  O  O91  1  0.314743  0.677537  0.107447  1
  O  O92  1  0.685257  0.322463  0.892553  1
  O  O93  1  0.497024  0.489349  0.340721  1
  O  O94  1  0.497024  0.010651  0.840721  1
  O  O95  1  0.512409  0.662211  0.533759  1
