# generated using pymatgen
data_SnCl7
_symmetry_space_group_name_H-M   'P 1'
_cell_length_a   10.53758200
_cell_length_b   10.30392094
_cell_length_c   13.00750424
_cell_angle_alpha   82.99622948
_cell_angle_beta   90.00000000
_cell_angle_gamma   90.00000000
_symmetry_Int_Tables_number   1
_chemical_formula_structural   SnCl7
_chemical_formula_sum   'Sn4 Cl28'
_cell_volume   1401.79549809
_cell_formula_units_Z   4
loop_
 _symmetry_equiv_pos_site_id
 _symmetry_equiv_pos_as_xyz
  1  'x, y, z'
loop_
 _atom_site_type_symbol
 _atom_site_label
 _atom_site_symmetry_multiplicity
 _atom_site_fract_x
 _atom_site_fract_y
 _atom_site_fract_z
 _atom_site_occupancy
  Sn  Sn0  1  0.759416  0.674978  0.912341  1
  Sn  Sn1  1  0.259416  0.325022  0.587659  1
  Sn  Sn2  1  0.240584  0.325022  0.087659  1
  Sn  Sn3  1  0.740584  0.674978  0.412341  1
  Cl  Cl4  1  0.248169  0.768583  0.355449  1
  Cl  Cl5  1  0.748169  0.231417  0.144551  1
  Cl  Cl6  1  0.751831  0.231417  0.644551  1
  Cl  Cl7  1  0.251831  0.768583  0.855449  1
  Cl  Cl8  1  0.561282  0.045975  0.043117  1
  Cl  Cl9  1  0.061282  0.954025  0.456883  1
  Cl  Cl10  1  0.438718  0.954025  0.956883  1
  Cl  Cl11  1  0.938718  0.045975  0.543117  1
  Cl  Cl12  1  0.807724  0.189885  0.290551  1
  Cl  Cl13  1  0.307724  0.810115  0.209449  1
  Cl  Cl14  1  0.192276  0.810115  0.709449  1
  Cl  Cl15  1  0.692276  0.189885  0.790551  1
  Cl  Cl16  1  0.363952  0.260464  0.232301  1
  Cl  Cl17  1  0.863952  0.739536  0.267699  1
  Cl  Cl18  1  0.636048  0.739536  0.767699  1
  Cl  Cl19  1  0.136048  0.260464  0.732301  1
  Cl  Cl20  1  0.372295  0.385172  0.947172  1
  Cl  Cl21  1  0.872295  0.614828  0.552828  1
  Cl  Cl22  1  0.627705  0.614828  0.052828  1
  Cl  Cl23  1  0.127705  0.385172  0.447172  1
  Cl  Cl24  1  0.882756  0.497445  0.881460  1
  Cl  Cl25  1  0.382756  0.502555  0.618540  1
  Cl  Cl26  1  0.117244  0.502555  0.118540  1
  Cl  Cl27  1  0.617244  0.497445  0.381460  1
  Cl  Cl28  1  0.111807  0.153175  0.053498  1
  Cl  Cl29  1  0.611807  0.846825  0.446502  1
  Cl  Cl30  1  0.888193  0.846825  0.946502  1
  Cl  Cl31  1  0.388193  0.153175  0.553498  1
