# generated using pymatgen
data_MgZr(U3Sb5)2
_symmetry_space_group_name_H-M   'P 1'
_cell_length_a   9.26126900
_cell_length_b   9.26126905
_cell_length_c   6.18820300
_cell_angle_alpha   90.00000000
_cell_angle_beta   90.00000000
_cell_angle_gamma   120.00000338
_symmetry_Int_Tables_number   1
_chemical_formula_structural   MgZr(U3Sb5)2
_chemical_formula_sum   'Mg1 Zr1 U6 Sb10'
_cell_volume   459.65942457
_cell_formula_units_Z   1
loop_
 _symmetry_equiv_pos_site_id
 _symmetry_equiv_pos_as_xyz
  1  'x, y, z'
loop_
 _atom_site_type_symbol
 _atom_site_label
 _atom_site_symmetry_multiplicity
 _atom_site_fract_x
 _atom_site_fract_y
 _atom_site_fract_z
 _atom_site_occupancy
  Mg  Mg0  1  0.000000  0.000000  0.000000  1
  Zr  Zr1  1  0.000000  0.000000  0.500000  1
  U  U2  1  0.386050  0.000000  0.749690  1
  U  U3  1  0.386050  0.386050  0.250310  1
  U  U4  1  0.000000  0.613950  0.250310  1
  U  U5  1  0.000000  0.386050  0.749690  1
  U  U6  1  0.613950  0.613950  0.749690  1
  U  U7  1  0.613950  0.000000  0.250310  1
  Sb  Sb8  1  0.666667  0.333333  0.500000  1
  Sb  Sb9  1  0.333333  0.666667  0.000000  1
  Sb  Sb10  1  0.730007  0.000000  0.750573  1
  Sb  Sb11  1  0.730007  0.730007  0.249427  1
  Sb  Sb12  1  0.333333  0.666667  0.500000  1
  Sb  Sb13  1  0.666667  0.333333  0.000000  1
  Sb  Sb14  1  0.269993  0.000000  0.249427  1
  Sb  Sb15  1  0.269993  0.269993  0.750573  1
  Sb  Sb16  1  0.000000  0.730007  0.750573  1
  Sb  Sb17  1  0.000000  0.269993  0.249427  1
