# generated using pymatgen
data_Ba2La3NdSc2V2O14
_symmetry_space_group_name_H-M   'P 1'
_cell_length_a   5.80482248
_cell_length_b   5.79880118
_cell_length_c   20.48865298
_cell_angle_alpha   89.96646059
_cell_angle_beta   89.81469160
_cell_angle_gamma   89.77435885
_symmetry_Int_Tables_number   1
_chemical_formula_structural   Ba2La3NdSc2V2O14
_chemical_formula_sum   'Ba4 La6 Nd2 Sc4 V4 O28'
_cell_volume   689.65971527
_cell_formula_units_Z   2
loop_
 _symmetry_equiv_pos_site_id
 _symmetry_equiv_pos_as_xyz
  1  'x, y, z'
loop_
 _atom_site_type_symbol
 _atom_site_label
 _atom_site_symmetry_multiplicity
 _atom_site_fract_x
 _atom_site_fract_y
 _atom_site_fract_z
 _atom_site_occupancy
  Ba  Ba0  1  0.256034  0.259536  0.002494  1
  Ba  Ba1  1  0.739887  0.742023  0.002598  1
  Ba  Ba2  1  0.753380  0.246412  0.497695  1
  Ba  Ba3  1  0.246223  0.752572  0.497951  1
  La  La4  1  0.765426  0.230471  0.317881  1
  La  La5  1  0.234173  0.767669  0.318233  1
  La  La6  1  0.768960  0.231590  0.680683  1
  La  La7  1  0.231045  0.765769  0.680100  1
  La  La8  1  0.271757  0.271659  0.814592  1
  La  La9  1  0.729604  0.729585  0.815255  1
  Nd  Nd10  1  0.274995  0.274008  0.184434  1
  Nd  Nd11  1  0.725707  0.727359  0.183834  1
  Sc  Sc12  1  0.242357  0.758281  0.102709  1
  Sc  Sc13  1  0.746001  0.745038  0.595745  1
  Sc  Sc14  1  0.755346  0.244170  0.902988  1
  Sc  Sc15  1  0.243108  0.756793  0.901075  1
  V  V16  1  0.754084  0.246588  0.105181  1
  V  V17  1  0.251902  0.252372  0.399454  1
  V  V18  1  0.748210  0.747885  0.397542  1
  V  V19  1  0.251899  0.250434  0.598706  1
  O  O20  1  0.778918  0.219068  0.005106  1
  O  O21  1  0.216847  0.781956  0.002225  1
  O  O22  1  0.504064  0.496521  0.096806  1
  O  O23  1  0.501376  0.001181  0.113302  1
  O  O24  1  0.999715  0.498519  0.114011  1
  O  O25  1  0.997419  0.005806  0.128935  1
  O  O26  1  0.693706  0.303337  0.207302  1
  O  O27  1  0.311934  0.688466  0.209599  1
  O  O28  1  0.208453  0.203014  0.294249  1
  O  O29  1  0.794396  0.796844  0.292990  1
  O  O30  1  0.497409  0.496948  0.379674  1
  O  O31  1  0.503144  0.997176  0.391398  1
  O  O32  1  0.997127  0.502270  0.390164  1
  O  O33  1  0.001242  0.002288  0.403099  1
  O  O34  1  0.271537  0.270386  0.498301  1
  O  O35  1  0.725981  0.726859  0.496046  1
  O  O36  1  0.002837  0.001251  0.593309  1
  O  O37  1  0.498074  0.003112  0.607557  1
  O  O38  1  0.003047  0.496639  0.606381  1
  O  O39  1  0.499106  0.496156  0.618478  1
  O  O40  1  0.201504  0.206829  0.703375  1
  O  O41  1  0.805370  0.802718  0.706191  1
  O  O42  1  0.693218  0.305889  0.790522  1
  O  O43  1  0.305888  0.695274  0.790242  1
  O  O44  1  0.999624  0.001533  0.874891  1
  O  O45  1  0.499845  0.000536  0.890241  1
  O  O46  1  0.999412  0.499749  0.890112  1
  O  O47  1  0.498701  0.499456  0.906346  1
