# generated using pymatgen
data_YErPa2(Al3Rh)6
_symmetry_space_group_name_H-M   'P 1'
_cell_length_a   7.59327501
_cell_length_b   7.59521530
_cell_length_c   9.38097700
_cell_angle_alpha   90.00000000
_cell_angle_beta   90.00000000
_cell_angle_gamma   119.64613601
_symmetry_Int_Tables_number   1
_chemical_formula_structural   YErPa2(Al3Rh)6
_chemical_formula_sum   'Y1 Er1 Pa2 Al18 Rh6'
_cell_volume   470.20310975
_cell_formula_units_Z   1
loop_
 _symmetry_equiv_pos_site_id
 _symmetry_equiv_pos_as_xyz
  1  'x, y, z'
loop_
 _atom_site_type_symbol
 _atom_site_label
 _atom_site_symmetry_multiplicity
 _atom_site_fract_x
 _atom_site_fract_y
 _atom_site_fract_z
 _atom_site_occupancy
  Y  Y0  1  0.669657  0.993737  0.750000  1
  Er  Er1  1  0.330125  0.006292  0.250000  1
  Pa  Pa2  1  0.996864  0.670722  0.750000  1
  Pa  Pa3  1  0.003205  0.329274  0.250000  1
  Al  Al4  1  0.129325  0.126316  0.750000  1
  Al  Al5  1  0.871111  0.873796  0.250000  1
  Al  Al6  1  0.000353  0.332166  0.577052  1
  Al  Al7  1  0.000051  0.668238  0.422651  1
  Al  Al8  1  0.000051  0.668238  0.077349  1
  Al  Al9  1  0.337390  0.002500  0.925531  1
  Al  Al10  1  0.000353  0.332166  0.922948  1
  Al  Al11  1  0.662194  0.997444  0.075129  1
  Al  Al12  1  0.662194  0.997444  0.424871  1
  Al  Al13  1  0.337390  0.002500  0.574469  1
  Al  Al14  1  0.334921  0.332972  0.053486  1
  Al  Al15  1  0.665098  0.666716  0.946876  1
  Al  Al16  1  0.665098  0.666716  0.553124  1
  Al  Al17  1  0.334921  0.332972  0.446514  1
  Al  Al18  1  0.339690  0.548588  0.750000  1
  Al  Al19  1  0.659947  0.450922  0.250000  1
  Al  Al20  1  0.548882  0.340897  0.750000  1
  Al  Al21  1  0.450992  0.659304  0.250000  1
  Rh  Rh22  1  0.674851  0.329220  0.499669  1
  Rh  Rh23  1  0.325026  0.670755  0.500079  1
  Rh  Rh24  1  0.325026  0.670755  0.999921  1
  Rh  Rh25  1  0.674851  0.329220  0.000331  1
  Rh  Rh26  1  0.000217  0.000066  0.499834  1
  Rh  Rh27  1  0.000217  0.000066  0.000166  1
