# generated using pymatgen
data_Y7Er3RuRh3
_symmetry_space_group_name_H-M   'P 1'
_cell_length_a   6.42190602
_cell_length_b   7.23033309
_cell_length_c   8.56289415
_cell_angle_alpha   96.77531320
_cell_angle_beta   111.44875597
_cell_angle_gamma   90.13558866
_symmetry_Int_Tables_number   1
_chemical_formula_structural   Y7Er3RuRh3
_chemical_formula_sum   'Y7 Er3 Ru1 Rh3'
_cell_volume   367.03113833
_cell_formula_units_Z   1
loop_
 _symmetry_equiv_pos_site_id
 _symmetry_equiv_pos_as_xyz
  1  'x, y, z'
loop_
 _atom_site_type_symbol
 _atom_site_label
 _atom_site_symmetry_multiplicity
 _atom_site_fract_x
 _atom_site_fract_y
 _atom_site_fract_z
 _atom_site_occupancy
  Y  Y0  1  0.792378  0.581591  0.812577  1
  Y  Y1  1  0.978342  0.918599  0.188485  1
  Y  Y2  1  0.208370  0.417557  0.184537  1
  Y  Y3  1  0.023519  0.083943  0.811386  1
  Y  Y4  1  0.208987  0.684584  0.564711  1
  Y  Y5  1  0.644737  0.814263  0.436671  1
  Y  Y6  1  0.794409  0.313019  0.438937  1
  Er  Er7  1  0.352605  0.186974  0.565873  1
  Er  Er8  1  0.423598  0.748605  0.998808  1
  Er  Er9  1  0.574271  0.250124  0.999114  1
  Ru  Ru10  1  0.184548  0.425080  0.782969  1
  Rh  Rh11  1  0.597719  0.927899  0.780453  1
  Rh  Rh12  1  0.814704  0.574267  0.215662  1
  Rh  Rh13  1  0.401813  0.073494  0.219818  1
