# generated using pymatgen
data_Ba5SrBiPb8Se
_symmetry_space_group_name_H-M   'P 1'
_cell_length_a   9.39942785
_cell_length_b   9.39942851
_cell_length_c   9.47916600
_cell_angle_alpha   119.72214049
_cell_angle_beta   119.72212875
_cell_angle_gamma   90.00000315
_symmetry_Int_Tables_number   1
_chemical_formula_structural   Ba5SrBiPb8Se
_chemical_formula_sum   'Ba5 Sr1 Bi1 Pb8 Se1'
_cell_volume   597.12547114
_cell_formula_units_Z   1
loop_
 _symmetry_equiv_pos_site_id
 _symmetry_equiv_pos_as_xyz
  1  'x, y, z'
loop_
 _atom_site_type_symbol
 _atom_site_label
 _atom_site_symmetry_multiplicity
 _atom_site_fract_x
 _atom_site_fract_y
 _atom_site_fract_z
 _atom_site_occupancy
  Ba  Ba0  1  0.758747  0.758747  0.517495  1
  Ba  Ba1  1  0.676129  0.160317  0.001913  1
  Ba  Ba2  1  0.325784  0.841596  0.001913  1
  Ba  Ba3  1  0.841596  0.676129  0.001913  1
  Ba  Ba4  1  0.160317  0.325784  0.001913  1
  Sr  Sr5  1  0.237314  0.237314  0.474628  1
  Bi  Bi6  1  0.490855  0.490855  0.981708  1
  Pb  Pb7  1  0.332021  0.828858  0.377189  1
  Pb  Pb8  1  0.664428  0.175767  0.624673  1
  Pb  Pb9  1  0.045169  0.548330  0.377189  1
  Pb  Pb10  1  0.548330  0.332021  0.377189  1
  Pb  Pb11  1  0.175767  0.960244  0.624673  1
  Pb  Pb12  1  0.960244  0.448906  0.624673  1
  Pb  Pb13  1  0.448906  0.664428  0.624673  1
  Pb  Pb14  1  0.828858  0.045169  0.377189  1
  Se  Se15  1  0.005535  0.005535  0.011071  1
