# generated using pymatgen
data_HoHf3ZrSn3
_symmetry_space_group_name_H-M   'P 1'
_cell_length_a   8.54810500
_cell_length_b   8.61931177
_cell_length_c   5.84876700
_cell_angle_alpha   90.00000000
_cell_angle_beta   90.00000000
_cell_angle_gamma   120.27595183
_symmetry_Int_Tables_number   1
_chemical_formula_structural   HoHf3ZrSn3
_chemical_formula_sum   'Ho2 Hf6 Zr2 Sn6'
_cell_volume   372.15429054
_cell_formula_units_Z   2
loop_
 _symmetry_equiv_pos_site_id
 _symmetry_equiv_pos_as_xyz
  1  'x, y, z'
loop_
 _atom_site_type_symbol
 _atom_site_label
 _atom_site_symmetry_multiplicity
 _atom_site_fract_x
 _atom_site_fract_y
 _atom_site_fract_z
 _atom_site_occupancy
  Ho  Ho0  1  0.236465  0.237332  0.750000  1
  Ho  Ho1  1  0.236465  0.999132  0.250000  1
  Hf  Hf2  1  0.997949  0.746468  0.750000  1
  Hf  Hf3  1  0.997949  0.251480  0.250000  1
  Hf  Hf4  1  0.336665  0.668334  0.500000  1
  Hf  Hf5  1  0.668294  0.334146  0.000000  1
  Hf  Hf6  1  0.668294  0.334146  0.500000  1
  Hf  Hf7  1  0.336665  0.668334  0.000000  1
  Zr  Zr8  1  0.756704  0.757166  0.250000  1
  Zr  Zr9  1  0.756704  0.999539  0.750000  1
  Sn  Sn10  1  0.394995  0.996613  0.750000  1
  Sn  Sn11  1  0.394995  0.398382  0.250000  1
  Sn  Sn12  1  0.998747  0.603389  0.250000  1
  Sn  Sn13  1  0.998747  0.395359  0.750000  1
  Sn  Sn14  1  0.610181  0.609201  0.750000  1
  Sn  Sn15  1  0.610181  0.000981  0.250000  1
