# generated using pymatgen
data_Nd2PaSn3Ir2Pt
_symmetry_space_group_name_H-M   'P 1'
_cell_length_a   7.61489858
_cell_length_b   7.54611221
_cell_length_c   4.09482700
_cell_angle_alpha   90.00000000
_cell_angle_beta   90.00000000
_cell_angle_gamma   120.04909693
_symmetry_Int_Tables_number   1
_chemical_formula_structural   Nd2PaSn3Ir2Pt
_chemical_formula_sum   'Nd2 Pa1 Sn3 Ir2 Pt1'
_cell_volume   203.67536324
_cell_formula_units_Z   1
loop_
 _symmetry_equiv_pos_site_id
 _symmetry_equiv_pos_as_xyz
  1  'x, y, z'
loop_
 _atom_site_type_symbol
 _atom_site_label
 _atom_site_symmetry_multiplicity
 _atom_site_fract_x
 _atom_site_fract_y
 _atom_site_fract_z
 _atom_site_occupancy
  Nd  Nd0  1  0.997487  0.589869  0.000000  1
  Nd  Nd1  1  0.409228  0.407233  0.000000  1
  Pa  Pa2  1  0.594170  0.010425  0.000000  1
  Sn  Sn3  1  0.242415  0.001290  0.500000  1
  Sn  Sn4  1  0.009080  0.260699  0.500000  1
  Sn  Sn5  1  0.748100  0.738606  0.500000  1
  Ir  Ir6  1  0.662512  0.297808  0.500000  1
  Ir  Ir7  1  0.978396  0.999584  0.000000  1
  Pt  Pt8  1  0.358612  0.694486  0.500000  1
