# generated using pymatgen
data_ScH5F8
_symmetry_space_group_name_H-M   'P 1'
_cell_length_a   4.05799393
_cell_length_b   4.05047391
_cell_length_c   11.53103670
_cell_angle_alpha   93.69559489
_cell_angle_beta   104.58999984
_cell_angle_gamma   92.52967040
_symmetry_Int_Tables_number   1
_chemical_formula_structural   ScH5F8
_chemical_formula_sum   'Sc1 H5 F8'
_cell_volume   182.68204339
_cell_formula_units_Z   1
loop_
 _symmetry_equiv_pos_site_id
 _symmetry_equiv_pos_as_xyz
  1  'x, y, z'
loop_
 _atom_site_type_symbol
 _atom_site_label
 _atom_site_symmetry_multiplicity
 _atom_site_fract_x
 _atom_site_fract_y
 _atom_site_fract_z
 _atom_site_occupancy
  Sc  Sc0  1  0.370238  0.324375  0.627667  1
  H  H1  1  0.524540  0.492288  0.142221  1
  H  H2  1  0.665800  0.524633  0.885217  1
  H  H3  1  0.984753  0.704707  0.256105  1
  H  H4  1  0.251438  0.091440  0.356770  1
  H  H5  1  0.076353  0.617876  0.015768  1
  F  F6  1  0.257000  0.286807  0.451796  1
  F  F7  1  0.247296  0.930473  0.282778  1
  F  F8  1  0.503091  0.364033  0.820472  1
  F  F9  1  0.878270  0.326136  0.638412  1
  F  F10  1  0.874227  0.734057  0.966741  1
  F  F11  1  0.376103  0.826704  0.637706  1
  F  F12  1  0.795159  0.517712  0.237204  1
  F  F13  1  0.321366  0.426671  0.069976  1
