# generated using pymatgen
data_CsZr2Br9
_symmetry_space_group_name_H-M   'P 1'
_cell_length_a   7.18591300
_cell_length_b   10.51351546
_cell_length_c   13.72302735
_cell_angle_alpha   65.99711615
_cell_angle_beta   90.00000000
_cell_angle_gamma   90.00000000
_symmetry_Int_Tables_number   1
_chemical_formula_structural   CsZr2Br9
_chemical_formula_sum   'Cs2 Zr4 Br18'
_cell_volume   947.10967002
_cell_formula_units_Z   2
loop_
 _symmetry_equiv_pos_site_id
 _symmetry_equiv_pos_as_xyz
  1  'x, y, z'
loop_
 _atom_site_type_symbol
 _atom_site_label
 _atom_site_symmetry_multiplicity
 _atom_site_fract_x
 _atom_site_fract_y
 _atom_site_fract_z
 _atom_site_occupancy
  Cs  Cs0  1  0.591850  0.500000  0.750000  1
  Cs  Cs1  1  0.408150  0.500000  0.250000  1
  Zr  Zr2  1  0.254413  0.825722  0.866903  1
  Zr  Zr3  1  0.745587  0.174278  0.133097  1
  Zr  Zr4  1  0.254413  0.174278  0.633097  1
  Zr  Zr5  1  0.745587  0.825722  0.366903  1
  Br  Br6  1  0.102823  0.794813  0.041831  1
  Br  Br7  1  0.897177  0.205187  0.958169  1
  Br  Br8  1  0.102823  0.205187  0.458169  1
  Br  Br9  1  0.897177  0.794813  0.541831  1
  Br  Br10  1  0.109315  0.616976  0.844549  1
  Br  Br11  1  0.890685  0.383024  0.155451  1
  Br  Br12  1  0.109315  0.383024  0.655451  1
  Br  Br13  1  0.890685  0.616976  0.344549  1
  Br  Br14  1  0.972097  0.000000  0.750000  1
  Br  Br15  1  0.027903  0.000000  0.250000  1
  Br  Br16  1  0.400411  0.082624  0.839937  1
  Br  Br17  1  0.599589  0.917376  0.160063  1
  Br  Br18  1  0.400411  0.917376  0.660063  1
  Br  Br19  1  0.599589  0.082624  0.339937  1
  Br  Br20  1  0.565992  0.708488  0.942486  1
  Br  Br21  1  0.434008  0.291512  0.057514  1
  Br  Br22  1  0.565992  0.291512  0.557514  1
  Br  Br23  1  0.434008  0.708488  0.442486  1
