# generated using pymatgen
data_CaZrAs2Ir
_symmetry_space_group_name_H-M   'P 1'
_cell_length_a   4.27394300
_cell_length_b   4.27394343
_cell_length_c   13.43791800
_cell_angle_alpha   90.00000000
_cell_angle_beta   90.00000000
_cell_angle_gamma   119.99998892
_symmetry_Int_Tables_number   1
_chemical_formula_structural   CaZrAs2Ir
_chemical_formula_sum   'Ca2 Zr2 As4 Ir2'
_cell_volume   212.57890342
_cell_formula_units_Z   2
loop_
 _symmetry_equiv_pos_site_id
 _symmetry_equiv_pos_as_xyz
  1  'x, y, z'
loop_
 _atom_site_type_symbol
 _atom_site_label
 _atom_site_symmetry_multiplicity
 _atom_site_fract_x
 _atom_site_fract_y
 _atom_site_fract_z
 _atom_site_occupancy
  Ca  Ca0  1  0.666667  0.333333  0.389612  1
  Ca  Ca1  1  0.333333  0.666667  0.889612  1
  Zr  Zr2  1  0.333333  0.666667  0.620846  1
  Zr  Zr3  1  0.666667  0.333333  0.120846  1
  As  As4  1  0.333333  0.666667  0.256494  1
  As  As5  1  0.000000  0.000000  0.020282  1
  As  As6  1  0.000000  0.000000  0.520282  1
  As  As7  1  0.666667  0.333333  0.756494  1
  Ir  Ir8  1  0.000000  0.000000  0.712764  1
  Ir  Ir9  1  0.000000  0.000000  0.212764  1
