# generated using pymatgen
data_PrTcP2Ru
_symmetry_space_group_name_H-M   'P 1'
_cell_length_a   5.80040341
_cell_length_b   5.80040308
_cell_length_c   5.80040285
_cell_angle_alpha   138.08488185
_cell_angle_beta   138.08488242
_cell_angle_gamma   60.77302570
_symmetry_Int_Tables_number   1
_chemical_formula_structural   PrTcP2Ru
_chemical_formula_sum   'Pr1 Tc1 P2 Ru1'
_cell_volume   86.14713413
_cell_formula_units_Z   1
loop_
 _symmetry_equiv_pos_site_id
 _symmetry_equiv_pos_as_xyz
  1  'x, y, z'
loop_
 _atom_site_type_symbol
 _atom_site_label
 _atom_site_symmetry_multiplicity
 _atom_site_fract_x
 _atom_site_fract_y
 _atom_site_fract_z
 _atom_site_occupancy
  Pr  Pr0  1  0.000000  0.000000  0.000000  1
  Tc  Tc1  1  0.750000  0.250000  0.500000  1
  P  P2  1  0.362407  0.362407  0.000000  1
  P  P3  1  0.637593  0.637593  0.000000  1
  Ru  Ru4  1  0.250000  0.750000  0.500000  1
