# generated using pymatgen
data_Tb4Zn4Ir3Pd
_symmetry_space_group_name_H-M   'P 1'
_cell_length_a   4.09054800
_cell_length_b   7.02976469
_cell_length_c   8.17146624
_cell_angle_alpha   90.19340572
_cell_angle_beta   90.00000000
_cell_angle_gamma   90.00000000
_symmetry_Int_Tables_number   1
_chemical_formula_structural   Tb4Zn4Ir3Pd
_chemical_formula_sum   'Tb4 Zn4 Ir3 Pd1'
_cell_volume   234.97399337
_cell_formula_units_Z   1
loop_
 _symmetry_equiv_pos_site_id
 _symmetry_equiv_pos_as_xyz
  1  'x, y, z'
loop_
 _atom_site_type_symbol
 _atom_site_label
 _atom_site_symmetry_multiplicity
 _atom_site_fract_x
 _atom_site_fract_y
 _atom_site_fract_z
 _atom_site_occupancy
  Tb  Tb0  1  0.250000  0.533316  0.189396  1
  Tb  Tb1  1  0.750000  0.452870  0.814798  1
  Tb  Tb2  1  0.250000  0.038396  0.316659  1
  Tb  Tb3  1  0.750000  0.968233  0.678384  1
  Zn  Zn4  1  0.250000  0.139762  0.935301  1
  Zn  Zn5  1  0.750000  0.863595  0.067025  1
  Zn  Zn6  1  0.250000  0.637800  0.562546  1
  Zn  Zn7  1  0.750000  0.361942  0.434514  1
  Ir  Ir8  1  0.750000  0.744517  0.378356  1
  Ir  Ir9  1  0.250000  0.257953  0.623359  1
  Ir  Ir10  1  0.750000  0.243513  0.119743  1
  Pd  Pd11  1  0.250000  0.758104  0.879918  1
