# generated using pymatgen
data_ErTmGa9PtRh2
_symmetry_space_group_name_H-M   'P 1'
_cell_length_a   7.60114603
_cell_length_b   7.60112094
_cell_length_c   9.46542200
_cell_angle_alpha   90.00000000
_cell_angle_beta   90.00000000
_cell_angle_gamma   119.99489291
_symmetry_Int_Tables_number   1
_chemical_formula_structural   ErTmGa9PtRh2
_chemical_formula_sum   'Er2 Tm2 Ga18 Pt2 Rh4'
_cell_volume   473.64142487
_cell_formula_units_Z   2
loop_
 _symmetry_equiv_pos_site_id
 _symmetry_equiv_pos_as_xyz
  1  'x, y, z'
loop_
 _atom_site_type_symbol
 _atom_site_label
 _atom_site_symmetry_multiplicity
 _atom_site_fract_x
 _atom_site_fract_y
 _atom_site_fract_z
 _atom_site_occupancy
  Er  Er0  1  0.996587  0.670528  0.250000  1
  Er  Er1  1  0.003413  0.329472  0.750000  1
  Tm  Tm2  1  0.670513  0.996541  0.250000  1
  Tm  Tm3  1  0.329487  0.003459  0.750000  1
  Ga  Ga4  1  0.132418  0.132475  0.250000  1
  Ga  Ga5  1  0.867582  0.867525  0.750000  1
  Ga  Ga6  1  0.997715  0.338039  0.081589  1
  Ga  Ga7  1  0.002285  0.661961  0.918411  1
  Ga  Ga8  1  0.002285  0.661961  0.581589  1
  Ga  Ga9  1  0.338343  0.997869  0.418507  1
  Ga  Ga10  1  0.997715  0.338039  0.418411  1
  Ga  Ga11  1  0.661657  0.002131  0.581493  1
  Ga  Ga12  1  0.661657  0.002131  0.918507  1
  Ga  Ga13  1  0.338343  0.997869  0.081493  1
  Ga  Ga14  1  0.336364  0.336226  0.568913  1
  Ga  Ga15  1  0.663636  0.663774  0.431087  1
  Ga  Ga16  1  0.663636  0.663774  0.068913  1
  Ga  Ga17  1  0.336364  0.336226  0.931087  1
  Ga  Ga18  1  0.336609  0.548283  0.250000  1
  Ga  Ga19  1  0.663391  0.451717  0.750000  1
  Ga  Ga20  1  0.548165  0.336434  0.250000  1
  Ga  Ga21  1  0.451835  0.663566  0.750000  1
  Pt  Pt22  1  0.000000  0.000000  0.000000  1
  Pt  Pt23  1  0.000000  0.000000  0.500000  1
  Rh  Rh24  1  0.671062  0.328821  0.000003  1
  Rh  Rh25  1  0.328938  0.671179  0.999997  1
  Rh  Rh26  1  0.328938  0.671179  0.500003  1
  Rh  Rh27  1  0.671062  0.328821  0.499997  1
