# generated using pymatgen
data_TlInI4
_symmetry_space_group_name_H-M   'P 1'
_cell_length_a   8.32442862
_cell_length_b   8.86461880
_cell_length_c   16.80902400
_cell_angle_alpha   85.43165500
_cell_angle_beta   89.96429178
_cell_angle_gamma   89.87804142
_symmetry_Int_Tables_number   1
_chemical_formula_structural   TlInI4
_chemical_formula_sum   'Tl4 In4 I16'
_cell_volume   1236.44280561
_cell_formula_units_Z   4
loop_
 _symmetry_equiv_pos_site_id
 _symmetry_equiv_pos_as_xyz
  1  'x, y, z'
loop_
 _atom_site_type_symbol
 _atom_site_label
 _atom_site_symmetry_multiplicity
 _atom_site_fract_x
 _atom_site_fract_y
 _atom_site_fract_z
 _atom_site_occupancy
  Tl  Tl0  1  0.000687  0.255010  0.137116  1
  Tl  Tl1  1  0.498793  0.254132  0.636790  1
  Tl  Tl2  1  0.999179  0.745760  0.863145  1
  Tl  Tl3  1  0.501596  0.745697  0.363044  1
  In  In4  1  0.360460  0.242493  0.361181  1
  In  In5  1  0.858770  0.757473  0.139055  1
  In  In6  1  0.640379  0.757783  0.639004  1
  In  In7  1  0.141005  0.242661  0.860791  1
  I  I8  1  0.849877  0.124443  0.914036  1
  I  I9  1  0.348402  0.876907  0.586634  1
  I  I10  1  0.150329  0.876053  0.086776  1
  I  I11  1  0.652108  0.122851  0.413612  1
  I  I12  1  0.384118  0.421463  0.219325  1
  I  I13  1  0.886567  0.577534  0.280449  1
  I  I14  1  0.614884  0.577971  0.780509  1
  I  I15  1  0.114765  0.421325  0.718792  1
  I  I16  1  0.650500  0.992525  0.163446  1
  I  I17  1  0.150635  0.010367  0.335505  1
  I  I18  1  0.349524  0.008107  0.836312  1
  I  I19  1  0.849291  0.991307  0.663513  1
  I  I20  1  0.251035  0.430017  0.474325  1
  I  I21  1  0.751452  0.569100  0.026036  1
  I  I22  1  0.748206  0.569336  0.525943  1
  I  I23  1  0.247439  0.429684  0.974661  1
