# generated using pymatgen
data_NbV2Si2B4W7
_symmetry_space_group_name_H-M   'P 1'
_cell_length_a   6.99745949
_cell_length_b   6.99745966
_cell_length_c   6.97856348
_cell_angle_alpha   129.01295356
_cell_angle_beta   129.01295232
_cell_angle_gamma   74.95850382
_symmetry_Int_Tables_number   1
_chemical_formula_structural   NbV2Si2B4W7
_chemical_formula_sum   'Nb1 V2 Si2 B4 W7'
_cell_volume   200.93554114
_cell_formula_units_Z   1
loop_
 _symmetry_equiv_pos_site_id
 _symmetry_equiv_pos_as_xyz
  1  'x, y, z'
loop_
 _atom_site_type_symbol
 _atom_site_label
 _atom_site_symmetry_multiplicity
 _atom_site_fract_x
 _atom_site_fract_y
 _atom_site_fract_z
 _atom_site_occupancy
  Nb  Nb0  1  0.306004  0.806004  0.830817  1
  V  V1  1  0.999404  0.998718  0.000135  1
  V  V2  1  0.498718  0.499404  0.000135  1
  Si  Si3  1  0.249919  0.253971  0.001832  1
  Si  Si4  1  0.753971  0.749919  0.001832  1
  B  B5  1  0.624308  0.124308  0.749360  1
  B  B6  1  0.125356  0.370869  0.497251  1
  B  B7  1  0.870869  0.625356  0.497251  1
  B  B8  1  0.375142  0.875142  0.253544  1
  W  W9  1  0.527966  0.697210  0.501350  1
  W  W10  1  0.028057  0.528057  0.830870  1
  W  W11  1  0.698572  0.198572  0.170638  1
  W  W12  1  0.968843  0.468843  0.163503  1
  W  W13  1  0.197210  0.027966  0.501350  1
  W  W14  1  0.472695  0.302964  0.500066  1
  W  W15  1  0.802964  0.972695  0.500066  1
