# generated using pymatgen
data_BaSr3La8Be4O20
_symmetry_space_group_name_H-M   'P 1'
_cell_length_a   7.42364968
_cell_length_b   6.78563421
_cell_length_c   9.85502095
_cell_angle_alpha   89.81639633
_cell_angle_beta   90.46658709
_cell_angle_gamma   90.20471523
_symmetry_Int_Tables_number   1
_chemical_formula_structural   BaSr3La8Be4O20
_chemical_formula_sum   'Ba1 Sr3 La8 Be4 O20'
_cell_volume   496.41637989
_cell_formula_units_Z   1
loop_
 _symmetry_equiv_pos_site_id
 _symmetry_equiv_pos_as_xyz
  1  'x, y, z'
loop_
 _atom_site_type_symbol
 _atom_site_label
 _atom_site_symmetry_multiplicity
 _atom_site_fract_x
 _atom_site_fract_y
 _atom_site_fract_z
 _atom_site_occupancy
  Ba  Ba0  1  0.018919  0.418061  0.326857  1
  Sr  Sr1  1  0.019555  0.080670  0.828900  1
  Sr  Sr2  1  0.980956  0.580841  0.673015  1
  Sr  Sr3  1  0.980880  0.919868  0.169195  1
  La  La4  1  0.249912  0.594016  0.975601  1
  La  La5  1  0.750218  0.091990  0.524754  1
  La  La6  1  0.750212  0.405924  0.020812  1
  La  La7  1  0.249641  0.907000  0.477941  1
  La  La8  1  0.524301  0.917059  0.175071  1
  La  La9  1  0.476988  0.416849  0.324589  1
  La  La10  1  0.474410  0.081934  0.824974  1
  La  La11  1  0.524818  0.583269  0.675608  1
  Be  Be12  1  0.254741  0.189772  0.095329  1
  Be  Be13  1  0.743964  0.694660  0.403290  1
  Be  Be14  1  0.746984  0.808969  0.902145  1
  Be  Be15  1  0.254115  0.307966  0.600280  1
  O  O16  1  0.268422  0.127690  0.266021  1
  O  O17  1  0.729114  0.636890  0.232061  1
  O  O18  1  0.736095  0.866903  0.731943  1
  O  O19  1  0.265367  0.365716  0.768914  1
  O  O20  1  0.270246  0.518843  0.513958  1
  O  O21  1  0.735912  0.017129  0.989568  1
  O  O22  1  0.729658  0.485439  0.492077  1
  O  O23  1  0.264953  0.982290  0.008154  1
  O  O24  1  0.276848  0.667796  0.217243  1
  O  O25  1  0.721894  0.163505  0.280452  1
  O  O26  1  0.728382  0.335439  0.780923  1
  O  O27  1  0.271894  0.835183  0.720494  1
  O  O28  1  0.438819  0.184812  0.565731  1
  O  O29  1  0.561415  0.685539  0.934193  1
  O  O30  1  0.560193  0.816105  0.436393  1
  O  O31  1  0.439538  0.314540  0.064515  1
  O  O32  1  0.935407  0.807385  0.435079  1
  O  O33  1  0.064285  0.300789  0.059574  1
  O  O34  1  0.063767  0.193390  0.569354  1
  O  O35  1  0.937177  0.695766  0.934993  1
