# generated using pymatgen
data_Dy4HoEr3(WO6)4
_symmetry_space_group_name_H-M   'P 1'
_cell_length_a   5.38679802
_cell_length_b   7.68866985
_cell_length_c   11.42487014
_cell_angle_alpha   75.48463302
_cell_angle_beta   90.00183173
_cell_angle_gamma   89.99142375
_symmetry_Int_Tables_number   1
_chemical_formula_structural   Dy4HoEr3(WO6)4
_chemical_formula_sum   'Dy4 Ho1 Er3 W4 O24'
_cell_volume   458.08347148
_cell_formula_units_Z   1
loop_
 _symmetry_equiv_pos_site_id
 _symmetry_equiv_pos_as_xyz
  1  'x, y, z'
loop_
 _atom_site_type_symbol
 _atom_site_label
 _atom_site_symmetry_multiplicity
 _atom_site_fract_x
 _atom_site_fract_y
 _atom_site_fract_z
 _atom_site_occupancy
  Dy  Dy0  1  0.683952  0.500118  0.249919  1
  Dy  Dy1  1  0.316076  0.499996  0.750009  1
  Dy  Dy2  1  0.740974  0.999917  0.249912  1
  Dy  Dy3  1  0.259016  0.999955  0.750102  1
  Ho  Ho4  1  0.183296  0.206023  0.421938  1
  Er  Er5  1  0.183420  0.793752  0.078240  1
  Er  Er6  1  0.816549  0.793643  0.578253  1
  Er  Er7  1  0.816557  0.206260  0.921769  1
  W  W8  1  0.256031  0.276435  0.114441  1
  W  W9  1  0.255963  0.723720  0.385419  1
  W  W10  1  0.744045  0.723574  0.885452  1
  W  W11  1  0.744127  0.276555  0.614751  1
  O  O12  1  0.457614  0.209061  0.273182  1
  O  O13  1  0.456965  0.791090  0.226395  1
  O  O14  1  0.543040  0.791046  0.726412  1
  O  O15  1  0.543033  0.208981  0.773633  1
  O  O16  1  0.045853  0.059769  0.103616  1
  O  O17  1  0.045355  0.939555  0.396345  1
  O  O18  1  0.954183  0.940206  0.896397  1
  O  O19  1  0.953923  0.059612  0.603813  1
  O  O20  1  0.980667  0.289019  0.228651  1
  O  O21  1  0.980931  0.711039  0.271003  1
  O  O22  1  0.019067  0.711118  0.771042  1
  O  O23  1  0.019126  0.288882  0.728948  1
  O  O24  1  0.849292  0.365880  0.451225  1
  O  O25  1  0.850166  0.634544  0.048799  1
  O  O26  1  0.149837  0.634504  0.548825  1
  O  O27  1  0.149841  0.365471  0.951186  1
  O  O28  1  0.640035  0.510850  0.614178  1
  O  O29  1  0.640097  0.489203  0.885863  1
  O  O30  1  0.360418  0.489606  0.385788  1
  O  O31  1  0.359899  0.510828  0.114154  1
  O  O32  1  0.464642  0.154330  0.568958  1
  O  O33  1  0.463964  0.845402  0.931446  1
  O  O34  1  0.536005  0.845498  0.431455  1
  O  O35  1  0.536040  0.154557  0.068484  1
