# generated using pymatgen
data_LiMg3Ta2(NbN2)6
_symmetry_space_group_name_H-M   'P 1'
_cell_length_a   5.26872400
_cell_length_b   5.26872465
_cell_length_c   10.44201600
_cell_angle_alpha   90.00000000
_cell_angle_beta   90.00000000
_cell_angle_gamma   120.00000849
_symmetry_Int_Tables_number   1
_chemical_formula_structural   LiMg3Ta2(NbN2)6
_chemical_formula_sum   'Li1 Mg3 Ta2 Nb6 N12'
_cell_volume   251.03015827
_cell_formula_units_Z   1
loop_
 _symmetry_equiv_pos_site_id
 _symmetry_equiv_pos_as_xyz
  1  'x, y, z'
loop_
 _atom_site_type_symbol
 _atom_site_label
 _atom_site_symmetry_multiplicity
 _atom_site_fract_x
 _atom_site_fract_y
 _atom_site_fract_z
 _atom_site_occupancy
  Li  Li0  1  0.333333  0.666667  0.000000  1
  Mg  Mg1  1  0.333333  0.666667  0.500000  1
  Mg  Mg2  1  0.666667  0.333333  0.500000  1
  Mg  Mg3  1  0.666667  0.333333  0.000000  1
  Ta  Ta4  1  0.000000  0.000000  0.500000  1
  Ta  Ta5  1  0.000000  0.000000  0.000000  1
  Nb  Nb6  1  0.001897  0.341916  0.248779  1
  Nb  Nb7  1  0.658084  0.998103  0.751221  1
  Nb  Nb8  1  0.340019  0.341916  0.751221  1
  Nb  Nb9  1  0.658084  0.659981  0.248779  1
  Nb  Nb10  1  0.340019  0.998103  0.248779  1
  Nb  Nb11  1  0.001897  0.659981  0.751221  1
  N  N12  1  0.673084  0.672720  0.620162  1
  N  N13  1  0.676075  0.674256  0.878930  1
  N  N14  1  0.325744  0.323925  0.121070  1
  N  N15  1  0.327280  0.326916  0.379838  1
  N  N16  1  0.325744  0.001819  0.878930  1
  N  N17  1  0.327280  0.000364  0.620162  1
  N  N18  1  0.999636  0.672720  0.379838  1
  N  N19  1  0.998181  0.674256  0.121070  1
  N  N20  1  0.676075  0.001819  0.121070  1
  N  N21  1  0.673084  0.000364  0.379838  1
  N  N22  1  0.998181  0.323925  0.878930  1
  N  N23  1  0.999636  0.326916  0.620162  1
