# generated using pymatgen
data_Y3Co2Sn3Hg
_symmetry_space_group_name_H-M   'P 1'
_cell_length_a   7.62269500
_cell_length_b   7.62269517
_cell_length_c   3.83281800
_cell_angle_alpha   90.00000000
_cell_angle_beta   90.00000000
_cell_angle_gamma   119.99999492
_symmetry_Int_Tables_number   1
_chemical_formula_structural   Y3Co2Sn3Hg
_chemical_formula_sum   'Y3 Co2 Sn3 Hg1'
_cell_volume   192.87056254
_cell_formula_units_Z   1
loop_
 _symmetry_equiv_pos_site_id
 _symmetry_equiv_pos_as_xyz
  1  'x, y, z'
loop_
 _atom_site_type_symbol
 _atom_site_label
 _atom_site_symmetry_multiplicity
 _atom_site_fract_x
 _atom_site_fract_y
 _atom_site_fract_z
 _atom_site_occupancy
  Y  Y0  1  0.413366  0.024880  0.500000  1
  Y  Y1  1  0.975120  0.388486  0.500000  1
  Y  Y2  1  0.611514  0.586634  0.500000  1
  Co  Co3  1  0.666667  0.333333  0.000000  1
  Co  Co4  1  0.000000  0.000000  0.500000  1
  Sn  Sn5  1  0.756504  0.010406  0.000000  1
  Sn  Sn6  1  0.989594  0.746098  0.000000  1
  Sn  Sn7  1  0.253902  0.243496  0.000000  1
  Hg  Hg8  1  0.333333  0.666667  0.000000  1
