# generated using pymatgen
data_Ho6VB14W
_symmetry_space_group_name_H-M   'P 1'
_cell_length_a   8.12827083
_cell_length_b   8.12826984
_cell_length_c   9.43110200
_cell_angle_alpha   90.00000000
_cell_angle_beta   90.00000000
_cell_angle_gamma   155.59133662
_symmetry_Int_Tables_number   1
_chemical_formula_structural   Ho6VB14W
_chemical_formula_sum   'Ho6 V1 B14 W1'
_cell_volume   257.49174243
_cell_formula_units_Z   1
loop_
 _symmetry_equiv_pos_site_id
 _symmetry_equiv_pos_as_xyz
  1  'x, y, z'
loop_
 _atom_site_type_symbol
 _atom_site_label
 _atom_site_symmetry_multiplicity
 _atom_site_fract_x
 _atom_site_fract_y
 _atom_site_fract_z
 _atom_site_occupancy
  Ho  Ho0  1  0.893682  0.106318  0.437728  1
  Ho  Ho1  1  0.106917  0.893083  0.557608  1
  Ho  Ho2  1  0.893682  0.106318  0.062272  1
  Ho  Ho3  1  0.106917  0.893083  0.942392  1
  Ho  Ho4  1  0.241620  0.758380  0.250000  1
  Ho  Ho5  1  0.755194  0.244806  0.750000  1
  V  V6  1  0.052482  0.947518  0.250000  1
  B  B7  1  0.727434  0.272566  0.466745  1
  B  B8  1  0.272381  0.727619  0.531487  1
  B  B9  1  0.727434  0.272566  0.033255  1
  B  B10  1  0.272381  0.727619  0.968513  1
  B  B11  1  0.632506  0.367494  0.150275  1
  B  B12  1  0.365215  0.634785  0.853772  1
  B  B13  1  0.632506  0.367494  0.349725  1
  B  B14  1  0.365215  0.634785  0.646228  1
  B  B15  1  0.521024  0.478976  0.094992  1
  B  B16  1  0.480759  0.519241  0.909508  1
  B  B17  1  0.521024  0.478976  0.405008  1
  B  B18  1  0.480759  0.519241  0.590492  1
  B  B19  1  0.458480  0.541520  0.250000  1
  B  B20  1  0.545389  0.454611  0.750000  1
  W  W21  1  0.946999  0.053001  0.750000  1
