# generated using pymatgen
data_SrZn10Ag
_symmetry_space_group_name_H-M   'P 1'
_cell_length_a   8.40690261
_cell_length_b   8.40690312
_cell_length_c   8.40690221
_cell_angle_alpha   99.52290969
_cell_angle_beta   99.52289783
_cell_angle_gamma   131.99889384
_symmetry_Int_Tables_number   1
_chemical_formula_structural   SrZn10Ag
_chemical_formula_sum   'Sr2 Zn20 Ag2'
_cell_volume   403.38279035
_cell_formula_units_Z   2
loop_
 _symmetry_equiv_pos_site_id
 _symmetry_equiv_pos_as_xyz
  1  'x, y, z'
loop_
 _atom_site_type_symbol
 _atom_site_label
 _atom_site_symmetry_multiplicity
 _atom_site_fract_x
 _atom_site_fract_y
 _atom_site_fract_z
 _atom_site_occupancy
  Sr  Sr0  1  0.000000  0.000000  0.000000  1
  Sr  Sr1  1  0.250000  0.750000  0.500000  1
  Zn  Zn2  1  0.125000  0.375000  0.750000  1
  Zn  Zn3  1  0.625000  0.875000  0.250000  1
  Zn  Zn4  1  0.625000  0.375000  0.750000  1
  Zn  Zn5  1  0.625000  0.375000  0.250000  1
  Zn  Zn6  1  0.183638  0.512351  0.084589  1
  Zn  Zn7  1  0.183638  0.099050  0.671287  1
  Zn  Zn8  1  0.762351  0.933638  0.584589  1
  Zn  Zn9  1  0.762351  0.177762  0.828713  1
  Zn  Zn10  1  0.427762  0.512351  0.328713  1
  Zn  Zn11  1  0.427762  0.099050  0.915411  1
  Zn  Zn12  1  0.349050  0.933638  0.171287  1
  Zn  Zn13  1  0.349050  0.177762  0.415411  1
  Zn  Zn14  1  0.066362  0.237649  0.415411  1
  Zn  Zn15  1  0.066362  0.650950  0.828713  1
  Zn  Zn16  1  0.487649  0.816362  0.915411  1
  Zn  Zn17  1  0.487649  0.572238  0.671287  1
  Zn  Zn18  1  0.822238  0.237649  0.171287  1
  Zn  Zn19  1  0.822238  0.650950  0.584589  1
  Zn  Zn20  1  0.900950  0.816362  0.328713  1
  Zn  Zn21  1  0.900950  0.572238  0.084589  1
  Ag  Ag22  1  0.750000  0.250000  0.500000  1
  Ag  Ag23  1  0.500000  0.500000  0.000000  1
