# generated using pymatgen
data_GaMo6Pt2RhN2
_symmetry_space_group_name_H-M   'P 1'
_cell_length_a   6.88476152
_cell_length_b   6.86956003
_cell_length_c   6.88234332
_cell_angle_alpha   89.60165508
_cell_angle_beta   89.97267572
_cell_angle_gamma   89.96478535
_symmetry_Int_Tables_number   1
_chemical_formula_structural   GaMo6Pt2RhN2
_chemical_formula_sum   'Ga2 Mo12 Pt4 Rh2 N4'
_cell_volume   325.49440718
_cell_formula_units_Z   2
loop_
 _symmetry_equiv_pos_site_id
 _symmetry_equiv_pos_as_xyz
  1  'x, y, z'
loop_
 _atom_site_type_symbol
 _atom_site_label
 _atom_site_symmetry_multiplicity
 _atom_site_fract_x
 _atom_site_fract_y
 _atom_site_fract_z
 _atom_site_occupancy
  Ga  Ga0  1  0.686453  0.178753  0.933000  1
  Ga  Ga1  1  0.183755  0.822704  0.059798  1
  Mo  Mo2  1  0.619403  0.046079  0.546100  1
  Mo  Mo3  1  0.118597  0.954696  0.458939  1
  Mo  Mo4  1  0.868542  0.537511  0.943922  1
  Mo  Mo5  1  0.370180  0.463081  0.052934  1
  Mo  Mo6  1  0.204247  0.623997  0.701221  1
  Mo  Mo7  1  0.299599  0.124486  0.785163  1
  Mo  Mo8  1  0.800863  0.877361  0.213498  1
  Mo  Mo9  1  0.703342  0.376243  0.301107  1
  Mo  Mo10  1  0.044420  0.206908  0.127873  1
  Mo  Mo11  1  0.960113  0.299516  0.626563  1
  Mo  Mo12  1  0.549724  0.790593  0.870328  1
  Mo  Mo13  1  0.461572  0.696531  0.376392  1
  Pt  Pt14  1  0.810541  0.686878  0.567708  1
  Pt  Pt15  1  0.312224  0.314698  0.435553  1
  Pt  Pt16  1  0.061992  0.573284  0.298286  1
  Pt  Pt17  1  0.437157  0.059714  0.174618  1
  Rh  Rh18  1  0.561175  0.429463  0.701779  1
  Rh  Rh19  1  0.935682  0.939152  0.824192  1
  N  N20  1  0.375342  0.870895  0.619777  1
  N  N21  1  0.874410  0.127744  0.380953  1
  N  N22  1  0.130239  0.374675  0.875666  1
  N  N23  1  0.630431  0.625037  0.124630  1
