# generated using pymatgen
data_ScTi11(VSi2)8
_symmetry_space_group_name_H-M   'P 1'
_cell_length_a   6.56213907
_cell_length_b   6.56280700
_cell_length_c   12.09119268
_cell_angle_alpha   89.95892476
_cell_angle_beta   89.95566465
_cell_angle_gamma   90.04827349
_symmetry_Int_Tables_number   1
_chemical_formula_structural   ScTi11(VSi2)8
_chemical_formula_sum   'Sc1 Ti11 V8 Si16'
_cell_volume   520.71946139
_cell_formula_units_Z   1
loop_
 _symmetry_equiv_pos_site_id
 _symmetry_equiv_pos_as_xyz
  1  'x, y, z'
loop_
 _atom_site_type_symbol
 _atom_site_label
 _atom_site_symmetry_multiplicity
 _atom_site_fract_x
 _atom_site_fract_y
 _atom_site_fract_z
 _atom_site_occupancy
  Sc  Sc0  1  0.999863  0.337255  0.220531  1
  Ti  Ti1  1  0.160936  0.503814  0.470035  1
  Ti  Ti2  1  0.840670  0.496372  0.969698  1
  Ti  Ti3  1  0.503810  0.159499  0.530451  1
  Ti  Ti4  1  0.495852  0.839698  0.028501  1
  Ti  Ti5  1  0.996772  0.660435  0.720456  1
  Ti  Ti6  1  0.339544  0.003482  0.779502  1
  Ti  Ti7  1  0.657362  0.994054  0.280504  1
  Ti  Ti8  1  0.166663  0.165946  0.999228  1
  Ti  Ti9  1  0.334812  0.668075  0.250239  1
  Ti  Ti10  1  0.666755  0.333536  0.750016  1
  Ti  Ti11  1  0.833172  0.833182  0.500981  1
  V  V12  1  0.994211  0.155356  0.622155  1
  V  V13  1  0.344588  0.494493  0.870729  1
  V  V14  1  0.655207  0.507640  0.373241  1
  V  V15  1  0.495170  0.345316  0.127419  1
  V  V16  1  0.506022  0.655827  0.628672  1
  V  V17  1  0.006904  0.845142  0.120907  1
  V  V18  1  0.157566  0.994505  0.380085  1
  V  V19  1  0.844175  0.005020  0.877455  1
  Si  Si20  1  0.042520  0.297543  0.812046  1
  Si  Si21  1  0.204532  0.543536  0.061148  1
  Si  Si22  1  0.797876  0.458184  0.562882  1
  Si  Si23  1  0.541196  0.202785  0.936607  1
  Si  Si24  1  0.457389  0.797557  0.438276  1
  Si  Si25  1  0.957599  0.706868  0.312659  1
  Si  Si26  1  0.299759  0.041477  0.187460  1
  Si  Si27  1  0.702272  0.957555  0.687968  1
  Si  Si28  1  0.291496  0.367240  0.672214  1
  Si  Si29  1  0.132979  0.791613  0.921761  1
  Si  Si30  1  0.865244  0.206415  0.425760  1
  Si  Si31  1  0.788106  0.128546  0.074432  1
  Si  Si32  1  0.208543  0.866867  0.577877  1
  Si  Si33  1  0.706907  0.635900  0.172630  1
  Si  Si34  1  0.370534  0.291134  0.328030  1
  Si  Si35  1  0.632995  0.708134  0.827445  1
