# generated using pymatgen
data_Rb2Ga13Bi
_symmetry_space_group_name_H-M   'P 1'
_cell_length_a   10.55177695
_cell_length_b   10.55177677
_cell_length_c   10.55177824
_cell_angle_alpha   38.70635829
_cell_angle_beta   38.70635801
_cell_angle_gamma   38.70636142
_symmetry_Int_Tables_number   1
_chemical_formula_structural   Rb2Ga13Bi
_chemical_formula_sum   'Rb2 Ga13 Bi1'
_cell_volume   412.92151634
_cell_formula_units_Z   1
loop_
 _symmetry_equiv_pos_site_id
 _symmetry_equiv_pos_as_xyz
  1  'x, y, z'
loop_
 _atom_site_type_symbol
 _atom_site_label
 _atom_site_symmetry_multiplicity
 _atom_site_fract_x
 _atom_site_fract_y
 _atom_site_fract_z
 _atom_site_occupancy
  Rb  Rb0  1  0.197449  0.197449  0.197449  1
  Rb  Rb1  1  0.802768  0.802768  0.802768  1
  Ga  Ga2  1  0.557792  0.557792  0.557792  1
  Ga  Ga3  1  0.575472  0.184811  0.184811  1
  Ga  Ga4  1  0.184811  0.184811  0.575472  1
  Ga  Ga5  1  0.184811  0.575472  0.184811  1
  Ga  Ga6  1  0.813093  0.423213  0.813093  1
  Ga  Ga7  1  0.423213  0.813093  0.813093  1
  Ga  Ga8  1  0.813093  0.813093  0.423213  1
  Ga  Ga9  1  0.806775  0.203886  0.203886  1
  Ga  Ga10  1  0.203886  0.203886  0.806775  1
  Ga  Ga11  1  0.203886  0.806775  0.203886  1
  Ga  Ga12  1  0.792422  0.191352  0.792422  1
  Ga  Ga13  1  0.191352  0.792422  0.792422  1
  Ga  Ga14  1  0.792422  0.792422  0.191352  1
  Bi  Bi15  1  0.456753  0.456753  0.456753  1
