# generated using pymatgen
data_Li2Eu3Ho(ScPt2)2
_symmetry_space_group_name_H-M   'P 1'
_cell_length_a   4.21644100
_cell_length_b   7.38131038
_cell_length_c   8.84774351
_cell_angle_alpha   89.57815516
_cell_angle_beta   90.00000000
_cell_angle_gamma   90.00000000
_symmetry_Int_Tables_number   1
_chemical_formula_structural   Li2Eu3Ho(ScPt2)2
_chemical_formula_sum   'Li2 Eu3 Ho1 Sc2 Pt4'
_cell_volume   275.35961683
_cell_formula_units_Z   1
loop_
 _symmetry_equiv_pos_site_id
 _symmetry_equiv_pos_as_xyz
  1  'x, y, z'
loop_
 _atom_site_type_symbol
 _atom_site_label
 _atom_site_symmetry_multiplicity
 _atom_site_fract_x
 _atom_site_fract_y
 _atom_site_fract_z
 _atom_site_occupancy
  Li  Li0  1  0.250000  0.136553  0.943855  1
  Li  Li1  1  0.250000  0.642955  0.558383  1
  Eu  Eu2  1  0.250000  0.527881  0.173193  1
  Eu  Eu3  1  0.750000  0.959281  0.674906  1
  Eu  Eu4  1  0.750000  0.458627  0.822453  1
  Ho  Ho5  1  0.250000  0.031959  0.327880  1
  Sc  Sc6  1  0.750000  0.872075  0.058729  1
  Sc  Sc7  1  0.750000  0.378246  0.441196  1
  Pt  Pt8  1  0.250000  0.259520  0.597868  1
  Pt  Pt9  1  0.250000  0.767411  0.889130  1
  Pt  Pt10  1  0.750000  0.748387  0.361495  1
  Pt  Pt11  1  0.750000  0.217103  0.150913  1
