# generated using pymatgen
data_SmErMo3P7Rh9
_symmetry_space_group_name_H-M   'P 1'
_cell_length_a   3.93316105
_cell_length_b   9.54449183
_cell_length_c   9.54574902
_cell_angle_alpha   119.99939738
_cell_angle_beta   89.99092546
_cell_angle_gamma   90.01263145
_symmetry_Int_Tables_number   1
_chemical_formula_structural   SmErMo3P7Rh9
_chemical_formula_sum   'Sm1 Er1 Mo3 P7 Rh9'
_cell_volume   310.34003862
_cell_formula_units_Z   1
loop_
 _symmetry_equiv_pos_site_id
 _symmetry_equiv_pos_as_xyz
  1  'x, y, z'
loop_
 _atom_site_type_symbol
 _atom_site_label
 _atom_site_symmetry_multiplicity
 _atom_site_fract_x
 _atom_site_fract_y
 _atom_site_fract_z
 _atom_site_occupancy
  Sm  Sm0  1  0.262021  0.666672  0.333327  1
  Er  Er1  1  0.761889  0.333333  0.666678  1
  Mo  Mo2  1  0.761894  0.091466  0.871727  1
  Mo  Mo3  1  0.761898  0.128269  0.219734  1
  Mo  Mo4  1  0.761907  0.780255  0.908517  1
  P  P5  1  0.261922  0.999989  0.999987  1
  P  P6  1  0.761905  0.883303  0.595947  1
  P  P7  1  0.761891  0.404059  0.287354  1
  P  P8  1  0.761905  0.712643  0.116692  1
  P  P9  1  0.261868  0.117202  0.413392  1
  P  P10  1  0.261862  0.586605  0.703821  1
  P  P11  1  0.261858  0.296166  0.882794  1
  Rh  Rh12  1  0.261907  0.884265  0.159954  1
  Rh  Rh13  1  0.261935  0.840016  0.724292  1
  Rh  Rh14  1  0.261937  0.275706  0.115740  1
  Rh  Rh15  1  0.761878  0.610452  0.560598  1
  Rh  Rh16  1  0.761909  0.439410  0.049864  1
  Rh  Rh17  1  0.761901  0.950157  0.389568  1
  Rh  Rh18  1  0.261900  0.368341  0.438922  1
  Rh  Rh19  1  0.261916  0.561121  0.929429  1
  Rh  Rh20  1  0.261896  0.070569  0.631664  1
