# generated using pymatgen
data_Yb3Ga6Ni4Ir5
_symmetry_space_group_name_H-M   'P 1'
_cell_length_a   9.35262267
_cell_length_b   9.22550278
_cell_length_c   3.89847300
_cell_angle_alpha   90.00000000
_cell_angle_beta   90.00000000
_cell_angle_gamma   119.55139137
_symmetry_Int_Tables_number   1
_chemical_formula_structural   Yb3Ga6Ni4Ir5
_chemical_formula_sum   'Yb3 Ga6 Ni4 Ir5'
_cell_volume   292.61335414
_cell_formula_units_Z   1
loop_
 _symmetry_equiv_pos_site_id
 _symmetry_equiv_pos_as_xyz
  1  'x, y, z'
loop_
 _atom_site_type_symbol
 _atom_site_label
 _atom_site_symmetry_multiplicity
 _atom_site_fract_x
 _atom_site_fract_y
 _atom_site_fract_z
 _atom_site_occupancy
  Yb  Yb0  1  0.004380  0.002190  0.000000  1
  Yb  Yb1  1  0.666132  0.333066  0.500000  1
  Yb  Yb2  1  0.332561  0.666281  0.500000  1
  Ga  Ga3  1  0.676547  0.686230  0.500000  1
  Ga  Ga4  1  0.312304  0.000700  0.500000  1
  Ga  Ga5  1  0.013110  0.318975  0.500000  1
  Ga  Ga6  1  0.312304  0.311603  0.500000  1
  Ga  Ga7  1  0.676547  0.990316  0.500000  1
  Ga  Ga8  1  0.013110  0.694136  0.500000  1
  Ni  Ni9  1  0.348586  0.174293  0.000000  1
  Ni  Ni10  1  0.180638  0.828540  0.000000  1
  Ni  Ni11  1  0.640235  0.820118  0.000000  1
  Ni  Ni12  1  0.180638  0.352099  0.000000  1
  Ir  Ir13  1  0.495005  0.494711  0.000000  1
  Ir  Ir14  1  0.495005  0.000295  0.000000  1
  Ir  Ir15  1  0.007887  0.503944  0.000000  1
  Ir  Ir16  1  0.822505  0.177081  0.000000  1
  Ir  Ir17  1  0.822505  0.645422  0.000000  1
