# generated using pymatgen
data_Tm3Zn5Ir
_symmetry_space_group_name_H-M   'P 1'
_cell_length_a   7.29482700
_cell_length_b   7.29482632
_cell_length_c   3.81327100
_cell_angle_alpha   90.00000000
_cell_angle_beta   90.00000000
_cell_angle_gamma   119.99999856
_symmetry_Int_Tables_number   1
_chemical_formula_structural   Tm3Zn5Ir
_chemical_formula_sum   'Tm3 Zn5 Ir1'
_cell_volume   175.73499842
_cell_formula_units_Z   1
loop_
 _symmetry_equiv_pos_site_id
 _symmetry_equiv_pos_as_xyz
  1  'x, y, z'
loop_
 _atom_site_type_symbol
 _atom_site_label
 _atom_site_symmetry_multiplicity
 _atom_site_fract_x
 _atom_site_fract_y
 _atom_site_fract_z
 _atom_site_occupancy
  Tm  Tm0  1  0.419620  0.400680  0.000000  1
  Tm  Tm1  1  0.599320  0.018940  0.000000  1
  Tm  Tm2  1  0.981060  0.580380  0.000000  1
  Zn  Zn3  1  0.744125  0.744940  0.500000  1
  Zn  Zn4  1  0.255060  0.999184  0.500000  1
  Zn  Zn5  1  0.000816  0.255875  0.500000  1
  Zn  Zn6  1  0.000000  0.000000  0.000000  1
  Zn  Zn7  1  0.333333  0.666667  0.500000  1
  Ir  Ir8  1  0.666667  0.333333  0.500000  1
