# generated using pymatgen
data_Pr4Be2(GeRh3)3
_symmetry_space_group_name_H-M   'P 1'
_cell_length_a   11.82670297
_cell_length_b   11.82670333
_cell_length_c   11.82670227
_cell_angle_alpha   27.54689304
_cell_angle_beta   27.54688874
_cell_angle_gamma   27.54689480
_symmetry_Int_Tables_number   1
_chemical_formula_structural   Pr4Be2(GeRh3)3
_chemical_formula_sum   'Pr4 Be2 Ge3 Rh9'
_cell_volume   312.30204778
_cell_formula_units_Z   1
loop_
 _symmetry_equiv_pos_site_id
 _symmetry_equiv_pos_as_xyz
  1  'x, y, z'
loop_
 _atom_site_type_symbol
 _atom_site_label
 _atom_site_symmetry_multiplicity
 _atom_site_fract_x
 _atom_site_fract_y
 _atom_site_fract_z
 _atom_site_occupancy
  Pr  Pr0  1  0.949180  0.949180  0.949180  1
  Pr  Pr1  1  0.851741  0.851741  0.851741  1
  Pr  Pr2  1  0.146753  0.146753  0.146753  1
  Pr  Pr3  1  0.050022  0.050022  0.050022  1
  Be  Be4  1  0.279433  0.279433  0.279433  1
  Be  Be5  1  0.387749  0.387749  0.387749  1
  Ge  Ge6  1  0.501133  0.501133  0.501133  1
  Ge  Ge7  1  0.720415  0.720415  0.720415  1
  Ge  Ge8  1  0.613359  0.613359  0.613359  1
  Rh  Rh9  1  0.602682  0.602682  0.114343  1
  Rh  Rh10  1  0.903268  0.388093  0.388093  1
  Rh  Rh11  1  0.494098  0.012859  0.494098  1
  Rh  Rh12  1  0.388093  0.903268  0.388093  1
  Rh  Rh13  1  0.494098  0.494098  0.012859  1
  Rh  Rh14  1  0.114343  0.602682  0.602682  1
  Rh  Rh15  1  0.012859  0.494098  0.494098  1
  Rh  Rh16  1  0.388093  0.388093  0.903268  1
  Rh  Rh17  1  0.602682  0.114343  0.602682  1
