# generated using pymatgen
data_ErHf(BeGe)2
_symmetry_space_group_name_H-M   'P 1'
_cell_length_a   3.80840000
_cell_length_b   3.80840124
_cell_length_c   7.68910400
_cell_angle_alpha   90.00000000
_cell_angle_beta   90.00000000
_cell_angle_gamma   120.00000662
_symmetry_Int_Tables_number   1
_chemical_formula_structural   ErHf(BeGe)2
_chemical_formula_sum   'Er1 Hf1 Be2 Ge2'
_cell_volume   96.58097646
_cell_formula_units_Z   1
loop_
 _symmetry_equiv_pos_site_id
 _symmetry_equiv_pos_as_xyz
  1  'x, y, z'
loop_
 _atom_site_type_symbol
 _atom_site_label
 _atom_site_symmetry_multiplicity
 _atom_site_fract_x
 _atom_site_fract_y
 _atom_site_fract_z
 _atom_site_occupancy
  Er  Er0  1  0.000000  0.000000  0.000000  1
  Hf  Hf1  1  0.000000  0.000000  0.500000  1
  Be  Be2  1  0.333333  0.666667  0.270296  1
  Be  Be3  1  0.666667  0.333333  0.729704  1
  Ge  Ge4  1  0.333333  0.666667  0.740973  1
  Ge  Ge5  1  0.666667  0.333333  0.259027  1
