# generated using pymatgen
data_Tm4CdRh
_symmetry_space_group_name_H-M   'P 1'
_cell_length_a   9.51402669
_cell_length_b   9.51402632
_cell_length_c   9.51402700
_cell_angle_alpha   60.00000112
_cell_angle_beta   60.00000238
_cell_angle_gamma   60.00000032
_symmetry_Int_Tables_number   1
_chemical_formula_structural   Tm4CdRh
_chemical_formula_sum   'Tm16 Cd4 Rh4'
_cell_volume   608.94505503
_cell_formula_units_Z   4
loop_
 _symmetry_equiv_pos_site_id
 _symmetry_equiv_pos_as_xyz
  1  'x, y, z'
loop_
 _atom_site_type_symbol
 _atom_site_label
 _atom_site_symmetry_multiplicity
 _atom_site_fract_x
 _atom_site_fract_y
 _atom_site_fract_z
 _atom_site_occupancy
  Tm  Tm0  1  0.298360  0.900547  0.900547  1
  Tm  Tm1  1  0.686037  0.313963  0.686037  1
  Tm  Tm2  1  0.313963  0.686037  0.313963  1
  Tm  Tm3  1  0.060835  0.439165  0.439165  1
  Tm  Tm4  1  0.686037  0.313963  0.313963  1
  Tm  Tm5  1  0.439165  0.060835  0.439165  1
  Tm  Tm6  1  0.439165  0.060835  0.060835  1
  Tm  Tm7  1  0.900547  0.900547  0.900547  1
  Tm  Tm8  1  0.060835  0.439165  0.060835  1
  Tm  Tm9  1  0.900547  0.298360  0.900547  1
  Tm  Tm10  1  0.313963  0.686037  0.686037  1
  Tm  Tm11  1  0.900547  0.900547  0.298360  1
  Tm  Tm12  1  0.439165  0.439165  0.060835  1
  Tm  Tm13  1  0.313963  0.313963  0.686037  1
  Tm  Tm14  1  0.686037  0.686037  0.313963  1
  Tm  Tm15  1  0.060835  0.060835  0.439165  1
  Cd  Cd16  1  0.992739  0.669087  0.669087  1
  Cd  Cd17  1  0.669087  0.992739  0.669087  1
  Cd  Cd18  1  0.669087  0.669087  0.992739  1
  Cd  Cd19  1  0.669087  0.669087  0.669087  1
  Rh  Rh20  1  0.107503  0.107503  0.677492  1
  Rh  Rh21  1  0.107503  0.677492  0.107503  1
  Rh  Rh22  1  0.107503  0.107503  0.107503  1
  Rh  Rh23  1  0.677492  0.107503  0.107503  1
