# generated using pymatgen
data_HoSc2Pa(ReB6)2
_symmetry_space_group_name_H-M   'P 1'
_cell_length_a   3.61677300
_cell_length_b   8.99281086
_cell_length_c   11.36876258
_cell_angle_alpha   90.16662178
_cell_angle_beta   90.00000000
_cell_angle_gamma   90.00000000
_symmetry_Int_Tables_number   1
_chemical_formula_structural   HoSc2Pa(ReB6)2
_chemical_formula_sum   'Ho2 Sc4 Pa2 Re4 B24'
_cell_volume   369.76693380
_cell_formula_units_Z   2
loop_
 _symmetry_equiv_pos_site_id
 _symmetry_equiv_pos_as_xyz
  1  'x, y, z'
loop_
 _atom_site_type_symbol
 _atom_site_label
 _atom_site_symmetry_multiplicity
 _atom_site_fract_x
 _atom_site_fract_y
 _atom_site_fract_z
 _atom_site_occupancy
  Ho  Ho0  1  0.000000  0.821704  0.085547  1
  Ho  Ho1  1  0.000000  0.178296  0.914453  1
  Sc  Sc2  1  0.000000  0.945791  0.372736  1
  Sc  Sc3  1  0.000000  0.054209  0.627264  1
  Sc  Sc4  1  0.000000  0.444507  0.125745  1
  Sc  Sc5  1  0.000000  0.555493  0.874255  1
  Pa  Pa6  1  0.000000  0.319757  0.413748  1
  Pa  Pa7  1  0.000000  0.680243  0.586252  1
  Re  Re8  1  0.000000  0.637615  0.321324  1
  Re  Re9  1  0.000000  0.362385  0.678676  1
  Re  Re10  1  0.000000  0.142083  0.183226  1
  Re  Re11  1  0.000000  0.857917  0.816774  1
  B  B12  1  0.500000  0.554766  0.432512  1
  B  B13  1  0.500000  0.445234  0.567488  1
  B  B14  1  0.500000  0.054233  0.067275  1
  B  B15  1  0.500000  0.945767  0.932725  1
  B  B16  1  0.500000  0.753577  0.418297  1
  B  B17  1  0.500000  0.246423  0.581703  1
  B  B18  1  0.500000  0.252592  0.080658  1
  B  B19  1  0.500000  0.747408  0.919342  1
  B  B20  1  0.500000  0.794021  0.264140  1
  B  B21  1  0.500000  0.205979  0.735860  1
  B  B22  1  0.500000  0.294078  0.234463  1
  B  B23  1  0.500000  0.705922  0.765537  1
  B  B24  1  0.500000  0.629455  0.182545  1
  B  B25  1  0.500000  0.370545  0.817455  1
  B  B26  1  0.500000  0.129137  0.316540  1
  B  B27  1  0.500000  0.870863  0.683460  1
  B  B28  1  0.500000  0.980870  0.213380  1
  B  B29  1  0.500000  0.019130  0.786620  1
  B  B30  1  0.500000  0.481859  0.284889  1
  B  B31  1  0.500000  0.518141  0.715111  1
  B  B32  1  0.500000  0.598058  0.026739  1
  B  B33  1  0.500000  0.401942  0.973261  1
  B  B34  1  0.500000  0.100186  0.472775  1
  B  B35  1  0.500000  0.899814  0.527225  1
