# generated using pymatgen
data_Ho3MgAs6Ru7
_symmetry_space_group_name_H-M   'P 1'
_cell_length_a   7.27552325
_cell_length_b   7.13949323
_cell_length_c   7.13949280
_cell_angle_alpha   109.08204854
_cell_angle_beta   109.85764573
_cell_angle_gamma   109.85764637
_symmetry_Int_Tables_number   1
_chemical_formula_structural   Ho3MgAs6Ru7
_chemical_formula_sum   'Ho3 Mg1 As6 Ru7'
_cell_volume   284.10813050
_cell_formula_units_Z   1
loop_
 _symmetry_equiv_pos_site_id
 _symmetry_equiv_pos_as_xyz
  1  'x, y, z'
loop_
 _atom_site_type_symbol
 _atom_site_label
 _atom_site_symmetry_multiplicity
 _atom_site_fract_x
 _atom_site_fract_y
 _atom_site_fract_z
 _atom_site_occupancy
  Ho  Ho0  1  0.000000  0.000000  0.500000  1
  Ho  Ho1  1  0.000000  0.500000  0.000000  1
  Ho  Ho2  1  0.500000  0.500000  0.500000  1
  Mg  Mg3  1  0.500000  0.000000  0.000000  1
  As  As4  1  0.316102  0.000000  0.310842  1
  As  As5  1  0.994740  0.310842  0.310842  1
  As  As6  1  0.005260  0.689158  0.689158  1
  As  As7  1  0.316102  0.310842  0.000000  1
  As  As8  1  0.683898  0.689158  0.000000  1
  As  As9  1  0.683898  0.000000  0.689158  1
  Ru  Ru10  1  0.744756  0.489513  0.244756  1
  Ru  Ru11  1  0.500000  0.755244  0.244756  1
  Ru  Ru12  1  0.500000  0.244756  0.755244  1
  Ru  Ru13  1  0.744756  0.244756  0.489513  1
  Ru  Ru14  1  0.255244  0.755244  0.510487  1
  Ru  Ru15  1  0.255244  0.510487  0.755244  1
  Ru  Ru16  1  0.000000  0.000000  0.000000  1
