# generated using pymatgen
data_Sm5Co2P12Ru17
_symmetry_space_group_name_H-M   'P 1'
_cell_length_a   12.53578303
_cell_length_b   12.58421396
_cell_length_c   3.96180300
_cell_angle_alpha   90.00000000
_cell_angle_beta   90.00000000
_cell_angle_gamma   120.12788369
_symmetry_Int_Tables_number   1
_chemical_formula_structural   Sm5Co2P12Ru17
_chemical_formula_sum   'Sm5 Co2 P12 Ru17'
_cell_volume   540.55510745
_cell_formula_units_Z   1
loop_
 _symmetry_equiv_pos_site_id
 _symmetry_equiv_pos_as_xyz
  1  'x, y, z'
loop_
 _atom_site_type_symbol
 _atom_site_label
 _atom_site_symmetry_multiplicity
 _atom_site_fract_x
 _atom_site_fract_y
 _atom_site_fract_z
 _atom_site_occupancy
  Sm  Sm0  1  0.667353  0.332889  0.000000  1
  Sm  Sm1  1  0.332647  0.665537  0.000000  1
  Sm  Sm2  1  0.182363  0.183335  0.500000  1
  Sm  Sm3  1  0.817637  0.000972  0.500000  1
  Sm  Sm4  1  0.000000  0.815371  0.500000  1
  Co  Co5  1  0.000000  0.281530  0.500000  1
  Co  Co6  1  0.000000  0.002239  0.000000  1
  P  P7  1  0.372261  0.372973  0.000000  1
  P  P8  1  0.627739  0.000711  0.000000  1
  P  P9  1  0.000000  0.625378  0.000000  1
  P  P10  1  0.837128  0.308366  0.500000  1
  P  P11  1  0.693171  0.524233  0.500000  1
  P  P12  1  0.476910  0.169696  0.500000  1
  P  P13  1  0.306829  0.831061  0.500000  1
  P  P14  1  0.523090  0.692784  0.500000  1
  P  P15  1  0.162872  0.471238  0.500000  1
  P  P16  1  0.821407  0.821307  0.000000  1
  P  P17  1  0.178593  0.999900  0.000000  1
  P  P18  1  0.000000  0.180544  0.000000  1
  Ru  Ru19  1  0.554299  0.556638  0.000000  1
  Ru  Ru20  1  0.445701  0.002339  0.000000  1
  Ru  Ru21  1  0.000000  0.441933  0.000000  1
  Ru  Ru22  1  0.821980  0.194784  0.000000  1
  Ru  Ru23  1  0.807332  0.623764  0.000000  1
  Ru  Ru24  1  0.375521  0.183870  0.000000  1
  Ru  Ru25  1  0.192668  0.816433  0.000000  1
  Ru  Ru26  1  0.624479  0.808349  0.000000  1
  Ru  Ru27  1  0.178020  0.372804  0.000000  1
  Ru  Ru28  1  0.638632  0.127023  0.500000  1
  Ru  Ru29  1  0.875280  0.508981  0.500000  1
  Ru  Ru30  1  0.489829  0.365767  0.500000  1
  Ru  Ru31  1  0.124720  0.633701  0.500000  1
  Ru  Ru32  1  0.510171  0.875938  0.500000  1
  Ru  Ru33  1  0.361368  0.488391  0.500000  1
  Ru  Ru34  1  0.718942  0.719083  0.500000  1
  Ru  Ru35  1  0.281058  0.000141  0.500000  1
