# generated using pymatgen
data_TmLuHf2CN3
_symmetry_space_group_name_H-M   'P 1'
_cell_length_a   11.01622379
_cell_length_b   11.01622396
_cell_length_c   11.01622321
_cell_angle_alpha   17.27181458
_cell_angle_beta   17.27181398
_cell_angle_gamma   17.27180443
_symmetry_Int_Tables_number   1
_chemical_formula_structural   TmLuHf2CN3
_chemical_formula_sum   'Tm1 Lu1 Hf2 C1 N3'
_cell_volume   102.83479234
_cell_formula_units_Z   1
loop_
 _symmetry_equiv_pos_site_id
 _symmetry_equiv_pos_as_xyz
  1  'x, y, z'
loop_
 _atom_site_type_symbol
 _atom_site_label
 _atom_site_symmetry_multiplicity
 _atom_site_fract_x
 _atom_site_fract_y
 _atom_site_fract_z
 _atom_site_occupancy
  Tm  Tm0  1  0.124213  0.124213  0.124213  1
  Lu  Lu1  1  0.875960  0.875960  0.875960  1
  Hf  Hf2  1  0.373263  0.373263  0.373263  1
  Hf  Hf3  1  0.626540  0.626540  0.626540  1
  C  C4  1  0.999885  0.999885  0.999885  1
  N  N5  1  0.252582  0.252582  0.252582  1
  N  N6  1  0.500642  0.500642  0.500642  1
  N  N7  1  0.746916  0.746916  0.746916  1
