# generated using pymatgen
data_Cs6DyNpBr12
_symmetry_space_group_name_H-M   'P 1'
_cell_length_a   10.04931160
_cell_length_b   10.06690230
_cell_length_c   8.34461100
_cell_angle_alpha   90.00000000
_cell_angle_beta   90.00000000
_cell_angle_gamma   89.67760538
_symmetry_Int_Tables_number   1
_chemical_formula_structural   Cs6DyNpBr12
_chemical_formula_sum   'Cs6 Dy1 Np1 Br12'
_cell_volume   844.17286298
_cell_formula_units_Z   1
loop_
 _symmetry_equiv_pos_site_id
 _symmetry_equiv_pos_as_xyz
  1  'x, y, z'
loop_
 _atom_site_type_symbol
 _atom_site_label
 _atom_site_symmetry_multiplicity
 _atom_site_fract_x
 _atom_site_fract_y
 _atom_site_fract_z
 _atom_site_occupancy
  Cs  Cs0  1  0.000000  0.000000  0.500000  1
  Cs  Cs1  1  0.000000  0.000000  0.000000  1
  Cs  Cs2  1  0.233867  0.585119  0.500000  1
  Cs  Cs3  1  0.766133  0.414881  0.500000  1
  Cs  Cs4  1  0.415000  0.236206  0.000000  1
  Cs  Cs5  1  0.585000  0.763794  0.000000  1
  Dy  Dy6  1  0.000000  0.500000  0.000000  1
  Np  Np7  1  0.500000  0.000000  0.500000  1
  Br  Br8  1  0.697067  0.060289  0.744644  1
  Br  Br9  1  0.302933  0.939711  0.744644  1
  Br  Br10  1  0.942483  0.690914  0.238941  1
  Br  Br11  1  0.057517  0.309086  0.238941  1
  Br  Br12  1  0.302933  0.939711  0.255356  1
  Br  Br13  1  0.697067  0.060289  0.255356  1
  Br  Br14  1  0.057517  0.309086  0.761059  1
  Br  Br15  1  0.942483  0.690914  0.761059  1
  Br  Br16  1  0.568641  0.720854  0.500000  1
  Br  Br17  1  0.431359  0.279146  0.500000  1
  Br  Br18  1  0.269520  0.568965  0.000000  1
  Br  Br19  1  0.730480  0.431035  0.000000  1
