# generated using pymatgen
data_Ce2DyHo(Co5P3)4
_symmetry_space_group_name_H-M   'P 1'
_cell_length_a   3.67004200
_cell_length_b   10.33153800
_cell_length_c   11.73593426
_cell_angle_alpha   90.01226241
_cell_angle_beta   90.00000000
_cell_angle_gamma   90.00000000
_symmetry_Int_Tables_number   1
_chemical_formula_structural   Ce2DyHo(Co5P3)4
_chemical_formula_sum   'Ce2 Dy1 Ho1 Co20 P12'
_cell_volume   444.99350281
_cell_formula_units_Z   1
loop_
 _symmetry_equiv_pos_site_id
 _symmetry_equiv_pos_as_xyz
  1  'x, y, z'
loop_
 _atom_site_type_symbol
 _atom_site_label
 _atom_site_symmetry_multiplicity
 _atom_site_fract_x
 _atom_site_fract_y
 _atom_site_fract_z
 _atom_site_occupancy
  Ce  Ce0  1  0.250000  0.582901  0.702575  1
  Ce  Ce1  1  0.250000  0.917410  0.201763  1
  Dy  Dy2  1  0.750000  0.083124  0.798434  1
  Ho  Ho3  1  0.750000  0.416736  0.298030  1
  Co  Co4  1  0.250000  0.714915  0.990225  1
  Co  Co5  1  0.250000  0.783734  0.489408  1
  Co  Co6  1  0.750000  0.285594  0.006545  1
  Co  Co7  1  0.750000  0.215929  0.506131  1
  Co  Co8  1  0.250000  0.406632  0.487140  1
  Co  Co9  1  0.250000  0.092930  0.987422  1
  Co  Co10  1  0.750000  0.593071  0.512543  1
  Co  Co11  1  0.750000  0.907157  0.012876  1
  Co  Co12  1  0.250000  0.221873  0.176401  1
  Co  Co13  1  0.250000  0.278185  0.675824  1
  Co  Co14  1  0.750000  0.779161  0.823582  1
  Co  Co15  1  0.750000  0.720744  0.324060  1
  Co  Co16  1  0.250000  0.883579  0.697963  1
  Co  Co17  1  0.250000  0.616203  0.198969  1
  Co  Co18  1  0.750000  0.116118  0.301543  1
  Co  Co19  1  0.750000  0.383728  0.801205  1
  Co  Co20  1  0.250000  0.465869  0.933072  1
  Co  Co21  1  0.250000  0.033346  0.432544  1
  Co  Co22  1  0.750000  0.530071  0.069658  1
  Co  Co23  1  0.750000  0.970925  0.569136  1
  P  P24  1  0.250000  0.417997  0.113917  1
  P  P25  1  0.250000  0.081851  0.613480  1
  P  P26  1  0.750000  0.581895  0.890831  1
  P  P27  1  0.750000  0.918100  0.390783  1
  P  P28  1  0.250000  0.270736  0.869066  1
  P  P29  1  0.250000  0.229168  0.368873  1
  P  P30  1  0.750000  0.725178  0.129419  1
  P  P31  1  0.750000  0.775669  0.629399  1
  P  P32  1  0.250000  0.601309  0.391267  1
  P  P33  1  0.250000  0.897933  0.891471  1
  P  P34  1  0.750000  0.394045  0.607386  1
  P  P35  1  0.750000  0.106190  0.107063  1
