# generated using pymatgen
data_La3Yb2Pb3Br
_symmetry_space_group_name_H-M   'P 1'
_cell_length_a   9.66311100
_cell_length_b   9.66311059
_cell_length_c   6.92888200
_cell_angle_alpha   90.00000000
_cell_angle_beta   90.00000000
_cell_angle_gamma   119.99999113
_symmetry_Int_Tables_number   1
_chemical_formula_structural   La3Yb2Pb3Br
_chemical_formula_sum   'La6 Yb4 Pb6 Br2'
_cell_volume   560.30920081
_cell_formula_units_Z   2
loop_
 _symmetry_equiv_pos_site_id
 _symmetry_equiv_pos_as_xyz
  1  'x, y, z'
loop_
 _atom_site_type_symbol
 _atom_site_label
 _atom_site_symmetry_multiplicity
 _atom_site_fract_x
 _atom_site_fract_y
 _atom_site_fract_z
 _atom_site_occupancy
  La  La0  1  0.268812  0.000000  0.250000  1
  La  La1  1  0.731188  0.000000  0.750000  1
  La  La2  1  0.000000  0.268812  0.250000  1
  La  La3  1  0.000000  0.731188  0.750000  1
  La  La4  1  0.731188  0.731188  0.250000  1
  La  La5  1  0.268812  0.268812  0.750000  1
  Yb  Yb6  1  0.333333  0.666667  0.000000  1
  Yb  Yb7  1  0.666667  0.333333  0.000000  1
  Yb  Yb8  1  0.666667  0.333333  0.500000  1
  Yb  Yb9  1  0.333333  0.666667  0.500000  1
  Pb  Pb10  1  0.611791  0.000000  0.250000  1
  Pb  Pb11  1  0.388209  0.000000  0.750000  1
  Pb  Pb12  1  0.000000  0.611791  0.250000  1
  Pb  Pb13  1  0.000000  0.388209  0.750000  1
  Pb  Pb14  1  0.388209  0.388209  0.250000  1
  Pb  Pb15  1  0.611791  0.611791  0.750000  1
  Br  Br16  1  0.000000  0.000000  0.000000  1
  Br  Br17  1  0.000000  0.000000  0.500000  1
