# generated using pymatgen
data_Ho6Al24NiOs6Pd
_symmetry_space_group_name_H-M   'P 1'
_cell_length_a   8.80512941
_cell_length_b   8.79245867
_cell_length_c   9.49837751
_cell_angle_alpha   89.97555138
_cell_angle_beta   90.35922720
_cell_angle_gamma   119.71653675
_symmetry_Int_Tables_number   1
_chemical_formula_structural   Ho6Al24NiOs6Pd
_chemical_formula_sum   'Ho6 Al24 Ni1 Os6 Pd1'
_cell_volume   638.62947822
_cell_formula_units_Z   1
loop_
 _symmetry_equiv_pos_site_id
 _symmetry_equiv_pos_as_xyz
  1  'x, y, z'
loop_
 _atom_site_type_symbol
 _atom_site_label
 _atom_site_symmetry_multiplicity
 _atom_site_fract_x
 _atom_site_fract_y
 _atom_site_fract_z
 _atom_site_occupancy
  Ho  Ho0  1  0.190634  0.386936  0.253602  1
  Ho  Ho1  1  0.809366  0.613064  0.746398  1
  Ho  Ho2  1  0.614229  0.806924  0.252740  1
  Ho  Ho3  1  0.385771  0.193076  0.747260  1
  Ho  Ho4  1  0.190493  0.802834  0.252099  1
  Ho  Ho5  1  0.809507  0.197166  0.747901  1
  Al  Al6  1  0.332589  0.660145  0.025035  1
  Al  Al7  1  0.667411  0.339855  0.974965  1
  Al  Al8  1  0.666017  0.332709  0.517707  1
  Al  Al9  1  0.333983  0.667291  0.482293  1
  Al  Al10  1  0.164870  0.326676  0.577301  1
  Al  Al11  1  0.835130  0.673324  0.422699  1
  Al  Al12  1  0.673735  0.836236  0.576604  1
  Al  Al13  1  0.836803  0.672958  0.076150  1
  Al  Al14  1  0.326265  0.163764  0.423396  1
  Al  Al15  1  0.163197  0.327042  0.923850  1
  Al  Al16  1  0.164259  0.837329  0.576597  1
  Al  Al17  1  0.324468  0.166726  0.079163  1
  Al  Al18  1  0.835741  0.162671  0.423403  1
  Al  Al19  1  0.675532  0.833274  0.920837  1
  Al  Al20  1  0.841683  0.167740  0.077232  1
  Al  Al21  1  0.158317  0.832260  0.922768  1
  Al  Al22  1  0.560889  0.124218  0.251032  1
  Al  Al23  1  0.439111  0.875782  0.748968  1
  Al  Al24  1  0.875438  0.438143  0.248191  1
  Al  Al25  1  0.124562  0.561857  0.751809  1
  Al  Al26  1  0.559072  0.439546  0.245615  1
  Al  Al27  1  0.440928  0.560454  0.754385  1
  Al  Al28  1  0.998354  0.999188  0.250339  1
  Al  Al29  1  0.001646  0.000812  0.749661  1
  Ni  Ni30  1  0.500000  0.500000  0.000000  1
  Os  Os31  1  0.000000  0.500000  0.000000  1
  Os  Os32  1  0.500000  0.000000  0.500000  1
  Os  Os33  1  0.000000  0.500000  0.500000  1
  Os  Os34  1  0.500000  0.500000  0.500000  1
  Os  Os35  1  0.000000  0.000000  0.000000  1
  Os  Os36  1  0.000000  0.000000  0.500000  1
  Pd  Pd37  1  0.500000  0.000000  0.000000  1
