# generated using pymatgen
data_BaTc12Br25
_symmetry_space_group_name_H-M   'P 1'
_cell_length_a   10.03571919
_cell_length_b   11.01859108
_cell_length_c   11.77256931
_cell_angle_alpha   84.53156466
_cell_angle_beta   74.26636547
_cell_angle_gamma   86.97700857
_symmetry_Int_Tables_number   1
_chemical_formula_structural   BaTc12Br25
_chemical_formula_sum   'Ba1 Tc12 Br25'
_cell_volume   1246.83537229
_cell_formula_units_Z   1
loop_
 _symmetry_equiv_pos_site_id
 _symmetry_equiv_pos_as_xyz
  1  'x, y, z'
loop_
 _atom_site_type_symbol
 _atom_site_label
 _atom_site_symmetry_multiplicity
 _atom_site_fract_x
 _atom_site_fract_y
 _atom_site_fract_z
 _atom_site_occupancy
  Ba  Ba0  1  0.500000  0.000000  0.000000  1
  Tc  Tc1  1  0.831098  0.254937  0.126331  1
  Tc  Tc2  1  0.168902  0.745063  0.873669  1
  Tc  Tc3  1  0.758184  0.123128  0.282169  1
  Tc  Tc4  1  0.241816  0.876872  0.717831  1
  Tc  Tc5  1  0.064343  0.275362  0.189349  1
  Tc  Tc6  1  0.935657  0.724638  0.810651  1
  Tc  Tc7  1  0.847419  0.426045  0.266548  1
  Tc  Tc8  1  0.152581  0.573955  0.733452  1
  Tc  Tc9  1  0.771657  0.295724  0.424378  1
  Tc  Tc10  1  0.228343  0.704276  0.575622  1
  Tc  Tc11  1  0.989161  0.146300  0.347593  1
  Tc  Tc12  1  0.010839  0.853700  0.652407  1
  Br  Br13  1  0.943540  0.960787  0.260087  1
  Br  Br14  1  0.056460  0.039213  0.739913  1
  Br  Br15  1  0.969106  0.275219  0.514735  1
  Br  Br16  1  0.030894  0.724781  0.485265  1
  Br  Br17  1  0.652321  0.423215  0.170938  1
  Br  Br18  1  0.347679  0.576785  0.829062  1
  Br  Br19  1  0.086788  0.465699  0.280369  1
  Br  Br20  1  0.913212  0.534301  0.719631  1
  Br  Br21  1  0.000000  0.500000  0.000000  1
  Br  Br22  1  0.601801  0.961315  0.243976  1
  Br  Br23  1  0.398199  0.038685  0.756024  1
  Br  Br24  1  0.195083  0.034613  0.400810  1
  Br  Br25  1  0.804917  0.965387  0.599190  1
  Br  Br26  1  0.547963  0.222340  0.406350  1
  Br  Br27  1  0.452037  0.777660  0.593650  1
  Br  Br28  1  0.056875  0.158648  0.020484  1
  Br  Br29  1  0.943125  0.841352  0.979516  1
  Br  Br30  1  0.775286  0.639187  0.317644  1
  Br  Br31  1  0.224714  0.360813  0.682356  1
  Br  Br32  1  0.735768  0.210810  0.950288  1
  Br  Br33  1  0.264232  0.789190  0.049712  1
  Br  Br34  1  0.330518  0.254058  0.117941  1
  Br  Br35  1  0.669482  0.745942  0.882059  1
  Br  Br36  1  0.639606  0.406510  0.597101  1
  Br  Br37  1  0.360394  0.593490  0.402899  1
