# generated using pymatgen
data_DyY3Hf3AlPt4
_symmetry_space_group_name_H-M   'P 1'
_cell_length_a   4.57924400
_cell_length_b   7.09400449
_cell_length_c   8.16442167
_cell_angle_alpha   87.13205485
_cell_angle_beta   90.00000000
_cell_angle_gamma   90.00000000
_symmetry_Int_Tables_number   1
_chemical_formula_structural   DyY3Hf3AlPt4
_chemical_formula_sum   'Dy1 Y3 Hf3 Al1 Pt4'
_cell_volume   264.89049715
_cell_formula_units_Z   1
loop_
 _symmetry_equiv_pos_site_id
 _symmetry_equiv_pos_as_xyz
  1  'x, y, z'
loop_
 _atom_site_type_symbol
 _atom_site_label
 _atom_site_symmetry_multiplicity
 _atom_site_fract_x
 _atom_site_fract_y
 _atom_site_fract_z
 _atom_site_occupancy
  Dy  Dy0  1  0.250000  0.988050  0.337287  1
  Y  Y1  1  0.250000  0.472286  0.187051  1
  Y  Y2  1  0.750000  0.517206  0.814934  1
  Y  Y3  1  0.750000  0.038879  0.671599  1
  Hf  Hf4  1  0.250000  0.856072  0.923796  1
  Hf  Hf5  1  0.750000  0.137392  0.070729  1
  Hf  Hf6  1  0.750000  0.640603  0.435425  1
  Al  Al7  1  0.250000  0.358600  0.572305  1
  Pt  Pt8  1  0.250000  0.725710  0.609599  1
  Pt  Pt9  1  0.750000  0.270569  0.380808  1
  Pt  Pt10  1  0.750000  0.765767  0.102403  1
  Pt  Pt11  1  0.250000  0.228869  0.894064  1
