# generated using pymatgen
data_RbEu2F8
_symmetry_space_group_name_H-M   'P 1'
_cell_length_a   6.63864749
_cell_length_b   6.63864834
_cell_length_c   4.44260884
_cell_angle_alpha   86.40316731
_cell_angle_beta   86.40317155
_cell_angle_gamma   114.83946925
_symmetry_Int_Tables_number   1
_chemical_formula_structural   RbEu2F8
_chemical_formula_sum   'Rb1 Eu2 F8'
_cell_volume   176.46996946
_cell_formula_units_Z   1
loop_
 _symmetry_equiv_pos_site_id
 _symmetry_equiv_pos_as_xyz
  1  'x, y, z'
loop_
 _atom_site_type_symbol
 _atom_site_label
 _atom_site_symmetry_multiplicity
 _atom_site_fract_x
 _atom_site_fract_y
 _atom_site_fract_z
 _atom_site_occupancy
  Rb  Rb0  1  0.000000  0.000000  0.500000  1
  Eu  Eu1  1  0.675273  0.324727  0.000000  1
  Eu  Eu2  1  0.324727  0.675273  0.000000  1
  F  F3  1  0.959055  0.662911  0.060317  1
  F  F4  1  0.662911  0.959055  0.060317  1
  F  F5  1  0.594616  0.594616  0.740989  1
  F  F6  1  0.273308  0.726692  0.500000  1
  F  F7  1  0.726692  0.273308  0.500000  1
  F  F8  1  0.405384  0.405384  0.259011  1
  F  F9  1  0.337089  0.040945  0.939683  1
  F  F10  1  0.040945  0.337089  0.939683  1
