# generated using pymatgen
data_LiLu6Zn22Si
_symmetry_space_group_name_H-M   'P 1'
_cell_length_a   8.97194623
_cell_length_b   8.97194539
_cell_length_c   8.97194700
_cell_angle_alpha   60.00000513
_cell_angle_beta   60.00000822
_cell_angle_gamma   60.00000239
_symmetry_Int_Tables_number   1
_chemical_formula_structural   LiLu6Zn22Si
_chemical_formula_sum   'Li1 Lu6 Zn22 Si1'
_cell_volume   510.67551654
_cell_formula_units_Z   1
loop_
 _symmetry_equiv_pos_site_id
 _symmetry_equiv_pos_as_xyz
  1  'x, y, z'
loop_
 _atom_site_type_symbol
 _atom_site_label
 _atom_site_symmetry_multiplicity
 _atom_site_fract_x
 _atom_site_fract_y
 _atom_site_fract_z
 _atom_site_occupancy
  Li  Li0  1  0.000000  0.000000  0.000000  1
  Lu  Lu1  1  0.714355  0.285645  0.285645  1
  Lu  Lu2  1  0.285645  0.714355  0.714355  1
  Lu  Lu3  1  0.285645  0.714355  0.285645  1
  Lu  Lu4  1  0.714355  0.285645  0.714355  1
  Lu  Lu5  1  0.285645  0.285645  0.714355  1
  Lu  Lu6  1  0.714355  0.714355  0.285645  1
  Zn  Zn7  1  0.122696  0.122696  0.122696  1
  Zn  Zn8  1  0.877304  0.877304  0.877304  1
  Zn  Zn9  1  0.122696  0.122696  0.631914  1
  Zn  Zn10  1  0.122696  0.631914  0.122696  1
  Zn  Zn11  1  0.877304  0.877304  0.368086  1
  Zn  Zn12  1  0.877304  0.368086  0.877304  1
  Zn  Zn13  1  0.631914  0.122696  0.122696  1
  Zn  Zn14  1  0.368086  0.877304  0.877304  1
  Zn  Zn15  1  0.500000  0.000000  0.000000  1
  Zn  Zn16  1  0.000000  0.500000  0.500000  1
  Zn  Zn17  1  0.000000  0.500000  0.000000  1
  Zn  Zn18  1  0.500000  0.000000  0.500000  1
  Zn  Zn19  1  0.000000  0.000000  0.500000  1
  Zn  Zn20  1  0.500000  0.500000  0.000000  1
  Zn  Zn21  1  0.334483  0.334483  0.334483  1
  Zn  Zn22  1  0.665517  0.665517  0.665517  1
  Zn  Zn23  1  0.334483  0.334483  0.996552  1
  Zn  Zn24  1  0.334483  0.996552  0.334483  1
  Zn  Zn25  1  0.665517  0.665517  0.003448  1
  Zn  Zn26  1  0.665517  0.003448  0.665517  1
  Zn  Zn27  1  0.996552  0.334483  0.334483  1
  Zn  Zn28  1  0.003448  0.665517  0.665517  1
  Si  Si29  1  0.500000  0.500000  0.500000  1
