# generated using pymatgen
data_Sc2GeB2Ir3Ru2
_symmetry_space_group_name_H-M   'P 1'
_cell_length_a   9.43134969
_cell_length_b   9.42766470
_cell_length_c   3.03039100
_cell_angle_alpha   90.00000000
_cell_angle_beta   90.00000000
_cell_angle_gamma   90.04397970
_symmetry_Int_Tables_number   1
_chemical_formula_structural   Sc2GeB2Ir3Ru2
_chemical_formula_sum   'Sc4 Ge2 B4 Ir6 Ru4'
_cell_volume   269.44896231
_cell_formula_units_Z   2
loop_
 _symmetry_equiv_pos_site_id
 _symmetry_equiv_pos_as_xyz
  1  'x, y, z'
loop_
 _atom_site_type_symbol
 _atom_site_label
 _atom_site_symmetry_multiplicity
 _atom_site_fract_x
 _atom_site_fract_y
 _atom_site_fract_z
 _atom_site_occupancy
  Sc  Sc0  1  0.668628  0.174451  0.000000  1
  Sc  Sc1  1  0.331372  0.825549  0.000000  1
  Sc  Sc2  1  0.177776  0.327020  0.000000  1
  Sc  Sc3  1  0.822224  0.672980  0.000000  1
  Ge  Ge4  1  0.000000  0.000000  0.000000  1
  Ge  Ge5  1  0.500000  0.500000  0.000000  1
  B  B6  1  0.122777  0.621299  0.000000  1
  B  B7  1  0.877223  0.378701  0.000000  1
  B  B8  1  0.619160  0.873477  0.000000  1
  B  B9  1  0.380840  0.126523  0.000000  1
  Ir  Ir10  1  0.215036  0.070642  0.500000  1
  Ir  Ir11  1  0.784964  0.929358  0.500000  1
  Ir  Ir12  1  0.070562  0.785713  0.500000  1
  Ir  Ir13  1  0.716647  0.427283  0.500000  1
  Ir  Ir14  1  0.929438  0.214287  0.500000  1
  Ir  Ir15  1  0.283353  0.572717  0.500000  1
  Ru  Ru16  1  0.570906  0.711757  0.500000  1
  Ru  Ru17  1  0.429094  0.288243  0.500000  1
  Ru  Ru18  1  0.500000  0.000000  0.500000  1
  Ru  Ru19  1  0.000000  0.500000  0.500000  1
