# generated using pymatgen
data_Dy5Lu5(RuRh)2
_symmetry_space_group_name_H-M   'P 1'
_cell_length_a   6.33289047
_cell_length_b   7.19752546
_cell_length_c   8.42373038
_cell_angle_alpha   96.88845958
_cell_angle_beta   112.31224151
_cell_angle_gamma   90.06187940
_symmetry_Int_Tables_number   1
_chemical_formula_structural   Dy5Lu5(RuRh)2
_chemical_formula_sum   'Dy5 Lu5 Ru2 Rh2'
_cell_volume   352.19677472
_cell_formula_units_Z   1
loop_
 _symmetry_equiv_pos_site_id
 _symmetry_equiv_pos_as_xyz
  1  'x, y, z'
loop_
 _atom_site_type_symbol
 _atom_site_label
 _atom_site_symmetry_multiplicity
 _atom_site_fract_x
 _atom_site_fract_y
 _atom_site_fract_z
 _atom_site_occupancy
  Dy  Dy0  1  0.526763  0.079556  0.814515  1
  Dy  Dy1  1  0.476013  0.918640  0.186702  1
  Dy  Dy2  1  0.714100  0.418046  0.191031  1
  Dy  Dy3  1  0.284780  0.583615  0.808931  1
  Dy  Dy4  1  0.290414  0.310746  0.435512  1
  Lu  Lu5  1  0.710051  0.689706  0.566657  1
  Lu  Lu6  1  0.858661  0.182358  0.563728  1
  Lu  Lu7  1  0.140154  0.817354  0.436307  1
  Lu  Lu8  1  0.075816  0.247861  0.997697  1
  Lu  Lu9  1  0.924001  0.751206  0.000655  1
  Ru  Ru10  1  0.102124  0.924589  0.780502  1
  Ru  Ru11  1  0.896515  0.074640  0.217171  1
  Rh  Rh12  1  0.317680  0.574992  0.223247  1
  Rh  Rh13  1  0.682928  0.426690  0.777345  1
