# generated using pymatgen
data_Ti5Fe10B4W
_symmetry_space_group_name_H-M   'P 1'
_cell_length_a   8.67406600
_cell_length_b   8.67406600
_cell_length_c   2.89633600
_cell_angle_alpha   90.00000000
_cell_angle_beta   90.00000000
_cell_angle_gamma   90.00000000
_symmetry_Int_Tables_number   1
_chemical_formula_structural   Ti5Fe10B4W
_chemical_formula_sum   'Ti5 Fe10 B4 W1'
_cell_volume   217.91864358
_cell_formula_units_Z   1
loop_
 _symmetry_equiv_pos_site_id
 _symmetry_equiv_pos_as_xyz
  1  'x, y, z'
loop_
 _atom_site_type_symbol
 _atom_site_label
 _atom_site_symmetry_multiplicity
 _atom_site_fract_x
 _atom_site_fract_y
 _atom_site_fract_z
 _atom_site_occupancy
  Ti  Ti0  1  0.500000  0.500000  0.000000  1
  Ti  Ti1  1  0.823082  0.327384  0.000000  1
  Ti  Ti2  1  0.327384  0.176918  0.000000  1
  Ti  Ti3  1  0.672616  0.823082  0.000000  1
  Ti  Ti4  1  0.176918  0.672616  0.000000  1
  Fe  Fe5  1  0.500000  0.000000  0.500000  1
  Fe  Fe6  1  0.000000  0.500000  0.500000  1
  Fe  Fe7  1  0.069009  0.219645  0.500000  1
  Fe  Fe8  1  0.219645  0.930991  0.500000  1
  Fe  Fe9  1  0.780355  0.069009  0.500000  1
  Fe  Fe10  1  0.930991  0.780355  0.500000  1
  Fe  Fe11  1  0.429482  0.718832  0.500000  1
  Fe  Fe12  1  0.570518  0.281168  0.500000  1
  Fe  Fe13  1  0.718832  0.570518  0.500000  1
  Fe  Fe14  1  0.281168  0.429482  0.500000  1
  B  B15  1  0.617546  0.124559  0.000000  1
  B  B16  1  0.124559  0.382454  0.000000  1
  B  B17  1  0.875441  0.617546  0.000000  1
  B  B18  1  0.382454  0.875441  0.000000  1
  W  W19  1  0.000000  0.000000  0.000000  1
