# generated using pymatgen
data_CaErLu(SiRh2)3
_symmetry_space_group_name_H-M   'P 1'
_cell_length_a   5.56965500
_cell_length_b   5.56965363
_cell_length_c   14.93273800
_cell_angle_alpha   90.00000000
_cell_angle_beta   90.00000000
_cell_angle_gamma   119.99999034
_symmetry_Int_Tables_number   1
_chemical_formula_structural   CaErLu(SiRh2)3
_chemical_formula_sum   'Ca2 Er2 Lu2 Si6 Rh12'
_cell_volume   401.16829376
_cell_formula_units_Z   2
loop_
 _symmetry_equiv_pos_site_id
 _symmetry_equiv_pos_as_xyz
  1  'x, y, z'
loop_
 _atom_site_type_symbol
 _atom_site_label
 _atom_site_symmetry_multiplicity
 _atom_site_fract_x
 _atom_site_fract_y
 _atom_site_fract_z
 _atom_site_occupancy
  Ca  Ca0  1  0.333333  0.666667  0.749697  1
  Ca  Ca1  1  0.666667  0.333333  0.250303  1
  Er  Er2  1  0.666667  0.333333  0.040235  1
  Er  Er3  1  0.333333  0.666667  0.959765  1
  Lu  Lu4  1  0.333333  0.666667  0.539321  1
  Lu  Lu5  1  0.666667  0.333333  0.460679  1
  Si  Si6  1  0.000000  0.000000  0.250457  1
  Si  Si7  1  0.000000  0.000000  0.749543  1
  Si  Si8  1  0.333333  0.666667  0.250206  1
  Si  Si9  1  0.666667  0.333333  0.749794  1
  Si  Si10  1  0.000000  0.000000  0.000000  1
  Si  Si11  1  0.000000  0.000000  0.500000  1
  Rh  Rh12  1  0.167158  0.334318  0.128824  1
  Rh  Rh13  1  0.832842  0.665682  0.871176  1
  Rh  Rh14  1  0.665682  0.832842  0.128824  1
  Rh  Rh15  1  0.832652  0.665304  0.627776  1
  Rh  Rh16  1  0.334318  0.167158  0.871176  1
  Rh  Rh17  1  0.167348  0.334696  0.372224  1
  Rh  Rh18  1  0.167158  0.832842  0.128824  1
  Rh  Rh19  1  0.334696  0.167348  0.627776  1
  Rh  Rh20  1  0.832842  0.167158  0.871176  1
  Rh  Rh21  1  0.665304  0.832652  0.372224  1
  Rh  Rh22  1  0.832652  0.167348  0.627776  1
  Rh  Rh23  1  0.167348  0.832652  0.372224  1
