# generated using pymatgen
data_Ti3Nb3Re4(Si3W)2
_symmetry_space_group_name_H-M   'P 1'
_cell_length_a   7.60031570
_cell_length_b   7.62703577
_cell_length_c   7.60031610
_cell_angle_alpha   125.98533990
_cell_angle_beta   128.52968842
_cell_angle_gamma   77.77101339
_symmetry_Int_Tables_number   1
_chemical_formula_structural   Ti3Nb3Re4(Si3W)2
_chemical_formula_sum   'Ti3 Nb3 Re4 Si6 W2'
_cell_volume   270.48269627
_cell_formula_units_Z   1
loop_
 _symmetry_equiv_pos_site_id
 _symmetry_equiv_pos_as_xyz
  1  'x, y, z'
loop_
 _atom_site_type_symbol
 _atom_site_label
 _atom_site_symmetry_multiplicity
 _atom_site_fract_x
 _atom_site_fract_y
 _atom_site_fract_z
 _atom_site_occupancy
  Ti  Ti0  1  0.552158  0.092699  0.040540  1
  Ti  Ti1  1  0.447154  0.489076  0.541922  1
  Ti  Ti2  1  0.948356  0.490899  0.042545  1
  Nb  Nb3  1  0.051787  0.090425  0.538638  1
  Nb  Nb4  1  0.752530  0.909737  0.657206  1
  Nb  Nb5  1  0.249226  0.904991  0.155765  1
  Re  Re6  1  0.131234  0.756652  0.627251  1
  Re  Re7  1  0.869111  0.496397  0.626864  1
  Re  Re8  1  0.629401  0.756652  0.125417  1
  Re  Re9  1  0.369533  0.496397  0.127286  1
  Si  Si10  1  0.750168  0.503022  0.252853  1
  Si  Si11  1  0.250146  0.502647  0.752501  1
  Si  Si12  1  0.333961  0.821310  0.495867  1
  Si  Si13  1  0.666661  0.166284  0.492784  1
  Si  Si14  1  0.825442  0.821310  0.987350  1
  Si  Si15  1  0.173499  0.166284  0.999622  1
  W  W16  1  0.500465  0.238709  0.739542  1
  W  W17  1  0.999167  0.238709  0.238244  1
