# generated using pymatgen
data_Cs4PaBiTe6
_symmetry_space_group_name_H-M   'P 1'
_cell_length_a   8.47446448
_cell_length_b   8.47446536
_cell_length_c   9.32984623
_cell_angle_alpha   81.06305364
_cell_angle_beta   81.06304902
_cell_angle_gamma   119.95409698
_symmetry_Int_Tables_number   1
_chemical_formula_structural   Cs4PaBiTe6
_chemical_formula_sum   'Cs4 Pa1 Bi1 Te6'
_cell_volume   551.84751149
_cell_formula_units_Z   1
loop_
 _symmetry_equiv_pos_site_id
 _symmetry_equiv_pos_as_xyz
  1  'x, y, z'
loop_
 _atom_site_type_symbol
 _atom_site_label
 _atom_site_symmetry_multiplicity
 _atom_site_fract_x
 _atom_site_fract_y
 _atom_site_fract_z
 _atom_site_occupancy
  Cs  Cs0  1  0.499860  0.500140  0.000000  1
  Cs  Cs1  1  0.651541  0.348459  0.500000  1
  Cs  Cs2  1  0.346935  0.653065  0.500000  1
  Cs  Cs3  1  0.002028  0.997972  0.500000  1
  Pa  Pa4  1  0.832029  0.167971  0.000000  1
  Bi  Bi5  1  0.168447  0.831553  0.000000  1
  Te  Te6  1  0.811512  0.827199  0.191017  1
  Te  Te7  1  0.172801  0.188488  0.808983  1
  Te  Te8  1  0.448339  0.055029  0.196565  1
  Te  Te9  1  0.582739  0.961202  0.803716  1
  Te  Te10  1  0.944971  0.551661  0.803435  1
  Te  Te11  1  0.038798  0.417261  0.196284  1
