# generated using pymatgen
data_PrEu7Sb6
_symmetry_space_group_name_H-M   'P 1'
_cell_length_a   8.45951963
_cell_length_b   8.37972353
_cell_length_c   8.45951899
_cell_angle_alpha   109.28025692
_cell_angle_beta   109.66150620
_cell_angle_gamma   109.28025457
_symmetry_Int_Tables_number   1
_chemical_formula_structural   PrEu7Sb6
_chemical_formula_sum   'Pr1 Eu7 Sb6'
_cell_volume   462.71895439
_cell_formula_units_Z   1
loop_
 _symmetry_equiv_pos_site_id
 _symmetry_equiv_pos_as_xyz
  1  'x, y, z'
loop_
 _atom_site_type_symbol
 _atom_site_label
 _atom_site_symmetry_multiplicity
 _atom_site_fract_x
 _atom_site_fract_y
 _atom_site_fract_z
 _atom_site_occupancy
  Pr  Pr0  1  0.000000  0.138195  0.500000  1
  Eu  Eu1  1  0.143210  0.503150  0.002921  1
  Eu  Eu2  1  0.645389  0.501361  0.000880  1
  Eu  Eu3  1  0.499120  0.000480  0.644508  1
  Eu  Eu4  1  0.359711  0.359940  0.356790  1
  Eu  Eu5  1  0.497079  0.000229  0.140289  1
  Eu  Eu6  1  0.000000  0.640112  0.500000  1
  Eu  Eu7  1  0.855492  0.855972  0.854611  1
  Sb  Sb8  1  0.372209  0.620450  0.748545  1
  Sb  Sb9  1  0.876336  0.248241  0.127791  1
  Sb  Sb10  1  0.627467  0.754432  0.375864  1
  Sb  Sb11  1  0.124136  0.878567  0.251603  1
  Sb  Sb12  1  0.248397  0.126965  0.872533  1
  Sb  Sb13  1  0.751455  0.371905  0.623664  1
