# generated using pymatgen
data_PrNd11Ir(RhBr4)3
_symmetry_space_group_name_H-M   'P 1'
_cell_length_a   10.49042916
_cell_length_b   10.49708702
_cell_length_c   10.50822015
_cell_angle_alpha   109.50092020
_cell_angle_beta   109.48307962
_cell_angle_gamma   109.42565917
_symmetry_Int_Tables_number   1
_chemical_formula_structural   PrNd11Ir(RhBr4)3
_chemical_formula_sum   'Pr1 Nd11 Ir1 Rh3 Br12'
_cell_volume   890.82136526
_cell_formula_units_Z   1
loop_
 _symmetry_equiv_pos_site_id
 _symmetry_equiv_pos_as_xyz
  1  'x, y, z'
loop_
 _atom_site_type_symbol
 _atom_site_label
 _atom_site_symmetry_multiplicity
 _atom_site_fract_x
 _atom_site_fract_y
 _atom_site_fract_z
 _atom_site_occupancy
  Pr  Pr0  1  0.234589  0.265933  0.750613  1
  Nd  Nd1  1  0.467561  0.484270  0.233958  1
  Nd  Nd2  1  0.750276  0.233986  0.266370  1
  Nd  Nd3  1  0.749481  0.015892  0.483570  1
  Nd  Nd4  1  0.233773  0.467868  0.483523  1
  Nd  Nd5  1  0.265795  0.749088  0.233318  1
  Nd  Nd6  1  0.032437  0.266700  0.016233  1
  Nd  Nd7  1  0.016074  0.032315  0.265698  1
  Nd  Nd8  1  0.483575  0.749828  0.016195  1
  Nd  Nd9  1  0.483794  0.233674  0.467407  1
  Nd  Nd10  1  0.016537  0.484272  0.750717  1
  Nd  Nd11  1  0.266219  0.016107  0.032394  1
  Ir  Ir12  1  0.250050  0.500485  0.000484  1
  Rh  Rh13  1  0.249969  0.249477  0.250504  1
  Rh  Rh14  1  0.500500  0.001065  0.250501  1
  Rh  Rh15  1  0.998951  0.249443  0.498448  1
  Br  Br16  1  0.250016  0.754312  0.745891  1
  Br  Br17  1  0.509763  0.506088  0.753882  1
  Br  Br18  1  0.991518  0.746042  0.995725  1
  Br  Br19  1  0.745533  0.249801  0.753883  1
  Br  Br20  1  0.993870  0.990164  0.745906  1
  Br  Br21  1  0.249840  0.994496  0.502619  1
  Br  Br22  1  0.754044  0.508262  0.504180  1
  Br  Br23  1  0.505628  0.250000  0.997310  1
  Br  Br24  1  0.754365  0.746013  0.250192  1
  Br  Br25  1  0.745924  0.995915  0.991750  1
  Br  Br26  1  0.995685  0.504293  0.250178  1
  Br  Br27  1  0.504236  0.754210  0.508549  1
