# generated using pymatgen
data_CeTm3(ZnIr)4
_symmetry_space_group_name_H-M   'P 1'
_cell_length_a   4.03577300
_cell_length_b   6.92492242
_cell_length_c   8.14224125
_cell_angle_alpha   90.17062590
_cell_angle_beta   90.00000000
_cell_angle_gamma   90.00000000
_symmetry_Int_Tables_number   1
_chemical_formula_structural   CeTm3(ZnIr)4
_chemical_formula_sum   'Ce1 Tm3 Zn4 Ir4'
_cell_volume   227.55358557
_cell_formula_units_Z   1
loop_
 _symmetry_equiv_pos_site_id
 _symmetry_equiv_pos_as_xyz
  1  'x, y, z'
loop_
 _atom_site_type_symbol
 _atom_site_label
 _atom_site_symmetry_multiplicity
 _atom_site_fract_x
 _atom_site_fract_y
 _atom_site_fract_z
 _atom_site_occupancy
  Ce  Ce0  1  0.250000  0.536168  0.183085  1
  Tm  Tm1  1  0.750000  0.463073  0.813217  1
  Tm  Tm2  1  0.250000  0.035972  0.320094  1
  Tm  Tm3  1  0.750000  0.959530  0.681143  1
  Zn  Zn4  1  0.250000  0.637899  0.568584  1
  Zn  Zn5  1  0.250000  0.137326  0.931864  1
  Zn  Zn6  1  0.750000  0.356034  0.440360  1
  Zn  Zn7  1  0.750000  0.870818  0.063257  1
  Ir  Ir8  1  0.250000  0.756697  0.879190  1
  Ir  Ir9  1  0.250000  0.252067  0.622880  1
  Ir  Ir10  1  0.750000  0.741855  0.373264  1
  Ir  Ir11  1  0.750000  0.252559  0.123060  1
