# generated using pymatgen
data_Tb14Th2CdHg3Ir4
_symmetry_space_group_name_H-M   'P 1'
_cell_length_a   9.69794379
_cell_length_b   9.71167384
_cell_length_c   9.72028601
_cell_angle_alpha   59.97493584
_cell_angle_beta   59.92774221
_cell_angle_gamma   60.16939732
_symmetry_Int_Tables_number   1
_chemical_formula_structural   Tb14Th2CdHg3Ir4
_chemical_formula_sum   'Tb14 Th2 Cd1 Hg3 Ir4'
_cell_volume   647.69406544
_cell_formula_units_Z   1
loop_
 _symmetry_equiv_pos_site_id
 _symmetry_equiv_pos_as_xyz
  1  'x, y, z'
loop_
 _atom_site_type_symbol
 _atom_site_label
 _atom_site_symmetry_multiplicity
 _atom_site_fract_x
 _atom_site_fract_y
 _atom_site_fract_z
 _atom_site_occupancy
  Tb  Tb0  1  0.603290  0.194684  0.601005  1
  Tb  Tb1  1  0.193138  0.603660  0.601594  1
  Tb  Tb2  1  0.060874  0.440087  0.439536  1
  Tb  Tb3  1  0.439187  0.061448  0.060004  1
  Tb  Tb4  1  0.439188  0.061469  0.439348  1
  Tb  Tb5  1  0.060850  0.440089  0.059508  1
  Tb  Tb6  1  0.436420  0.437385  0.063114  1
  Tb  Tb7  1  0.060110  0.060014  0.439929  1
  Tb  Tb8  1  0.187233  0.814086  0.813161  1
  Tb  Tb9  1  0.813550  0.188277  0.185133  1
  Tb  Tb10  1  0.813562  0.188278  0.813051  1
  Tb  Tb11  1  0.187240  0.814073  0.185538  1
  Tb  Tb12  1  0.813721  0.814256  0.186017  1
  Tb  Tb13  1  0.189309  0.191629  0.809531  1
  Th  Th14  1  0.597398  0.597074  0.600301  1
  Th  Th15  1  0.597394  0.597064  0.205231  1
  Cd  Cd16  1  0.503973  0.832620  0.831690  1
  Hg  Hg17  1  0.834247  0.836265  0.833774  1
  Hg  Hg18  1  0.834227  0.836250  0.495733  1
  Hg  Hg19  1  0.835796  0.491691  0.836246  1
  Ir  Ir20  1  0.391875  0.392089  0.394776  1
  Ir  Ir21  1  0.391872  0.392083  0.821267  1
  Ir  Ir22  1  0.394243  0.821195  0.392282  1
  Ir  Ir23  1  0.821305  0.394235  0.392231  1
