# generated using pymatgen
data_Ce4GaAsRh11
_symmetry_space_group_name_H-M   'P 1'
_cell_length_a   7.26134034
_cell_length_b   7.26181697
_cell_length_c   7.26134100
_cell_angle_alpha   107.97761162
_cell_angle_beta   107.96137890
_cell_angle_gamma   112.51550733
_symmetry_Int_Tables_number   1
_chemical_formula_structural   Ce4GaAsRh11
_chemical_formula_sum   'Ce4 Ga1 As1 Rh11'
_cell_volume   294.13414034
_cell_formula_units_Z   1
loop_
 _symmetry_equiv_pos_site_id
 _symmetry_equiv_pos_as_xyz
  1  'x, y, z'
loop_
 _atom_site_type_symbol
 _atom_site_label
 _atom_site_symmetry_multiplicity
 _atom_site_fract_x
 _atom_site_fract_y
 _atom_site_fract_z
 _atom_site_occupancy
  Ce  Ce0  1  0.012866  0.987364  0.500129  1
  Ce  Ce1  1  0.012705  0.512766  0.025490  1
  Ce  Ce2  1  0.487234  0.987364  0.974498  1
  Ce  Ce3  1  0.487276  0.512766  0.500061  1
  Ga  Ga4  1  0.749807  0.249781  0.499974  1
  As  As5  1  0.000097  0.999940  0.999844  1
  Rh  Rh6  1  0.746057  0.488650  0.257501  1
  Rh  Rh7  1  0.511551  0.254086  0.742534  1
  Rh  Rh8  1  0.231148  0.488650  0.742593  1
  Rh  Rh9  1  0.249907  0.749713  0.499807  1
  Rh  Rh10  1  0.511249  0.768771  0.257521  1
  Rh  Rh11  1  0.707488  0.707632  0.000143  1
  Rh  Rh12  1  0.300577  0.019259  0.281421  1
  Rh  Rh13  1  0.980815  0.262156  0.281341  1
  Rh  Rh14  1  0.292680  0.292770  0.000089  1
  Rh  Rh15  1  0.737838  0.019259  0.718682  1
  Rh  Rh16  1  0.980702  0.699074  0.718373  1
