# generated using pymatgen
data_Sc12Ru2RhBr16
_symmetry_space_group_name_H-M   'P 1'
_cell_length_a   9.02592842
_cell_length_b   10.95597299
_cell_length_c   11.64663481
_cell_angle_alpha   116.67946506
_cell_angle_beta   101.87176112
_cell_angle_gamma   101.56019194
_symmetry_Int_Tables_number   1
_chemical_formula_structural   Sc12Ru2RhBr16
_chemical_formula_sum   'Sc12 Ru2 Rh1 Br16'
_cell_volume   948.95527888
_cell_formula_units_Z   1
loop_
 _symmetry_equiv_pos_site_id
 _symmetry_equiv_pos_as_xyz
  1  'x, y, z'
loop_
 _atom_site_type_symbol
 _atom_site_label
 _atom_site_symmetry_multiplicity
 _atom_site_fract_x
 _atom_site_fract_y
 _atom_site_fract_z
 _atom_site_occupancy
  Sc  Sc0  1  0.080946  0.254885  0.348899  1
  Sc  Sc1  1  0.919054  0.745115  0.651101  1
  Sc  Sc2  1  0.777374  0.536848  0.318240  1
  Sc  Sc3  1  0.222626  0.463152  0.681760  1
  Sc  Sc4  1  0.282406  0.746123  0.651528  1
  Sc  Sc5  1  0.717594  0.253877  0.348472  1
  Sc  Sc6  1  0.140554  0.536988  0.319022  1
  Sc  Sc7  1  0.859446  0.463012  0.680978  1
  Sc  Sc8  1  0.399325  0.348706  0.258923  1
  Sc  Sc9  1  0.600675  0.651294  0.741077  1
  Sc  Sc10  1  0.456587  0.300393  0.521189  1
  Sc  Sc11  1  0.543413  0.699607  0.478811  1
  Ru  Ru12  1  0.338005  0.500243  0.499419  1
  Ru  Ru13  1  0.661996  0.499757  0.500581  1
  Rh  Rh14  1  0.000000  0.500000  0.500000  1
  Br  Br15  1  0.398123  0.746138  0.891183  1
  Br  Br16  1  0.601877  0.253862  0.108817  1
  Br  Br17  1  0.192369  0.975718  0.788869  1
  Br  Br18  1  0.807631  0.024282  0.211131  1
  Br  Br19  1  0.335541  0.086059  0.246754  1
  Br  Br20  1  0.664459  0.913941  0.753246  1
  Br  Br21  1  0.554745  0.435622  0.803936  1
  Br  Br22  1  0.445255  0.564378  0.196064  1
  Br  Br23  1  0.309839  0.831644  0.462331  1
  Br  Br24  1  0.690161  0.168356  0.537669  1
  Br  Br25  1  0.165516  0.167223  0.533570  1
  Br  Br26  1  0.834484  0.832777  0.466430  1
  Br  Br27  1  0.925645  0.579182  0.155329  1
  Br  Br28  1  0.074355  0.420818  0.844671  1
  Br  Br29  1  0.927464  0.744177  0.891134  1
  Br  Br30  1  0.072536  0.255823  0.108866  1
