# generated using pymatgen
data_Ho2Tm3Sn4
_symmetry_space_group_name_H-M   'P 1'
_cell_length_a   7.96008200
_cell_length_b   8.08924700
_cell_length_c   15.28862600
_cell_angle_alpha   90.00000000
_cell_angle_beta   90.00000000
_cell_angle_gamma   90.00000000
_symmetry_Int_Tables_number   1
_chemical_formula_structural   Ho2Tm3Sn4
_chemical_formula_sum   'Ho8 Tm12 Sn16'
_cell_volume   984.45097838
_cell_formula_units_Z   4
loop_
 _symmetry_equiv_pos_site_id
 _symmetry_equiv_pos_as_xyz
  1  'x, y, z'
loop_
 _atom_site_type_symbol
 _atom_site_label
 _atom_site_symmetry_multiplicity
 _atom_site_fract_x
 _atom_site_fract_y
 _atom_site_fract_z
 _atom_site_occupancy
  Ho  Ho0  1  0.521518  0.320552  0.902764  1
  Ho  Ho1  1  0.021518  0.179448  0.597236  1
  Ho  Ho2  1  0.478482  0.679448  0.402764  1
  Ho  Ho3  1  0.978482  0.820552  0.097236  1
  Ho  Ho4  1  0.478482  0.679448  0.097236  1
  Ho  Ho5  1  0.978482  0.820552  0.402764  1
  Ho  Ho6  1  0.521518  0.320552  0.597236  1
  Ho  Ho7  1  0.021518  0.179448  0.902764  1
  Tm  Tm8  1  0.367591  0.836458  0.877418  1
  Tm  Tm9  1  0.867591  0.663542  0.622582  1
  Tm  Tm10  1  0.632409  0.163542  0.377418  1
  Tm  Tm11  1  0.132409  0.336458  0.122582  1
  Tm  Tm12  1  0.632409  0.163542  0.122582  1
  Tm  Tm13  1  0.132409  0.336458  0.377418  1
  Tm  Tm14  1  0.367591  0.836458  0.622582  1
  Tm  Tm15  1  0.867591  0.663542  0.877418  1
  Tm  Tm16  1  0.198209  0.503916  0.750000  1
  Tm  Tm17  1  0.698209  0.996084  0.750000  1
  Tm  Tm18  1  0.801791  0.496084  0.250000  1
  Tm  Tm19  1  0.301791  0.003916  0.250000  1
  Sn  Sn20  1  0.293554  0.036538  0.041687  1
  Sn  Sn21  1  0.793554  0.463462  0.458313  1
  Sn  Sn22  1  0.706446  0.963462  0.541687  1
  Sn  Sn23  1  0.206446  0.536538  0.958313  1
  Sn  Sn24  1  0.706446  0.963462  0.958313  1
  Sn  Sn25  1  0.206446  0.536538  0.541687  1
  Sn  Sn26  1  0.293554  0.036538  0.458313  1
  Sn  Sn27  1  0.793554  0.463462  0.041687  1
  Sn  Sn28  1  0.564546  0.620198  0.750000  1
  Sn  Sn29  1  0.064546  0.879802  0.750000  1
  Sn  Sn30  1  0.435454  0.379802  0.250000  1
  Sn  Sn31  1  0.935454  0.120198  0.250000  1
  Sn  Sn32  1  0.330447  0.147777  0.750000  1
  Sn  Sn33  1  0.830447  0.352223  0.750000  1
  Sn  Sn34  1  0.669553  0.852223  0.250000  1
  Sn  Sn35  1  0.169553  0.647777  0.250000  1
