# generated using pymatgen
data_Eu2Si7Ir12
_symmetry_space_group_name_H-M   'P 1'
_cell_length_a   9.77101300
_cell_length_b   9.77101220
_cell_length_c   3.88849900
_cell_angle_alpha   90.00000000
_cell_angle_beta   90.00000000
_cell_angle_gamma   119.99998578
_symmetry_Int_Tables_number   1
_chemical_formula_structural   Eu2Si7Ir12
_chemical_formula_sum   'Eu2 Si7 Ir12'
_cell_volume   321.50803585
_cell_formula_units_Z   1
loop_
 _symmetry_equiv_pos_site_id
 _symmetry_equiv_pos_as_xyz
  1  'x, y, z'
loop_
 _atom_site_type_symbol
 _atom_site_label
 _atom_site_symmetry_multiplicity
 _atom_site_fract_x
 _atom_site_fract_y
 _atom_site_fract_z
 _atom_site_occupancy
  Eu  Eu0  1  0.333333  0.666667  0.749425  1
  Eu  Eu1  1  0.666667  0.333333  0.250575  1
  Si  Si2  1  0.000000  0.000000  0.500000  1
  Si  Si3  1  0.403770  0.290006  0.751188  1
  Si  Si4  1  0.709994  0.113763  0.751188  1
  Si  Si5  1  0.886237  0.596230  0.751188  1
  Si  Si6  1  0.596230  0.709994  0.248812  1
  Si  Si7  1  0.290006  0.886237  0.248812  1
  Si  Si8  1  0.113763  0.403770  0.248812  1
  Ir  Ir9  1  0.441041  0.059666  0.751361  1
  Ir  Ir10  1  0.940334  0.381375  0.751361  1
  Ir  Ir11  1  0.618625  0.558959  0.751361  1
  Ir  Ir12  1  0.558959  0.940334  0.248639  1
  Ir  Ir13  1  0.059666  0.618625  0.248639  1
  Ir  Ir14  1  0.381375  0.441041  0.248639  1
  Ir  Ir15  1  0.143845  0.259983  0.746197  1
  Ir  Ir16  1  0.740017  0.883862  0.746197  1
  Ir  Ir17  1  0.116138  0.856155  0.746197  1
  Ir  Ir18  1  0.856155  0.740017  0.253803  1
  Ir  Ir19  1  0.259983  0.116138  0.253803  1
  Ir  Ir20  1  0.883862  0.143845  0.253803  1
