# generated using pymatgen
data_Tb2Ga2Fe2C
_symmetry_space_group_name_H-M   'P 1'
_cell_length_a   5.75624890
_cell_length_b   5.75624859
_cell_length_c   6.99425545
_cell_angle_alpha   53.86284078
_cell_angle_beta   53.86284587
_cell_angle_gamma   40.35101284
_symmetry_Int_Tables_number   1
_chemical_formula_structural   Tb2Ga2Fe2C
_chemical_formula_sum   'Tb2 Ga2 Fe2 C1'
_cell_volume   116.73902062
_cell_formula_units_Z   1
loop_
 _symmetry_equiv_pos_site_id
 _symmetry_equiv_pos_as_xyz
  1  'x, y, z'
loop_
 _atom_site_type_symbol
 _atom_site_label
 _atom_site_symmetry_multiplicity
 _atom_site_fract_x
 _atom_site_fract_y
 _atom_site_fract_z
 _atom_site_occupancy
  Tb  Tb0  1  0.442531  0.442531  0.286094  1
  Tb  Tb1  1  0.557469  0.557469  0.713906  1
  Ga  Ga2  1  0.839751  0.839751  0.709713  1
  Ga  Ga3  1  0.160249  0.160249  0.290287  1
  Fe  Fe4  1  0.806523  0.806523  0.086644  1
  Fe  Fe5  1  0.193477  0.193477  0.913356  1
  C  C6  1  0.000000  0.000000  0.000000  1
