# generated using pymatgen
data_Ce8Re(TcB)12
_symmetry_space_group_name_H-M   'P 1'
_cell_length_a   7.78919201
_cell_length_b   7.78919185
_cell_length_c   7.78919212
_cell_angle_alpha   87.16453598
_cell_angle_beta   87.16453813
_cell_angle_gamma   87.16453263
_symmetry_Int_Tables_number   1
_chemical_formula_structural   Ce8Re(TcB)12
_chemical_formula_sum   'Ce8 Re1 Tc12 B12'
_cell_volume   470.90160337
_cell_formula_units_Z   1
loop_
 _symmetry_equiv_pos_site_id
 _symmetry_equiv_pos_as_xyz
  1  'x, y, z'
loop_
 _atom_site_type_symbol
 _atom_site_label
 _atom_site_symmetry_multiplicity
 _atom_site_fract_x
 _atom_site_fract_y
 _atom_site_fract_z
 _atom_site_occupancy
  Ce  Ce0  1  0.651503  0.651503  0.651503  1
  Ce  Ce1  1  0.348497  0.348497  0.348497  1
  Ce  Ce2  1  0.178148  0.178148  0.673336  1
  Ce  Ce3  1  0.673336  0.178148  0.178148  1
  Ce  Ce4  1  0.178148  0.673336  0.178148  1
  Ce  Ce5  1  0.821852  0.821852  0.326664  1
  Ce  Ce6  1  0.326664  0.821852  0.821852  1
  Ce  Ce7  1  0.821852  0.326664  0.821852  1
  Re  Re8  1  0.000000  0.000000  0.000000  1
  Tc  Tc9  1  0.595075  0.068417  0.595075  1
  Tc  Tc10  1  0.595075  0.595075  0.068417  1
  Tc  Tc11  1  0.068417  0.595075  0.595075  1
  Tc  Tc12  1  0.404925  0.931583  0.404925  1
  Tc  Tc13  1  0.404925  0.404925  0.931583  1
  Tc  Tc14  1  0.931583  0.404925  0.404925  1
  Tc  Tc15  1  0.929938  0.929938  0.672267  1
  Tc  Tc16  1  0.672267  0.929938  0.929938  1
  Tc  Tc17  1  0.929938  0.672267  0.929938  1
  Tc  Tc18  1  0.070062  0.070062  0.327733  1
  Tc  Tc19  1  0.327733  0.070062  0.070062  1
  Tc  Tc20  1  0.070062  0.327733  0.070062  1
  B  B21  1  0.155178  0.844822  0.500000  1
  B  B22  1  0.500000  0.155178  0.844822  1
  B  B23  1  0.844822  0.500000  0.155178  1
  B  B24  1  0.500000  0.844822  0.155178  1
  B  B25  1  0.155178  0.500000  0.844822  1
  B  B26  1  0.844822  0.155178  0.500000  1
  B  B27  1  0.670808  0.500000  0.329192  1
  B  B28  1  0.329192  0.670808  0.500000  1
  B  B29  1  0.500000  0.329192  0.670808  1
  B  B30  1  0.329192  0.500000  0.670808  1
  B  B31  1  0.670808  0.329192  0.500000  1
  B  B32  1  0.500000  0.670808  0.329192  1
