# generated using pymatgen
data_Rb3InTe3
_symmetry_space_group_name_H-M   'P 1'
_cell_length_a   15.05010500
_cell_length_b   9.22082263
_cell_length_c   11.84574256
_cell_angle_alpha   52.21235173
_cell_angle_beta   90.00000000
_cell_angle_gamma   90.00000000
_symmetry_Int_Tables_number   1
_chemical_formula_structural   Rb3InTe3
_chemical_formula_sum   'Rb12 In4 Te12'
_cell_volume   1299.14131364
_cell_formula_units_Z   4
loop_
 _symmetry_equiv_pos_site_id
 _symmetry_equiv_pos_as_xyz
  1  'x, y, z'
loop_
 _atom_site_type_symbol
 _atom_site_label
 _atom_site_symmetry_multiplicity
 _atom_site_fract_x
 _atom_site_fract_y
 _atom_site_fract_z
 _atom_site_occupancy
  Rb  Rb0  1  0.311247  0.147928  0.072806  1
  Rb  Rb1  1  0.688753  0.852072  0.927194  1
  Rb  Rb2  1  0.811247  0.852072  0.427194  1
  Rb  Rb3  1  0.894156  0.316383  0.403786  1
  Rb  Rb4  1  0.612804  0.361713  0.473681  1
  Rb  Rb5  1  0.112804  0.638287  0.026319  1
  Rb  Rb6  1  0.387196  0.638287  0.526319  1
  Rb  Rb7  1  0.887196  0.361713  0.973681  1
  Rb  Rb8  1  0.605844  0.316383  0.903786  1
  Rb  Rb9  1  0.105844  0.683617  0.596214  1
  Rb  Rb10  1  0.394156  0.683617  0.096214  1
  Rb  Rb11  1  0.188753  0.147928  0.572806  1
  In  In12  1  0.066707  0.943608  0.161817  1
  In  In13  1  0.566707  0.056392  0.338183  1
  In  In14  1  0.433293  0.943608  0.661817  1
  In  In15  1  0.933293  0.056392  0.838183  1
  Te  Te16  1  0.396735  0.181557  0.357304  1
  Te  Te17  1  0.896735  0.818443  0.142696  1
  Te  Te18  1  0.603265  0.818443  0.642696  1
  Te  Te19  1  0.103265  0.181557  0.857304  1
  Te  Te20  1  0.696383  0.332561  0.194257  1
  Te  Te21  1  0.196383  0.667439  0.305743  1
  Te  Te22  1  0.303617  0.667439  0.805743  1
  Te  Te23  1  0.803617  0.332561  0.694257  1
  Te  Te24  1  0.552078  0.857930  0.232410  1
  Te  Te25  1  0.052078  0.142070  0.267590  1
  Te  Te26  1  0.447922  0.142070  0.767590  1
  Te  Te27  1  0.947922  0.857930  0.732410  1
