# generated using pymatgen
data_Ca3CeBi3
_symmetry_space_group_name_H-M   'P 1'
_cell_length_a   8.49758892
_cell_length_b   8.41743295
_cell_length_c   8.49006478
_cell_angle_alpha   109.52115073
_cell_angle_beta   109.70084070
_cell_angle_gamma   109.55748187
_symmetry_Int_Tables_number   1
_chemical_formula_structural   Ca3CeBi3
_chemical_formula_sum   'Ca6 Ce2 Bi6'
_cell_volume   465.35815698
_cell_formula_units_Z   2
loop_
 _symmetry_equiv_pos_site_id
 _symmetry_equiv_pos_as_xyz
  1  'x, y, z'
loop_
 _atom_site_type_symbol
 _atom_site_label
 _atom_site_symmetry_multiplicity
 _atom_site_fract_x
 _atom_site_fract_y
 _atom_site_fract_z
 _atom_site_occupancy
  Ca  Ca0  1  0.643217  0.643835  0.646125  1
  Ca  Ca1  1  0.852983  0.498160  0.997303  1
  Ca  Ca2  1  0.503231  0.001408  0.856329  1
  Ca  Ca3  1  0.501822  0.998592  0.354921  1
  Ca  Ca4  1  0.354823  0.501840  0.999143  1
  Ca  Ca5  1  0.999382  0.356165  0.502290  1
  Ce  Ce6  1  0.146233  0.145929  0.145598  1
  Ce  Ce7  1  0.000304  0.854071  0.499669  1
  Bi  Bi8  1  0.751697  0.875545  0.126096  1
  Bi  Bi9  1  0.373501  0.248030  0.622083  1
  Bi  Bi10  1  0.247222  0.623259  0.374549  1
  Bi  Bi11  1  0.876152  0.124455  0.750551  1
  Bi  Bi12  1  0.623963  0.376741  0.251290  1
  Bi  Bi13  1  0.125471  0.751970  0.874053  1
