# generated using pymatgen
data_Tb5Ho11(In3Os)2
_symmetry_space_group_name_H-M   'P 1'
_cell_length_a   10.37863411
_cell_length_b   10.37863451
_cell_length_c   7.08799208
_cell_angle_alpha   90.01506240
_cell_angle_beta   89.98493726
_cell_angle_gamma   120.00710604
_symmetry_Int_Tables_number   1
_chemical_formula_structural   Tb5Ho11(In3Os)2
_chemical_formula_sum   'Tb5 Ho11 In6 Os2'
_cell_volume   661.15479652
_cell_formula_units_Z   1
loop_
 _symmetry_equiv_pos_site_id
 _symmetry_equiv_pos_as_xyz
  1  'x, y, z'
loop_
 _atom_site_type_symbol
 _atom_site_label
 _atom_site_symmetry_multiplicity
 _atom_site_fract_x
 _atom_site_fract_y
 _atom_site_fract_z
 _atom_site_occupancy
  Tb  Tb0  1  0.532926  0.065763  0.506959  1
  Tb  Tb1  1  0.934237  0.467074  0.506959  1
  Tb  Tb2  1  0.532605  0.467395  0.507306  1
  Tb  Tb3  1  0.467078  0.934012  0.007051  1
  Tb  Tb4  1  0.065988  0.532922  0.007051  1
  Ho  Ho5  1  0.466849  0.533151  0.007730  1
  Ho  Ho6  1  0.177487  0.354398  0.713039  1
  Ho  Ho7  1  0.645602  0.822513  0.713039  1
  Ho  Ho8  1  0.177072  0.822928  0.712842  1
  Ho  Ho9  1  0.822463  0.645577  0.212330  1
  Ho  Ho10  1  0.354423  0.177537  0.212330  1
  Ho  Ho11  1  0.822941  0.177059  0.212524  1
  Ho  Ho12  1  0.666421  0.333579  0.884387  1
  Ho  Ho13  1  0.333604  0.666396  0.384362  1
  Ho  Ho14  1  0.999973  0.000027  0.491983  1
  Ho  Ho15  1  0.999926  0.000074  0.991870  1
  In  In16  1  0.837196  0.674460  0.754153  1
  In  In17  1  0.325540  0.162804  0.754153  1
  In  In18  1  0.837224  0.162776  0.754237  1
  In  In19  1  0.163082  0.325855  0.253624  1
  In  In20  1  0.674145  0.836918  0.253624  1
  In  In21  1  0.162793  0.837207  0.254309  1
  Os  Os22  1  0.666674  0.333326  0.280789  1
  Os  Os23  1  0.333753  0.666247  0.781393  1
