# generated using pymatgen
data_Li6La3Nd3(WO6)4
_symmetry_space_group_name_H-M   'P 1'
_cell_length_a   10.99507911
_cell_length_b   10.99506234
_cell_length_c   10.99572600
_cell_angle_alpha   109.47231163
_cell_angle_beta   109.47227838
_cell_angle_gamma   109.46690473
_symmetry_Int_Tables_number   1
_chemical_formula_structural   Li6La3Nd3(WO6)4
_chemical_formula_sum   'Li12 La6 Nd6 W8 O48'
_cell_volume   1023.31581732
_cell_formula_units_Z   2
loop_
 _symmetry_equiv_pos_site_id
 _symmetry_equiv_pos_as_xyz
  1  'x, y, z'
loop_
 _atom_site_type_symbol
 _atom_site_label
 _atom_site_symmetry_multiplicity
 _atom_site_fract_x
 _atom_site_fract_y
 _atom_site_fract_z
 _atom_site_occupancy
  Li  Li0  1  0.750057  0.375678  0.126009  1
  Li  Li1  1  0.875950  0.750331  0.126006  1
  Li  Li2  1  0.125405  0.375405  0.249999  1
  Li  Li3  1  0.624594  0.874594  0.250000  1
  Li  Li4  1  0.624323  0.249944  0.373992  1
  Li  Li5  1  0.249669  0.124048  0.373993  1
  Li  Li6  1  0.374363  0.749957  0.624014  1
  Li  Li7  1  0.749648  0.874054  0.624008  1
  Li  Li8  1  0.374604  0.124603  0.749999  1
  Li  Li9  1  0.875396  0.625395  0.750000  1
  Li  Li10  1  0.125944  0.250351  0.875989  1
  Li  Li11  1  0.250046  0.625639  0.875988  1
  La  La12  1  0.874669  0.249352  0.623868  1
  La  La13  1  0.249199  0.374514  0.623866  1
  La  La14  1  0.625000  0.375000  0.750001  1
  La  La15  1  0.125002  0.875000  0.750000  1
  La  La16  1  0.625485  0.750801  0.876132  1
  La  La17  1  0.750647  0.125332  0.876134  1
  Nd  Nd18  1  0.250570  0.875211  0.126015  1
  Nd  Nd19  1  0.375443  0.250802  0.126011  1
  Nd  Nd20  1  0.875003  0.125001  0.250001  1
  Nd  Nd21  1  0.375000  0.624998  0.250000  1
  Nd  Nd22  1  0.124793  0.749432  0.373987  1
  Nd  Nd23  1  0.749196  0.624553  0.373984  1
  W  W24  1  0.001842  0.000766  0.002274  1
  W  W25  1  0.500428  0.001512  0.002272  1
  W  W26  1  0.499916  0.500002  0.001779  1
  W  W27  1  0.001860  0.501772  0.001780  1
  W  W28  1  0.498225  0.998143  0.498224  1
  W  W29  1  0.998488  0.499565  0.497723  1
  W  W30  1  0.999237  0.998161  0.497722  1
  W  W31  1  0.499992  0.500080  0.498219  1
  O  O32  1  0.328567  0.407824  0.024768  1
  O  O33  1  0.196203  0.616946  0.024770  1
  O  O34  1  0.886250  0.909463  0.081793  1
  O  O35  1  0.695544  0.172332  0.081797  1
  O  O36  1  0.616396  0.923115  0.094364  1
  O  O37  1  0.977966  0.171244  0.094362  1
  O  O38  1  0.024797  0.696187  0.116997  1
  O  O39  1  0.592202  0.420812  0.116998  1
  O  O40  1  0.196756  0.079524  0.172132  1
  O  O41  1  0.475380  0.092609  0.172138  1
  O  O42  1  0.116957  0.524747  0.196184  1
  O  O43  1  0.579229  0.671440  0.196186  1
  O  O44  1  0.328563  0.420772  0.303815  1
  O  O45  1  0.475255  0.883043  0.303815  1
  O  O46  1  0.920472  0.803241  0.327866  1
  O  O47  1  0.907392  0.524622  0.327866  1
  O  O48  1  0.579190  0.407799  0.383003  1
  O  O49  1  0.303814  0.975204  0.383003  1
  O  O50  1  0.828752  0.022031  0.405637  1
  O  O51  1  0.076884  0.383605  0.405638  1
  O  O52  1  0.090533  0.113746  0.418206  1
  O  O53  1  0.827671  0.304458  0.418206  1
  O  O54  1  0.592176  0.671434  0.475231  1
  O  O55  1  0.383056  0.803798  0.475230  1
  O  O56  1  0.612694  0.192142  0.520581  1
  O  O57  1  0.407889  0.328442  0.520580  1
  O  O58  1  0.170620  0.692825  0.576772  1
  O  O59  1  0.906150  0.883947  0.576773  1
  O  O60  1  0.171711  0.976569  0.589903  1
  O  O61  1  0.918191  0.613334  0.589903  1
  O  O62  1  0.420501  0.592094  0.612644  1
  O  O63  1  0.692146  0.020550  0.612646  1
  O  O64  1  0.079121  0.191502  0.670810  1
  O  O65  1  0.091690  0.479310  0.670812  1
  O  O66  1  0.671557  0.579452  0.692160  1
  O  O67  1  0.520603  0.112707  0.692158  1
  O  O68  1  0.887294  0.479398  0.807842  1
  O  O69  1  0.420549  0.328445  0.807841  1
  O  O70  1  0.520692  0.908311  0.829192  1
  O  O71  1  0.808494  0.920875  0.829186  1
  O  O72  1  0.979449  0.307856  0.887354  1
  O  O73  1  0.407906  0.579501  0.887355  1
  O  O74  1  0.386668  0.081809  0.910101  1
  O  O75  1  0.023427  0.828282  0.910093  1
  O  O76  1  0.116050  0.093847  0.923225  1
  O  O77  1  0.307176  0.829382  0.923230  1
  O  O78  1  0.807862  0.387309  0.979420  1
  O  O79  1  0.671562  0.592114  0.979421  1
