# generated using pymatgen
data_ErTmMg2(B4Ru5)2
_symmetry_space_group_name_H-M   'P 1'
_cell_length_a   3.01568400
_cell_length_b   8.55486186
_cell_length_c   10.14551172
_cell_angle_alpha   91.20650737
_cell_angle_beta   90.00000000
_cell_angle_gamma   90.00000000
_symmetry_Int_Tables_number   1
_chemical_formula_structural   ErTmMg2(B4Ru5)2
_chemical_formula_sum   'Er1 Tm1 Mg2 B8 Ru10'
_cell_volume   261.68359353
_cell_formula_units_Z   1
loop_
 _symmetry_equiv_pos_site_id
 _symmetry_equiv_pos_as_xyz
  1  'x, y, z'
loop_
 _atom_site_type_symbol
 _atom_site_label
 _atom_site_symmetry_multiplicity
 _atom_site_fract_x
 _atom_site_fract_y
 _atom_site_fract_z
 _atom_site_occupancy
  Er  Er0  1  0.500000  0.344316  0.184709  1
  Tm  Tm1  1  0.500000  0.655659  0.815007  1
  Mg  Mg2  1  0.500000  0.150055  0.680056  1
  Mg  Mg3  1  0.500000  0.849932  0.320121  1
  B  B4  1  0.500000  0.856832  0.599588  1
  B  B5  1  0.500000  0.142998  0.400656  1
  B  B6  1  0.500000  0.347857  0.895878  1
  B  B7  1  0.500000  0.652472  0.103893  1
  B  B8  1  0.500000  0.963247  0.910830  1
  B  B9  1  0.500000  0.036352  0.089024  1
  B  B10  1  0.500000  0.460947  0.588425  1
  B  B11  1  0.500000  0.539340  0.411837  1
  Ru  Ru12  1  0.000000  0.390336  0.736336  1
  Ru  Ru13  1  0.000000  0.610146  0.263684  1
  Ru  Ru14  1  0.000000  0.909959  0.759738  1
  Ru  Ru15  1  0.000000  0.089181  0.240361  1
  Ru  Ru16  1  0.000000  0.999919  0.500141  1
  Ru  Ru17  1  0.000000  0.500491  0.999679  1
  Ru  Ru18  1  0.000000  0.656598  0.549354  1
  Ru  Ru19  1  0.000000  0.343359  0.450948  1
  Ru  Ru20  1  0.000000  0.157372  0.955465  1
  Ru  Ru21  1  0.000000  0.842631  0.044270  1
