# generated using pymatgen
data_Pr2GeRhI
_symmetry_space_group_name_H-M   'P 1'
_cell_length_a   4.41057700
_cell_length_b   4.41057525
_cell_length_c   16.95711000
_cell_angle_alpha   90.00000000
_cell_angle_beta   90.00000000
_cell_angle_gamma   120.00000559
_symmetry_Int_Tables_number   1
_chemical_formula_structural   Pr2GeRhI
_chemical_formula_sum   'Pr4 Ge2 Rh2 I2'
_cell_volume   285.67556142
_cell_formula_units_Z   2
loop_
 _symmetry_equiv_pos_site_id
 _symmetry_equiv_pos_as_xyz
  1  'x, y, z'
loop_
 _atom_site_type_symbol
 _atom_site_label
 _atom_site_symmetry_multiplicity
 _atom_site_fract_x
 _atom_site_fract_y
 _atom_site_fract_z
 _atom_site_occupancy
  Pr  Pr0  1  0.000000  0.000000  0.604991  1
  Pr  Pr1  1  0.000000  0.000000  0.398675  1
  Pr  Pr2  1  0.000000  0.000000  0.104991  1
  Pr  Pr3  1  0.000000  0.000000  0.898675  1
  Ge  Ge4  1  0.666667  0.333333  0.507535  1
  Ge  Ge5  1  0.333333  0.666667  0.007535  1
  Rh  Rh6  1  0.666667  0.333333  0.992326  1
  Rh  Rh7  1  0.333333  0.666667  0.492326  1
  I  I8  1  0.666667  0.333333  0.246474  1
  I  I9  1  0.333333  0.666667  0.746474  1
