# generated using pymatgen
data_YbDyIr3W
_symmetry_space_group_name_H-M   'P 1'
_cell_length_a   5.62213893
_cell_length_b   5.62213943
_cell_length_c   5.18469745
_cell_angle_alpha   57.16742933
_cell_angle_beta   57.16742386
_cell_angle_gamma   59.99999429
_symmetry_Int_Tables_number   1
_chemical_formula_structural   YbDyIr3W
_chemical_formula_sum   'Yb1 Dy1 Ir3 W1'
_cell_volume   110.66884154
_cell_formula_units_Z   1
loop_
 _symmetry_equiv_pos_site_id
 _symmetry_equiv_pos_as_xyz
  1  'x, y, z'
loop_
 _atom_site_type_symbol
 _atom_site_label
 _atom_site_symmetry_multiplicity
 _atom_site_fract_x
 _atom_site_fract_y
 _atom_site_fract_z
 _atom_site_occupancy
  Yb  Yb0  1  0.750460  0.750460  0.748620  1
  Dy  Dy1  1  0.500143  0.500143  0.499571  1
  Ir  Ir2  1  0.625758  0.124215  0.125812  1
  Ir  Ir3  1  0.124215  0.124215  0.125812  1
  Ir  Ir4  1  0.124215  0.625758  0.125812  1
  W  W5  1  0.125209  0.125209  0.624374  1
