# generated using pymatgen
data_Ti4SnSbRh10
_symmetry_space_group_name_H-M   'P 1'
_cell_length_a   4.04221900
_cell_length_b   5.53411306
_cell_length_c   10.89016317
_cell_angle_alpha   90.16650893
_cell_angle_beta   90.00000000
_cell_angle_gamma   90.00000000
_symmetry_Int_Tables_number   1
_chemical_formula_structural   Ti4SnSbRh10
_chemical_formula_sum   'Ti4 Sn1 Sb1 Rh10'
_cell_volume   243.61297703
_cell_formula_units_Z   1
loop_
 _symmetry_equiv_pos_site_id
 _symmetry_equiv_pos_as_xyz
  1  'x, y, z'
loop_
 _atom_site_type_symbol
 _atom_site_label
 _atom_site_symmetry_multiplicity
 _atom_site_fract_x
 _atom_site_fract_y
 _atom_site_fract_z
 _atom_site_occupancy
  Ti  Ti0  1  0.500000  0.323200  0.142852  1
  Ti  Ti1  1  0.500000  0.676800  0.857148  1
  Ti  Ti2  1  0.500000  0.826813  0.354591  1
  Ti  Ti3  1  0.500000  0.173187  0.645409  1
  Sn  Sn4  1  0.000000  0.000000  0.000000  1
  Sb  Sb5  1  0.000000  0.500000  0.500000  1
  Rh  Rh6  1  0.000000  0.000000  0.500000  1
  Rh  Rh7  1  0.000000  0.500000  0.000000  1
  Rh  Rh8  1  0.000000  0.059357  0.248421  1
  Rh  Rh9  1  0.000000  0.940643  0.751579  1
  Rh  Rh10  1  0.000000  0.559860  0.253325  1
  Rh  Rh11  1  0.000000  0.440140  0.746675  1
  Rh  Rh12  1  0.500000  0.290735  0.383524  1
  Rh  Rh13  1  0.500000  0.709265  0.616476  1
  Rh  Rh14  1  0.500000  0.785466  0.119272  1
  Rh  Rh15  1  0.500000  0.214534  0.880728  1
