# generated using pymatgen
data_Ac2Ho2TmPb4
_symmetry_space_group_name_H-M   'P 1'
_cell_length_a   8.48390300
_cell_length_b   8.59626000
_cell_length_c   16.21837800
_cell_angle_alpha   90.00000000
_cell_angle_beta   90.00000000
_cell_angle_gamma   90.00000000
_symmetry_Int_Tables_number   1
_chemical_formula_structural   Ac2Ho2TmPb4
_chemical_formula_sum   'Ac8 Ho8 Tm4 Pb16'
_cell_volume   1182.80364777
_cell_formula_units_Z   4
loop_
 _symmetry_equiv_pos_site_id
 _symmetry_equiv_pos_as_xyz
  1  'x, y, z'
loop_
 _atom_site_type_symbol
 _atom_site_label
 _atom_site_symmetry_multiplicity
 _atom_site_fract_x
 _atom_site_fract_y
 _atom_site_fract_z
 _atom_site_occupancy
  Ac  Ac0  1  0.476105  0.677865  0.596523  1
  Ac  Ac1  1  0.976105  0.822135  0.903477  1
  Ac  Ac2  1  0.523895  0.322135  0.096523  1
  Ac  Ac3  1  0.023895  0.177865  0.403477  1
  Ac  Ac4  1  0.523895  0.322135  0.403477  1
  Ac  Ac5  1  0.023895  0.177865  0.096523  1
  Ac  Ac6  1  0.476105  0.677865  0.903477  1
  Ac  Ac7  1  0.976105  0.822135  0.596523  1
  Ho  Ho8  1  0.634504  0.157846  0.623283  1
  Ho  Ho9  1  0.134504  0.342154  0.876717  1
  Ho  Ho10  1  0.365496  0.842154  0.123283  1
  Ho  Ho11  1  0.865496  0.657846  0.376717  1
  Ho  Ho12  1  0.365496  0.842154  0.376717  1
  Ho  Ho13  1  0.865496  0.657846  0.123283  1
  Ho  Ho14  1  0.634504  0.157846  0.876717  1
  Ho  Ho15  1  0.134504  0.342154  0.623283  1
  Tm  Tm16  1  0.800843  0.492664  0.750000  1
  Tm  Tm17  1  0.300843  0.007336  0.750000  1
  Tm  Tm18  1  0.199157  0.507336  0.250000  1
  Tm  Tm19  1  0.699157  0.992664  0.250000  1
  Pb  Pb20  1  0.699580  0.955454  0.454274  1
  Pb  Pb21  1  0.199580  0.544546  0.045726  1
  Pb  Pb22  1  0.300420  0.044546  0.954274  1
  Pb  Pb23  1  0.800420  0.455454  0.545726  1
  Pb  Pb24  1  0.300420  0.044546  0.545726  1
  Pb  Pb25  1  0.800420  0.455454  0.954274  1
  Pb  Pb26  1  0.699580  0.955454  0.045726  1
  Pb  Pb27  1  0.199580  0.544546  0.454274  1
  Pb  Pb28  1  0.439935  0.365344  0.750000  1
  Pb  Pb29  1  0.939935  0.134656  0.750000  1
  Pb  Pb30  1  0.560065  0.634656  0.250000  1
  Pb  Pb31  1  0.060065  0.865344  0.250000  1
  Pb  Pb32  1  0.664932  0.854827  0.750000  1
  Pb  Pb33  1  0.164932  0.645173  0.750000  1
  Pb  Pb34  1  0.335068  0.145173  0.250000  1
  Pb  Pb35  1  0.835068  0.354827  0.250000  1
