# generated using pymatgen
data_Ti6AlSi5Ru12
_symmetry_space_group_name_H-M   'P 1'
_cell_length_a   4.25569300
_cell_length_b   6.02267800
_cell_length_c   12.75445800
_cell_angle_alpha   90.00000000
_cell_angle_beta   89.99997755
_cell_angle_gamma   90.00000000
_symmetry_Int_Tables_number   1
_chemical_formula_structural   Ti6AlSi5Ru12
_chemical_formula_sum   'Ti6 Al1 Si5 Ru12'
_cell_volume   326.90528625
_cell_formula_units_Z   1
loop_
 _symmetry_equiv_pos_site_id
 _symmetry_equiv_pos_as_xyz
  1  'x, y, z'
loop_
 _atom_site_type_symbol
 _atom_site_label
 _atom_site_symmetry_multiplicity
 _atom_site_fract_x
 _atom_site_fract_y
 _atom_site_fract_z
 _atom_site_occupancy
  Ti  Ti0  1  0.000014  0.000000  0.999410  1
  Ti  Ti1  1  0.499773  0.499999  0.166638  1
  Ti  Ti2  1  0.999780  0.000000  0.333335  1
  Ti  Ti3  1  0.500006  0.499999  0.500029  1
  Ti  Ti4  1  0.000220  0.000000  0.667255  1
  Ti  Ti5  1  0.500231  0.499999  0.833331  1
  Al  Al6  1  0.500214  0.000000  0.833333  1
  Si  Si7  1  0.000003  0.499999  0.999399  1
  Si  Si8  1  0.499781  0.000000  0.166368  1
  Si  Si9  1  0.999792  0.499999  0.333335  1
  Si  Si10  1  0.500009  0.000000  0.500297  1
  Si  Si11  1  0.000213  0.499999  0.667265  1
  Ru  Ru12  1  0.499994  0.251678  0.002350  1
  Ru  Ru13  1  0.499994  0.748323  0.002350  1
  Ru  Ru14  1  0.999785  0.249993  0.167512  1
  Ru  Ru15  1  0.999785  0.750005  0.167512  1
  Ru  Ru16  1  0.499807  0.249651  0.333334  1
  Ru  Ru17  1  0.499807  0.750348  0.333334  1
  Ru  Ru18  1  0.000006  0.249997  0.499160  1
  Ru  Ru19  1  0.000006  0.750003  0.499160  1
  Ru  Ru20  1  0.500208  0.251678  0.664316  1
  Ru  Ru21  1  0.500208  0.748321  0.664316  1
  Ru  Ru22  1  0.000180  0.253383  0.833332  1
  Ru  Ru23  1  0.000180  0.746615  0.833332  1
