# generated using pymatgen
data_YHo15CdHg3Pd3Pt
_symmetry_space_group_name_H-M   'P 1'
_cell_length_a   9.62330710
_cell_length_b   9.63712875
_cell_length_c   9.63119200
_cell_angle_alpha   60.02037599
_cell_angle_beta   59.97289227
_cell_angle_gamma   60.03004959
_symmetry_Int_Tables_number   1
_chemical_formula_structural   YHo15CdHg3Pd3Pt
_chemical_formula_sum   'Y1 Ho15 Cd1 Hg3 Pd3 Pt1'
_cell_volume   631.70356069
_cell_formula_units_Z   1
loop_
 _symmetry_equiv_pos_site_id
 _symmetry_equiv_pos_as_xyz
  1  'x, y, z'
loop_
 _atom_site_type_symbol
 _atom_site_label
 _atom_site_symmetry_multiplicity
 _atom_site_fract_x
 _atom_site_fract_y
 _atom_site_fract_z
 _atom_site_occupancy
  Y  Y0  1  0.934710  0.935432  0.564929  1
  Ho  Ho1  1  0.356275  0.353581  0.351203  1
  Ho  Ho2  1  0.356275  0.353581  0.938941  1
  Ho  Ho3  1  0.360138  0.931787  0.354037  1
  Ho  Ho4  1  0.927407  0.359744  0.356426  1
  Ho  Ho5  1  0.809424  0.190231  0.189295  1
  Ho  Ho6  1  0.188790  0.811568  0.810565  1
  Ho  Ho7  1  0.188790  0.811568  0.189079  1
  Ho  Ho8  1  0.809424  0.190231  0.811050  1
  Ho  Ho9  1  0.189403  0.190268  0.810165  1
  Ho  Ho10  1  0.810007  0.812496  0.188748  1
  Ho  Ho11  1  0.934208  0.564984  0.565712  1
  Ho  Ho12  1  0.564118  0.936017  0.935522  1
  Ho  Ho13  1  0.564118  0.936017  0.564343  1
  Ho  Ho14  1  0.934208  0.564984  0.935096  1
  Ho  Ho15  1  0.565772  0.565622  0.934302  1
  Cd  Cd16  1  0.256088  0.579618  0.582147  1
  Hg  Hg17  1  0.584638  0.586695  0.588702  1
  Hg  Hg18  1  0.584638  0.586695  0.239964  1
  Hg  Hg19  1  0.583290  0.239905  0.588402  1
  Pd  Pd20  1  0.143958  0.144817  0.147078  1
  Pd  Pd21  1  0.143958  0.144817  0.564149  1
  Pd  Pd22  1  0.142382  0.566845  0.145387  1
  Pt  Pt23  1  0.567983  0.142500  0.144758  1
