# generated using pymatgen
data_Pr4Dy2Al24ZnOs7
_symmetry_space_group_name_H-M   'P 1'
_cell_length_a   8.96126226
_cell_length_b   8.96126229
_cell_length_c   9.64719111
_cell_angle_alpha   90.14953093
_cell_angle_beta   89.85046660
_cell_angle_gamma   120.26813462
_symmetry_Int_Tables_number   1
_chemical_formula_structural   Pr4Dy2Al24ZnOs7
_chemical_formula_sum   'Pr4 Dy2 Al24 Zn1 Os7'
_cell_volume   669.09556219
_cell_formula_units_Z   1
loop_
 _symmetry_equiv_pos_site_id
 _symmetry_equiv_pos_as_xyz
  1  'x, y, z'
loop_
 _atom_site_type_symbol
 _atom_site_label
 _atom_site_symmetry_multiplicity
 _atom_site_fract_x
 _atom_site_fract_y
 _atom_site_fract_z
 _atom_site_occupancy
  Pr  Pr0  1  0.191433  0.381739  0.246644  1
  Pr  Pr1  1  0.808567  0.618261  0.753356  1
  Pr  Pr2  1  0.618261  0.808567  0.246644  1
  Pr  Pr3  1  0.381739  0.191433  0.753356  1
  Dy  Dy4  1  0.194580  0.805420  0.254912  1
  Dy  Dy5  1  0.805420  0.194580  0.745088  1
  Al  Al6  1  0.328153  0.671847  0.015382  1
  Al  Al7  1  0.671847  0.328153  0.984618  1
  Al  Al8  1  0.666258  0.333742  0.513735  1
  Al  Al9  1  0.333742  0.666258  0.486265  1
  Al  Al10  1  0.160907  0.326366  0.572840  1
  Al  Al11  1  0.839093  0.673634  0.427160  1
  Al  Al12  1  0.673634  0.839093  0.572840  1
  Al  Al13  1  0.852278  0.677731  0.081456  1
  Al  Al14  1  0.326366  0.160907  0.427160  1
  Al  Al15  1  0.147722  0.322269  0.918544  1
  Al  Al16  1  0.163009  0.836991  0.572907  1
  Al  Al17  1  0.322269  0.147722  0.081456  1
  Al  Al18  1  0.836991  0.163009  0.427093  1
  Al  Al19  1  0.677731  0.852278  0.918544  1
  Al  Al20  1  0.836482  0.163518  0.072568  1
  Al  Al21  1  0.163518  0.836482  0.927432  1
  Al  Al22  1  0.560642  0.121171  0.249340  1
  Al  Al23  1  0.439358  0.878829  0.750660  1
  Al  Al24  1  0.878829  0.439358  0.249340  1
  Al  Al25  1  0.121171  0.560642  0.750660  1
  Al  Al26  1  0.565969  0.434031  0.256660  1
  Al  Al27  1  0.434031  0.565969  0.743340  1
  Al  Al28  1  0.002018  0.997982  0.250732  1
  Al  Al29  1  0.997982  0.002018  0.749268  1
  Zn  Zn30  1  0.500000  0.500000  0.000000  1
  Os  Os31  1  0.500000  0.000000  0.000000  1
  Os  Os32  1  0.000000  0.500000  0.000000  1
  Os  Os33  1  0.500000  0.000000  0.500000  1
  Os  Os34  1  0.000000  0.500000  0.500000  1
  Os  Os35  1  0.500000  0.500000  0.500000  1
  Os  Os36  1  0.000000  0.000000  0.000000  1
  Os  Os37  1  0.000000  0.000000  0.500000  1
