# generated using pymatgen
data_Ce2Th(TcGe)2
_symmetry_space_group_name_H-M   'P 1'
_cell_length_a   5.69089100
_cell_length_b   8.09853200
_cell_length_c   13.40374300
_cell_angle_alpha   90.00000000
_cell_angle_beta   90.00000000
_cell_angle_gamma   90.00000000
_symmetry_Int_Tables_number   1
_chemical_formula_structural   Ce2Th(TcGe)2
_chemical_formula_sum   'Ce8 Th4 Tc8 Ge8'
_cell_volume   617.74986936
_cell_formula_units_Z   4
loop_
 _symmetry_equiv_pos_site_id
 _symmetry_equiv_pos_as_xyz
  1  'x, y, z'
loop_
 _atom_site_type_symbol
 _atom_site_label
 _atom_site_symmetry_multiplicity
 _atom_site_fract_x
 _atom_site_fract_y
 _atom_site_fract_z
 _atom_site_occupancy
  Ce  Ce0  1  0.163357  0.408576  0.407428  1
  Ce  Ce1  1  0.163357  0.091424  0.592572  1
  Ce  Ce2  1  0.836643  0.908576  0.092572  1
  Ce  Ce3  1  0.836643  0.591424  0.907428  1
  Ce  Ce4  1  0.836643  0.591424  0.592572  1
  Ce  Ce5  1  0.836643  0.908576  0.407428  1
  Ce  Ce6  1  0.163357  0.091424  0.907428  1
  Ce  Ce7  1  0.163357  0.408576  0.092572  1
  Th  Th8  1  0.382900  0.726058  0.750000  1
  Th  Th9  1  0.382900  0.773942  0.250000  1
  Th  Th10  1  0.617100  0.226058  0.750000  1
  Th  Th11  1  0.617100  0.273942  0.250000  1
  Tc  Tc12  1  0.343311  0.034376  0.411722  1
  Tc  Tc13  1  0.343311  0.465624  0.588278  1
  Tc  Tc14  1  0.656689  0.534376  0.088278  1
  Tc  Tc15  1  0.656689  0.965624  0.911722  1
  Tc  Tc16  1  0.343311  0.034376  0.088278  1
  Tc  Tc17  1  0.343311  0.465624  0.911722  1
  Tc  Tc18  1  0.656689  0.534376  0.411722  1
  Tc  Tc19  1  0.656689  0.965624  0.588278  1
  Ge  Ge20  1  0.628212  0.250000  0.500000  1
  Ge  Ge21  1  0.371788  0.750000  0.000000  1
  Ge  Ge22  1  0.371788  0.750000  0.500000  1
  Ge  Ge23  1  0.628212  0.250000  0.000000  1
  Ge  Ge24  1  0.884655  0.878958  0.750000  1
  Ge  Ge25  1  0.884655  0.621042  0.250000  1
  Ge  Ge26  1  0.115345  0.378958  0.750000  1
  Ge  Ge27  1  0.115345  0.121042  0.250000  1
