# generated using pymatgen
data_Hf6Sc8Al8Ir7
_symmetry_space_group_name_H-M   'P 1'
_cell_length_a   9.06100567
_cell_length_b   9.06100644
_cell_length_c   9.06100600
_cell_angle_alpha   60.00000160
_cell_angle_beta   59.99999880
_cell_angle_gamma   60.00000200
_symmetry_Int_Tables_number   1
_chemical_formula_structural   Hf6Sc8Al8Ir7
_chemical_formula_sum   'Hf6 Sc8 Al8 Ir7'
_cell_volume   526.03454955
_cell_formula_units_Z   1
loop_
 _symmetry_equiv_pos_site_id
 _symmetry_equiv_pos_as_xyz
  1  'x, y, z'
loop_
 _atom_site_type_symbol
 _atom_site_label
 _atom_site_symmetry_multiplicity
 _atom_site_fract_x
 _atom_site_fract_y
 _atom_site_fract_z
 _atom_site_occupancy
  Hf  Hf0  1  0.674662  0.674662  0.325338  1
  Hf  Hf1  1  0.325338  0.674662  0.325338  1
  Hf  Hf2  1  0.674662  0.325338  0.325338  1
  Hf  Hf3  1  0.325338  0.325338  0.674662  1
  Hf  Hf4  1  0.674662  0.325338  0.674662  1
  Hf  Hf5  1  0.325338  0.674662  0.674662  1
  Sc  Sc6  1  0.877139  0.877139  0.368583  1
  Sc  Sc7  1  0.877139  0.368583  0.877139  1
  Sc  Sc8  1  0.368583  0.877139  0.877139  1
  Sc  Sc9  1  0.877139  0.877139  0.877139  1
  Sc  Sc10  1  0.122861  0.122861  0.631417  1
  Sc  Sc11  1  0.122861  0.631417  0.122861  1
  Sc  Sc12  1  0.631417  0.122861  0.122861  1
  Sc  Sc13  1  0.122861  0.122861  0.122861  1
  Al  Al14  1  0.660543  0.660543  0.018369  1
  Al  Al15  1  0.660543  0.018369  0.660543  1
  Al  Al16  1  0.018369  0.660543  0.660543  1
  Al  Al17  1  0.660543  0.660543  0.660543  1
  Al  Al18  1  0.339457  0.339457  0.981631  1
  Al  Al19  1  0.339457  0.981631  0.339457  1
  Al  Al20  1  0.981631  0.339457  0.339457  1
  Al  Al21  1  0.339457  0.339457  0.339457  1
  Ir  Ir22  1  0.000000  0.000000  0.000000  1
  Ir  Ir23  1  0.000000  0.000000  0.500000  1
  Ir  Ir24  1  0.500000  0.000000  0.500000  1
  Ir  Ir25  1  0.000000  0.500000  0.500000  1
  Ir  Ir26  1  0.500000  0.500000  0.000000  1
  Ir  Ir27  1  0.000000  0.500000  0.000000  1
  Ir  Ir28  1  0.500000  0.000000  0.000000  1
