# generated using pymatgen
data_Pr2NdSn6Ru
_symmetry_space_group_name_H-M   'P 1'
_cell_length_a   8.74332653
_cell_length_b   8.74332681
_cell_length_c   13.44727800
_cell_angle_alpha   90.00000000
_cell_angle_beta   90.00000000
_cell_angle_gamma   148.58154110
_symmetry_Int_Tables_number   1
_chemical_formula_structural   Pr2NdSn6Ru
_chemical_formula_sum   'Pr4 Nd2 Sn12 Ru2'
_cell_volume   535.87399434
_cell_formula_units_Z   2
loop_
 _symmetry_equiv_pos_site_id
 _symmetry_equiv_pos_as_xyz
  1  'x, y, z'
loop_
 _atom_site_type_symbol
 _atom_site_label
 _atom_site_symmetry_multiplicity
 _atom_site_fract_x
 _atom_site_fract_y
 _atom_site_fract_z
 _atom_site_occupancy
  Pr  Pr0  1  0.399209  0.600791  0.404736  1
  Pr  Pr1  1  0.600791  0.399209  0.595264  1
  Pr  Pr2  1  0.399209  0.600791  0.095264  1
  Pr  Pr3  1  0.600791  0.399209  0.904736  1
  Nd  Nd4  1  0.602082  0.397918  0.250000  1
  Nd  Nd5  1  0.397918  0.602082  0.750000  1
  Sn  Sn6  1  0.927011  0.072989  0.923745  1
  Sn  Sn7  1  0.072989  0.927011  0.076255  1
  Sn  Sn8  1  0.927011  0.072989  0.576255  1
  Sn  Sn9  1  0.072989  0.927011  0.423745  1
  Sn  Sn10  1  0.959588  0.040412  0.250000  1
  Sn  Sn11  1  0.040412  0.959588  0.750000  1
  Sn  Sn12  1  0.744828  0.255173  0.432354  1
  Sn  Sn13  1  0.255173  0.744827  0.567646  1
  Sn  Sn14  1  0.744828  0.255173  0.067646  1
  Sn  Sn15  1  0.255173  0.744827  0.932354  1
  Sn  Sn16  1  0.233907  0.766093  0.250000  1
  Sn  Sn17  1  0.766093  0.233907  0.750000  1
  Ru  Ru18  1  0.801507  0.198493  0.250000  1
  Ru  Ru19  1  0.198493  0.801507  0.750000  1
