# generated using pymatgen
data_Hf5Zr5Sn6
_symmetry_space_group_name_H-M   'P 1'
_cell_length_a   8.49050929
_cell_length_b   8.49050990
_cell_length_c   5.75959900
_cell_angle_alpha   90.00000000
_cell_angle_beta   90.00000000
_cell_angle_gamma   119.82159505
_symmetry_Int_Tables_number   1
_chemical_formula_structural   Hf5Zr5Sn6
_chemical_formula_sum   'Hf5 Zr5 Sn6'
_cell_volume   360.22042349
_cell_formula_units_Z   1
loop_
 _symmetry_equiv_pos_site_id
 _symmetry_equiv_pos_as_xyz
  1  'x, y, z'
loop_
 _atom_site_type_symbol
 _atom_site_label
 _atom_site_symmetry_multiplicity
 _atom_site_fract_x
 _atom_site_fract_y
 _atom_site_fract_z
 _atom_site_occupancy
  Hf  Hf0  1  0.333129  0.666862  0.250085  1
  Hf  Hf1  1  0.666862  0.333129  0.250085  1
  Hf  Hf2  1  0.666862  0.333129  0.749915  1
  Hf  Hf3  1  0.333129  0.666862  0.749915  1
  Hf  Hf4  1  0.246925  0.246925  0.500000  1
  Zr  Zr5  1  0.756284  0.999872  0.500000  1
  Zr  Zr6  1  0.999872  0.756284  0.500000  1
  Zr  Zr7  1  0.752993  0.752993  0.000000  1
  Zr  Zr8  1  0.244034  0.000785  0.000000  1
  Zr  Zr9  1  0.000785  0.244034  0.000000  1
  Sn  Sn10  1  0.605541  0.605541  0.500000  1
  Sn  Sn11  1  0.393165  0.000632  0.500000  1
  Sn  Sn12  1  0.000632  0.393165  0.500000  1
  Sn  Sn13  1  0.393654  0.393654  0.000000  1
  Sn  Sn14  1  0.606311  0.999864  0.000000  1
  Sn  Sn15  1  0.999864  0.606311  0.000000  1
