# generated using pymatgen
data_LiHo2ErS4
_symmetry_space_group_name_H-M   'P 1'
_cell_length_a   6.70809341
_cell_length_b   6.70809289
_cell_length_c   6.70809300
_cell_angle_alpha   131.76913264
_cell_angle_beta   131.76912869
_cell_angle_gamma   70.59390349
_symmetry_Int_Tables_number   1
_chemical_formula_structural   LiHo2ErS4
_chemical_formula_sum   'Li1 Ho2 Er1 S4'
_cell_volume   164.50663694
_cell_formula_units_Z   1
loop_
 _symmetry_equiv_pos_site_id
 _symmetry_equiv_pos_as_xyz
  1  'x, y, z'
loop_
 _atom_site_type_symbol
 _atom_site_label
 _atom_site_symmetry_multiplicity
 _atom_site_fract_x
 _atom_site_fract_y
 _atom_site_fract_z
 _atom_site_occupancy
  Li  Li0  1  0.750000  0.250000  0.500000  1
  Ho  Ho1  1  0.250000  0.750000  0.500000  1
  Ho  Ho2  1  0.500000  0.500000  0.000000  1
  Er  Er3  1  0.000000  0.000000  0.000000  1
  S  S4  1  0.505796  0.005796  0.500000  1
  S  S5  1  0.994204  0.494204  0.500000  1
  S  S6  1  0.750429  0.750429  0.000000  1
  S  S7  1  0.249571  0.249571  0.000000  1
