# generated using pymatgen
data_HfMgZr(Co3B2)3
_symmetry_space_group_name_H-M   'P 1'
_cell_length_a   5.69391504
_cell_length_b   5.69391620
_cell_length_c   5.69391501
_cell_angle_alpha   95.19689297
_cell_angle_beta   95.19690391
_cell_angle_gamma   95.19690515
_symmetry_Int_Tables_number   1
_chemical_formula_structural   HfMgZr(Co3B2)3
_chemical_formula_sum   'Hf1 Mg1 Zr1 Co9 B6'
_cell_volume   182.17562123
_cell_formula_units_Z   1
loop_
 _symmetry_equiv_pos_site_id
 _symmetry_equiv_pos_as_xyz
  1  'x, y, z'
loop_
 _atom_site_type_symbol
 _atom_site_label
 _atom_site_symmetry_multiplicity
 _atom_site_fract_x
 _atom_site_fract_y
 _atom_site_fract_z
 _atom_site_occupancy
  Hf  Hf0  1  0.675538  0.675538  0.675538  1
  Mg  Mg1  1  0.999796  0.999796  0.999796  1
  Zr  Zr2  1  0.324664  0.324664  0.324664  1
  Co  Co3  1  0.999107  0.999107  0.500453  1
  Co  Co4  1  0.500453  0.999107  0.999107  1
  Co  Co5  1  0.999107  0.500453  0.999107  1
  Co  Co6  1  0.699256  0.200319  0.699256  1
  Co  Co7  1  0.699256  0.699256  0.200319  1
  Co  Co8  1  0.200319  0.699256  0.699256  1
  Co  Co9  1  0.300809  0.800135  0.300809  1
  Co  Co10  1  0.300809  0.300809  0.800135  1
  Co  Co11  1  0.800135  0.300809  0.300809  1
  B  B12  1  0.618494  0.382479  0.999402  1
  B  B13  1  0.999402  0.618494  0.382479  1
  B  B14  1  0.382479  0.999402  0.618494  1
  B  B15  1  0.999402  0.382479  0.618494  1
  B  B16  1  0.618494  0.999402  0.382479  1
  B  B17  1  0.382479  0.618494  0.999402  1
