# generated using pymatgen
data_Tb12PdPt3
_symmetry_space_group_name_H-M   'P 1'
_cell_length_a   6.53369944
_cell_length_b   7.06640448
_cell_length_c   9.68970300
_cell_angle_alpha   90.00000000
_cell_angle_beta   90.00000000
_cell_angle_gamma   89.95767256
_symmetry_Int_Tables_number   1
_chemical_formula_structural   Tb12PdPt3
_chemical_formula_sum   'Tb12 Pd1 Pt3'
_cell_volume   447.37116944
_cell_formula_units_Z   1
loop_
 _symmetry_equiv_pos_site_id
 _symmetry_equiv_pos_as_xyz
  1  'x, y, z'
loop_
 _atom_site_type_symbol
 _atom_site_label
 _atom_site_symmetry_multiplicity
 _atom_site_fract_x
 _atom_site_fract_y
 _atom_site_fract_z
 _atom_site_occupancy
  Tb  Tb0  1  0.636177  0.025561  0.250000  1
  Tb  Tb1  1  0.364699  0.971344  0.750000  1
  Tb  Tb2  1  0.135678  0.471684  0.750000  1
  Tb  Tb3  1  0.866346  0.529529  0.250000  1
  Tb  Tb4  1  0.175189  0.178392  0.060300  1
  Tb  Tb5  1  0.822842  0.820083  0.938992  1
  Tb  Tb6  1  0.677409  0.320553  0.938290  1
  Tb  Tb7  1  0.822842  0.820083  0.561008  1
  Tb  Tb8  1  0.322937  0.680919  0.060697  1
  Tb  Tb9  1  0.175189  0.178392  0.439700  1
  Tb  Tb10  1  0.322937  0.680919  0.439303  1
  Tb  Tb11  1  0.677409  0.320553  0.561710  1
  Pd  Pd12  1  0.442924  0.389379  0.250000  1
  Pt  Pt13  1  0.556156  0.612542  0.750000  1
  Pt  Pt14  1  0.943672  0.112036  0.750000  1
  Pt  Pt15  1  0.057592  0.888029  0.250000  1
