# generated using pymatgen
data_K4Ba2ZrAs4
_symmetry_space_group_name_H-M   'P 1'
_cell_length_a   10.64783030
_cell_length_b   10.64782987
_cell_length_c   8.20611289
_cell_angle_alpha   88.94106379
_cell_angle_beta   88.94105733
_cell_angle_gamma   119.99562160
_symmetry_Int_Tables_number   1
_chemical_formula_structural   K4Ba2ZrAs4
_chemical_formula_sum   'K8 Ba4 Zr2 As8'
_cell_volume   805.21652159
_cell_formula_units_Z   2
loop_
 _symmetry_equiv_pos_site_id
 _symmetry_equiv_pos_as_xyz
  1  'x, y, z'
loop_
 _atom_site_type_symbol
 _atom_site_label
 _atom_site_symmetry_multiplicity
 _atom_site_fract_x
 _atom_site_fract_y
 _atom_site_fract_z
 _atom_site_occupancy
  K  K0  1  0.471439  0.939279  0.382835  1
  K  K1  1  0.939279  0.471439  0.882835  1
  K  K2  1  0.867301  0.726016  0.185279  1
  K  K3  1  0.270917  0.128432  0.231693  1
  K  K4  1  0.856778  0.137187  0.207916  1
  K  K5  1  0.128432  0.270917  0.731693  1
  K  K6  1  0.726016  0.867301  0.685279  1
  K  K7  1  0.137187  0.856778  0.707916  1
  Ba  Ba8  1  0.064100  0.534684  0.390377  1
  Ba  Ba9  1  0.475269  0.535665  0.380780  1
  Ba  Ba10  1  0.534684  0.064100  0.890377  1
  Ba  Ba11  1  0.535665  0.475269  0.880780  1
  Zr  Zr12  1  0.663885  0.331710  0.486713  1
  Zr  Zr13  1  0.331710  0.663885  0.986713  1
  As  As14  1  0.651443  0.329867  0.164055  1
  As  As15  1  0.329867  0.651443  0.664055  1
  As  As16  1  0.205853  0.398868  0.116419  1
  As  As17  1  0.605741  0.798762  0.077788  1
  As  As18  1  0.203461  0.803153  0.093813  1
  As  As19  1  0.798762  0.605741  0.577788  1
  As  As20  1  0.398868  0.205853  0.616419  1
  As  As21  1  0.803153  0.203461  0.593813  1
