# generated using pymatgen
data_Er3Pa(B4Ir)4
_symmetry_space_group_name_H-M   'P 1'
_cell_length_a   3.56327500
_cell_length_b   5.98079005
_cell_length_c   11.59682602
_cell_angle_alpha   89.94884372
_cell_angle_beta   90.00000000
_cell_angle_gamma   90.00000000
_symmetry_Int_Tables_number   1
_chemical_formula_structural   Er3Pa(B4Ir)4
_chemical_formula_sum   'Er3 Pa1 B16 Ir4'
_cell_volume   247.14217629
_cell_formula_units_Z   1
loop_
 _symmetry_equiv_pos_site_id
 _symmetry_equiv_pos_as_xyz
  1  'x, y, z'
loop_
 _atom_site_type_symbol
 _atom_site_label
 _atom_site_symmetry_multiplicity
 _atom_site_fract_x
 _atom_site_fract_y
 _atom_site_fract_z
 _atom_site_occupancy
  Er  Er0  1  0.500000  0.631004  0.850860  1
  Er  Er1  1  0.500000  0.131208  0.648104  1
  Er  Er2  1  0.500000  0.868478  0.353604  1
  Pa  Pa3  1  0.500000  0.370115  0.149619  1
  B  B4  1  0.000000  0.113032  0.045165  1
  B  B5  1  0.000000  0.886160  0.952491  1
  B  B6  1  0.000000  0.387468  0.547283  1
  B  B7  1  0.000000  0.615320  0.454915  1
  B  B8  1  0.000000  0.135990  0.469800  1
  B  B9  1  0.000000  0.865744  0.532130  1
  B  B10  1  0.000000  0.365429  0.965049  1
  B  B11  1  0.000000  0.633110  0.032012  1
  B  B12  1  0.000000  0.023833  0.191768  1
  B  B13  1  0.000000  0.971363  0.808184  1
  B  B14  1  0.000000  0.474343  0.691623  1
  B  B15  1  0.000000  0.527155  0.309778  1
  B  B16  1  0.000000  0.207941  0.311896  1
  B  B17  1  0.000000  0.793718  0.687150  1
  B  B18  1  0.000000  0.296114  0.812487  1
  B  B19  1  0.000000  0.706957  0.187647  1
  Ir  Ir20  1  0.500000  0.353410  0.402454  1
  Ir  Ir21  1  0.500000  0.642958  0.596308  1
  Ir  Ir22  1  0.500000  0.142426  0.902217  1
  Ir  Ir23  1  0.500000  0.856725  0.097457  1
