# generated using pymatgen
data_Nb12AlGa2Pt5N4
_symmetry_space_group_name_H-M   'P 1'
_cell_length_a   7.06480385
_cell_length_b   7.06294952
_cell_length_c   7.06575095
_cell_angle_alpha   90.03427916
_cell_angle_beta   89.79116241
_cell_angle_gamma   89.78323203
_symmetry_Int_Tables_number   1
_chemical_formula_structural   Nb12AlGa2Pt5N4
_chemical_formula_sum   'Nb12 Al1 Ga2 Pt5 N4'
_cell_volume   352.56440352
_cell_formula_units_Z   1
loop_
 _symmetry_equiv_pos_site_id
 _symmetry_equiv_pos_as_xyz
  1  'x, y, z'
loop_
 _atom_site_type_symbol
 _atom_site_label
 _atom_site_symmetry_multiplicity
 _atom_site_fract_x
 _atom_site_fract_y
 _atom_site_fract_z
 _atom_site_occupancy
  Nb  Nb0  1  0.790535  0.958006  0.376575  1
  Nb  Nb1  1  0.708187  0.049348  0.881643  1
  Nb  Nb2  1  0.212507  0.453870  0.124734  1
  Nb  Nb3  1  0.296217  0.539960  0.628596  1
  Nb  Nb4  1  0.950451  0.381106  0.791720  1
  Nb  Nb5  1  0.041465  0.876578  0.708506  1
  Nb  Nb6  1  0.460228  0.128807  0.204264  1
  Nb  Nb7  1  0.546005  0.624735  0.288276  1
  Nb  Nb8  1  0.375319  0.787354  0.953554  1
  Nb  Nb9  1  0.871802  0.703992  0.039843  1
  Nb  Nb10  1  0.124145  0.209372  0.458807  1
  Nb  Nb11  1  0.619045  0.292263  0.549277  1
  Al  Al12  1  0.073223  0.067543  0.072673  1
  Ga  Ga13  1  0.428097  0.928244  0.565769  1
  Ga  Ga14  1  0.934282  0.571452  0.427798  1
  Pt  Pt15  1  0.178528  0.822748  0.318041  1
  Pt  Pt16  1  0.310401  0.169470  0.818800  1
  Pt  Pt17  1  0.831685  0.313680  0.186087  1
  Pt  Pt18  1  0.683882  0.687396  0.670180  1
  Pt  Pt19  1  0.566072  0.433441  0.934113  1
  N  N20  1  0.871912  0.127620  0.627124  1
  N  N21  1  0.622880  0.874136  0.122856  1
  N  N22  1  0.125582  0.622072  0.876026  1
  N  N23  1  0.377549  0.376807  0.374739  1
