# generated using pymatgen
data_Ba2Sn5Rh4
_symmetry_space_group_name_H-M   'P 1'
_cell_length_a   7.07210176
_cell_length_b   7.07210180
_cell_length_c   12.42822900
_cell_angle_alpha   90.00000000
_cell_angle_beta   90.00000000
_cell_angle_gamma   117.83769821
_symmetry_Int_Tables_number   1
_chemical_formula_structural   Ba2Sn5Rh4
_chemical_formula_sum   'Ba4 Sn10 Rh8'
_cell_volume   549.65865275
_cell_formula_units_Z   2
loop_
 _symmetry_equiv_pos_site_id
 _symmetry_equiv_pos_as_xyz
  1  'x, y, z'
loop_
 _atom_site_type_symbol
 _atom_site_label
 _atom_site_symmetry_multiplicity
 _atom_site_fract_x
 _atom_site_fract_y
 _atom_site_fract_z
 _atom_site_occupancy
  Ba  Ba0  1  0.200695  0.799305  0.500000  1
  Ba  Ba1  1  0.200695  0.799305  0.000000  1
  Ba  Ba2  1  0.799305  0.200695  0.500000  1
  Ba  Ba3  1  0.799305  0.200695  0.000000  1
  Sn  Sn4  1  0.503688  0.889396  0.250000  1
  Sn  Sn5  1  0.110604  0.496312  0.750000  1
  Sn  Sn6  1  0.496312  0.110604  0.750000  1
  Sn  Sn7  1  0.889396  0.503688  0.250000  1
  Sn  Sn8  1  0.334945  0.334945  0.428771  1
  Sn  Sn9  1  0.665055  0.665055  0.571229  1
  Sn  Sn10  1  0.334945  0.334945  0.071229  1
  Sn  Sn11  1  0.665055  0.665055  0.928771  1
  Sn  Sn12  1  0.020990  0.020990  0.250000  1
  Sn  Sn13  1  0.979010  0.979009  0.750000  1
  Rh  Rh14  1  0.473559  0.237351  0.250000  1
  Rh  Rh15  1  0.762649  0.526441  0.750000  1
  Rh  Rh16  1  0.526441  0.762649  0.750000  1
  Rh  Rh17  1  0.237351  0.473559  0.250000  1
  Rh  Rh18  1  0.691499  0.691499  0.361868  1
  Rh  Rh19  1  0.308501  0.308501  0.638132  1
  Rh  Rh20  1  0.691499  0.691499  0.138132  1
  Rh  Rh21  1  0.308501  0.308501  0.861868  1
