# generated using pymatgen
data_Dy8MnSi16W11
_symmetry_space_group_name_H-M   'P 1'
_cell_length_a   6.87340429
_cell_length_b   6.87340429
_cell_length_c   12.76044271
_cell_angle_alpha   90.05431205
_cell_angle_beta   89.94569043
_cell_angle_gamma   89.96330123
_symmetry_Int_Tables_number   1
_chemical_formula_structural   Dy8MnSi16W11
_chemical_formula_sum   'Dy8 Mn1 Si16 W11'
_cell_volume   602.84968963
_cell_formula_units_Z   1
loop_
 _symmetry_equiv_pos_site_id
 _symmetry_equiv_pos_as_xyz
  1  'x, y, z'
loop_
 _atom_site_type_symbol
 _atom_site_label
 _atom_site_symmetry_multiplicity
 _atom_site_fract_x
 _atom_site_fract_y
 _atom_site_fract_z
 _atom_site_occupancy
  Dy  Dy0  1  0.002496  0.661742  0.031614  1
  Dy  Dy1  1  0.998217  0.337217  0.531140  1
  Dy  Dy2  1  0.661742  0.002496  0.968386  1
  Dy  Dy3  1  0.163062  0.498828  0.781941  1
  Dy  Dy4  1  0.837888  0.501149  0.279683  1
  Dy  Dy5  1  0.498828  0.163062  0.218059  1
  Dy  Dy6  1  0.501149  0.837888  0.720317  1
  Dy  Dy7  1  0.337217  0.998217  0.468860  1
  Mn  Mn8  1  0.331400  0.331400  0.000000  1
  Si  Si9  1  0.035871  0.712009  0.436067  1
  Si  Si10  1  0.967904  0.287642  0.937734  1
  Si  Si11  1  0.712009  0.035871  0.563933  1
  Si  Si12  1  0.213772  0.459491  0.181640  1
  Si  Si13  1  0.789581  0.536946  0.686325  1
  Si  Si14  1  0.459491  0.213772  0.818360  1
  Si  Si15  1  0.536946  0.789581  0.313675  1
  Si  Si16  1  0.287642  0.967904  0.062266  1
  Si  Si17  1  0.798606  0.874204  0.183173  1
  Si  Si18  1  0.298872  0.625514  0.566501  1
  Si  Si19  1  0.695721  0.374682  0.063896  1
  Si  Si20  1  0.625514  0.298872  0.433499  1
  Si  Si21  1  0.374682  0.695721  0.936104  1
  Si  Si22  1  0.126439  0.202961  0.315087  1
  Si  Si23  1  0.202961  0.126439  0.684913  1
  Si  Si24  1  0.874204  0.798606  0.816827  1
  W  W25  1  0.335150  0.500872  0.374482  1
  W  W26  1  0.836053  0.001525  0.372899  1
  W  W27  1  0.997159  0.164868  0.125575  1
  W  W28  1  0.001525  0.836053  0.627101  1
  W  W29  1  0.500872  0.335150  0.625518  1
  W  W30  1  0.164868  0.997159  0.874425  1
  W  W31  1  0.667578  0.667578  0.500000  1
  W  W32  1  0.832447  0.166781  0.749928  1
  W  W33  1  0.166781  0.832447  0.250072  1
  W  W34  1  0.500591  0.664760  0.124061  1
  W  W35  1  0.664760  0.500591  0.875939  1
