# generated using pymatgen
data_SrNiSb12Os2Ru
_symmetry_space_group_name_H-M   'P 1'
_cell_length_a   8.17934873
_cell_length_b   8.12773274
_cell_length_c   8.11698531
_cell_angle_alpha   109.33277369
_cell_angle_beta   109.59691422
_cell_angle_gamma   109.59936903
_symmetry_Int_Tables_number   1
_chemical_formula_structural   SrNiSb12Os2Ru
_chemical_formula_sum   'Sr1 Ni1 Sb12 Os2 Ru1'
_cell_volume   414.79990258
_cell_formula_units_Z   1
loop_
 _symmetry_equiv_pos_site_id
 _symmetry_equiv_pos_as_xyz
  1  'x, y, z'
loop_
 _atom_site_type_symbol
 _atom_site_label
 _atom_site_symmetry_multiplicity
 _atom_site_fract_x
 _atom_site_fract_y
 _atom_site_fract_z
 _atom_site_occupancy
  Sr  Sr0  1  0.000000  0.000000  0.000000  1
  Ni  Ni1  1  0.500000  0.000000  0.000000  1
  Sb  Sb2  1  0.840150  0.658958  0.501663  1
  Sb  Sb3  1  0.159850  0.341042  0.498337  1
  Sb  Sb4  1  0.159134  0.660884  0.816251  1
  Sb  Sb5  1  0.840866  0.339116  0.183749  1
  Sb  Sb6  1  0.660567  0.501885  0.841757  1
  Sb  Sb7  1  0.339433  0.498115  0.158243  1
  Sb  Sb8  1  0.656993  0.816422  0.155428  1
  Sb  Sb9  1  0.343007  0.183578  0.844572  1
  Sb  Sb10  1  0.502317  0.843538  0.661355  1
  Sb  Sb11  1  0.497683  0.156462  0.338645  1
  Sb  Sb12  1  0.182772  0.842791  0.341550  1
  Sb  Sb13  1  0.817228  0.157209  0.658450  1
  Os  Os14  1  0.000000  0.500000  0.000000  1
  Os  Os15  1  0.000000  0.000000  0.500000  1
  Ru  Ru16  1  0.500000  0.500000  0.500000  1
