# generated using pymatgen
data_Ce2Ho3Sn3Ge
_symmetry_space_group_name_H-M   'P 1'
_cell_length_a   6.27031500
_cell_length_b   9.43787490
_cell_length_c   9.43756808
_cell_angle_alpha   120.00107926
_cell_angle_beta   90.00000000
_cell_angle_gamma   90.00000000
_symmetry_Int_Tables_number   1
_chemical_formula_structural   Ce2Ho3Sn3Ge
_chemical_formula_sum   'Ce4 Ho6 Sn6 Ge2'
_cell_volume   483.67047944
_cell_formula_units_Z   2
loop_
 _symmetry_equiv_pos_site_id
 _symmetry_equiv_pos_as_xyz
  1  'x, y, z'
loop_
 _atom_site_type_symbol
 _atom_site_label
 _atom_site_symmetry_multiplicity
 _atom_site_fract_x
 _atom_site_fract_y
 _atom_site_fract_z
 _atom_site_occupancy
  Ce  Ce0  1  0.500025  0.333320  0.666627  1
  Ce  Ce1  1  0.500025  0.666694  0.333373  1
  Ce  Ce2  1  0.000025  0.666680  0.333373  1
  Ce  Ce3  1  0.000025  0.333306  0.666627  1
  Ho  Ho4  1  0.749967  0.255587  0.000000  1
  Ho  Ho5  1  0.749997  0.744421  0.744433  1
  Ho  Ho6  1  0.749997  0.999987  0.255567  1
  Ho  Ho7  1  0.249967  0.744413  0.000000  1
  Ho  Ho8  1  0.249997  0.255579  0.255567  1
  Ho  Ho9  1  0.249997  0.000013  0.744433  1
  Sn  Sn10  1  0.750009  0.616116  0.000000  1
  Sn  Sn11  1  0.750006  0.383859  0.383834  1
  Sn  Sn12  1  0.750006  0.000026  0.616166  1
  Sn  Sn13  1  0.250009  0.383884  0.000000  1
  Sn  Sn14  1  0.250006  0.616141  0.616166  1
  Sn  Sn15  1  0.250006  0.999974  0.383834  1
  Ge  Ge16  1  0.499968  0.999990  0.000000  1
  Ge  Ge17  1  0.999968  0.000010  0.000000  1
