# generated using pymatgen
data_NaSi(GeRh2)3
_symmetry_space_group_name_H-M   'P 1'
_cell_length_a   7.24444000
_cell_length_b   7.24443907
_cell_length_c   3.74543200
_cell_angle_alpha   90.00000000
_cell_angle_beta   90.00000000
_cell_angle_gamma   120.00000426
_symmetry_Int_Tables_number   1
_chemical_formula_structural   NaSi(GeRh2)3
_chemical_formula_sum   'Na1 Si1 Ge3 Rh6'
_cell_volume   170.23235749
_cell_formula_units_Z   1
loop_
 _symmetry_equiv_pos_site_id
 _symmetry_equiv_pos_as_xyz
  1  'x, y, z'
loop_
 _atom_site_type_symbol
 _atom_site_label
 _atom_site_symmetry_multiplicity
 _atom_site_fract_x
 _atom_site_fract_y
 _atom_site_fract_z
 _atom_site_occupancy
  Na  Na0  1  0.000000  0.000000  0.000000  1
  Si  Si1  1  0.333333  0.666667  0.000000  1
  Ge  Ge2  1  0.804474  0.195526  0.500000  1
  Ge  Ge3  1  0.391052  0.195526  0.500000  1
  Ge  Ge4  1  0.804474  0.608948  0.500000  1
  Rh  Rh5  1  0.201552  0.798448  0.500000  1
  Rh  Rh6  1  0.201552  0.403105  0.500000  1
  Rh  Rh7  1  0.531045  0.062089  0.000000  1
  Rh  Rh8  1  0.937911  0.468955  0.000000  1
  Rh  Rh9  1  0.531045  0.468955  0.000000  1
  Rh  Rh10  1  0.596895  0.798448  0.500000  1
