# generated using pymatgen
data_Ac(Ge2Rh3)2
_symmetry_space_group_name_H-M   'P 1'
_cell_length_a   7.27412900
_cell_length_b   7.27412795
_cell_length_c   3.95533600
_cell_angle_alpha   90.00000000
_cell_angle_beta   90.00000000
_cell_angle_gamma   120.00000934
_symmetry_Int_Tables_number   1
_chemical_formula_structural   Ac(Ge2Rh3)2
_chemical_formula_sum   'Ac1 Ge4 Rh6'
_cell_volume   181.24912025
_cell_formula_units_Z   1
loop_
 _symmetry_equiv_pos_site_id
 _symmetry_equiv_pos_as_xyz
  1  'x, y, z'
loop_
 _atom_site_type_symbol
 _atom_site_label
 _atom_site_symmetry_multiplicity
 _atom_site_fract_x
 _atom_site_fract_y
 _atom_site_fract_z
 _atom_site_occupancy
  Ac  Ac0  1  0.000000  0.000000  0.000000  1
  Ge  Ge1  1  0.666667  0.333333  0.000000  1
  Ge  Ge2  1  0.201692  0.403384  0.500000  1
  Ge  Ge3  1  0.596616  0.798308  0.500000  1
  Ge  Ge4  1  0.201692  0.798308  0.500000  1
  Rh  Rh5  1  0.467058  0.934115  0.000000  1
  Rh  Rh6  1  0.065885  0.532942  0.000000  1
  Rh  Rh7  1  0.467058  0.532942  0.000000  1
  Rh  Rh8  1  0.798112  0.596225  0.500000  1
  Rh  Rh9  1  0.403775  0.201888  0.500000  1
  Rh  Rh10  1  0.798112  0.201888  0.500000  1
