# generated using pymatgen
data_Tm6FeCo2Si6Rh
_symmetry_space_group_name_H-M   'P 1'
_cell_length_a   5.58822327
_cell_length_b   5.58822362
_cell_length_c   13.51021398
_cell_angle_alpha   89.86726716
_cell_angle_beta   90.13273231
_cell_angle_gamma   137.00307864
_symmetry_Int_Tables_number   1
_chemical_formula_structural   Tm6FeCo2Si6Rh
_chemical_formula_sum   'Tm6 Fe1 Co2 Si6 Rh1'
_cell_volume   287.71778735
_cell_formula_units_Z   1
loop_
 _symmetry_equiv_pos_site_id
 _symmetry_equiv_pos_as_xyz
  1  'x, y, z'
loop_
 _atom_site_type_symbol
 _atom_site_label
 _atom_site_symmetry_multiplicity
 _atom_site_fract_x
 _atom_site_fract_y
 _atom_site_fract_z
 _atom_site_occupancy
  Tm  Tm0  1  0.639416  0.360584  0.248973  1
  Tm  Tm1  1  0.360683  0.639317  0.749516  1
  Tm  Tm2  1  0.919534  0.080466  0.111737  1
  Tm  Tm3  1  0.079820  0.920180  0.890413  1
  Tm  Tm4  1  0.082765  0.917235  0.613224  1
  Tm  Tm5  1  0.919260  0.080740  0.384052  1
  Fe  Fe6  1  0.784434  0.215566  0.922213  1
  Co  Co7  1  0.213175  0.786825  0.417137  1
  Co  Co8  1  0.212228  0.787772  0.080998  1
  Si  Si9  1  0.330954  0.669046  0.248227  1
  Si  Si10  1  0.667785  0.332215  0.756469  1
  Si  Si11  1  0.619483  0.380517  0.040191  1
  Si  Si12  1  0.376115  0.623885  0.960230  1
  Si  Si13  1  0.390471  0.609529  0.534268  1
  Si  Si14  1  0.615422  0.384578  0.457256  1
  Rh  Rh15  1  0.788458  0.211542  0.585094  1
