# generated using pymatgen
data_Lu4MnRe5Tc2
_symmetry_space_group_name_H-M   'P 1'
_cell_length_a   5.31103163
_cell_length_b   5.32936883
_cell_length_c   8.82050622
_cell_angle_alpha   89.95145327
_cell_angle_beta   89.94988206
_cell_angle_gamma   120.34518264
_symmetry_Int_Tables_number   1
_chemical_formula_structural   Lu4MnRe5Tc2
_chemical_formula_sum   'Lu4 Mn1 Re5 Tc2'
_cell_volume   215.45522034
_cell_formula_units_Z   1
loop_
 _symmetry_equiv_pos_site_id
 _symmetry_equiv_pos_as_xyz
  1  'x, y, z'
loop_
 _atom_site_type_symbol
 _atom_site_label
 _atom_site_symmetry_multiplicity
 _atom_site_fract_x
 _atom_site_fract_y
 _atom_site_fract_z
 _atom_site_occupancy
  Lu  Lu0  1  0.666014  0.333119  0.063670  1
  Lu  Lu1  1  0.333908  0.667012  0.936447  1
  Lu  Lu2  1  0.333618  0.666895  0.563033  1
  Lu  Lu3  1  0.665995  0.332883  0.436712  1
  Mn  Mn4  1  0.998841  0.997648  0.499871  1
  Re  Re5  1  0.169870  0.831362  0.252588  1
  Re  Re6  1  0.661822  0.831508  0.252778  1
  Re  Re7  1  0.830293  0.660350  0.746824  1
  Re  Re8  1  0.830497  0.169578  0.747316  1
  Re  Re9  1  0.339279  0.169883  0.747202  1
  Tc  Tc10  1  0.999145  0.997911  0.000331  1
  Tc  Tc11  1  0.170719  0.341849  0.253230  1
