# generated using pymatgen
data_Tm2Ga4CoCu
_symmetry_space_group_name_H-M   'P 1'
_cell_length_a   5.41371201
_cell_length_b   5.41371167
_cell_length_c   6.64463300
_cell_angle_alpha   90.00000000
_cell_angle_beta   90.00000000
_cell_angle_gamma   135.42334919
_symmetry_Int_Tables_number   1
_chemical_formula_structural   Tm2Ga4CoCu
_chemical_formula_sum   'Tm2 Ga4 Co1 Cu1'
_cell_volume   136.68268861
_cell_formula_units_Z   1
loop_
 _symmetry_equiv_pos_site_id
 _symmetry_equiv_pos_as_xyz
  1  'x, y, z'
loop_
 _atom_site_type_symbol
 _atom_site_label
 _atom_site_symmetry_multiplicity
 _atom_site_fract_x
 _atom_site_fract_y
 _atom_site_fract_z
 _atom_site_occupancy
  Tm  Tm0  1  0.571772  0.428228  0.250000  1
  Tm  Tm1  1  0.425711  0.574289  0.750000  1
  Ga  Ga2  1  0.860828  0.139172  0.056622  1
  Ga  Ga3  1  0.139745  0.860255  0.949909  1
  Ga  Ga4  1  0.139745  0.860255  0.550091  1
  Ga  Ga5  1  0.860828  0.139172  0.443378  1
  Co  Co6  1  0.289494  0.710506  0.250000  1
  Cu  Cu7  1  0.711877  0.288123  0.750000  1
