# generated using pymatgen
data_La2Pr3Nd(RuO7)2
_symmetry_space_group_name_H-M   'P 1'
_cell_length_a   6.69314985
_cell_length_b   6.69265293
_cell_length_c   7.65925200
_cell_angle_alpha   90.00000000
_cell_angle_beta   90.00000000
_cell_angle_gamma   111.40258400
_symmetry_Int_Tables_number   1
_chemical_formula_structural   La2Pr3Nd(RuO7)2
_chemical_formula_sum   'La2 Pr3 Nd1 Ru2 O14'
_cell_volume   319.43555366
_cell_formula_units_Z   1
loop_
 _symmetry_equiv_pos_site_id
 _symmetry_equiv_pos_as_xyz
  1  'x, y, z'
loop_
 _atom_site_type_symbol
 _atom_site_label
 _atom_site_symmetry_multiplicity
 _atom_site_fract_x
 _atom_site_fract_y
 _atom_site_fract_z
 _atom_site_occupancy
  La  La0  1  0.000201  0.999900  0.499766  1
  La  La1  1  0.000201  0.999900  0.000234  1
  Pr  Pr2  1  0.470349  0.911204  0.750000  1
  Pr  Pr3  1  0.529579  0.088491  0.250000  1
  Pr  Pr4  1  0.911323  0.470436  0.750000  1
  Nd  Nd5  1  0.087267  0.528481  0.250000  1
  Ru  Ru6  1  0.500070  0.500264  0.499559  1
  Ru  Ru7  1  0.500070  0.500264  0.000441  1
  O  O8  1  0.582101  0.582013  0.750000  1
  O  O9  1  0.416597  0.418188  0.250000  1
  O  O10  1  0.841172  0.103244  0.750000  1
  O  O11  1  0.158870  0.893784  0.250000  1
  O  O12  1  0.103270  0.841158  0.750000  1
  O  O13  1  0.897791  0.161117  0.250000  1
  O  O14  1  0.443330  0.191640  0.959824  1
  O  O15  1  0.557144  0.808681  0.459654  1
  O  O16  1  0.191486  0.444270  0.961230  1
  O  O17  1  0.808609  0.556188  0.458970  1
  O  O18  1  0.443330  0.191640  0.540176  1
  O  O19  1  0.557144  0.808681  0.040346  1
  O  O20  1  0.808609  0.556188  0.041030  1
  O  O21  1  0.191486  0.444270  0.538770  1
