# generated using pymatgen
data_LaCe2Dy(SnRu)4
_symmetry_space_group_name_H-M   'P 1'
_cell_length_a   6.30645368
_cell_length_b   6.30645321
_cell_length_c   10.21267500
_cell_angle_alpha   77.82894750
_cell_angle_beta   77.82894975
_cell_angle_gamma   44.88988713
_symmetry_Int_Tables_number   1
_chemical_formula_structural   LaCe2Dy(SnRu)4
_chemical_formula_sum   'La1 Ce2 Dy1 Sn4 Ru4'
_cell_volume   279.09681745
_cell_formula_units_Z   1
loop_
 _symmetry_equiv_pos_site_id
 _symmetry_equiv_pos_as_xyz
  1  'x, y, z'
loop_
 _atom_site_type_symbol
 _atom_site_label
 _atom_site_symmetry_multiplicity
 _atom_site_fract_x
 _atom_site_fract_y
 _atom_site_fract_z
 _atom_site_occupancy
  La  La0  1  0.125435  0.125435  0.590731  1
  Ce  Ce1  1  0.859930  0.859930  0.913906  1
  Ce  Ce2  1  0.137896  0.137896  0.087198  1
  Dy  Dy3  1  0.879050  0.879050  0.403753  1
  Sn  Sn4  1  0.422237  0.422237  0.159017  1
  Sn  Sn5  1  0.406343  0.406343  0.645523  1
  Sn  Sn6  1  0.576001  0.576001  0.846378  1
  Sn  Sn7  1  0.593165  0.593165  0.349169  1
  Ru  Ru8  1  0.816126  0.816126  0.150542  1
  Ru  Ru9  1  0.193900  0.193900  0.306903  1
  Ru  Ru10  1  0.184727  0.184727  0.850452  1
  Ru  Ru11  1  0.805190  0.805190  0.696428  1
