# generated using pymatgen
data_Hf3(Sc2Os)4
_symmetry_space_group_name_H-M   'P 1'
_cell_length_a   9.42234977
_cell_length_b   9.46463398
_cell_length_c   9.46452690
_cell_angle_alpha   60.34005140
_cell_angle_beta   60.14718087
_cell_angle_gamma   60.14637692
_symmetry_Int_Tables_number   1
_chemical_formula_structural   Hf3(Sc2Os)4
_chemical_formula_sum   'Hf6 Sc16 Os8'
_cell_volume   599.67447352
_cell_formula_units_Z   2
loop_
 _symmetry_equiv_pos_site_id
 _symmetry_equiv_pos_as_xyz
  1  'x, y, z'
loop_
 _atom_site_type_symbol
 _atom_site_label
 _atom_site_symmetry_multiplicity
 _atom_site_fract_x
 _atom_site_fract_y
 _atom_site_fract_z
 _atom_site_occupancy
  Hf  Hf0  1  0.842162  0.841917  0.841925  1
  Hf  Hf1  1  0.525992  0.158082  0.158079  1
  Hf  Hf2  1  0.159613  0.157077  0.525841  1
  Hf  Hf3  1  0.159626  0.525836  0.157070  1
  Hf  Hf4  1  0.842523  0.842926  0.474167  1
  Hf  Hf5  1  0.842519  0.474166  0.842929  1
  Sc  Sc6  1  0.469782  0.844411  0.844420  1
  Sc  Sc7  1  0.158608  0.155574  0.155580  1
  Sc  Sc8  1  0.196992  0.802180  0.197812  1
  Sc  Sc9  1  0.197764  0.801365  0.801368  1
  Sc  Sc10  1  0.800484  0.198627  0.198647  1
  Sc  Sc11  1  0.800071  0.801287  0.198700  1
  Sc  Sc12  1  0.197000  0.197812  0.802179  1
  Sc  Sc13  1  0.800057  0.198714  0.801290  1
  Sc  Sc14  1  0.383861  0.382942  0.382931  1
  Sc  Sc15  1  0.149739  0.617058  0.617071  1
  Sc  Sc16  1  0.616046  0.148505  0.618324  1
  Sc  Sc17  1  0.616048  0.618329  0.148508  1
  Sc  Sc18  1  0.382871  0.851503  0.381676  1
  Sc  Sc19  1  0.382880  0.381672  0.851499  1
  Sc  Sc20  1  0.852765  0.381983  0.381971  1
  Sc  Sc21  1  0.616727  0.618017  0.618014  1
  Os  Os22  1  0.500831  0.495509  0.002244  1
  Os  Os23  1  0.998582  0.997761  0.504484  1
  Os  Os24  1  0.500823  0.002246  0.495518  1
  Os  Os25  1  0.000753  0.500003  0.499999  1
  Os  Os26  1  0.506613  0.000005  0.999998  1
  Os  Os27  1  0.998587  0.504487  0.997754  1
  Os  Os28  1  0.501498  0.499999  0.500002  1
  Os  Os29  1  0.998183  0.000005  0.000001  1
