# generated using pymatgen
data_DyY(Al3Pt)6
_symmetry_space_group_name_H-M   'P 1'
_cell_length_a   10.41847807
_cell_length_b   10.41847786
_cell_length_c   10.41847900
_cell_angle_alpha   42.21991769
_cell_angle_beta   42.21991897
_cell_angle_gamma   42.21991827
_symmetry_Int_Tables_number   1
_chemical_formula_structural   DyY(Al3Pt)6
_chemical_formula_sum   'Dy1 Y1 Al18 Pt6'
_cell_volume   462.12254409
_cell_formula_units_Z   1
loop_
 _symmetry_equiv_pos_site_id
 _symmetry_equiv_pos_as_xyz
  1  'x, y, z'
loop_
 _atom_site_type_symbol
 _atom_site_label
 _atom_site_symmetry_multiplicity
 _atom_site_fract_x
 _atom_site_fract_y
 _atom_site_fract_z
 _atom_site_occupancy
  Dy  Dy0  1  0.166859  0.166859  0.166859  1
  Y  Y1  1  0.833147  0.833147  0.833147  1
  Al  Al2  1  0.107872  0.436042  0.764832  1
  Al  Al3  1  0.436042  0.764832  0.107872  1
  Al  Al4  1  0.563921  0.892142  0.235202  1
  Al  Al5  1  0.949632  0.949632  0.949632  1
  Al  Al6  1  0.050360  0.050360  0.050360  1
  Al  Al7  1  0.295957  0.704046  0.499987  1
  Al  Al8  1  0.892142  0.235202  0.563921  1
  Al  Al9  1  0.385139  0.385139  0.385139  1
  Al  Al10  1  0.499987  0.295957  0.704046  1
  Al  Al11  1  0.235202  0.563921  0.892142  1
  Al  Al12  1  0.716568  0.716568  0.716568  1
  Al  Al13  1  0.614881  0.614881  0.614881  1
  Al  Al14  1  0.334046  0.999997  0.665956  1
  Al  Al15  1  0.704046  0.499987  0.295957  1
  Al  Al16  1  0.665956  0.334046  0.999997  1
  Al  Al17  1  0.283413  0.283413  0.283413  1
  Al  Al18  1  0.999997  0.665956  0.334046  1
  Al  Al19  1  0.764832  0.107872  0.436042  1
  Pt  Pt20  1  0.418906  0.077181  0.760304  1
  Pt  Pt21  1  0.581119  0.239701  0.922789  1
  Pt  Pt22  1  0.077181  0.760304  0.418906  1
  Pt  Pt23  1  0.760304  0.418906  0.077181  1
  Pt  Pt24  1  0.922789  0.581119  0.239701  1
  Pt  Pt25  1  0.239701  0.922789  0.581119  1
