# generated using pymatgen
data_Ho8Ti3Si16Mo7W2
_symmetry_space_group_name_H-M   'P 1'
_cell_length_a   6.90165503
_cell_length_b   6.90081405
_cell_length_c   12.78635845
_cell_angle_alpha   89.99386833
_cell_angle_beta   90.04007892
_cell_angle_gamma   89.81937356
_symmetry_Int_Tables_number   1
_chemical_formula_structural   Ho8Ti3Si16Mo7W2
_chemical_formula_sum   'Ho8 Ti3 Si16 Mo7 W2'
_cell_volume   608.97320061
_cell_formula_units_Z   1
loop_
 _symmetry_equiv_pos_site_id
 _symmetry_equiv_pos_as_xyz
  1  'x, y, z'
loop_
 _atom_site_type_symbol
 _atom_site_label
 _atom_site_symmetry_multiplicity
 _atom_site_fract_x
 _atom_site_fract_y
 _atom_site_fract_z
 _atom_site_occupancy
  Ho  Ho0  1  0.339736  0.001887  0.468671  1
  Ho  Ho1  1  0.496522  0.838905  0.719148  1
  Ho  Ho2  1  0.499347  0.161248  0.217321  1
  Ho  Ho3  1  0.838827  0.496965  0.280817  1
  Ho  Ho4  1  0.161319  0.499373  0.782608  1
  Ho  Ho5  1  0.659232  0.999509  0.968929  1
  Ho  Ho6  1  0.001859  0.339642  0.531286  1
  Ho  Ho7  1  0.999548  0.659281  0.031162  1
  Ti  Ti8  1  0.170638  0.831516  0.248530  1
  Ti  Ti9  1  0.831637  0.170230  0.751325  1
  Ti  Ti10  1  0.669373  0.669222  0.500152  1
  Si  Si11  1  0.200035  0.129617  0.683257  1
  Si  Si12  1  0.372986  0.697608  0.933860  1
  Si  Si13  1  0.629085  0.299276  0.433603  1
  Si  Si14  1  0.697560  0.372962  0.066182  1
  Si  Si15  1  0.299001  0.629085  0.566516  1
  Si  Si16  1  0.797278  0.871755  0.184129  1
  Si  Si17  1  0.129390  0.200076  0.316500  1
  Si  Si18  1  0.871835  0.797294  0.815885  1
  Si  Si19  1  0.288513  0.963459  0.062081  1
  Si  Si20  1  0.540311  0.791110  0.313847  1
  Si  Si21  1  0.458827  0.209902  0.814666  1
  Si  Si22  1  0.791088  0.540336  0.686183  1
  Si  Si23  1  0.210091  0.458568  0.185422  1
  Si  Si24  1  0.709601  0.041210  0.563873  1
  Si  Si25  1  0.963438  0.288404  0.937924  1
  Si  Si26  1  0.041180  0.710073  0.436084  1
  Mo  Mo27  1  0.156985  0.002405  0.873277  1
  Mo  Mo28  1  0.494659  0.664791  0.125010  1
  Mo  Mo29  1  0.505834  0.340623  0.624692  1
  Mo  Mo30  1  0.664795  0.494901  0.874858  1
  Mo  Mo31  1  0.340744  0.506053  0.375456  1
  Mo  Mo32  1  0.840876  0.993720  0.374245  1
  Mo  Mo33  1  0.002515  0.156838  0.126704  1
  W  W34  1  0.331580  0.331492  0.000053  1
  W  W35  1  0.993754  0.840664  0.625745  1
