# generated using pymatgen
data_Be8VTc2Mo
_symmetry_space_group_name_H-M   'P 1'
_cell_length_a   4.36972100
_cell_length_b   4.36972178
_cell_length_c   7.16640400
_cell_angle_alpha   90.00000000
_cell_angle_beta   90.00000000
_cell_angle_gamma   120.00000170
_symmetry_Int_Tables_number   1
_chemical_formula_structural   Be8VTc2Mo
_chemical_formula_sum   'Be8 V1 Tc2 Mo1'
_cell_volume   118.50574543
_cell_formula_units_Z   1
loop_
 _symmetry_equiv_pos_site_id
 _symmetry_equiv_pos_as_xyz
  1  'x, y, z'
loop_
 _atom_site_type_symbol
 _atom_site_label
 _atom_site_symmetry_multiplicity
 _atom_site_fract_x
 _atom_site_fract_y
 _atom_site_fract_z
 _atom_site_occupancy
  Be  Be0  1  0.000000  0.000000  0.000580  1
  Be  Be1  1  0.000000  0.000000  0.498167  1
  Be  Be2  1  0.830557  0.661113  0.252419  1
  Be  Be3  1  0.169135  0.830865  0.747357  1
  Be  Be4  1  0.661728  0.830865  0.747357  1
  Be  Be5  1  0.338887  0.169443  0.252419  1
  Be  Be6  1  0.830557  0.169443  0.252419  1
  Be  Be7  1  0.169135  0.338272  0.747357  1
  V  V8  1  0.333333  0.666667  0.436114  1
  Tc  Tc9  1  0.333333  0.666667  0.065692  1
  Tc  Tc10  1  0.666667  0.333333  0.561775  1
  Mo  Mo11  1  0.666667  0.333333  0.938341  1
