# generated using pymatgen
data_Zr5Np(B2Ru5)2
_symmetry_space_group_name_H-M   'P 1'
_cell_length_a   9.57612900
_cell_length_b   9.57612900
_cell_length_c   3.16211000
_cell_angle_alpha   90.00000000
_cell_angle_beta   90.00000000
_cell_angle_gamma   90.00000000
_symmetry_Int_Tables_number   1
_chemical_formula_structural   Zr5Np(B2Ru5)2
_chemical_formula_sum   'Zr5 Np1 B4 Ru10'
_cell_volume   289.97259107
_cell_formula_units_Z   1
loop_
 _symmetry_equiv_pos_site_id
 _symmetry_equiv_pos_as_xyz
  1  'x, y, z'
loop_
 _atom_site_type_symbol
 _atom_site_label
 _atom_site_symmetry_multiplicity
 _atom_site_fract_x
 _atom_site_fract_y
 _atom_site_fract_z
 _atom_site_occupancy
  Zr  Zr0  1  0.821519  0.669041  0.000000  1
  Zr  Zr1  1  0.178481  0.330959  0.000000  1
  Zr  Zr2  1  0.330959  0.821519  0.000000  1
  Zr  Zr3  1  0.669041  0.178481  0.000000  1
  Zr  Zr4  1  0.500000  0.500000  0.000000  1
  Np  Np5  1  0.000000  0.000000  0.000000  1
  B  B6  1  0.619914  0.877474  0.000000  1
  B  B7  1  0.380086  0.122526  0.000000  1
  B  B8  1  0.122526  0.619914  0.000000  1
  B  B9  1  0.877474  0.380086  0.000000  1
  Ru  Ru10  1  0.576966  0.721842  0.500000  1
  Ru  Ru11  1  0.423034  0.278158  0.500000  1
  Ru  Ru12  1  0.067746  0.780869  0.500000  1
  Ru  Ru13  1  0.932254  0.219131  0.500000  1
  Ru  Ru14  1  0.278158  0.576966  0.500000  1
  Ru  Ru15  1  0.721842  0.423034  0.500000  1
  Ru  Ru16  1  0.219131  0.067746  0.500000  1
  Ru  Ru17  1  0.780869  0.932254  0.500000  1
  Ru  Ru18  1  0.500000  0.000000  0.500000  1
  Ru  Ru19  1  0.000000  0.500000  0.500000  1
