# generated using pymatgen
data_Tb3Y12ThTl2(CdPt2)2
_symmetry_space_group_name_H-M   'P 1'
_cell_length_a   9.76055540
_cell_length_b   9.76055659
_cell_length_c   9.76055700
_cell_angle_alpha   59.98301425
_cell_angle_beta   59.98301700
_cell_angle_gamma   59.98301936
_symmetry_Int_Tables_number   1
_chemical_formula_structural   Tb3Y12ThTl2(CdPt2)2
_chemical_formula_sum   'Tb3 Y12 Th1 Tl2 Cd2 Pt4'
_cell_volume   657.26641823
_cell_formula_units_Z   1
loop_
 _symmetry_equiv_pos_site_id
 _symmetry_equiv_pos_as_xyz
  1  'x, y, z'
loop_
 _atom_site_type_symbol
 _atom_site_label
 _atom_site_symmetry_multiplicity
 _atom_site_fract_x
 _atom_site_fract_y
 _atom_site_fract_z
 _atom_site_occupancy
  Tb  Tb0  1  0.353071  0.353071  0.941337  1
  Tb  Tb1  1  0.351957  0.941060  0.353195  1
  Tb  Tb2  1  0.941060  0.351957  0.353195  1
  Y  Y3  1  0.811877  0.189337  0.189667  1
  Y  Y4  1  0.191846  0.809419  0.809830  1
  Y  Y5  1  0.189337  0.811877  0.189667  1
  Y  Y6  1  0.809419  0.191846  0.809830  1
  Y  Y7  1  0.188751  0.188751  0.813086  1
  Y  Y8  1  0.809258  0.809258  0.192282  1
  Y  Y9  1  0.938098  0.565755  0.564504  1
  Y  Y10  1  0.563250  0.939192  0.936008  1
  Y  Y11  1  0.565755  0.938098  0.564504  1
  Y  Y12  1  0.939192  0.563250  0.936008  1
  Y  Y13  1  0.564353  0.564353  0.935478  1
  Y  Y14  1  0.937520  0.937520  0.563049  1
  Th  Th15  1  0.348784  0.348784  0.350025  1
  Tl  Tl16  1  0.585176  0.585176  0.588296  1
  Tl  Tl17  1  0.584475  0.584475  0.244273  1
  Cd  Cd18  1  0.581700  0.249122  0.584131  1
  Cd  Cd19  1  0.249122  0.581700  0.584131  1
  Pt  Pt20  1  0.143538  0.143538  0.143597  1
  Pt  Pt21  1  0.141098  0.141098  0.570659  1
  Pt  Pt22  1  0.141562  0.569806  0.141626  1
  Pt  Pt23  1  0.569806  0.141562  0.141626  1
