# generated using pymatgen
data_Ce2Ho5Er(Si3Rh)4
_symmetry_space_group_name_H-M   'P 1'
_cell_length_a   8.16813200
_cell_length_b   8.16842661
_cell_length_c   7.98073700
_cell_angle_alpha   90.00000000
_cell_angle_beta   90.00000000
_cell_angle_gamma   119.99880692
_symmetry_Int_Tables_number   1
_chemical_formula_structural   Ce2Ho5Er(Si3Rh)4
_chemical_formula_sum   'Ce2 Ho5 Er1 Si12 Rh4'
_cell_volume   461.14766185
_cell_formula_units_Z   1
loop_
 _symmetry_equiv_pos_site_id
 _symmetry_equiv_pos_as_xyz
  1  'x, y, z'
loop_
 _atom_site_type_symbol
 _atom_site_label
 _atom_site_symmetry_multiplicity
 _atom_site_fract_x
 _atom_site_fract_y
 _atom_site_fract_z
 _atom_site_occupancy
  Ce  Ce0  1  0.000011  0.000021  0.250000  1
  Ce  Ce1  1  0.000008  0.000017  0.750000  1
  Ho  Ho2  1  0.493368  0.506648  0.250000  1
  Ho  Ho3  1  0.493372  0.986743  0.250000  1
  Ho  Ho4  1  0.013281  0.506648  0.250000  1
  Ho  Ho5  1  0.506631  0.493274  0.750000  1
  Ho  Ho6  1  0.986641  0.493274  0.750000  1
  Er  Er7  1  0.506610  0.013222  0.750000  1
  Si  Si8  1  0.832573  0.167083  0.502633  1
  Si  Si9  1  0.832749  0.665499  0.502464  1
  Si  Si10  1  0.334509  0.167083  0.502633  1
  Si  Si11  1  0.832573  0.167083  0.997367  1
  Si  Si12  1  0.832749  0.665499  0.997536  1
  Si  Si13  1  0.334509  0.167083  0.997367  1
  Si  Si14  1  0.167386  0.832877  0.002365  1
  Si  Si15  1  0.665492  0.832877  0.002365  1
  Si  Si16  1  0.167275  0.334549  0.002402  1
  Si  Si17  1  0.167386  0.832877  0.497635  1
  Si  Si18  1  0.665492  0.832877  0.497635  1
  Si  Si19  1  0.167275  0.334549  0.497598  1
  Rh  Rh20  1  0.666581  0.333161  0.472867  1
  Rh  Rh21  1  0.666581  0.333161  0.027133  1
  Rh  Rh22  1  0.333474  0.666948  0.972183  1
  Rh  Rh23  1  0.333474  0.666948  0.527817  1
