# generated using pymatgen
data_Lu10Tc3AgTe4
_symmetry_space_group_name_H-M   'P 1'
_cell_length_a   8.79622787
_cell_length_b   8.79622904
_cell_length_c   7.55037966
_cell_angle_alpha   88.46089340
_cell_angle_beta   88.46089530
_cell_angle_gamma   128.60893977
_symmetry_Int_Tables_number   1
_chemical_formula_structural   Lu10Tc3AgTe4
_chemical_formula_sum   'Lu10 Tc3 Ag1 Te4'
_cell_volume   455.63090641
_cell_formula_units_Z   1
loop_
 _symmetry_equiv_pos_site_id
 _symmetry_equiv_pos_as_xyz
  1  'x, y, z'
loop_
 _atom_site_type_symbol
 _atom_site_label
 _atom_site_symmetry_multiplicity
 _atom_site_fract_x
 _atom_site_fract_y
 _atom_site_fract_z
 _atom_site_occupancy
  Lu  Lu0  1  0.000556  0.000556  0.999116  1
  Lu  Lu1  1  0.500197  0.500197  0.504328  1
  Lu  Lu2  1  0.761796  0.527116  0.145315  1
  Lu  Lu3  1  0.445237  0.194912  0.826275  1
  Lu  Lu4  1  0.963206  0.722084  0.680494  1
  Lu  Lu5  1  0.310212  0.065823  0.337227  1
  Lu  Lu6  1  0.194912  0.445237  0.826275  1
  Lu  Lu7  1  0.527116  0.761796  0.145315  1
  Lu  Lu8  1  0.065823  0.310212  0.337227  1
  Lu  Lu9  1  0.722084  0.963206  0.680494  1
  Tc  Tc10  1  0.134608  0.134608  0.629670  1
  Tc  Tc11  1  0.614619  0.614619  0.870152  1
  Tc  Tc12  1  0.366529  0.366529  0.108765  1
  Ag  Ag13  1  0.875993  0.875993  0.372754  1
  Te  Te14  1  0.194568  0.768937  0.014649  1
  Te  Te15  1  0.738967  0.314640  0.503647  1
  Te  Te16  1  0.768937  0.194568  0.014649  1
  Te  Te17  1  0.314640  0.738967  0.503647  1
