# generated using pymatgen
data_Tb16In4IrPt3
_symmetry_space_group_name_H-M   'P 1'
_cell_length_a   9.76150138
_cell_length_b   9.77726839
_cell_length_c   9.76150100
_cell_angle_alpha   60.05332859
_cell_angle_beta   59.99999791
_cell_angle_gamma   60.05332733
_symmetry_Int_Tables_number   1
_chemical_formula_structural   Tb16In4IrPt3
_chemical_formula_sum   'Tb16 In4 Ir1 Pt3'
_cell_volume   659.30345177
_cell_formula_units_Z   1
loop_
 _symmetry_equiv_pos_site_id
 _symmetry_equiv_pos_as_xyz
  1  'x, y, z'
loop_
 _atom_site_type_symbol
 _atom_site_label
 _atom_site_symmetry_multiplicity
 _atom_site_fract_x
 _atom_site_fract_y
 _atom_site_fract_z
 _atom_site_occupancy
  Tb  Tb0  1  0.100416  0.698753  0.100416  1
  Tb  Tb1  1  0.941265  0.940837  0.558949  1
  Tb  Tb2  1  0.940273  0.556433  0.940273  1
  Tb  Tb3  1  0.311579  0.688756  0.311579  1
  Tb  Tb4  1  0.940273  0.556433  0.563021  1
  Tb  Tb5  1  0.309649  0.312340  0.689006  1
  Tb  Tb6  1  0.098137  0.102658  0.098137  1
  Tb  Tb7  1  0.563021  0.556433  0.940273  1
  Tb  Tb8  1  0.098137  0.102658  0.701069  1
  Tb  Tb9  1  0.689006  0.312340  0.689006  1
  Tb  Tb10  1  0.688085  0.688756  0.311579  1
  Tb  Tb11  1  0.689006  0.312340  0.309649  1
  Tb  Tb12  1  0.311579  0.688756  0.688085  1
  Tb  Tb13  1  0.558949  0.940837  0.558949  1
  Tb  Tb14  1  0.701069  0.102658  0.098137  1
  Tb  Tb15  1  0.558949  0.940837  0.941265  1
  In  In16  1  0.332700  0.332931  0.332700  1
  In  In17  1  0.001668  0.332931  0.332700  1
  In  In18  1  0.333168  0.000495  0.333168  1
  In  In19  1  0.332700  0.332931  0.001668  1
  Ir  Ir20  1  0.892433  0.322702  0.892433  1
  Pt  Pt21  1  0.892663  0.892062  0.892663  1
  Pt  Pt22  1  0.892663  0.892062  0.322612  1
  Pt  Pt23  1  0.322612  0.892062  0.892663  1
