# generated using pymatgen
data_Ba16Sr4Si11As
_symmetry_space_group_name_H-M   'P 1'
_cell_length_a   8.38052000
_cell_length_b   8.38052000
_cell_length_c   16.73023800
_cell_angle_alpha   90.00000000
_cell_angle_beta   90.00000000
_cell_angle_gamma   90.00000000
_symmetry_Int_Tables_number   1
_chemical_formula_structural   Ba16Sr4Si11As
_chemical_formula_sum   'Ba16 Sr4 Si11 As1'
_cell_volume   1175.01673730
_cell_formula_units_Z   1
loop_
 _symmetry_equiv_pos_site_id
 _symmetry_equiv_pos_as_xyz
  1  'x, y, z'
loop_
 _atom_site_type_symbol
 _atom_site_label
 _atom_site_symmetry_multiplicity
 _atom_site_fract_x
 _atom_site_fract_y
 _atom_site_fract_z
 _atom_site_occupancy
  Ba  Ba0  1  0.305851  0.672295  0.108887  1
  Ba  Ba1  1  0.172295  0.194149  0.108887  1
  Ba  Ba2  1  0.328249  0.695059  0.390627  1
  Ba  Ba3  1  0.672493  0.694199  0.891028  1
  Ba  Ba4  1  0.195059  0.171751  0.390627  1
  Ba  Ba5  1  0.671751  0.304941  0.390627  1
  Ba  Ba6  1  0.172344  0.805750  0.609439  1
  Ba  Ba7  1  0.327507  0.305801  0.891028  1
  Ba  Ba8  1  0.194199  0.827507  0.891028  1
  Ba  Ba9  1  0.827656  0.194250  0.609439  1
  Ba  Ba10  1  0.305750  0.327656  0.609439  1
  Ba  Ba11  1  0.804941  0.828249  0.390627  1
  Ba  Ba12  1  0.805801  0.172493  0.891028  1
  Ba  Ba13  1  0.827705  0.805851  0.108887  1
  Ba  Ba14  1  0.694149  0.327705  0.108887  1
  Ba  Ba15  1  0.694250  0.672344  0.609439  1
  Sr  Sr16  1  0.500000  0.000000  0.726288  1
  Sr  Sr17  1  0.500000  0.000000  0.227065  1
  Sr  Sr18  1  0.000000  0.500000  0.276344  1
  Sr  Sr19  1  0.000000  0.500000  0.771296  1
  Si  Si20  1  0.104648  0.104815  0.751329  1
  Si  Si21  1  0.395185  0.604648  0.751329  1
  Si  Si22  1  0.604510  0.604704  0.248953  1
  Si  Si23  1  0.500000  0.000000  0.015696  1
  Si  Si24  1  0.104704  0.895490  0.248953  1
  Si  Si25  1  0.604815  0.395352  0.751329  1
  Si  Si26  1  0.895352  0.895185  0.751329  1
  Si  Si27  1  0.395490  0.395296  0.248953  1
  Si  Si28  1  0.895296  0.104510  0.248953  1
  Si  Si29  1  0.500000  0.000000  0.515722  1
  Si  Si30  1  0.000000  0.500000  0.484716  1
  As  As31  1  0.000000  0.500000  0.981827  1
