# generated using pymatgen
data_Nb13Ni8W3C4
_symmetry_space_group_name_H-M   'P 1'
_cell_length_a   8.25057924
_cell_length_b   8.25057880
_cell_length_c   8.22450070
_cell_angle_alpha   59.89505002
_cell_angle_beta   59.89505384
_cell_angle_gamma   59.99999622
_symmetry_Int_Tables_number   1
_chemical_formula_structural   Nb13Ni8W3C4
_chemical_formula_sum   'Nb13 Ni8 W3 C4'
_cell_volume   395.25069955
_cell_formula_units_Z   1
loop_
 _symmetry_equiv_pos_site_id
 _symmetry_equiv_pos_as_xyz
  1  'x, y, z'
loop_
 _atom_site_type_symbol
 _atom_site_label
 _atom_site_symmetry_multiplicity
 _atom_site_fract_x
 _atom_site_fract_y
 _atom_site_fract_z
 _atom_site_occupancy
  Nb  Nb0  1  0.435377  0.066173  0.063072  1
  Nb  Nb1  1  0.062483  0.437458  0.437577  1
  Nb  Nb2  1  0.066173  0.435377  0.063072  1
  Nb  Nb3  1  0.062483  0.062483  0.437577  1
  Nb  Nb4  1  0.437458  0.062483  0.437577  1
  Nb  Nb5  1  0.435377  0.435377  0.063072  1
  Nb  Nb6  1  0.183827  0.814623  0.186928  1
  Nb  Nb7  1  0.812542  0.187517  0.812423  1
  Nb  Nb8  1  0.814623  0.183827  0.186928  1
  Nb  Nb9  1  0.187517  0.187517  0.812423  1
  Nb  Nb10  1  0.187517  0.812542  0.812423  1
  Nb  Nb11  1  0.814623  0.814623  0.186928  1
  Nb  Nb12  1  0.625000  0.625000  0.125000  1
  Ni  Ni13  1  0.830884  0.830884  0.825621  1
  Ni  Ni14  1  0.828192  0.828192  0.515423  1
  Ni  Ni15  1  0.512609  0.830884  0.825621  1
  Ni  Ni16  1  0.830884  0.512609  0.825621  1
  Ni  Ni17  1  0.419116  0.419116  0.424379  1
  Ni  Ni18  1  0.421808  0.421808  0.734577  1
  Ni  Ni19  1  0.419116  0.737391  0.424379  1
  Ni  Ni20  1  0.737391  0.419116  0.424379  1
  W  W21  1  0.625000  0.625000  0.625000  1
  W  W22  1  0.125000  0.625000  0.625000  1
  W  W23  1  0.625000  0.125000  0.625000  1
  C  C24  1  0.125000  0.125000  0.125000  1
  C  C25  1  0.125000  0.125000  0.625000  1
  C  C26  1  0.625000  0.125000  0.125000  1
  C  C27  1  0.125000  0.625000  0.125000  1
