# generated using pymatgen
data_Gd7Dy13Pb16
_symmetry_space_group_name_H-M   'P 1'
_cell_length_a   8.14424659
_cell_length_b   8.21040440
_cell_length_c   15.53526000
_cell_angle_alpha   90.00993031
_cell_angle_beta   89.61844023
_cell_angle_gamma   90.18609347
_symmetry_Int_Tables_number   1
_chemical_formula_structural   Gd7Dy13Pb16
_chemical_formula_sum   'Gd7 Dy13 Pb16'
_cell_volume   1038.77637430
_cell_formula_units_Z   1
loop_
 _symmetry_equiv_pos_site_id
 _symmetry_equiv_pos_as_xyz
  1  'x, y, z'
loop_
 _atom_site_type_symbol
 _atom_site_label
 _atom_site_symmetry_multiplicity
 _atom_site_fract_x
 _atom_site_fract_y
 _atom_site_fract_z
 _atom_site_occupancy
  Gd  Gd0  1  0.520393  0.321540  0.403648  1
  Gd  Gd1  1  0.477745  0.678724  0.904242  1
  Gd  Gd2  1  0.980055  0.821984  0.595084  1
  Gd  Gd3  1  0.977617  0.822986  0.904298  1
  Gd  Gd4  1  0.480089  0.678125  0.595482  1
  Gd  Gd5  1  0.521685  0.321417  0.096048  1
  Gd  Gd6  1  0.018858  0.177710  0.404725  1
  Dy  Dy7  1  0.865365  0.658101  0.121831  1
  Dy  Dy8  1  0.361922  0.841143  0.377393  1
  Dy  Dy9  1  0.633835  0.157815  0.879179  1
  Dy  Dy10  1  0.137483  0.341382  0.622913  1
  Dy  Dy11  1  0.133386  0.341941  0.878114  1
  Dy  Dy12  1  0.637199  0.158541  0.622216  1
  Dy  Dy13  1  0.366821  0.841951  0.121137  1
  Dy  Dy14  1  0.862964  0.657824  0.376341  1
  Dy  Dy15  1  0.025729  0.177625  0.097579  1
  Dy  Dy16  1  0.696126  0.997190  0.249584  1
  Dy  Dy17  1  0.196330  0.502760  0.249451  1
  Dy  Dy18  1  0.803516  0.497079  0.750230  1
  Dy  Dy19  1  0.303324  0.002876  0.750643  1
  Pb  Pb20  1  0.059135  0.877265  0.249117  1
  Pb  Pb21  1  0.558488  0.623514  0.249239  1
  Pb  Pb22  1  0.441386  0.376443  0.750935  1
  Pb  Pb23  1  0.940479  0.122820  0.750540  1
  Pb  Pb24  1  0.834133  0.346452  0.249081  1
  Pb  Pb25  1  0.331863  0.151790  0.249886  1
  Pb  Pb26  1  0.667215  0.848323  0.749933  1
  Pb  Pb27  1  0.166705  0.652433  0.749973  1
  Pb  Pb28  1  0.792728  0.462056  0.957332  1
  Pb  Pb29  1  0.295996  0.040257  0.542665  1
  Pb  Pb30  1  0.711185  0.964080  0.043617  1
  Pb  Pb31  1  0.203540  0.539012  0.457149  1
  Pb  Pb32  1  0.206372  0.538017  0.042690  1
  Pb  Pb33  1  0.703220  0.958090  0.457147  1
  Pb  Pb34  1  0.290473  0.040347  0.958215  1
  Pb  Pb35  1  0.796641  0.460391  0.542339  1
