# generated using pymatgen
data_Sc12Pt(RhBr8)2
_symmetry_space_group_name_H-M   'P 1'
_cell_length_a   8.91613823
_cell_length_b   11.07543491
_cell_length_c   11.70308409
_cell_angle_alpha   117.11707518
_cell_angle_beta   101.70010705
_cell_angle_gamma   101.31031662
_symmetry_Int_Tables_number   1
_chemical_formula_structural   Sc12Pt(RhBr8)2
_chemical_formula_sum   'Sc12 Pt1 Rh2 Br16'
_cell_volume   950.46789091
_cell_formula_units_Z   1
loop_
 _symmetry_equiv_pos_site_id
 _symmetry_equiv_pos_as_xyz
  1  'x, y, z'
loop_
 _atom_site_type_symbol
 _atom_site_label
 _atom_site_symmetry_multiplicity
 _atom_site_fract_x
 _atom_site_fract_y
 _atom_site_fract_z
 _atom_site_occupancy
  Sc  Sc0  1  0.083903  0.253368  0.348808  1
  Sc  Sc1  1  0.916097  0.746632  0.651192  1
  Sc  Sc2  1  0.774380  0.538209  0.317806  1
  Sc  Sc3  1  0.225620  0.461791  0.682194  1
  Sc  Sc4  1  0.286063  0.747415  0.651625  1
  Sc  Sc5  1  0.713937  0.252585  0.348375  1
  Sc  Sc6  1  0.144229  0.538060  0.318570  1
  Sc  Sc7  1  0.855771  0.461940  0.681430  1
  Sc  Sc8  1  0.400022  0.349898  0.260746  1
  Sc  Sc9  1  0.599978  0.650102  0.739254  1
  Sc  Sc10  1  0.455695  0.296439  0.521637  1
  Sc  Sc11  1  0.544305  0.703561  0.478363  1
  Pt  Pt12  1  0.000000  0.500000  0.500000  1
  Rh  Rh13  1  0.339897  0.500172  0.499435  1
  Rh  Rh14  1  0.660104  0.499828  0.500565  1
  Br  Br15  1  0.396146  0.744913  0.889641  1
  Br  Br16  1  0.603854  0.255087  0.110359  1
  Br  Br17  1  0.192177  0.974431  0.787892  1
  Br  Br18  1  0.807823  0.025569  0.212108  1
  Br  Br19  1  0.335384  0.087431  0.246557  1
  Br  Br20  1  0.664616  0.912569  0.753443  1
  Br  Br21  1  0.555535  0.437016  0.803888  1
  Br  Br22  1  0.444465  0.562984  0.196112  1
  Br  Br23  1  0.308479  0.832341  0.462402  1
  Br  Br24  1  0.691521  0.167659  0.537598  1
  Br  Br25  1  0.163564  0.166697  0.533718  1
  Br  Br26  1  0.836436  0.833303  0.466282  1
  Br  Br27  1  0.926173  0.579257  0.156236  1
  Br  Br28  1  0.073827  0.420743  0.843764  1
  Br  Br29  1  0.928321  0.743304  0.889746  1
  Br  Br30  1  0.071679  0.256696  0.110254  1
