# generated using pymatgen
data_BaAl2ZnSi
_symmetry_space_group_name_H-M   'P 1'
_cell_length_a   6.37232653
_cell_length_b   6.37232696
_cell_length_c   6.37232582
_cell_angle_alpha   139.08426786
_cell_angle_beta   139.08426937
_cell_angle_gamma   59.24638162
_symmetry_Int_Tables_number   1
_chemical_formula_structural   BaAl2ZnSi
_chemical_formula_sum   'Ba1 Al2 Zn1 Si1'
_cell_volume   109.91613718
_cell_formula_units_Z   1
loop_
 _symmetry_equiv_pos_site_id
 _symmetry_equiv_pos_as_xyz
  1  'x, y, z'
loop_
 _atom_site_type_symbol
 _atom_site_label
 _atom_site_symmetry_multiplicity
 _atom_site_fract_x
 _atom_site_fract_y
 _atom_site_fract_z
 _atom_site_occupancy
  Ba  Ba0  1  0.001758  0.001758  0.000000  1
  Al  Al1  1  0.250163  0.750163  0.500000  1
  Al  Al2  1  0.750163  0.250163  0.500000  1
  Zn  Zn3  1  0.378976  0.378976  0.000000  1
  Si  Si4  1  0.618940  0.618940  0.000000  1
