# generated using pymatgen
data_K6Si2Se6O
_symmetry_space_group_name_H-M   'P 1'
_cell_length_a   12.47998900
_cell_length_b   8.81844710
_cell_length_c   9.16523012
_cell_angle_alpha   66.99146424
_cell_angle_beta   90.00000000
_cell_angle_gamma   90.00000000
_symmetry_Int_Tables_number   1
_chemical_formula_structural   K6Si2Se6O
_chemical_formula_sum   'K12 Si4 Se12 O2'
_cell_volume   928.42815885
_cell_formula_units_Z   2
loop_
 _symmetry_equiv_pos_site_id
 _symmetry_equiv_pos_as_xyz
  1  'x, y, z'
loop_
 _atom_site_type_symbol
 _atom_site_label
 _atom_site_symmetry_multiplicity
 _atom_site_fract_x
 _atom_site_fract_y
 _atom_site_fract_z
 _atom_site_occupancy
  K  K0  1  0.329415  0.988045  0.007867  1
  K  K1  1  0.221388  0.694799  0.456090  1
  K  K2  1  0.562326  0.286293  0.225163  1
  K  K3  1  0.829415  0.511955  0.992133  1
  K  K4  1  0.437674  0.713707  0.774837  1
  K  K5  1  0.778612  0.305201  0.543910  1
  K  K6  1  0.062326  0.213707  0.774837  1
  K  K7  1  0.937674  0.786293  0.225163  1
  K  K8  1  0.278612  0.194799  0.456090  1
  K  K9  1  0.721388  0.805201  0.543910  1
  K  K10  1  0.670585  0.011955  0.992133  1
  K  K11  1  0.170585  0.488045  0.007867  1
  Si  Si12  1  0.489851  0.354527  0.679532  1
  Si  Si13  1  0.989851  0.145473  0.320468  1
  Si  Si14  1  0.510149  0.645473  0.320468  1
  Si  Si15  1  0.010149  0.854527  0.679532  1
  Se  Se16  1  0.977008  0.607860  0.660435  1
  Se  Se17  1  0.881770  0.915192  0.827058  1
  Se  Se18  1  0.818409  0.127702  0.240143  1
  Se  Se19  1  0.618230  0.415192  0.827058  1
  Se  Se20  1  0.318409  0.372298  0.759857  1
  Se  Se21  1  0.118230  0.084808  0.172942  1
  Se  Se22  1  0.477008  0.892140  0.339565  1
  Se  Se23  1  0.381770  0.584808  0.172942  1
  Se  Se24  1  0.022992  0.392140  0.339565  1
  Se  Se25  1  0.681591  0.627702  0.240143  1
  Se  Se26  1  0.522992  0.107860  0.660435  1
  Se  Se27  1  0.181591  0.872298  0.759857  1
  O  O28  1  0.500000  0.500000  0.500000  1
  O  O29  1  0.000000  0.000000  0.500000  1
