# generated using pymatgen
data_Hf18Mn2Re7Mo
_symmetry_space_group_name_H-M   'P 1'
_cell_length_a   8.58264900
_cell_length_b   8.58264869
_cell_length_c   8.52262600
_cell_angle_alpha   90.00000000
_cell_angle_beta   90.00000000
_cell_angle_gamma   119.99999733
_symmetry_Int_Tables_number   1
_chemical_formula_structural   Hf18Mn2Re7Mo
_chemical_formula_sum   'Hf18 Mn2 Re7 Mo1'
_cell_volume   543.68426245
_cell_formula_units_Z   1
loop_
 _symmetry_equiv_pos_site_id
 _symmetry_equiv_pos_as_xyz
  1  'x, y, z'
loop_
 _atom_site_type_symbol
 _atom_site_label
 _atom_site_symmetry_multiplicity
 _atom_site_fract_x
 _atom_site_fract_y
 _atom_site_fract_z
 _atom_site_occupancy
  Hf  Hf0  1  0.201168  0.798832  0.442397  1
  Hf  Hf1  1  0.201168  0.402337  0.442397  1
  Hf  Hf2  1  0.597663  0.798832  0.442397  1
  Hf  Hf3  1  0.798832  0.201168  0.557603  1
  Hf  Hf4  1  0.798832  0.597663  0.557603  1
  Hf  Hf5  1  0.402337  0.201168  0.557603  1
  Hf  Hf6  1  0.800121  0.199879  0.941981  1
  Hf  Hf7  1  0.800121  0.600240  0.941981  1
  Hf  Hf8  1  0.399760  0.199879  0.941981  1
  Hf  Hf9  1  0.199879  0.800121  0.058019  1
  Hf  Hf10  1  0.199879  0.399760  0.058019  1
  Hf  Hf11  1  0.600240  0.800121  0.058019  1
  Hf  Hf12  1  0.539836  0.460164  0.249178  1
  Hf  Hf13  1  0.539836  0.079672  0.249178  1
  Hf  Hf14  1  0.920328  0.460164  0.249178  1
  Hf  Hf15  1  0.460164  0.539836  0.750822  1
  Hf  Hf16  1  0.460164  0.920328  0.750822  1
  Hf  Hf17  1  0.079672  0.539836  0.750822  1
  Mn  Mn18  1  0.333333  0.666667  0.249744  1
  Mn  Mn19  1  0.666667  0.333333  0.750256  1
  Re  Re20  1  0.888459  0.111541  0.250681  1
  Re  Re21  1  0.888459  0.776919  0.250681  1
  Re  Re22  1  0.223081  0.111541  0.250681  1
  Re  Re23  1  0.111541  0.888459  0.749319  1
  Re  Re24  1  0.111541  0.223081  0.749319  1
  Re  Re25  1  0.776919  0.888459  0.749319  1
  Re  Re26  1  0.000000  0.000000  0.000000  1
  Mo  Mo27  1  0.000000  0.000000  0.500000  1
