# generated using pymatgen
data_LaSc(NiSn)2
_symmetry_space_group_name_H-M   'P 1'
_cell_length_a   4.48289300
_cell_length_b   7.31751623
_cell_length_c   7.73424220
_cell_angle_alpha   89.80963478
_cell_angle_beta   90.00000000
_cell_angle_gamma   90.00000000
_symmetry_Int_Tables_number   1
_chemical_formula_structural   LaSc(NiSn)2
_chemical_formula_sum   'La2 Sc2 Ni4 Sn4'
_cell_volume   253.70991431
_cell_formula_units_Z   2
loop_
 _symmetry_equiv_pos_site_id
 _symmetry_equiv_pos_as_xyz
  1  'x, y, z'
loop_
 _atom_site_type_symbol
 _atom_site_label
 _atom_site_symmetry_multiplicity
 _atom_site_fract_x
 _atom_site_fract_y
 _atom_site_fract_z
 _atom_site_occupancy
  La  La0  1  0.750000  0.999670  0.749988  1
  La  La1  1  0.250000  0.000330  0.250012  1
  Sc  Sc2  1  0.750000  0.500151  0.750569  1
  Sc  Sc3  1  0.250000  0.499849  0.249431  1
  Ni  Ni4  1  0.750000  0.672298  0.417601  1
  Ni  Ni5  1  0.250000  0.327702  0.582399  1
  Ni  Ni6  1  0.750000  0.328047  0.081765  1
  Ni  Ni7  1  0.250000  0.671953  0.918235  1
  Sn  Sn8  1  0.750000  0.712787  0.083982  1
  Sn  Sn9  1  0.250000  0.287213  0.916018  1
  Sn  Sn10  1  0.750000  0.288405  0.416451  1
  Sn  Sn11  1  0.250000  0.711595  0.583549  1
