# generated using pymatgen
data_K4Hf6CBr18
_symmetry_space_group_name_H-M   'P 1'
_cell_length_a   10.38364872
_cell_length_b   10.53100506
_cell_length_c   10.63393914
_cell_angle_alpha   118.51579615
_cell_angle_beta   100.11311269
_cell_angle_gamma   103.86188761
_symmetry_Int_Tables_number   1
_chemical_formula_structural   K4Hf6CBr18
_chemical_formula_sum   'K4 Hf6 C1 Br18'
_cell_volume   932.93615540
_cell_formula_units_Z   1
loop_
 _symmetry_equiv_pos_site_id
 _symmetry_equiv_pos_as_xyz
  1  'x, y, z'
loop_
 _atom_site_type_symbol
 _atom_site_label
 _atom_site_symmetry_multiplicity
 _atom_site_fract_x
 _atom_site_fract_y
 _atom_site_fract_z
 _atom_site_occupancy
  K  K0  1  0.184145  0.724055  0.563044  1
  K  K1  1  0.849383  0.963192  0.773867  1
  K  K2  1  0.150617  0.036808  0.226133  1
  K  K3  1  0.815855  0.275945  0.436956  1
  Hf  Hf4  1  0.355621  0.446336  0.778592  1
  Hf  Hf5  1  0.367431  0.622492  0.128602  1
  Hf  Hf6  1  0.640273  0.729854  0.043444  1
  Hf  Hf7  1  0.644379  0.553664  0.221408  1
  Hf  Hf8  1  0.359727  0.270146  0.956556  1
  Hf  Hf9  1  0.632569  0.377508  0.871398  1
  C  C10  1  0.500000  0.500000  0.000000  1
  Br  Br11  1  0.818556  0.422694  0.108488  1
  Br  Br12  1  0.514838  0.703240  0.405882  1
  Br  Br13  1  0.180811  0.982241  0.900891  1
  Br  Br14  1  0.181444  0.577306  0.891512  1
  Br  Br15  1  0.827136  0.830639  0.309132  1
  Br  Br16  1  0.503622  0.296735  0.207586  1
  Br  Br17  1  0.794176  0.225671  0.713214  1
  Br  Br18  1  0.172864  0.169361  0.690868  1
  Br  Br19  1  0.508515  0.907361  0.195689  1
  Br  Br20  1  0.814862  0.625843  0.903299  1
  Br  Br21  1  0.205824  0.774329  0.286786  1
  Br  Br22  1  0.170142  0.379841  0.501874  1
  Br  Br23  1  0.496378  0.703265  0.792414  1
  Br  Br24  1  0.819189  0.017759  0.099109  1
  Br  Br25  1  0.485162  0.296760  0.594118  1
  Br  Br26  1  0.185138  0.374157  0.096701  1
  Br  Br27  1  0.829858  0.620159  0.498126  1
  Br  Br28  1  0.491485  0.092639  0.804311  1
