# generated using pymatgen
data_TmLu19ZnBi11
_symmetry_space_group_name_H-M   'P 1'
_cell_length_a   8.07045479
_cell_length_b   9.35214000
_cell_length_c   11.76062617
_cell_angle_alpha   90.00000000
_cell_angle_beta   89.73925599
_cell_angle_gamma   90.00000000
_symmetry_Int_Tables_number   1
_chemical_formula_structural   TmLu19ZnBi11
_chemical_formula_sum   'Tm1 Lu19 Zn1 Bi11'
_cell_volume   887.63610072
_cell_formula_units_Z   1
loop_
 _symmetry_equiv_pos_site_id
 _symmetry_equiv_pos_as_xyz
  1  'x, y, z'
loop_
 _atom_site_type_symbol
 _atom_site_label
 _atom_site_symmetry_multiplicity
 _atom_site_fract_x
 _atom_site_fract_y
 _atom_site_fract_z
 _atom_site_occupancy
  Tm  Tm0  1  0.312719  0.750000  0.281395  1
  Lu  Lu1  1  0.036887  0.250000  0.508506  1
  Lu  Lu2  1  0.980613  0.750000  0.490285  1
  Lu  Lu3  1  0.475846  0.750000  0.009850  1
  Lu  Lu4  1  0.525213  0.250000  0.989507  1
  Lu  Lu5  1  0.356539  0.250000  0.294958  1
  Lu  Lu6  1  0.647299  0.750000  0.717129  1
  Lu  Lu7  1  0.149593  0.750000  0.781784  1
  Lu  Lu8  1  0.853216  0.250000  0.216687  1
  Lu  Lu9  1  0.192361  0.250000  0.778577  1
  Lu  Lu10  1  0.809463  0.750000  0.216963  1
  Lu  Lu11  1  0.674287  0.250000  0.709551  1
  Lu  Lu12  1  0.194350  0.067186  0.061566  1
  Lu  Lu13  1  0.805730  0.933287  0.940095  1
  Lu  Lu14  1  0.308939  0.951843  0.559053  1
  Lu  Lu15  1  0.805730  0.566713  0.940095  1
  Lu  Lu16  1  0.683819  0.073262  0.445408  1
  Lu  Lu17  1  0.194350  0.432814  0.061566  1
  Lu  Lu18  1  0.683819  0.426738  0.445408  1
  Lu  Lu19  1  0.308939  0.548157  0.559053  1
  Zn  Zn20  1  0.408140  0.250000  0.539706  1
  Bi  Bi21  1  0.595369  0.750000  0.457613  1
  Bi  Bi22  1  0.094915  0.750000  0.042668  1
  Bi  Bi23  1  0.906152  0.250000  0.954452  1
  Bi  Bi24  1  0.062466  0.002674  0.323765  1
  Bi  Bi25  1  0.935172  0.997589  0.675922  1
  Bi  Bi26  1  0.435444  0.997266  0.824889  1
  Bi  Bi27  1  0.935172  0.502411  0.675922  1
  Bi  Bi28  1  0.564775  0.004049  0.174488  1
  Bi  Bi29  1  0.062466  0.497326  0.323765  1
  Bi  Bi30  1  0.564775  0.495951  0.174488  1
  Bi  Bi31  1  0.435444  0.502734  0.824889  1
