# generated using pymatgen
data_Sc3Be(Ni4P3)2
_symmetry_space_group_name_H-M   'P 1'
_cell_length_a   3.61459700
_cell_length_b   10.31685600
_cell_length_c   12.14515700
_cell_angle_alpha   90.00000000
_cell_angle_beta   90.00000000
_cell_angle_gamma   90.00000000
_symmetry_Int_Tables_number   1
_chemical_formula_structural   Sc3Be(Ni4P3)2
_chemical_formula_sum   'Sc6 Be2 Ni16 P12'
_cell_volume   452.90841082
_cell_formula_units_Z   2
loop_
 _symmetry_equiv_pos_site_id
 _symmetry_equiv_pos_as_xyz
  1  'x, y, z'
loop_
 _atom_site_type_symbol
 _atom_site_label
 _atom_site_symmetry_multiplicity
 _atom_site_fract_x
 _atom_site_fract_y
 _atom_site_fract_z
 _atom_site_occupancy
  Sc  Sc0  1  0.750836  0.000000  0.477024  1
  Sc  Sc1  1  0.250836  0.500000  0.522976  1
  Sc  Sc2  1  0.252156  0.680408  0.795345  1
  Sc  Sc3  1  0.252156  0.319592  0.795345  1
  Sc  Sc4  1  0.752156  0.819592  0.204655  1
  Sc  Sc5  1  0.752156  0.180408  0.204655  1
  Be  Be6  1  0.753205  0.000000  0.012779  1
  Be  Be7  1  0.253205  0.500000  0.987221  1
  Ni  Ni8  1  0.250861  0.197721  0.568149  1
  Ni  Ni9  1  0.250861  0.802279  0.568149  1
  Ni  Ni10  1  0.750861  0.302279  0.431851  1
  Ni  Ni11  1  0.750861  0.697721  0.431851  1
  Ni  Ni12  1  0.251980  0.624251  0.291904  1
  Ni  Ni13  1  0.251980  0.375749  0.291904  1
  Ni  Ni14  1  0.751980  0.875749  0.708096  1
  Ni  Ni15  1  0.751980  0.124251  0.708096  1
  Ni  Ni16  1  0.254004  0.159145  0.003674  1
  Ni  Ni17  1  0.254004  0.840855  0.003674  1
  Ni  Ni18  1  0.754004  0.340855  0.996326  1
  Ni  Ni19  1  0.754004  0.659145  0.996326  1
  Ni  Ni20  1  0.248826  0.000000  0.839907  1
  Ni  Ni21  1  0.748826  0.500000  0.160093  1
  Ni  Ni22  1  0.249943  0.000000  0.300615  1
  Ni  Ni23  1  0.749943  0.500000  0.699385  1
  P  P24  1  0.250792  0.183111  0.383616  1
  P  P25  1  0.250792  0.816889  0.383616  1
  P  P26  1  0.750792  0.316889  0.616384  1
  P  P27  1  0.750792  0.683111  0.616384  1
  P  P28  1  0.252404  0.000000  0.126025  1
  P  P29  1  0.752404  0.500000  0.873975  1
  P  P30  1  0.253195  0.657921  0.111606  1
  P  P31  1  0.253195  0.342079  0.111606  1
  P  P32  1  0.753195  0.842079  0.888394  1
  P  P33  1  0.753195  0.157921  0.888394  1
  P  P34  1  0.251614  0.000000  0.649420  1
  P  P35  1  0.751614  0.500000  0.350580  1
