# generated using pymatgen
data_Yb2HoAl3Ge2Pd
_symmetry_space_group_name_H-M   'P 1'
_cell_length_a   6.96383707
_cell_length_b   6.96383673
_cell_length_c   4.31927100
_cell_angle_alpha   90.00000000
_cell_angle_beta   90.00000000
_cell_angle_gamma   120.38873617
_symmetry_Int_Tables_number   1
_chemical_formula_structural   Yb2HoAl3Ge2Pd
_chemical_formula_sum   'Yb2 Ho1 Al3 Ge2 Pd1'
_cell_volume   180.68566651
_cell_formula_units_Z   1
loop_
 _symmetry_equiv_pos_site_id
 _symmetry_equiv_pos_as_xyz
  1  'x, y, z'
loop_
 _atom_site_type_symbol
 _atom_site_label
 _atom_site_symmetry_multiplicity
 _atom_site_fract_x
 _atom_site_fract_y
 _atom_site_fract_z
 _atom_site_occupancy
  Yb  Yb0  1  0.420740  0.000317  0.000000  1
  Yb  Yb1  1  0.000317  0.420741  0.000000  1
  Ho  Ho2  1  0.580425  0.580425  0.000000  1
  Al  Al3  1  0.765386  0.997330  0.499999  1
  Al  Al4  1  0.235311  0.235311  0.499999  1
  Al  Al5  1  0.997330  0.765386  0.499999  1
  Ge  Ge6  1  0.665629  0.336385  0.499999  1
  Ge  Ge7  1  0.336385  0.665628  0.499999  1
  Pd  Pd8  1  0.998477  0.998477  0.000000  1
