# generated using pymatgen
data_Er4Al14Ga10CoPt8
_symmetry_space_group_name_H-M   'P 1'
_cell_length_a   7.49152897
_cell_length_b   7.47761575
_cell_length_c   13.20891541
_cell_angle_alpha   84.59865266
_cell_angle_beta   100.78739122
_cell_angle_gamma   119.97475578
_symmetry_Int_Tables_number   1
_chemical_formula_structural   Er4Al14Ga10CoPt8
_chemical_formula_sum   'Er4 Al14 Ga10 Co1 Pt8'
_cell_volume   629.64887202
_cell_formula_units_Z   1
loop_
 _symmetry_equiv_pos_site_id
 _symmetry_equiv_pos_as_xyz
  1  'x, y, z'
loop_
 _atom_site_type_symbol
 _atom_site_label
 _atom_site_symmetry_multiplicity
 _atom_site_fract_x
 _atom_site_fract_y
 _atom_site_fract_z
 _atom_site_occupancy
  Er  Er0  1  0.740165  0.006544  0.190588  1
  Er  Er1  1  0.265104  0.999778  0.808825  1
  Er  Er2  1  0.057700  0.663216  0.189969  1
  Er  Er3  1  0.935720  0.331468  0.810463  1
  Al  Al4  1  0.230986  0.340510  0.670503  1
  Al  Al5  1  0.768449  0.660337  0.329806  1
  Al  Al6  1  0.853511  0.332036  0.558750  1
  Al  Al7  1  0.185813  0.999298  0.558536  1
  Al  Al8  1  0.814971  0.001145  0.441371  1
  Al  Al9  1  0.351763  0.986417  0.053537  1
  Al  Al10  1  0.638645  0.990013  0.947240  1
  Al  Al11  1  0.556684  0.993226  0.672154  1
  Al  Al12  1  0.443138  0.005101  0.328096  1
  Al  Al13  1  0.521724  0.668705  0.559673  1
  Al  Al14  1  0.478430  0.330855  0.439940  1
  Al  Al15  1  0.675677  0.667042  0.044783  1
  Al  Al16  1  0.315787  0.338572  0.955118  1
  Al  Al17  1  0.146366  0.667276  0.441816  1
  Ga  Ga18  1  0.802648  0.868347  0.816418  1
  Ga  Ga19  1  0.198093  0.130294  0.183662  1
  Ga  Ga20  1  0.998114  0.666355  0.942934  1
  Ga  Ga21  1  0.028418  0.344449  0.056298  1
  Ga  Ga22  1  0.390367  0.661694  0.823501  1
  Ga  Ga23  1  0.597374  0.337863  0.182752  1
  Ga  Ga24  1  0.886477  0.665264  0.673649  1
  Ga  Ga25  1  0.115720  0.335512  0.325782  1
  Ga  Ga26  1  0.599134  0.459018  0.816884  1
  Ga  Ga27  1  0.401556  0.558263  0.176898  1
  Co  Co28  1  0.334576  0.670404  0.999979  1
  Pt  Pt29  1  0.543132  0.322644  0.635512  1
  Pt  Pt30  1  0.456711  0.676583  0.364032  1
  Pt  Pt31  1  0.887603  0.010885  0.637140  1
  Pt  Pt32  1  0.112577  0.988574  0.362869  1
  Pt  Pt33  1  0.665362  0.323937  0.999540  1
  Pt  Pt34  1  0.209421  0.666850  0.637105  1
  Pt  Pt35  1  0.791739  0.332980  0.363580  1
  Pt  Pt36  1  0.000344  0.998539  0.000297  1
