# generated using pymatgen
data_Li2Y3MgIr2Pd
_symmetry_space_group_name_H-M   'P 1'
_cell_length_a   7.25917565
_cell_length_b   7.30655317
_cell_length_c   3.94214600
_cell_angle_alpha   90.00000000
_cell_angle_beta   90.00000000
_cell_angle_gamma   120.21612585
_symmetry_Int_Tables_number   1
_chemical_formula_structural   Li2Y3MgIr2Pd
_chemical_formula_sum   'Li2 Y3 Mg1 Ir2 Pd1'
_cell_volume   180.68131653
_cell_formula_units_Z   1
loop_
 _symmetry_equiv_pos_site_id
 _symmetry_equiv_pos_as_xyz
  1  'x, y, z'
loop_
 _atom_site_type_symbol
 _atom_site_label
 _atom_site_symmetry_multiplicity
 _atom_site_fract_x
 _atom_site_fract_y
 _atom_site_fract_z
 _atom_site_occupancy
  Li  Li0  1  0.755106  0.756143  0.000000  1
  Li  Li1  1  0.244894  0.001037  0.000000  1
  Y  Y2  1  0.422959  0.420804  0.500000  1
  Y  Y3  1  0.000000  0.590964  0.500000  1
  Y  Y4  1  0.577041  0.997845  0.500000  1
  Mg  Mg5  1  0.000000  0.243286  0.000000  1
  Ir  Ir6  1  0.670027  0.330884  0.000000  1
  Ir  Ir7  1  0.329973  0.660858  0.000000  1
  Pd  Pd8  1  0.000000  0.998179  0.500000  1
