# generated using pymatgen
data_Sc8Ti5Ga7Si9Mo7
_symmetry_space_group_name_H-M   'P 1'
_cell_length_a   6.66451943
_cell_length_b   6.75575510
_cell_length_c   13.22884703
_cell_angle_alpha   89.97540025
_cell_angle_beta   90.06553707
_cell_angle_gamma   90.06760536
_symmetry_Int_Tables_number   1
_chemical_formula_structural   Sc8Ti5Ga7Si9Mo7
_chemical_formula_sum   'Sc8 Ti5 Ga7 Si9 Mo7'
_cell_volume   595.61291282
_cell_formula_units_Z   1
loop_
 _symmetry_equiv_pos_site_id
 _symmetry_equiv_pos_as_xyz
  1  'x, y, z'
loop_
 _atom_site_type_symbol
 _atom_site_label
 _atom_site_symmetry_multiplicity
 _atom_site_fract_x
 _atom_site_fract_y
 _atom_site_fract_z
 _atom_site_occupancy
  Sc  Sc0  1  0.497524  0.325672  0.099864  1
  Sc  Sc1  1  0.999075  0.174798  0.402095  1
  Sc  Sc2  1  0.498588  0.670806  0.599038  1
  Sc  Sc3  1  0.003960  0.827285  0.899854  1
  Sc  Sc4  1  0.504868  0.671919  0.901173  1
  Sc  Sc5  1  0.004731  0.825189  0.600297  1
  Sc  Sc6  1  0.494454  0.325870  0.402679  1
  Sc  Sc7  1  0.995917  0.171575  0.097916  1
  Ti  Ti8  1  0.843976  0.330089  0.629623  1
  Ti  Ti9  1  0.338095  0.171074  0.869967  1
  Ti  Ti10  1  0.160070  0.670748  0.130851  1
  Ti  Ti11  1  0.662363  0.830368  0.369680  1
  Ti  Ti12  1  0.162874  0.667181  0.369323  1
  Ga  Ga13  1  0.668221  0.038438  0.539744  1
  Ga  Ga14  1  0.169751  0.463340  0.960787  1
  Ga  Ga15  1  0.330946  0.961140  0.038228  1
  Ga  Ga16  1  0.827813  0.537628  0.462434  1
  Ga  Ga17  1  0.326159  0.959810  0.462854  1
  Ga  Ga18  1  0.823574  0.539977  0.036808  1
  Ga  Ga19  1  0.676675  0.040799  0.962533  1
  Si  Si20  1  0.171006  0.459976  0.539153  1
  Si  Si21  1  0.538187  0.384559  0.748262  1
  Si  Si22  1  0.037361  0.112960  0.751094  1
  Si  Si23  1  0.464403  0.613868  0.248547  1
  Si  Si24  1  0.961512  0.885253  0.251277  1
  Si  Si25  1  0.797579  0.642145  0.749301  1
  Si  Si26  1  0.302157  0.861584  0.750510  1
  Si  Si27  1  0.202336  0.357106  0.250130  1
  Si  Si28  1  0.701493  0.141497  0.249728  1
  Mo  Mo29  1  0.664699  0.832907  0.132464  1
  Mo  Mo30  1  0.837795  0.332227  0.864610  1
  Mo  Mo31  1  0.330306  0.174107  0.632097  1
  Mo  Mo32  1  0.663729  0.008730  0.749528  1
  Mo  Mo33  1  0.162859  0.493041  0.746929  1
  Mo  Mo34  1  0.336442  0.989013  0.249872  1
  Mo  Mo35  1  0.838499  0.507319  0.250751  1
