# generated using pymatgen
data_K2NbTlSe4
_symmetry_space_group_name_H-M   'P 1'
_cell_length_a   10.02663900
_cell_length_b   10.15953400
_cell_length_c   11.20719300
_cell_angle_alpha   90.00000000
_cell_angle_beta   90.00000000
_cell_angle_gamma   90.00000000
_symmetry_Int_Tables_number   1
_chemical_formula_structural   K2NbTlSe4
_chemical_formula_sum   'K8 Nb4 Tl4 Se16'
_cell_volume   1141.63169605
_cell_formula_units_Z   4
loop_
 _symmetry_equiv_pos_site_id
 _symmetry_equiv_pos_as_xyz
  1  'x, y, z'
loop_
 _atom_site_type_symbol
 _atom_site_label
 _atom_site_symmetry_multiplicity
 _atom_site_fract_x
 _atom_site_fract_y
 _atom_site_fract_z
 _atom_site_occupancy
  K  K0  1  0.567819  0.208917  0.044059  1
  K  K1  1  0.067819  0.291083  0.455941  1
  K  K2  1  0.432181  0.791083  0.544059  1
  K  K3  1  0.932181  0.708917  0.955941  1
  K  K4  1  0.432181  0.791083  0.955941  1
  K  K5  1  0.932181  0.708917  0.544059  1
  K  K6  1  0.567819  0.208917  0.455941  1
  K  K7  1  0.067819  0.291083  0.044059  1
  Nb  Nb8  1  0.713934  0.982176  0.750000  1
  Nb  Nb9  1  0.213934  0.517824  0.750000  1
  Nb  Nb10  1  0.286066  0.017824  0.250000  1
  Nb  Nb11  1  0.786066  0.482176  0.250000  1
  Tl  Tl12  1  0.582086  0.427560  0.750000  1
  Tl  Tl13  1  0.082086  0.072440  0.750000  1
  Tl  Tl14  1  0.417914  0.572440  0.250000  1
  Tl  Tl15  1  0.917914  0.927560  0.250000  1
  Se  Se16  1  0.841765  0.043353  0.574775  1
  Se  Se17  1  0.341765  0.456647  0.925225  1
  Se  Se18  1  0.158235  0.956647  0.074775  1
  Se  Se19  1  0.658235  0.543353  0.425225  1
  Se  Se20  1  0.158235  0.956647  0.425225  1
  Se  Se21  1  0.658235  0.543353  0.074775  1
  Se  Se22  1  0.841765  0.043353  0.925225  1
  Se  Se23  1  0.341765  0.456647  0.574775  1
  Se  Se24  1  0.683507  0.744828  0.750000  1
  Se  Se25  1  0.183507  0.755172  0.750000  1
  Se  Se26  1  0.316493  0.255172  0.250000  1
  Se  Se27  1  0.816493  0.244828  0.250000  1
  Se  Se28  1  0.499075  0.089453  0.750000  1
  Se  Se29  1  0.999075  0.410547  0.750000  1
  Se  Se30  1  0.500925  0.910547  0.250000  1
  Se  Se31  1  0.000925  0.589453  0.250000  1
