# generated using pymatgen
data_EuTm2SbO7
_symmetry_space_group_name_H-M   'P 1'
_cell_length_a   6.46396500
_cell_length_b   6.46396437
_cell_length_c   7.54441700
_cell_angle_alpha   90.00000000
_cell_angle_beta   90.00000000
_cell_angle_gamma   108.81603120
_symmetry_Int_Tables_number   1
_chemical_formula_structural   EuTm2SbO7
_chemical_formula_sum   'Eu2 Tm4 Sb2 O14'
_cell_volume   298.38112643
_cell_formula_units_Z   2
loop_
 _symmetry_equiv_pos_site_id
 _symmetry_equiv_pos_as_xyz
  1  'x, y, z'
loop_
 _atom_site_type_symbol
 _atom_site_label
 _atom_site_symmetry_multiplicity
 _atom_site_fract_x
 _atom_site_fract_y
 _atom_site_fract_z
 _atom_site_occupancy
  Eu  Eu0  1  0.500000  0.500000  0.500000  1
  Eu  Eu1  1  0.500000  0.500000  0.000000  1
  Tm  Tm2  1  0.530884  0.001130  0.750000  1
  Tm  Tm3  1  0.001130  0.530884  0.250000  1
  Tm  Tm4  1  0.469116  0.998870  0.250000  1
  Tm  Tm5  1  0.998870  0.469116  0.750000  1
  Sb  Sb6  1  0.000000  0.000000  0.500000  1
  Sb  Sb7  1  0.000000  0.000000  0.000000  1
  O  O8  1  0.677909  0.933802  0.469763  1
  O  O9  1  0.933802  0.677909  0.530237  1
  O  O10  1  0.677909  0.933802  0.030237  1
  O  O11  1  0.933802  0.677909  0.969763  1
  O  O12  1  0.322091  0.066198  0.530237  1
  O  O13  1  0.066198  0.322091  0.469763  1
  O  O14  1  0.322091  0.066198  0.969763  1
  O  O15  1  0.066198  0.322091  0.030237  1
  O  O16  1  0.928757  0.071243  0.750000  1
  O  O17  1  0.071243  0.928757  0.250000  1
  O  O18  1  0.364069  0.635931  0.750000  1
  O  O19  1  0.635931  0.364069  0.250000  1
  O  O20  1  0.642460  0.357540  0.750000  1
  O  O21  1  0.357540  0.642460  0.250000  1
