# generated using pymatgen
data_V12Fe3Co(Si2C)4
_symmetry_space_group_name_H-M   'P 1'
_cell_length_a   7.63459500
_cell_length_b   7.64357778
_cell_length_c   7.64357800
_cell_angle_alpha   59.99999904
_cell_angle_beta   59.96107018
_cell_angle_gamma   59.96106409
_symmetry_Int_Tables_number   1
_chemical_formula_structural   V12Fe3Co(Si2C)4
_chemical_formula_sum   'V12 Fe3 Co1 Si8 C4'
_cell_volume   315.21623224
_cell_formula_units_Z   1
loop_
 _symmetry_equiv_pos_site_id
 _symmetry_equiv_pos_as_xyz
  1  'x, y, z'
loop_
 _atom_site_type_symbol
 _atom_site_label
 _atom_site_symmetry_multiplicity
 _atom_site_fract_x
 _atom_site_fract_y
 _atom_site_fract_z
 _atom_site_occupancy
  V  V0  1  0.810970  0.811356  0.188837  1
  V  V1  1  0.189232  0.187833  0.811468  1
  V  V2  1  0.810970  0.188837  0.811356  1
  V  V3  1  0.189232  0.811468  0.187833  1
  V  V4  1  0.189232  0.811468  0.811468  1
  V  V5  1  0.810970  0.188837  0.188837  1
  V  V6  1  0.439030  0.438644  0.061163  1
  V  V7  1  0.060768  0.062167  0.438532  1
  V  V8  1  0.439030  0.061163  0.438644  1
  V  V9  1  0.060768  0.438532  0.062167  1
  V  V10  1  0.060768  0.438532  0.438532  1
  V  V11  1  0.439030  0.061163  0.061163  1
  Fe  Fe12  1  0.625000  0.125000  0.625000  1
  Fe  Fe13  1  0.625000  0.625000  0.125000  1
  Fe  Fe14  1  0.625000  0.625000  0.625000  1
  Co  Co15  1  0.125000  0.625000  0.625000  1
  Si  Si16  1  0.759006  0.413665  0.413665  1
  Si  Si17  1  0.414151  0.759552  0.413150  1
  Si  Si18  1  0.414151  0.413150  0.759552  1
  Si  Si19  1  0.414151  0.413150  0.413150  1
  Si  Si20  1  0.490994  0.836335  0.836335  1
  Si  Si21  1  0.835849  0.490448  0.836850  1
  Si  Si22  1  0.835849  0.836850  0.490448  1
  Si  Si23  1  0.835849  0.836850  0.836850  1
  C  C24  1  0.625000  0.125000  0.125000  1
  C  C25  1  0.125000  0.625000  0.125000  1
  C  C26  1  0.125000  0.125000  0.625000  1
  C  C27  1  0.125000  0.125000  0.125000  1
