# generated using pymatgen
data_Hf4In2S
_symmetry_space_group_name_H-M   'P 1'
_cell_length_a   9.37014199
_cell_length_b   9.37014208
_cell_length_c   9.37014000
_cell_angle_alpha   60.00000027
_cell_angle_beta   59.99999997
_cell_angle_gamma   60.00000028
_symmetry_Int_Tables_number   1
_chemical_formula_structural   Hf4In2S
_chemical_formula_sum   'Hf16 In8 S4'
_cell_volume   581.73263964
_cell_formula_units_Z   4
loop_
 _symmetry_equiv_pos_site_id
 _symmetry_equiv_pos_as_xyz
  1  'x, y, z'
loop_
 _atom_site_type_symbol
 _atom_site_label
 _atom_site_symmetry_multiplicity
 _atom_site_fract_x
 _atom_site_fract_y
 _atom_site_fract_z
 _atom_site_occupancy
  Hf  Hf0  1  0.125000  0.625000  0.625000  1
  Hf  Hf1  1  0.625000  0.125000  0.625000  1
  Hf  Hf2  1  0.625000  0.625000  0.125000  1
  Hf  Hf3  1  0.625000  0.625000  0.625000  1
  Hf  Hf4  1  0.794620  0.794620  0.205380  1
  Hf  Hf5  1  0.205380  0.205380  0.794620  1
  Hf  Hf6  1  0.794620  0.205380  0.794620  1
  Hf  Hf7  1  0.205380  0.794620  0.205380  1
  Hf  Hf8  1  0.205380  0.794620  0.794620  1
  Hf  Hf9  1  0.794620  0.205380  0.205380  1
  Hf  Hf10  1  0.455380  0.455380  0.044620  1
  Hf  Hf11  1  0.044620  0.044620  0.455380  1
  Hf  Hf12  1  0.455380  0.044620  0.455380  1
  Hf  Hf13  1  0.044620  0.455380  0.044620  1
  Hf  Hf14  1  0.044620  0.455380  0.455380  1
  Hf  Hf15  1  0.455380  0.044620  0.044620  1
  In  In16  1  0.786956  0.404348  0.404348  1
  In  In17  1  0.404348  0.786956  0.404348  1
  In  In18  1  0.404348  0.404348  0.786956  1
  In  In19  1  0.404348  0.404348  0.404348  1
  In  In20  1  0.463044  0.845652  0.845652  1
  In  In21  1  0.845652  0.463044  0.845652  1
  In  In22  1  0.845652  0.845652  0.463044  1
  In  In23  1  0.845652  0.845652  0.845652  1
  S  S24  1  0.625000  0.125000  0.125000  1
  S  S25  1  0.125000  0.625000  0.125000  1
  S  S26  1  0.125000  0.125000  0.625000  1
  S  S27  1  0.125000  0.125000  0.125000  1
