# generated using pymatgen
data_Tb12CoTc2Ru
_symmetry_space_group_name_H-M   'P 1'
_cell_length_a   6.33324427
_cell_length_b   7.31144994
_cell_length_c   9.27932400
_cell_angle_alpha   90.00000000
_cell_angle_beta   90.00000000
_cell_angle_gamma   90.12451796
_symmetry_Int_Tables_number   1
_chemical_formula_structural   Tb12CoTc2Ru
_chemical_formula_sum   'Tb12 Co1 Tc2 Ru1'
_cell_volume   429.67992441
_cell_formula_units_Z   1
loop_
 _symmetry_equiv_pos_site_id
 _symmetry_equiv_pos_as_xyz
  1  'x, y, z'
loop_
 _atom_site_type_symbol
 _atom_site_label
 _atom_site_symmetry_multiplicity
 _atom_site_fract_x
 _atom_site_fract_y
 _atom_site_fract_z
 _atom_site_occupancy
  Tb  Tb0  1  0.329482  0.678051  0.065667  1
  Tb  Tb1  1  0.163813  0.176972  0.437436  1
  Tb  Tb2  1  0.666637  0.326599  0.565676  1
  Tb  Tb3  1  0.829964  0.821049  0.934298  1
  Tb  Tb4  1  0.666637  0.326599  0.934324  1
  Tb  Tb5  1  0.829964  0.821049  0.565702  1
  Tb  Tb6  1  0.329482  0.678051  0.434333  1
  Tb  Tb7  1  0.163813  0.176972  0.062564  1
  Tb  Tb8  1  0.869855  0.543232  0.250000  1
  Tb  Tb9  1  0.630484  0.041675  0.250000  1
  Tb  Tb10  1  0.143178  0.457738  0.750000  1
  Tb  Tb11  1  0.372052  0.950527  0.750000  1
  Co  Co12  1  0.540952  0.614317  0.750000  1
  Tc  Tc13  1  0.459741  0.390023  0.250000  1
  Tc  Tc14  1  0.965149  0.109973  0.750000  1
  Ru  Ru15  1  0.038797  0.887169  0.250000  1
