# generated using pymatgen
data_Eu2Lu3Ge4
_symmetry_space_group_name_H-M   'P 1'
_cell_length_a   7.52475700
_cell_length_b   7.91417200
_cell_length_c   15.02056500
_cell_angle_alpha   90.00000000
_cell_angle_beta   90.00000000
_cell_angle_gamma   90.00000000
_symmetry_Int_Tables_number   1
_chemical_formula_structural   Eu2Lu3Ge4
_chemical_formula_sum   'Eu8 Lu12 Ge16'
_cell_volume   894.50800877
_cell_formula_units_Z   4
loop_
 _symmetry_equiv_pos_site_id
 _symmetry_equiv_pos_as_xyz
  1  'x, y, z'
loop_
 _atom_site_type_symbol
 _atom_site_label
 _atom_site_symmetry_multiplicity
 _atom_site_fract_x
 _atom_site_fract_y
 _atom_site_fract_z
 _atom_site_occupancy
  Eu  Eu0  1  0.012985  0.175473  0.096781  1
  Eu  Eu1  1  0.987015  0.824527  0.903219  1
  Eu  Eu2  1  0.487015  0.675473  0.903219  1
  Eu  Eu3  1  0.987015  0.824527  0.596781  1
  Eu  Eu4  1  0.512985  0.324527  0.096781  1
  Eu  Eu5  1  0.012985  0.175473  0.403219  1
  Eu  Eu6  1  0.512985  0.324527  0.403219  1
  Eu  Eu7  1  0.487015  0.675473  0.596781  1
  Lu  Lu8  1  0.160982  0.509704  0.750000  1
  Lu  Lu9  1  0.839018  0.490296  0.250000  1
  Lu  Lu10  1  0.339018  0.009704  0.250000  1
  Lu  Lu11  1  0.660982  0.990296  0.750000  1
  Lu  Lu12  1  0.327860  0.175218  0.622874  1
  Lu  Lu13  1  0.672140  0.824782  0.377126  1
  Lu  Lu14  1  0.172140  0.675218  0.377126  1
  Lu  Lu15  1  0.672140  0.824782  0.122874  1
  Lu  Lu16  1  0.827860  0.324782  0.622874  1
  Lu  Lu17  1  0.327860  0.175218  0.877126  1
  Lu  Lu18  1  0.827860  0.324782  0.877126  1
  Lu  Lu19  1  0.172140  0.675218  0.122874  1
  Ge  Ge20  1  0.031613  0.119198  0.750000  1
  Ge  Ge21  1  0.968387  0.880802  0.250000  1
  Ge  Ge22  1  0.468387  0.619198  0.250000  1
  Ge  Ge23  1  0.531613  0.380802  0.750000  1
  Ge  Ge24  1  0.285003  0.875373  0.750000  1
  Ge  Ge25  1  0.714997  0.124627  0.250000  1
  Ge  Ge26  1  0.214997  0.375373  0.250000  1
  Ge  Ge27  1  0.785003  0.624627  0.750000  1
  Ge  Ge28  1  0.156530  0.465089  0.539943  1
  Ge  Ge29  1  0.843470  0.534911  0.460057  1
  Ge  Ge30  1  0.343470  0.965089  0.460057  1
  Ge  Ge31  1  0.843470  0.534911  0.039943  1
  Ge  Ge32  1  0.656530  0.034911  0.539943  1
  Ge  Ge33  1  0.156530  0.465089  0.960057  1
  Ge  Ge34  1  0.656530  0.034911  0.960057  1
  Ge  Ge35  1  0.343470  0.965089  0.039943  1
