# generated using pymatgen
data_Tm3Al3SnAu2
_symmetry_space_group_name_H-M   'P 1'
_cell_length_a   7.11030200
_cell_length_b   7.11030186
_cell_length_c   4.34312300
_cell_angle_alpha   90.00000000
_cell_angle_beta   90.00000000
_cell_angle_gamma   120.00000065
_symmetry_Int_Tables_number   1
_chemical_formula_structural   Tm3Al3SnAu2
_chemical_formula_sum   'Tm3 Al3 Sn1 Au2'
_cell_volume   190.15547916
_cell_formula_units_Z   1
loop_
 _symmetry_equiv_pos_site_id
 _symmetry_equiv_pos_as_xyz
  1  'x, y, z'
loop_
 _atom_site_type_symbol
 _atom_site_label
 _atom_site_symmetry_multiplicity
 _atom_site_fract_x
 _atom_site_fract_y
 _atom_site_fract_z
 _atom_site_occupancy
  Tm  Tm0  1  0.411057  0.423520  0.500000  1
  Tm  Tm1  1  0.576480  0.987536  0.500000  1
  Tm  Tm2  1  0.012464  0.588943  0.500000  1
  Al  Al3  1  0.752091  0.770775  0.000000  1
  Al  Al4  1  0.229225  0.981316  0.000000  1
  Al  Al5  1  0.018684  0.247909  0.000000  1
  Sn  Sn6  1  0.666667  0.333333  0.000000  1
  Au  Au7  1  0.333333  0.666667  0.000000  1
  Au  Au8  1  0.000000  0.000000  0.500000  1
