# generated using pymatgen
data_Zr2Fe3P7Ru9
_symmetry_space_group_name_H-M   'P 1'
_cell_length_a   9.24384300
_cell_length_b   9.24384237
_cell_length_c   3.81941200
_cell_angle_alpha   90.00000000
_cell_angle_beta   90.00000000
_cell_angle_gamma   119.99999153
_symmetry_Int_Tables_number   1
_chemical_formula_structural   Zr2Fe3P7Ru9
_chemical_formula_sum   'Zr2 Fe3 P7 Ru9'
_cell_volume   282.63911760
_cell_formula_units_Z   1
loop_
 _symmetry_equiv_pos_site_id
 _symmetry_equiv_pos_as_xyz
  1  'x, y, z'
loop_
 _atom_site_type_symbol
 _atom_site_label
 _atom_site_symmetry_multiplicity
 _atom_site_fract_x
 _atom_site_fract_y
 _atom_site_fract_z
 _atom_site_occupancy
  Zr  Zr0  1  0.000000  0.000000  0.000000  1
  Zr  Zr1  1  0.333333  0.666667  0.500000  1
  Fe  Fe2  1  0.825153  0.604713  0.000000  1
  Fe  Fe3  1  0.779559  0.174847  0.000000  1
  Fe  Fe4  1  0.395287  0.220441  0.000000  1
  P  P5  1  0.080317  0.636772  0.000000  1
  P  P6  1  0.556455  0.919683  0.000000  1
  P  P7  1  0.363228  0.443545  0.000000  1
  P  P8  1  0.785313  0.733379  0.500000  1
  P  P9  1  0.948067  0.214687  0.500000  1
  P  P10  1  0.266621  0.051933  0.500000  1
  P  P11  1  0.666667  0.333333  0.000000  1
  Ru  Ru12  1  0.093917  0.399365  0.000000  1
  Ru  Ru13  1  0.305449  0.906083  0.000000  1
  Ru  Ru14  1  0.600635  0.694551  0.000000  1
  Ru  Ru15  1  0.052540  0.775419  0.500000  1
  Ru  Ru16  1  0.722880  0.947460  0.500000  1
  Ru  Ru17  1  0.224581  0.277120  0.500000  1
  Ru  Ru18  1  0.875007  0.422686  0.500000  1
  Ru  Ru19  1  0.547679  0.124993  0.500000  1
  Ru  Ru20  1  0.577314  0.452321  0.500000  1
