# generated using pymatgen
data_Tb3Nb2B4Ru10W
_symmetry_space_group_name_H-M   'P 1'
_cell_length_a   9.61426426
_cell_length_b   9.60237548
_cell_length_c   3.11277700
_cell_angle_alpha   90.00000000
_cell_angle_beta   90.00000000
_cell_angle_gamma   90.30786471
_symmetry_Int_Tables_number   1
_chemical_formula_structural   Tb3Nb2B4Ru10W
_chemical_formula_sum   'Tb3 Nb2 B4 Ru10 W1'
_cell_volume   287.36672501
_cell_formula_units_Z   1
loop_
 _symmetry_equiv_pos_site_id
 _symmetry_equiv_pos_as_xyz
  1  'x, y, z'
loop_
 _atom_site_type_symbol
 _atom_site_label
 _atom_site_symmetry_multiplicity
 _atom_site_fract_x
 _atom_site_fract_y
 _atom_site_fract_z
 _atom_site_occupancy
  Tb  Tb0  1  0.823870  0.674879  0.000000  1
  Tb  Tb1  1  0.175383  0.323906  0.000000  1
  Tb  Tb2  1  0.325396  0.825579  0.000000  1
  Nb  Nb3  1  0.676531  0.175491  0.000000  1
  Nb  Nb4  1  0.002746  0.998217  0.000000  1
  B  B5  1  0.623998  0.882893  0.000000  1
  B  B6  1  0.381158  0.122477  0.000000  1
  B  B7  1  0.117290  0.619126  0.000000  1
  B  B8  1  0.876782  0.375560  0.000000  1
  Ru  Ru9  1  0.569239  0.718886  0.500000  1
  Ru  Ru10  1  0.442170  0.283646  0.500000  1
  Ru  Ru11  1  0.069882  0.779564  0.500000  1
  Ru  Ru12  1  0.914365  0.213963  0.500000  1
  Ru  Ru13  1  0.283910  0.567211  0.500000  1
  Ru  Ru14  1  0.710565  0.418103  0.500000  1
  Ru  Ru15  1  0.223032  0.071317  0.500000  1
  Ru  Ru16  1  0.779913  0.940393  0.500000  1
  Ru  Ru17  1  0.509894  0.010393  0.500000  1
  Ru  Ru18  1  0.996159  0.495635  0.500000  1
  W  W19  1  0.497715  0.502758  0.000000  1
