# generated using pymatgen
data_LaY(ScIr)2
_symmetry_space_group_name_H-M   'P 1'
_cell_length_a   7.23815900
_cell_length_b   4.29609000
_cell_length_c   8.92783000
_cell_angle_alpha   90.00000000
_cell_angle_beta   90.00000000
_cell_angle_gamma   90.00000000
_symmetry_Int_Tables_number   1
_chemical_formula_structural   LaY(ScIr)2
_chemical_formula_sum   'La2 Y2 Sc4 Ir4'
_cell_volume   277.61785986
_cell_formula_units_Z   2
loop_
 _symmetry_equiv_pos_site_id
 _symmetry_equiv_pos_as_xyz
  1  'x, y, z'
loop_
 _atom_site_type_symbol
 _atom_site_label
 _atom_site_symmetry_multiplicity
 _atom_site_fract_x
 _atom_site_fract_y
 _atom_site_fract_z
 _atom_site_occupancy
  La  La0  1  0.012908  0.750000  0.825548  1
  La  La1  1  0.512908  0.750000  0.674452  1
  Y  Y2  1  0.978725  0.250000  0.179900  1
  Y  Y3  1  0.478725  0.250000  0.320100  1
  Sc  Sc4  1  0.865406  0.250000  0.554217  1
  Sc  Sc5  1  0.365406  0.250000  0.945783  1
  Sc  Sc6  1  0.140230  0.750000  0.426852  1
  Sc  Sc7  1  0.640230  0.750000  0.073148  1
  Ir  Ir8  1  0.736611  0.250000  0.904682  1
  Ir  Ir9  1  0.236611  0.250000  0.595318  1
  Ir  Ir10  1  0.266120  0.750000  0.109713  1
  Ir  Ir11  1  0.766120  0.750000  0.390287  1
