# generated using pymatgen
data_Pr6Nd2ZnPd24
_symmetry_space_group_name_H-M   'P 1'
_cell_length_a   8.52771700
_cell_length_b   8.52771700
_cell_length_c   8.52771700
_cell_angle_alpha   89.99789029
_cell_angle_beta   90.00210971
_cell_angle_gamma   90.00210971
_symmetry_Int_Tables_number   1
_chemical_formula_structural   Pr6Nd2ZnPd24
_chemical_formula_sum   'Pr6 Nd2 Zn1 Pd24'
_cell_volume   620.15227033
_cell_formula_units_Z   1
loop_
 _symmetry_equiv_pos_site_id
 _symmetry_equiv_pos_as_xyz
  1  'x, y, z'
loop_
 _atom_site_type_symbol
 _atom_site_label
 _atom_site_symmetry_multiplicity
 _atom_site_fract_x
 _atom_site_fract_y
 _atom_site_fract_z
 _atom_site_occupancy
  Pr  Pr0  1  0.250239  0.250285  0.250285  1
  Pr  Pr1  1  0.749761  0.749715  0.749715  1
  Pr  Pr2  1  0.749715  0.749761  0.250285  1
  Pr  Pr3  1  0.749715  0.250285  0.749761  1
  Pr  Pr4  1  0.250285  0.250239  0.749715  1
  Pr  Pr5  1  0.250285  0.749715  0.250239  1
  Nd  Nd6  1  0.250240  0.749760  0.749760  1
  Nd  Nd7  1  0.749760  0.250240  0.250240  1
  Zn  Zn8  1  0.000000  0.000000  0.000000  1
  Pd  Pd9  1  0.262375  0.500474  0.999471  1
  Pd  Pd10  1  0.737625  0.499526  0.000529  1
  Pd  Pd11  1  0.999471  0.262375  0.499526  1
  Pd  Pd12  1  0.500474  0.262375  0.000529  1
  Pd  Pd13  1  0.000529  0.737625  0.500474  1
  Pd  Pd14  1  0.499526  0.737625  0.999471  1
  Pd  Pd15  1  0.500474  0.000529  0.262375  1
  Pd  Pd16  1  0.262375  0.999471  0.500474  1
  Pd  Pd17  1  0.499526  0.999471  0.737625  1
  Pd  Pd18  1  0.737625  0.000529  0.499526  1
  Pd  Pd19  1  0.999471  0.499526  0.262375  1
  Pd  Pd20  1  0.000529  0.500474  0.737625  1
  Pd  Pd21  1  0.253884  0.500505  0.500505  1
  Pd  Pd22  1  0.746116  0.499495  0.499495  1
  Pd  Pd23  1  0.500505  0.253884  0.499495  1
  Pd  Pd24  1  0.499495  0.746116  0.500505  1
  Pd  Pd25  1  0.500505  0.499495  0.253884  1
  Pd  Pd26  1  0.499495  0.500505  0.746116  1
  Pd  Pd27  1  0.297949  0.999545  0.999545  1
  Pd  Pd28  1  0.702051  0.000455  0.000455  1
  Pd  Pd29  1  0.999545  0.297949  0.000455  1
  Pd  Pd30  1  0.000455  0.702051  0.999545  1
  Pd  Pd31  1  0.999545  0.000455  0.297949  1
  Pd  Pd32  1  0.000455  0.999545  0.702051  1
