# generated using pymatgen
data_Tb2P7PdRu11
_symmetry_space_group_name_H-M   'P 1'
_cell_length_a   9.38121757
_cell_length_b   9.48579411
_cell_length_c   3.94657700
_cell_angle_alpha   90.00000000
_cell_angle_beta   90.00000000
_cell_angle_gamma   119.38790713
_symmetry_Int_Tables_number   1
_chemical_formula_structural   Tb2P7PdRu11
_chemical_formula_sum   'Tb2 P7 Pd1 Ru11'
_cell_volume   306.00594996
_cell_formula_units_Z   1
loop_
 _symmetry_equiv_pos_site_id
 _symmetry_equiv_pos_as_xyz
  1  'x, y, z'
loop_
 _atom_site_type_symbol
 _atom_site_label
 _atom_site_symmetry_multiplicity
 _atom_site_fract_x
 _atom_site_fract_y
 _atom_site_fract_z
 _atom_site_occupancy
  Tb  Tb0  1  0.670992  0.336607  0.500000  1
  Tb  Tb1  1  0.328851  0.658800  0.000000  1
  P  P2  1  0.599280  0.704257  0.500000  1
  P  P3  1  0.996706  0.000638  0.000000  1
  P  P4  1  0.272681  0.880633  0.500000  1
  P  P5  1  0.116726  0.400959  0.500000  1
  P  P6  1  0.888600  0.580377  0.000000  1
  P  P7  1  0.425737  0.308235  0.000000  1
  P  P8  1  0.704994  0.125279  0.000000  1
  Pd  Pd9  1  0.548150  0.940601  0.500000  1
  Ru  Ru10  1  0.389196  0.437040  0.500000  1
  Ru  Ru11  1  0.910602  0.128389  0.500000  1
  Ru  Ru12  1  0.210225  0.087167  0.500000  1
  Ru  Ru13  1  0.876474  0.793356  0.500000  1
  Ru  Ru14  1  0.722960  0.890886  0.000000  1
  Ru  Ru15  1  0.110889  0.840558  0.000000  1
  Ru  Ru16  1  0.162173  0.268623  0.000000  1
  Ru  Ru17  1  0.431819  0.066391  0.000000  1
  Ru  Ru18  1  0.939601  0.366275  0.000000  1
  Ru  Ru19  1  0.640561  0.574262  0.000000  1
  Ru  Ru20  1  0.052785  0.610666  0.500000  1
