# generated using pymatgen
data_Zr10CuSn4Bi2Se
_symmetry_space_group_name_H-M   'P 1'
_cell_length_a   8.76207401
_cell_length_b   8.75374515
_cell_length_c   5.90670800
_cell_angle_alpha   90.07771877
_cell_angle_beta   89.96117102
_cell_angle_gamma   119.96856033
_symmetry_Int_Tables_number   1
_chemical_formula_structural   Zr10CuSn4Bi2Se
_chemical_formula_sum   'Zr10 Cu1 Sn4 Bi2 Se1'
_cell_volume   392.47685446
_cell_formula_units_Z   1
loop_
 _symmetry_equiv_pos_site_id
 _symmetry_equiv_pos_as_xyz
  1  'x, y, z'
loop_
 _atom_site_type_symbol
 _atom_site_label
 _atom_site_symmetry_multiplicity
 _atom_site_fract_x
 _atom_site_fract_y
 _atom_site_fract_z
 _atom_site_occupancy
  Zr  Zr0  1  0.669140  0.335514  0.503498  1
  Zr  Zr1  1  0.330860  0.666374  0.503498  1
  Zr  Zr2  1  0.330831  0.666141  0.997167  1
  Zr  Zr3  1  0.669169  0.335311  0.997167  1
  Zr  Zr4  1  0.744181  0.738301  0.248404  1
  Zr  Zr5  1  0.255819  0.994121  0.248404  1
  Zr  Zr6  1  0.000000  0.262373  0.248149  1
  Zr  Zr7  1  0.263729  0.264656  0.751455  1
  Zr  Zr8  1  0.736271  0.000927  0.751455  1
  Zr  Zr9  1  0.000000  0.734849  0.752128  1
  Cu  Cu10  1  0.000000  0.000149  0.992844  1
  Sn  Sn11  1  0.000000  0.606603  0.247434  1
  Sn  Sn12  1  0.611463  0.612345  0.752911  1
  Sn  Sn13  1  0.388537  0.000881  0.752911  1
  Sn  Sn14  1  0.000000  0.389857  0.753239  1
  Bi  Bi15  1  0.392556  0.391818  0.247258  1
  Bi  Bi16  1  0.607444  0.999261  0.247258  1
  Se  Se17  1  0.000000  0.000520  0.504821  1
