# generated using pymatgen
data_Er(TmSi2)5
_symmetry_space_group_name_H-M   'P 1'
_cell_length_a   6.55101500
_cell_length_b   6.54823961
_cell_length_c   8.23883023
_cell_angle_alpha   89.97672536
_cell_angle_beta   90.00000000
_cell_angle_gamma   120.01402646
_symmetry_Int_Tables_number   1
_chemical_formula_structural   Er(TmSi2)5
_chemical_formula_sum   'Er1 Tm5 Si10'
_cell_volume   306.03274217
_cell_formula_units_Z   1
loop_
 _symmetry_equiv_pos_site_id
 _symmetry_equiv_pos_as_xyz
  1  'x, y, z'
loop_
 _atom_site_type_symbol
 _atom_site_label
 _atom_site_symmetry_multiplicity
 _atom_site_fract_x
 _atom_site_fract_y
 _atom_site_fract_z
 _atom_site_occupancy
  Er  Er0  1  0.330267  0.000000  0.500000  1
  Tm  Tm1  1  0.669949  0.670007  0.500010  1
  Tm  Tm2  1  0.999942  0.329993  0.499990  1
  Tm  Tm3  1  0.999999  0.330036  0.999995  1
  Tm  Tm4  1  0.669963  0.669964  0.000005  1
  Tm  Tm5  1  0.330006  0.000000  0.000000  1
  Si  Si6  1  0.999864  0.000049  0.750226  1
  Si  Si7  1  0.668669  0.064702  0.750324  1
  Si  Si8  1  0.396282  0.331941  0.750357  1
  Si  Si9  1  0.935260  0.603624  0.750086  1
  Si  Si10  1  0.333302  0.666566  0.750248  1
  Si  Si11  1  0.999815  0.999951  0.249774  1
  Si  Si12  1  0.666737  0.333434  0.249752  1
  Si  Si13  1  0.331636  0.396376  0.249914  1
  Si  Si14  1  0.064341  0.668059  0.249643  1
  Si  Si15  1  0.603967  0.935298  0.249676  1
