# generated using pymatgen
data_Li8Tb8Tl5Sb3
_symmetry_space_group_name_H-M   'P 1'
_cell_length_a   9.40491059
_cell_length_b   9.40380305
_cell_length_c   7.27767800
_cell_angle_alpha   90.07390606
_cell_angle_beta   89.92722969
_cell_angle_gamma   120.02238976
_symmetry_Int_Tables_number   1
_chemical_formula_structural   Li8Tb8Tl5Sb3
_chemical_formula_sum   'Li8 Tb8 Tl5 Sb3'
_cell_volume   557.29245376
_cell_formula_units_Z   1
loop_
 _symmetry_equiv_pos_site_id
 _symmetry_equiv_pos_as_xyz
  1  'x, y, z'
loop_
 _atom_site_type_symbol
 _atom_site_label
 _atom_site_symmetry_multiplicity
 _atom_site_fract_x
 _atom_site_fract_y
 _atom_site_fract_z
 _atom_site_occupancy
  Li  Li0  1  0.166661  0.333408  0.218704  1
  Li  Li1  1  0.166657  0.833350  0.217138  1
  Li  Li2  1  0.666599  0.833350  0.218690  1
  Li  Li3  1  0.667058  0.332955  0.320017  1
  Li  Li4  1  0.831584  0.665225  0.717063  1
  Li  Li5  1  0.334772  0.168409  0.717019  1
  Li  Li6  1  0.832936  0.167031  0.724268  1
  Li  Li7  1  0.334068  0.665927  0.823171  1
  Tb  Tb8  1  0.001976  0.998028  0.995702  1
  Tb  Tb9  1  0.505284  0.020511  0.999384  1
  Tb  Tb10  1  0.512300  0.487663  0.996767  1
  Tb  Tb11  1  0.979487  0.494709  0.999376  1
  Tb  Tb12  1  0.002670  0.997337  0.505821  1
  Tb  Tb13  1  0.484325  0.975175  0.510377  1
  Tb  Tb14  1  0.024805  0.515662  0.510349  1
  Tb  Tb15  1  0.488734  0.511299  0.512738  1
  Tl  Tl16  1  0.833281  0.166728  0.267173  1
  Tl  Tl17  1  0.668470  0.331508  0.729483  1
  Tl  Tl18  1  0.163914  0.332249  0.768721  1
  Tl  Tl19  1  0.166925  0.833084  0.767845  1
  Tl  Tl20  1  0.667754  0.836099  0.768801  1
  Sb  Sb21  1  0.333712  0.666292  0.232849  1
  Sb  Sb22  1  0.832256  0.666255  0.268246  1
  Sb  Sb23  1  0.333770  0.167747  0.268283  1
