# generated using pymatgen
data_Li2Yb2DyAlGe3
_symmetry_space_group_name_H-M   'P 1'
_cell_length_a   7.08745792
_cell_length_b   7.14018909
_cell_length_c   4.29345700
_cell_angle_alpha   90.00000000
_cell_angle_beta   90.00000000
_cell_angle_gamma   120.70913355
_symmetry_Int_Tables_number   1
_chemical_formula_structural   Li2Yb2DyAlGe3
_chemical_formula_sum   'Li2 Yb2 Dy1 Al1 Ge3'
_cell_volume   186.80566950
_cell_formula_units_Z   1
loop_
 _symmetry_equiv_pos_site_id
 _symmetry_equiv_pos_as_xyz
  1  'x, y, z'
loop_
 _atom_site_type_symbol
 _atom_site_label
 _atom_site_symmetry_multiplicity
 _atom_site_fract_x
 _atom_site_fract_y
 _atom_site_fract_z
 _atom_site_occupancy
  Li  Li0  1  0.238846  0.997486  0.500000  1
  Li  Li1  1  0.996906  0.236216  0.500000  1
  Yb  Yb2  1  0.422663  0.423439  0.000000  1
  Yb  Yb3  1  0.573466  0.007066  0.000000  1
  Dy  Dy4  1  0.007239  0.579351  0.000000  1
  Al  Al5  1  0.755213  0.754091  0.500000  1
  Ge  Ge6  1  0.338005  0.668859  0.500000  1
  Ge  Ge7  1  0.679501  0.350116  0.500000  1
  Ge  Ge8  1  0.988164  0.983380  0.000000  1
