# generated using pymatgen
data_NdPa2(GaRh)3
_symmetry_space_group_name_H-M   'P 1'
_cell_length_a   7.19917091
_cell_length_b   7.11358089
_cell_length_c   3.98131300
_cell_angle_alpha   90.00000000
_cell_angle_beta   90.00000000
_cell_angle_gamma   119.60749206
_symmetry_Int_Tables_number   1
_chemical_formula_structural   NdPa2(GaRh)3
_chemical_formula_sum   'Nd1 Pa2 Ga3 Rh3'
_cell_volume   177.26862192
_cell_formula_units_Z   1
loop_
 _symmetry_equiv_pos_site_id
 _symmetry_equiv_pos_as_xyz
  1  'x, y, z'
loop_
 _atom_site_type_symbol
 _atom_site_label
 _atom_site_symmetry_multiplicity
 _atom_site_fract_x
 _atom_site_fract_y
 _atom_site_fract_z
 _atom_site_occupancy
  Nd  Nd0  1  0.000000  0.412758  0.500000  1
  Pa  Pa1  1  0.584157  0.587120  0.500000  1
  Pa  Pa2  1  0.415843  0.002963  0.500000  1
  Ga  Ga3  1  0.000000  0.746370  0.000000  1
  Ga  Ga4  1  0.231193  0.240942  0.000000  1
  Ga  Ga5  1  0.768807  0.009750  0.000000  1
  Rh  Rh6  1  0.367159  0.697038  0.000000  1
  Rh  Rh7  1  0.632841  0.329880  0.000000  1
  Rh  Rh8  1  0.000000  0.973179  0.500000  1
