# generated using pymatgen
data_Y9LuIr3Os
_symmetry_space_group_name_H-M   'P 1'
_cell_length_a   8.45717822
_cell_length_b   8.49791072
_cell_length_c   7.30064601
_cell_angle_alpha   83.61575321
_cell_angle_beta   83.49484478
_cell_angle_gamma   45.14227200
_symmetry_Int_Tables_number   1
_chemical_formula_structural   Y9LuIr3Os
_chemical_formula_sum   'Y9 Lu1 Ir3 Os1'
_cell_volume   369.16932815
_cell_formula_units_Z   1
loop_
 _symmetry_equiv_pos_site_id
 _symmetry_equiv_pos_as_xyz
  1  'x, y, z'
loop_
 _atom_site_type_symbol
 _atom_site_label
 _atom_site_symmetry_multiplicity
 _atom_site_fract_x
 _atom_site_fract_y
 _atom_site_fract_z
 _atom_site_occupancy
  Y  Y0  1  0.424391  0.576261  0.748877  1
  Y  Y1  1  0.349566  0.210179  0.317698  1
  Y  Y2  1  0.210860  0.972719  0.085353  1
  Y  Y3  1  0.789640  0.029453  0.917901  1
  Y  Y4  1  0.971922  0.210778  0.581238  1
  Y  Y5  1  0.653192  0.786049  0.680260  1
  Y  Y6  1  0.213948  0.345260  0.819008  1
  Y  Y7  1  0.783746  0.653901  0.183227  1
  Y  Y8  1  0.031496  0.791627  0.415815  1
  Lu  Lu9  1  0.570456  0.429382  0.249962  1
  Ir  Ir10  1  0.176343  0.604283  0.074648  1
  Ir  Ir11  1  0.824882  0.391224  0.928638  1
  Ir  Ir12  1  0.608595  0.175523  0.572152  1
  Os  Os13  1  0.390963  0.823361  0.425224  1
