# generated using pymatgen
data_Pr12Os(PtCl4)3
_symmetry_space_group_name_H-M   'P 1'
_cell_length_a   10.51382700
_cell_length_b   10.38908731
_cell_length_c   10.38908700
_cell_angle_alpha   109.22671759
_cell_angle_beta   109.71463229
_cell_angle_gamma   109.71462788
_symmetry_Int_Tables_number   1
_chemical_formula_structural   Pr12Os(PtCl4)3
_chemical_formula_sum   'Pr12 Os1 Pt3 Cl12'
_cell_volume   870.92402633
_cell_formula_units_Z   1
loop_
 _symmetry_equiv_pos_site_id
 _symmetry_equiv_pos_as_xyz
  1  'x, y, z'
loop_
 _atom_site_type_symbol
 _atom_site_label
 _atom_site_symmetry_multiplicity
 _atom_site_fract_x
 _atom_site_fract_y
 _atom_site_fract_z
 _atom_site_occupancy
  Pr  Pr0  1  0.477155  0.493297  0.235329  1
  Pr  Pr1  1  0.750000  0.238925  0.261075  1
  Pr  Pr2  1  0.750000  0.010066  0.489934  1
  Pr  Pr3  1  0.239934  0.479868  0.489934  1
  Pr  Pr4  1  0.258174  0.742033  0.235329  1
  Pr  Pr5  1  0.022845  0.264671  0.006703  1
  Pr  Pr6  1  0.011075  0.022148  0.261075  1
  Pr  Pr7  1  0.483858  0.742033  0.006703  1
  Pr  Pr8  1  0.488925  0.238925  0.477852  1
  Pr  Pr9  1  0.016142  0.493297  0.757967  1
  Pr  Pr10  1  0.260066  0.010066  0.020132  1
  Pr  Pr11  1  0.241826  0.264671  0.757967  1
  Os  Os12  1  0.250000  0.500000  0.000000  1
  Pt  Pt13  1  0.250000  0.250110  0.249890  1
  Pt  Pt14  1  0.499890  0.999780  0.249890  1
  Pt  Pt15  1  0.000110  0.250110  0.500220  1
  Cl  Cl16  1  0.250000  0.749350  0.750650  1
  Cl  Cl17  1  0.495981  0.497121  0.746253  1
  Cl  Cl18  1  0.004019  0.753747  0.002879  1
  Cl  Cl19  1  0.750272  0.249132  0.746253  1
  Cl  Cl20  1  0.000650  0.001300  0.750650  1
  Cl  Cl21  1  0.250000  0.003806  0.496194  1
  Cl  Cl22  1  0.746194  0.492389  0.496194  1
  Cl  Cl23  1  0.498860  0.249132  0.002879  1
  Cl  Cl24  1  0.749728  0.753747  0.250868  1
  Cl  Cl25  1  0.753806  0.003806  0.007611  1
  Cl  Cl26  1  0.001140  0.497121  0.250868  1
  Cl  Cl27  1  0.499350  0.749350  0.498700  1
