# generated using pymatgen
data_PrNdY4(Co3P2)6
_symmetry_space_group_name_H-M   'P 1'
_cell_length_a   3.73390200
_cell_length_b   10.59326800
_cell_length_c   12.26672100
_cell_angle_alpha   90.00000000
_cell_angle_beta   90.00000000
_cell_angle_gamma   90.00000000
_symmetry_Int_Tables_number   1
_chemical_formula_structural   PrNdY4(Co3P2)6
_chemical_formula_sum   'Pr1 Nd1 Y4 Co18 P12'
_cell_volume   485.20063719
_cell_formula_units_Z   1
loop_
 _symmetry_equiv_pos_site_id
 _symmetry_equiv_pos_as_xyz
  1  'x, y, z'
loop_
 _atom_site_type_symbol
 _atom_site_label
 _atom_site_symmetry_multiplicity
 _atom_site_fract_x
 _atom_site_fract_y
 _atom_site_fract_z
 _atom_site_occupancy
  Pr  Pr0  1  0.500000  0.000000  0.477698  1
  Nd  Nd1  1  0.000000  0.500000  0.522096  1
  Y  Y2  1  0.500000  0.817404  0.204686  1
  Y  Y3  1  0.500000  0.182596  0.204686  1
  Y  Y4  1  0.000000  0.682430  0.795193  1
  Y  Y5  1  0.000000  0.317570  0.795193  1
  Co  Co6  1  0.500000  0.500000  0.156054  1
  Co  Co7  1  0.000000  0.000000  0.844205  1
  Co  Co8  1  0.500000  0.500000  0.706157  1
  Co  Co9  1  0.000000  0.000000  0.293405  1
  Co  Co10  1  0.000000  0.500000  0.986628  1
  Co  Co11  1  0.500000  0.000000  0.013326  1
  Co  Co12  1  0.500000  0.333363  0.995001  1
  Co  Co13  1  0.500000  0.666637  0.995001  1
  Co  Co14  1  0.000000  0.166681  0.005006  1
  Co  Co15  1  0.000000  0.833319  0.005006  1
  Co  Co16  1  0.500000  0.297307  0.428806  1
  Co  Co17  1  0.500000  0.702693  0.428806  1
  Co  Co18  1  0.000000  0.203572  0.571298  1
  Co  Co19  1  0.000000  0.796428  0.571298  1
  Co  Co20  1  0.500000  0.879788  0.713246  1
  Co  Co21  1  0.500000  0.120212  0.713246  1
  Co  Co22  1  0.000000  0.619966  0.286906  1
  Co  Co23  1  0.000000  0.380034  0.286906  1
  P  P24  1  0.500000  0.500000  0.883928  1
  P  P25  1  0.000000  0.000000  0.115895  1
  P  P26  1  0.500000  0.500000  0.339089  1
  P  P27  1  0.000000  0.000000  0.661632  1
  P  P28  1  0.500000  0.307389  0.617318  1
  P  P29  1  0.500000  0.692611  0.617318  1
  P  P30  1  0.000000  0.193468  0.382436  1
  P  P31  1  0.000000  0.806532  0.382436  1
  P  P32  1  0.500000  0.846794  0.894619  1
  P  P33  1  0.500000  0.153206  0.894619  1
  P  P34  1  0.000000  0.653078  0.105428  1
  P  P35  1  0.000000  0.346922  0.105428  1
