# generated using pymatgen
data_Zr6V7Co16
_symmetry_space_group_name_H-M   'P 1'
_cell_length_a   8.21426286
_cell_length_b   8.21294421
_cell_length_c   8.21529718
_cell_angle_alpha   60.01118807
_cell_angle_beta   60.01459409
_cell_angle_gamma   60.01048147
_symmetry_Int_Tables_number   1
_chemical_formula_structural   Zr6V7Co16
_chemical_formula_sum   'Zr6 V7 Co16'
_cell_volume   392.00783430
_cell_formula_units_Z   1
loop_
 _symmetry_equiv_pos_site_id
 _symmetry_equiv_pos_as_xyz
  1  'x, y, z'
loop_
 _atom_site_type_symbol
 _atom_site_label
 _atom_site_symmetry_multiplicity
 _atom_site_fract_x
 _atom_site_fract_y
 _atom_site_fract_z
 _atom_site_occupancy
  Zr  Zr0  1  0.706333  0.293767  0.293676  1
  Zr  Zr1  1  0.293642  0.293789  0.706314  1
  Zr  Zr2  1  0.293667  0.706233  0.706324  1
  Zr  Zr3  1  0.706358  0.706211  0.293686  1
  Zr  Zr4  1  0.293699  0.706256  0.293757  1
  Zr  Zr5  1  0.706301  0.293744  0.706243  1
  V  V6  1  0.000000  0.500000  0.000000  1
  V  V7  1  0.000000  0.000000  0.500000  1
  V  V8  1  0.000000  0.000000  0.000000  1
  V  V9  1  0.500000  0.500000  0.000000  1
  V  V10  1  0.500000  0.000000  0.500000  1
  V  V11  1  0.500000  0.000000  0.000000  1
  V  V12  1  0.000000  0.500000  0.500000  1
  Co  Co13  1  0.120673  0.120730  0.637916  1
  Co  Co14  1  0.672397  0.982796  0.672344  1
  Co  Co15  1  0.362217  0.879224  0.879264  1
  Co  Co16  1  0.017162  0.327701  0.327515  1
  Co  Co17  1  0.982838  0.672299  0.672485  1
  Co  Co18  1  0.327416  0.327671  0.017284  1
  Co  Co19  1  0.672584  0.672329  0.982716  1
  Co  Co20  1  0.637783  0.120776  0.120736  1
  Co  Co21  1  0.672434  0.672419  0.672344  1
  Co  Co22  1  0.879327  0.879270  0.362084  1
  Co  Co23  1  0.120680  0.120823  0.120691  1
  Co  Co24  1  0.879319  0.362106  0.879326  1
  Co  Co25  1  0.879320  0.879177  0.879309  1
  Co  Co26  1  0.327566  0.327581  0.327656  1
  Co  Co27  1  0.120681  0.637894  0.120674  1
  Co  Co28  1  0.327603  0.017204  0.327656  1
