# generated using pymatgen
data_Ca4ZrSi12Rh19
_symmetry_space_group_name_H-M   'P 1'
_cell_length_a   12.82137836
_cell_length_b   12.78377397
_cell_length_c   3.96767400
_cell_angle_alpha   90.00000000
_cell_angle_beta   90.00000000
_cell_angle_gamma   119.90303222
_symmetry_Int_Tables_number   1
_chemical_formula_structural   Ca4ZrSi12Rh19
_chemical_formula_sum   'Ca4 Zr1 Si12 Rh19'
_cell_volume   563.74660350
_cell_formula_units_Z   1
loop_
 _symmetry_equiv_pos_site_id
 _symmetry_equiv_pos_as_xyz
  1  'x, y, z'
loop_
 _atom_site_type_symbol
 _atom_site_label
 _atom_site_symmetry_multiplicity
 _atom_site_fract_x
 _atom_site_fract_y
 _atom_site_fract_z
 _atom_site_occupancy
  Ca  Ca0  1  0.812896  0.812983  0.500000  1
  Ca  Ca1  1  0.187104  0.000087  0.500000  1
  Ca  Ca2  1  0.667083  0.333167  0.000000  1
  Ca  Ca3  1  0.332917  0.666085  0.000000  1
  Zr  Zr4  1  0.000000  0.184609  0.500000  1
  Si  Si5  1  0.473301  0.312851  0.500000  1
  Si  Si6  1  0.820137  0.001941  0.000000  1
  Si  Si7  1  0.179863  0.181804  0.000000  1
  Si  Si8  1  0.000000  0.817847  0.000000  1
  Si  Si9  1  0.374666  0.000100  0.000000  1
  Si  Si10  1  0.685527  0.161816  0.500000  1
  Si  Si11  1  0.839015  0.524350  0.500000  1
  Si  Si12  1  0.526699  0.839550  0.500000  1
  Si  Si13  1  0.160985  0.685335  0.500000  1
  Si  Si14  1  0.314473  0.476289  0.500000  1
  Si  Si15  1  0.000000  0.370419  0.000000  1
  Si  Si16  1  0.625334  0.625433  0.000000  1
  Rh  Rh17  1  0.812484  0.183321  0.000000  1
  Rh  Rh18  1  0.374849  0.192743  0.000000  1
  Rh  Rh19  1  0.638320  0.511566  0.500000  1
  Rh  Rh20  1  0.873006  0.358048  0.500000  1
  Rh  Rh21  1  0.361680  0.873246  0.500000  1
  Rh  Rh22  1  0.513529  0.641137  0.500000  1
  Rh  Rh23  1  0.126994  0.485043  0.500000  1
  Rh  Rh24  1  0.815199  0.622346  0.000000  1
  Rh  Rh25  1  0.625151  0.817894  0.000000  1
  Rh  Rh26  1  0.184801  0.807147  0.000000  1
  Rh  Rh27  1  0.187516  0.370837  0.000000  1
  Rh  Rh28  1  0.000000  0.722977  0.500000  1
  Rh  Rh29  1  0.274019  0.277124  0.500000  1
  Rh  Rh30  1  0.725981  0.003105  0.500000  1
  Rh  Rh31  1  0.000000  0.554320  0.000000  1
  Rh  Rh32  1  0.439536  0.445891  0.000000  1
  Rh  Rh33  1  0.560464  0.006354  0.000000  1
  Rh  Rh34  1  0.000000  0.004631  0.000000  1
  Rh  Rh35  1  0.486471  0.127608  0.500000  1
