# generated using pymatgen
data_Nd5Co11(As3Ru2)4
_symmetry_space_group_name_H-M   'P 1'
_cell_length_a   12.81712944
_cell_length_b   12.82260663
_cell_length_c   3.90974200
_cell_angle_alpha   90.00000000
_cell_angle_beta   90.00000000
_cell_angle_gamma   120.03705834
_symmetry_Int_Tables_number   1
_chemical_formula_structural   Nd5Co11(As3Ru2)4
_chemical_formula_sum   'Nd5 Co11 As12 Ru8'
_cell_volume   556.26729057
_cell_formula_units_Z   1
loop_
 _symmetry_equiv_pos_site_id
 _symmetry_equiv_pos_as_xyz
  1  'x, y, z'
loop_
 _atom_site_type_symbol
 _atom_site_label
 _atom_site_symmetry_multiplicity
 _atom_site_fract_x
 _atom_site_fract_y
 _atom_site_fract_z
 _atom_site_occupancy
  Nd  Nd0  1  0.666736  0.333353  0.000000  1
  Nd  Nd1  1  0.330933  0.664648  0.000000  1
  Nd  Nd2  1  0.817517  0.817096  0.500000  1
  Nd  Nd3  1  0.182307  0.000830  0.500000  1
  Nd  Nd4  1  0.999852  0.183139  0.500000  1
  Co  Co5  1  0.125326  0.480102  0.500000  1
  Co  Co6  1  0.801993  0.173798  0.000000  1
  Co  Co7  1  0.827553  0.627173  0.000000  1
  Co  Co8  1  0.371528  0.198979  0.000000  1
  Co  Co9  1  0.173400  0.800403  0.000000  1
  Co  Co10  1  0.627377  0.826574  0.000000  1
  Co  Co11  1  0.197612  0.374708  0.000000  1
  Co  Co12  1  0.281230  0.282330  0.500000  1
  Co  Co13  1  0.718340  0.000001  0.500000  1
  Co  Co14  1  0.001094  0.717735  0.500000  1
  Co  Co15  1  0.999879  0.999274  0.000000  1
  As  As16  1  0.685744  0.160958  0.500000  1
  As  As17  1  0.841309  0.524011  0.500000  1
  As  As18  1  0.474803  0.316451  0.500000  1
  As  As19  1  0.158700  0.679614  0.500000  1
  As  As20  1  0.523825  0.840266  0.500000  1
  As  As21  1  0.310176  0.474739  0.500000  1
  As  As22  1  0.180149  0.181808  0.000000  1
  As  As23  1  0.819431  0.999748  0.000000  1
  As  As24  1  0.000368  0.818699  0.000000  1
  As  As25  1  0.635522  0.636433  0.000000  1
  As  As26  1  0.362996  0.999928  0.000000  1
  As  As27  1  0.005492  0.366110  0.000000  1
  Ru  Ru28  1  0.878704  0.354924  0.500000  1
  Ru  Ru29  1  0.647268  0.520992  0.500000  1
  Ru  Ru30  1  0.479989  0.126741  0.500000  1
  Ru  Ru31  1  0.351950  0.872250  0.500000  1
  Ru  Ru32  1  0.517083  0.645226  0.500000  1
  Ru  Ru33  1  0.443140  0.443852  0.000000  1
  Ru  Ru34  1  0.555999  0.999982  0.000000  1
  Ru  Ru35  1  0.004674  0.557125  0.000000  1
