# generated using pymatgen
data_Ti12AlGa7O4
_symmetry_space_group_name_H-M   'P 1'
_cell_length_a   6.87066782
_cell_length_b   6.87066782
_cell_length_c   6.87066782
_cell_angle_alpha   89.96034865
_cell_angle_beta   90.03965135
_cell_angle_gamma   90.03965135
_symmetry_Int_Tables_number   1
_chemical_formula_structural   Ti12AlGa7O4
_chemical_formula_sum   'Ti12 Al1 Ga7 O4'
_cell_volume   324.33703673
_cell_formula_units_Z   1
loop_
 _symmetry_equiv_pos_site_id
 _symmetry_equiv_pos_as_xyz
  1  'x, y, z'
loop_
 _atom_site_type_symbol
 _atom_site_label
 _atom_site_symmetry_multiplicity
 _atom_site_fract_x
 _atom_site_fract_y
 _atom_site_fract_z
 _atom_site_occupancy
  Ti  Ti0  1  0.792504  0.957855  0.375700  1
  Ti  Ti1  1  0.706717  0.042121  0.874236  1
  Ti  Ti2  1  0.207696  0.458032  0.125610  1
  Ti  Ti3  1  0.292198  0.542259  0.623733  1
  Ti  Ti4  1  0.957879  0.374236  0.793283  1
  Ti  Ti5  1  0.042145  0.875700  0.707496  1
  Ti  Ti6  1  0.457741  0.123733  0.207802  1
  Ti  Ti7  1  0.541968  0.625610  0.292304  1
  Ti  Ti8  1  0.374390  0.792304  0.958032  1
  Ti  Ti9  1  0.876267  0.707802  0.042259  1
  Ti  Ti10  1  0.124300  0.207496  0.457855  1
  Ti  Ti11  1  0.625764  0.293283  0.542121  1
  Al  Al12  1  0.178588  0.821412  0.321412  1
  Ga  Ga13  1  0.319770  0.180214  0.819833  1
  Ga  Ga14  1  0.819786  0.319833  0.180230  1
  Ga  Ga15  1  0.680167  0.680230  0.680214  1
  Ga  Ga16  1  0.569995  0.430005  0.930005  1
  Ga  Ga17  1  0.429390  0.929844  0.569131  1
  Ga  Ga18  1  0.930869  0.570610  0.429844  1
  Ga  Ga19  1  0.070156  0.069131  0.070610  1
  O  O20  1  0.874333  0.125667  0.625667  1
  O  O21  1  0.626284  0.874790  0.124115  1
  O  O22  1  0.125210  0.624115  0.873716  1
  O  O23  1  0.375885  0.373716  0.374790  1
