# generated using pymatgen
data_Dy5YTcRh
_symmetry_space_group_name_H-M   'P 1'
_cell_length_a   6.32152600
_cell_length_b   7.33535300
_cell_length_c   9.24448700
_cell_angle_alpha   90.00000000
_cell_angle_beta   90.00000000
_cell_angle_gamma   90.00000000
_symmetry_Int_Tables_number   1
_chemical_formula_structural   Dy5YTcRh
_chemical_formula_sum   'Dy10 Y2 Tc2 Rh2'
_cell_volume   428.67263730
_cell_formula_units_Z   2
loop_
 _symmetry_equiv_pos_site_id
 _symmetry_equiv_pos_as_xyz
  1  'x, y, z'
loop_
 _atom_site_type_symbol
 _atom_site_label
 _atom_site_symmetry_multiplicity
 _atom_site_fract_x
 _atom_site_fract_y
 _atom_site_fract_z
 _atom_site_occupancy
  Dy  Dy0  1  0.327829  0.678595  0.067935  1
  Dy  Dy1  1  0.172171  0.178595  0.432065  1
  Dy  Dy2  1  0.666061  0.322727  0.559779  1
  Dy  Dy3  1  0.833939  0.822727  0.940221  1
  Dy  Dy4  1  0.666061  0.322727  0.940221  1
  Dy  Dy5  1  0.833939  0.822727  0.559779  1
  Dy  Dy6  1  0.327829  0.678595  0.432065  1
  Dy  Dy7  1  0.172171  0.178595  0.067935  1
  Dy  Dy8  1  0.871543  0.537946  0.250000  1
  Dy  Dy9  1  0.628457  0.037946  0.250000  1
  Y  Y10  1  0.135718  0.459290  0.750000  1
  Y  Y11  1  0.364282  0.959290  0.750000  1
  Tc  Tc12  1  0.035888  0.887484  0.250000  1
  Tc  Tc13  1  0.464112  0.387484  0.250000  1
  Rh  Rh14  1  0.947327  0.112635  0.750000  1
  Rh  Rh15  1  0.552673  0.612635  0.750000  1
