# generated using pymatgen
data_SmEr3(Co3Si5)2
_symmetry_space_group_name_H-M   'P 1'
_cell_length_a   7.85168272
_cell_length_b   7.85497999
_cell_length_c   5.50669609
_cell_angle_alpha   70.71099499
_cell_angle_beta   70.77868270
_cell_angle_gamma   93.42787169
_symmetry_Int_Tables_number   1
_chemical_formula_structural   SmEr3(Co3Si5)2
_chemical_formula_sum   'Sm1 Er3 Co6 Si10'
_cell_volume   297.22774014
_cell_formula_units_Z   1
loop_
 _symmetry_equiv_pos_site_id
 _symmetry_equiv_pos_as_xyz
  1  'x, y, z'
loop_
 _atom_site_type_symbol
 _atom_site_label
 _atom_site_symmetry_multiplicity
 _atom_site_fract_x
 _atom_site_fract_y
 _atom_site_fract_z
 _atom_site_occupancy
  Sm  Sm0  1  0.598831  0.869653  0.261590  1
  Er  Er1  1  0.869413  0.598411  0.763311  1
  Er  Er2  1  0.401495  0.129589  0.737082  1
  Er  Er3  1  0.129864  0.402589  0.236941  1
  Co  Co4  1  0.538585  0.263215  0.125163  1
  Co  Co5  1  0.997901  0.004254  0.249224  1
  Co  Co6  1  0.261106  0.537759  0.627045  1
  Co  Co7  1  0.459869  0.735943  0.876091  1
  Co  Co8  1  0.738013  0.461484  0.374382  1
  Co  Co9  1  0.004884  0.996671  0.749637  1
  Si  Si10  1  0.771210  0.230967  0.748241  1
  Si  Si11  1  0.227173  0.770471  0.250901  1
  Si  Si12  1  0.510352  0.487695  0.750565  1
  Si  Si13  1  0.487461  0.508165  0.252237  1
  Si  Si14  1  0.214168  0.785095  0.749403  1
  Si  Si15  1  0.786199  0.216578  0.250023  1
  Si  Si16  1  0.064009  0.261808  0.834884  1
  Si  Si17  1  0.261288  0.065406  0.334572  1
  Si  Si18  1  0.938417  0.737135  0.164878  1
  Si  Si19  1  0.739761  0.937115  0.663829  1
