# generated using pymatgen
data_PtSe29
_symmetry_space_group_name_H-M   'P 1'
_cell_length_a   7.54281748
_cell_length_b   9.82911362
_cell_length_c   11.72764262
_cell_angle_alpha   74.69430151
_cell_angle_beta   80.62050477
_cell_angle_gamma   67.56678281
_symmetry_Int_Tables_number   1
_chemical_formula_structural   PtSe29
_chemical_formula_sum   'Pt1 Se29'
_cell_volume   773.28343144
_cell_formula_units_Z   1
loop_
 _symmetry_equiv_pos_site_id
 _symmetry_equiv_pos_as_xyz
  1  'x, y, z'
loop_
 _atom_site_type_symbol
 _atom_site_label
 _atom_site_symmetry_multiplicity
 _atom_site_fract_x
 _atom_site_fract_y
 _atom_site_fract_z
 _atom_site_occupancy
  Pt  Pt0  1  0.000000  0.000000  0.000000  1
  Se  Se1  1  0.500000  0.000000  0.000000  1
  Se  Se2  1  0.101227  0.199472  0.201212  1
  Se  Se3  1  0.700422  0.402104  0.398307  1
  Se  Se4  1  0.299578  0.597896  0.601693  1
  Se  Se5  1  0.599001  0.200007  0.201831  1
  Se  Se6  1  0.898773  0.800528  0.798788  1
  Se  Se7  1  0.200349  0.398534  0.400386  1
  Se  Se8  1  0.799651  0.601466  0.599614  1
  Se  Se9  1  0.400999  0.799993  0.798169  1
  Se  Se10  1  0.238370  0.076733  0.842170  1
  Se  Se11  1  0.648186  0.717882  0.966212  1
  Se  Se12  1  0.860035  0.265535  0.033612  1
  Se  Se13  1  0.234887  0.922894  0.157689  1
  Se  Se14  1  0.452496  0.483779  0.233221  1
  Se  Se15  1  0.765113  0.077106  0.842311  1
  Se  Se16  1  0.850170  0.116546  0.365778  1
  Se  Se17  1  0.139965  0.734465  0.966388  1
  Se  Se18  1  0.052005  0.679701  0.433823  1
  Se  Se19  1  0.351814  0.282118  0.033788  1
  Se  Se20  1  0.761630  0.923267  0.157830  1
  Se  Se21  1  0.448199  0.318650  0.566579  1
  Se  Se22  1  0.648413  0.887495  0.631427  1
  Se  Se23  1  0.950038  0.483053  0.233057  1
  Se  Se24  1  0.049962  0.516947  0.766943  1
  Se  Se25  1  0.351587  0.112505  0.368573  1
  Se  Se26  1  0.551801  0.681350  0.433421  1
  Se  Se27  1  0.947995  0.320299  0.566177  1
  Se  Se28  1  0.149830  0.883454  0.634222  1
  Se  Se29  1  0.547504  0.516221  0.766779  1
