# generated using pymatgen
data_K4ThZrI12
_symmetry_space_group_name_H-M   'P 1'
_cell_length_a   8.65409203
_cell_length_b   8.26554942
_cell_length_c   14.34423793
_cell_angle_alpha   54.85285963
_cell_angle_beta   89.83413006
_cell_angle_gamma   90.10687856
_symmetry_Int_Tables_number   1
_chemical_formula_structural   K4ThZrI12
_chemical_formula_sum   'K4 Th1 Zr1 I12'
_cell_volume   838.96971336
_cell_formula_units_Z   1
loop_
 _symmetry_equiv_pos_site_id
 _symmetry_equiv_pos_as_xyz
  1  'x, y, z'
loop_
 _atom_site_type_symbol
 _atom_site_label
 _atom_site_symmetry_multiplicity
 _atom_site_fract_x
 _atom_site_fract_y
 _atom_site_fract_z
 _atom_site_occupancy
  K  K0  1  0.582136  0.728813  0.248378  1
  K  K1  1  0.078454  0.277533  0.244198  1
  K  K2  1  0.417864  0.271187  0.751622  1
  K  K3  1  0.921546  0.722467  0.755802  1
  Th  Th4  1  0.500000  0.000000  0.500000  1
  Zr  Zr5  1  0.000000  0.000000  0.000000  1
  I  I6  1  0.989065  0.847163  0.238089  1
  I  I7  1  0.489073  0.165173  0.245564  1
  I  I8  1  0.010935  0.152837  0.761911  1
  I  I9  1  0.510927  0.834827  0.754436  1
  I  I10  1  0.695235  0.646724  0.550676  1
  I  I11  1  0.183530  0.332703  0.953298  1
  I  I12  1  0.304765  0.353276  0.449324  1
  I  I13  1  0.816470  0.667297  0.046702  1
  I  I14  1  0.718652  0.219646  0.961106  1
  I  I15  1  0.199880  0.766015  0.541498  1
  I  I16  1  0.281348  0.780354  0.038894  1
  I  I17  1  0.800120  0.233985  0.458502  1
