# generated using pymatgen
data_Tm8Ti7Si16Mo5
_symmetry_space_group_name_H-M   'P 1'
_cell_length_a   6.74634200
_cell_length_b   6.93773606
_cell_length_c   13.13046103
_cell_angle_alpha   90.04396622
_cell_angle_beta   89.94714587
_cell_angle_gamma   89.98117909
_symmetry_Int_Tables_number   1
_chemical_formula_structural   Tm8Ti7Si16Mo5
_chemical_formula_sum   'Tm8 Ti7 Si16 Mo5'
_cell_volume   614.56208842
_cell_formula_units_Z   1
loop_
 _symmetry_equiv_pos_site_id
 _symmetry_equiv_pos_as_xyz
  1  'x, y, z'
loop_
 _atom_site_type_symbol
 _atom_site_label
 _atom_site_symmetry_multiplicity
 _atom_site_fract_x
 _atom_site_fract_y
 _atom_site_fract_z
 _atom_site_occupancy
  Tm  Tm0  1  0.502569  0.328845  0.096512  1
  Tm  Tm1  1  0.001530  0.171595  0.403729  1
  Tm  Tm2  1  0.497810  0.672670  0.595657  1
  Tm  Tm3  1  0.997898  0.829248  0.903720  1
  Tm  Tm4  1  0.496677  0.670853  0.902462  1
  Tm  Tm5  1  0.999558  0.829814  0.595430  1
  Tm  Tm6  1  0.501949  0.327958  0.405454  1
  Tm  Tm7  1  0.002494  0.171826  0.096884  1
  Ti  Ti8  1  0.835752  0.327566  0.626434  1
  Ti  Ti9  1  0.331614  0.172330  0.872853  1
  Ti  Ti10  1  0.167073  0.671360  0.126758  1
  Ti  Ti11  1  0.666799  0.829258  0.373867  1
  Ti  Ti12  1  0.166864  0.672334  0.374469  1
  Ti  Ti13  1  0.667869  0.828183  0.126847  1
  Ti  Ti14  1  0.832034  0.327055  0.871564  1
  Si  Si15  1  0.658622  0.038950  0.543899  1
  Si  Si16  1  0.160327  0.460034  0.956976  1
  Si  Si17  1  0.339168  0.960102  0.043108  1
  Si  Si18  1  0.838899  0.538592  0.457208  1
  Si  Si19  1  0.336599  0.959445  0.458434  1
  Si  Si20  1  0.840083  0.539404  0.043358  1
  Si  Si21  1  0.659543  0.039478  0.956844  1
  Si  Si22  1  0.163760  0.459228  0.543330  1
  Si  Si23  1  0.533986  0.374170  0.748308  1
  Si  Si24  1  0.037099  0.123867  0.749838  1
  Si  Si25  1  0.464021  0.625242  0.250480  1
  Si  Si26  1  0.964789  0.875536  0.250238  1
  Si  Si27  1  0.797225  0.628208  0.748918  1
  Si  Si28  1  0.298938  0.872866  0.749868  1
  Si  Si29  1  0.203832  0.371832  0.250656  1
  Si  Si30  1  0.702490  0.128558  0.250129  1
  Mo  Mo31  1  0.331568  0.170556  0.626141  1
  Mo  Mo32  1  0.662824  0.009840  0.749662  1
  Mo  Mo33  1  0.160188  0.490911  0.749600  1
  Mo  Mo34  1  0.338295  0.992723  0.250217  1
  Mo  Mo35  1  0.839255  0.509561  0.250146  1
