# generated using pymatgen
data_Li4Ac3CeGe8
_symmetry_space_group_name_H-M   'P 1'
_cell_length_a   4.04918700
_cell_length_b   8.01419981
_cell_length_c   11.16387000
_cell_angle_alpha   89.96148681
_cell_angle_beta   90.00000000
_cell_angle_gamma   90.00000000
_symmetry_Int_Tables_number   1
_chemical_formula_structural   Li4Ac3CeGe8
_chemical_formula_sum   'Li4 Ac3 Ce1 Ge8'
_cell_volume   362.27859306
_cell_formula_units_Z   1
loop_
 _symmetry_equiv_pos_site_id
 _symmetry_equiv_pos_as_xyz
  1  'x, y, z'
loop_
 _atom_site_type_symbol
 _atom_site_label
 _atom_site_symmetry_multiplicity
 _atom_site_fract_x
 _atom_site_fract_y
 _atom_site_fract_z
 _atom_site_occupancy
  Li  Li0  1  0.250000  0.990987  0.388904  1
  Li  Li1  1  0.250000  0.498889  0.113215  1
  Li  Li2  1  0.750000  0.002950  0.607222  1
  Li  Li3  1  0.750000  0.504748  0.887723  1
  Ac  Ac4  1  0.250000  0.142342  0.868429  1
  Ac  Ac5  1  0.250000  0.635784  0.630688  1
  Ac  Ac6  1  0.750000  0.864429  0.134651  1
  Ce  Ce7  1  0.750000  0.364606  0.367454  1
  Ge  Ge8  1  0.250000  0.216336  0.559931  1
  Ge  Ge9  1  0.250000  0.712787  0.929528  1
  Ge  Ge10  1  0.750000  0.776920  0.427641  1
  Ge  Ge11  1  0.750000  0.294003  0.079044  1
  Ge  Ge12  1  0.250000  0.650581  0.318482  1
  Ge  Ge13  1  0.250000  0.174222  0.193061  1
  Ge  Ge14  1  0.750000  0.332417  0.675804  1
  Ge  Ge15  1  0.750000  0.838001  0.818223  1
