# generated using pymatgen
data_Mg(NbSe2)3
_symmetry_space_group_name_H-M   'P 1'
_cell_length_a   6.06746900
_cell_length_b   6.06746900
_cell_length_c   13.83043800
_cell_angle_alpha   90.00000000
_cell_angle_beta   90.00000000
_cell_angle_gamma   120.00000546
_symmetry_Int_Tables_number   1
_chemical_formula_structural   Mg(NbSe2)3
_chemical_formula_sum   'Mg2 Nb6 Se12'
_cell_volume   440.94220955
_cell_formula_units_Z   2
loop_
 _symmetry_equiv_pos_site_id
 _symmetry_equiv_pos_as_xyz
  1  'x, y, z'
loop_
 _atom_site_type_symbol
 _atom_site_label
 _atom_site_symmetry_multiplicity
 _atom_site_fract_x
 _atom_site_fract_y
 _atom_site_fract_z
 _atom_site_occupancy
  Mg  Mg0  1  0.000000  0.000000  0.000000  1
  Mg  Mg1  1  0.000000  0.000000  0.500000  1
  Nb  Nb2  1  0.333333  0.666667  0.250000  1
  Nb  Nb3  1  0.000000  0.000000  0.250000  1
  Nb  Nb4  1  0.000000  0.000000  0.750000  1
  Nb  Nb5  1  0.333333  0.666667  0.750000  1
  Nb  Nb6  1  0.666667  0.333333  0.750000  1
  Nb  Nb7  1  0.666667  0.333333  0.250000  1
  Se  Se8  1  0.000000  0.662595  0.628268  1
  Se  Se9  1  0.000000  0.662595  0.871732  1
  Se  Se10  1  0.000000  0.337405  0.128268  1
  Se  Se11  1  0.000000  0.337405  0.371732  1
  Se  Se12  1  0.337405  0.337405  0.628268  1
  Se  Se13  1  0.337405  0.337405  0.871732  1
  Se  Se14  1  0.662595  0.662595  0.128268  1
  Se  Se15  1  0.662595  0.662595  0.371732  1
  Se  Se16  1  0.337405  0.000000  0.128268  1
  Se  Se17  1  0.337405  0.000000  0.371732  1
  Se  Se18  1  0.662595  0.000000  0.628268  1
  Se  Se19  1  0.662595  0.000000  0.871732  1
