# generated using pymatgen
data_Pr11NdSi(PBr4)3
_symmetry_space_group_name_H-M   'P 1'
_cell_length_a   10.38793903
_cell_length_b   10.38114171
_cell_length_c   10.38589114
_cell_angle_alpha   109.37434040
_cell_angle_beta   109.42676186
_cell_angle_gamma   109.42048576
_symmetry_Int_Tables_number   1
_chemical_formula_structural   Pr11NdSi(PBr4)3
_chemical_formula_sum   'Pr11 Nd1 Si1 P3 Br12'
_cell_volume   864.21445191
_cell_formula_units_Z   1
loop_
 _symmetry_equiv_pos_site_id
 _symmetry_equiv_pos_as_xyz
  1  'x, y, z'
loop_
 _atom_site_type_symbol
 _atom_site_label
 _atom_site_symmetry_multiplicity
 _atom_site_fract_x
 _atom_site_fract_y
 _atom_site_fract_z
 _atom_site_occupancy
  Pr  Pr0  1  0.750204  0.235623  0.264762  1
  Pr  Pr1  1  0.750176  0.014465  0.485595  1
  Pr  Pr2  1  0.236424  0.474962  0.489376  1
  Pr  Pr3  1  0.264664  0.750003  0.235359  1
  Pr  Pr4  1  0.025073  0.263642  0.010618  1
  Pr  Pr5  1  0.010901  0.025129  0.263609  1
  Pr  Pr6  1  0.485669  0.750053  0.014631  1
  Pr  Pr7  1  0.489566  0.236525  0.474945  1
  Pr  Pr8  1  0.014837  0.485699  0.750381  1
  Pr  Pr9  1  0.263707  0.010742  0.025151  1
  Pr  Pr10  1  0.235441  0.264634  0.750028  1
  Nd  Nd11  1  0.473319  0.488523  0.235570  1
  Si  Si12  1  0.250458  0.250516  0.250105  1
  P  P13  1  0.500385  0.999831  0.250067  1
  P  P14  1  0.999810  0.250023  0.500255  1
  P  P15  1  0.250605  0.500203  0.000225  1
  Br  Br16  1  0.250153  0.755360  0.744860  1
  Br  Br17  1  0.510468  0.505664  0.756025  1
  Br  Br18  1  0.989602  0.744020  0.994361  1
  Br  Br19  1  0.744847  0.249974  0.755239  1
  Br  Br20  1  0.994473  0.989626  0.744116  1
  Br  Br21  1  0.250174  0.994489  0.505657  1
  Br  Br22  1  0.754652  0.510402  0.503965  1
  Br  Br23  1  0.505986  0.252272  0.996501  1
  Br  Br24  1  0.753754  0.743348  0.250282  1
  Br  Br25  1  0.744072  0.994494  0.989666  1
  Br  Br26  1  0.994540  0.505643  0.249987  1
  Br  Br27  1  0.506038  0.754136  0.508665  1
