# generated using pymatgen
data_Hf3SiGe2MoRu2
_symmetry_space_group_name_H-M   'P 1'
_cell_length_a   6.96324584
_cell_length_b   7.03388380
_cell_length_c   3.48422100
_cell_angle_alpha   90.00000000
_cell_angle_beta   90.00000000
_cell_angle_gamma   120.33615422
_symmetry_Int_Tables_number   1
_chemical_formula_structural   Hf3SiGe2MoRu2
_chemical_formula_sum   'Hf3 Si1 Ge2 Mo1 Ru2'
_cell_volume   147.28623602
_cell_formula_units_Z   1
loop_
 _symmetry_equiv_pos_site_id
 _symmetry_equiv_pos_as_xyz
  1  'x, y, z'
loop_
 _atom_site_type_symbol
 _atom_site_label
 _atom_site_symmetry_multiplicity
 _atom_site_fract_x
 _atom_site_fract_y
 _atom_site_fract_z
 _atom_site_occupancy
  Hf  Hf0  1  0.000000  0.406566  0.500000  1
  Hf  Hf1  1  0.601818  0.596061  0.500000  1
  Hf  Hf2  1  0.398182  0.994243  0.500000  1
  Si  Si3  1  0.000000  0.006073  0.500000  1
  Ge  Ge4  1  0.336512  0.665686  0.000000  1
  Ge  Ge5  1  0.663488  0.329173  0.000000  1
  Mo  Mo6  1  0.000000  0.752433  0.000000  1
  Ru  Ru7  1  0.246761  0.248263  0.000000  1
  Ru  Ru8  1  0.753239  0.001502  0.000000  1
