# generated using pymatgen
data_Tb3Sm(Sc3Ga4)2
_symmetry_space_group_name_H-M   'P 1'
_cell_length_a   7.32433217
_cell_length_b   7.57477563
_cell_length_c   14.55744226
_cell_angle_alpha   90.04392361
_cell_angle_beta   90.01836307
_cell_angle_gamma   90.01614029
_symmetry_Int_Tables_number   1
_chemical_formula_structural   Tb3Sm(Sc3Ga4)2
_chemical_formula_sum   'Tb6 Sm2 Sc12 Ga16'
_cell_volume   807.64910122
_cell_formula_units_Z   2
loop_
 _symmetry_equiv_pos_site_id
 _symmetry_equiv_pos_as_xyz
  1  'x, y, z'
loop_
 _atom_site_type_symbol
 _atom_site_label
 _atom_site_symmetry_multiplicity
 _atom_site_fract_x
 _atom_site_fract_y
 _atom_site_fract_z
 _atom_site_occupancy
  Tb  Tb0  1  0.488142  0.677257  0.904361  1
  Tb  Tb1  1  0.988224  0.822609  0.595703  1
  Tb  Tb2  1  0.511858  0.322743  0.095639  1
  Tb  Tb3  1  0.011776  0.177391  0.404297  1
  Tb  Tb4  1  0.511852  0.322561  0.404365  1
  Tb  Tb5  1  0.488148  0.677439  0.595635  1
  Sm  Sm6  1  0.011758  0.177069  0.095607  1
  Sm  Sm7  1  0.988242  0.822931  0.904393  1
  Sc  Sc8  1  0.162138  0.502324  0.749804  1
  Sc  Sc9  1  0.837862  0.497676  0.250196  1
  Sc  Sc10  1  0.338371  0.002358  0.250178  1
  Sc  Sc11  1  0.661629  0.997642  0.749822  1
  Sc  Sc12  1  0.330068  0.174255  0.624300  1
  Sc  Sc13  1  0.669932  0.825745  0.375700  1
  Sc  Sc14  1  0.169935  0.674341  0.375749  1
  Sc  Sc15  1  0.669438  0.825499  0.124461  1
  Sc  Sc16  1  0.830065  0.325659  0.624251  1
  Sc  Sc17  1  0.330562  0.174501  0.875539  1
  Sc  Sc18  1  0.829804  0.325882  0.875461  1
  Sc  Sc19  1  0.170196  0.674118  0.124539  1
  Ga  Ga20  1  0.031809  0.118974  0.749767  1
  Ga  Ga21  1  0.968191  0.881026  0.250233  1
  Ga  Ga22  1  0.468324  0.618631  0.250013  1
  Ga  Ga23  1  0.531676  0.381369  0.749987  1
  Ga  Ga24  1  0.285207  0.873896  0.749631  1
  Ga  Ga25  1  0.714793  0.126104  0.250369  1
  Ga  Ga26  1  0.215667  0.374194  0.250255  1
  Ga  Ga27  1  0.784333  0.625806  0.749745  1
  Ga  Ga28  1  0.159847  0.464986  0.540119  1
  Ga  Ga29  1  0.840153  0.535014  0.459881  1
  Ga  Ga30  1  0.340201  0.964867  0.459875  1
  Ga  Ga31  1  0.839647  0.535389  0.040191  1
  Ga  Ga32  1  0.659799  0.035133  0.540125  1
  Ga  Ga33  1  0.160353  0.464611  0.959809  1
  Ga  Ga34  1  0.658599  0.035517  0.959964  1
  Ga  Ga35  1  0.341401  0.964483  0.040036  1
