# generated using pymatgen
data_Zr15Ta5Si16
_symmetry_space_group_name_H-M   'P 1'
_cell_length_a   7.03879342
_cell_length_b   7.03777788
_cell_length_c   12.92313306
_cell_angle_alpha   90.17036287
_cell_angle_beta   90.19608522
_cell_angle_gamma   89.98352367
_symmetry_Int_Tables_number   1
_chemical_formula_structural   Zr15Ta5Si16
_chemical_formula_sum   'Zr15 Ta5 Si16'
_cell_volume   640.17264319
_cell_formula_units_Z   1
loop_
 _symmetry_equiv_pos_site_id
 _symmetry_equiv_pos_as_xyz
  1  'x, y, z'
loop_
 _atom_site_type_symbol
 _atom_site_label
 _atom_site_symmetry_multiplicity
 _atom_site_fract_x
 _atom_site_fract_y
 _atom_site_fract_z
 _atom_site_occupancy
  Zr  Zr0  1  0.854808  0.997946  0.373940  1
  Zr  Zr1  1  0.004475  0.146220  0.127621  1
  Zr  Zr2  1  0.998474  0.852460  0.625248  1
  Zr  Zr3  1  0.645488  0.497649  0.876067  1
  Zr  Zr4  1  0.501199  0.353300  0.623299  1
  Zr  Zr5  1  0.498665  0.644404  0.124038  1
  Zr  Zr6  1  0.145834  0.002377  0.873841  1
  Zr  Zr7  1  0.002024  0.650444  0.034781  1
  Zr  Zr8  1  0.002056  0.349055  0.531444  1
  Zr  Zr9  1  0.650449  0.998611  0.966600  1
  Zr  Zr10  1  0.150363  0.500056  0.783782  1
  Zr  Zr11  1  0.849104  0.498924  0.283557  1
  Zr  Zr12  1  0.501215  0.152011  0.218791  1
  Zr  Zr13  1  0.498642  0.847835  0.714497  1
  Zr  Zr14  1  0.347960  0.001009  0.466273  1
  Ta  Ta15  1  0.354438  0.507567  0.375239  1
  Ta  Ta16  1  0.672235  0.673337  0.498692  1
  Ta  Ta17  1  0.823806  0.175109  0.749920  1
  Ta  Ta18  1  0.177421  0.823950  0.251543  1
  Ta  Ta19  1  0.325222  0.325014  0.000832  1
  Si  Si20  1  0.051937  0.698945  0.434768  1
  Si  Si21  1  0.951745  0.300422  0.936295  1
  Si  Si22  1  0.699634  0.048906  0.563976  1
  Si  Si23  1  0.201663  0.452019  0.188227  1
  Si  Si24  1  0.800181  0.547606  0.684926  1
  Si  Si25  1  0.451133  0.199260  0.814440  1
  Si  Si26  1  0.547344  0.798098  0.315020  1
  Si  Si27  1  0.301028  0.951075  0.065117  1
  Si  Si28  1  0.852025  0.798170  0.820641  1
  Si  Si29  1  0.147576  0.209708  0.324327  1
  Si  Si30  1  0.798123  0.852843  0.178825  1
  Si  Si31  1  0.298333  0.645367  0.567612  1
  Si  Si32  1  0.702424  0.351280  0.071557  1
  Si  Si33  1  0.640433  0.299798  0.426330  1
  Si  Si34  1  0.352335  0.701724  0.929399  1
  Si  Si35  1  0.200210  0.147500  0.678537  1
