# generated using pymatgen
data_Dy5Y15Ir7Rh5
_symmetry_space_group_name_H-M   'P 1'
_cell_length_a   10.92421814
_cell_length_b   10.92486029
_cell_length_c   6.39991720
_cell_angle_alpha   90.01778055
_cell_angle_beta   89.99690401
_cell_angle_gamma   89.89616768
_symmetry_Int_Tables_number   1
_chemical_formula_structural   Dy5Y15Ir7Rh5
_chemical_formula_sum   'Dy5 Y15 Ir7 Rh5'
_cell_volume   763.80039076
_cell_formula_units_Z   1
loop_
 _symmetry_equiv_pos_site_id
 _symmetry_equiv_pos_as_xyz
  1  'x, y, z'
loop_
 _atom_site_type_symbol
 _atom_site_label
 _atom_site_symmetry_multiplicity
 _atom_site_fract_x
 _atom_site_fract_y
 _atom_site_fract_z
 _atom_site_occupancy
  Dy  Dy0  1  0.091357  0.291812  0.117868  1
  Dy  Dy1  1  0.999824  0.999757  0.500020  1
  Dy  Dy2  1  0.000287  0.000344  0.000285  1
  Dy  Dy3  1  0.499866  0.499668  0.999747  1
  Dy  Dy4  1  0.500323  0.500052  0.500036  1
  Y  Y5  1  0.289641  0.089215  0.381285  1
  Y  Y6  1  0.290436  0.910652  0.880329  1
  Y  Y7  1  0.708888  0.088754  0.879676  1
  Y  Y8  1  0.708939  0.908778  0.381041  1
  Y  Y9  1  0.589226  0.790143  0.881044  1
  Y  Y10  1  0.587492  0.209963  0.380368  1
  Y  Y11  1  0.410272  0.790313  0.380845  1
  Y  Y12  1  0.410485  0.209508  0.880489  1
  Y  Y13  1  0.209875  0.410723  0.619120  1
  Y  Y14  1  0.209736  0.589724  0.119223  1
  Y  Y15  1  0.790139  0.412462  0.119464  1
  Y  Y16  1  0.790637  0.589513  0.619440  1
  Y  Y17  1  0.910908  0.710094  0.118806  1
  Y  Y18  1  0.911282  0.290991  0.620569  1
  Y  Y19  1  0.089097  0.709434  0.619452  1
  Ir  Ir20  1  0.847317  0.848280  0.750038  1
  Ir  Ir21  1  0.151561  0.153383  0.751541  1
  Ir  Ir22  1  0.152803  0.847324  0.250066  1
  Ir  Ir23  1  0.653566  0.346434  0.749996  1
  Ir  Ir24  1  0.652947  0.652138  0.249660  1
  Ir  Ir25  1  0.346746  0.346965  0.249743  1
  Ir  Ir26  1  0.347303  0.652677  0.749976  1
  Rh  Rh27  1  0.847655  0.153274  0.249809  1
  Rh  Rh28  1  0.500568  0.000234  0.126924  1
  Rh  Rh29  1  0.500428  0.000179  0.625986  1
  Rh  Rh30  1  0.000268  0.498684  0.875036  1
  Rh  Rh31  1  0.000129  0.498523  0.372118  1
