# generated using pymatgen
data_Tb2CdNiAu
_symmetry_space_group_name_H-M   'P 1'
_cell_length_a   7.79081680
_cell_length_b   7.79081680
_cell_length_c   3.66219400
_cell_angle_alpha   90.00000000
_cell_angle_beta   90.00000000
_cell_angle_gamma   87.54298507
_symmetry_Int_Tables_number   1
_chemical_formula_structural   Tb2CdNiAu
_chemical_formula_sum   'Tb4 Cd2 Ni2 Au2'
_cell_volume   222.07920037
_cell_formula_units_Z   2
loop_
 _symmetry_equiv_pos_site_id
 _symmetry_equiv_pos_as_xyz
  1  'x, y, z'
loop_
 _atom_site_type_symbol
 _atom_site_label
 _atom_site_symmetry_multiplicity
 _atom_site_fract_x
 _atom_site_fract_y
 _atom_site_fract_z
 _atom_site_occupancy
  Tb  Tb0  1  0.660136  0.160136  0.500000  1
  Tb  Tb1  1  0.339864  0.839864  0.500000  1
  Tb  Tb2  1  0.190105  0.309895  0.500000  1
  Tb  Tb3  1  0.809895  0.690105  0.500000  1
  Cd  Cd4  1  0.000000  0.000000  0.000000  1
  Cd  Cd5  1  0.500000  0.500000  0.000000  1
  Ni  Ni6  1  0.616386  0.883614  0.000000  1
  Ni  Ni7  1  0.383614  0.116386  0.000000  1
  Au  Au8  1  0.127432  0.627432  0.000000  1
  Au  Au9  1  0.872568  0.372568  0.000000  1
