# generated using pymatgen
data_Pr8GeAsBr12
_symmetry_space_group_name_H-M   'P 1'
_cell_length_a   4.27769900
_cell_length_b   13.76678902
_cell_length_c   14.69154728
_cell_angle_alpha   89.85454735
_cell_angle_beta   90.00000000
_cell_angle_gamma   90.00000000
_symmetry_Int_Tables_number   1
_chemical_formula_structural   Pr8GeAsBr12
_chemical_formula_sum   'Pr8 Ge1 As1 Br12'
_cell_volume   865.18507071
_cell_formula_units_Z   1
loop_
 _symmetry_equiv_pos_site_id
 _symmetry_equiv_pos_as_xyz
  1  'x, y, z'
loop_
 _atom_site_type_symbol
 _atom_site_label
 _atom_site_symmetry_multiplicity
 _atom_site_fract_x
 _atom_site_fract_y
 _atom_site_fract_z
 _atom_site_occupancy
  Pr  Pr0  1  0.500000  0.118804  0.340786  1
  Pr  Pr1  1  0.500000  0.881196  0.659214  1
  Pr  Pr2  1  0.500000  0.620322  0.161018  1
  Pr  Pr3  1  0.500000  0.379678  0.838982  1
  Pr  Pr4  1  0.000000  0.117146  0.577970  1
  Pr  Pr5  1  0.000000  0.882854  0.422030  1
  Pr  Pr6  1  0.000000  0.621220  0.919833  1
  Pr  Pr7  1  0.000000  0.378780  0.080167  1
  Ge  Ge8  1  0.500000  0.500000  0.000000  1
  As  As9  1  0.500000  0.000000  0.500000  1
  Br  Br10  1  0.500000  0.242467  0.163438  1
  Br  Br11  1  0.500000  0.757533  0.836562  1
  Br  Br12  1  0.500000  0.745999  0.340164  1
  Br  Br13  1  0.500000  0.254001  0.659836  1
  Br  Br14  1  0.000000  0.253936  0.410873  1
  Br  Br15  1  0.000000  0.746064  0.589127  1
  Br  Br16  1  0.000000  0.754084  0.089414  1
  Br  Br17  1  0.000000  0.245916  0.910586  1
  Br  Br18  1  0.000000  0.002319  0.244816  1
  Br  Br19  1  0.000000  0.997681  0.755184  1
  Br  Br20  1  0.000000  0.502784  0.255283  1
  Br  Br21  1  0.000000  0.497216  0.744717  1
