# generated using pymatgen
data_Nd4Bi4Sb2Rh7
_symmetry_space_group_name_H-M   'P 1'
_cell_length_a   7.87415265
_cell_length_b   7.84834898
_cell_length_c   7.84834751
_cell_angle_alpha   110.08153977
_cell_angle_beta   109.10166794
_cell_angle_gamma   109.10167529
_symmetry_Int_Tables_number   1
_chemical_formula_structural   Nd4Bi4Sb2Rh7
_chemical_formula_sum   'Nd4 Bi4 Sb2 Rh7'
_cell_volume   373.93397153
_cell_formula_units_Z   1
loop_
 _symmetry_equiv_pos_site_id
 _symmetry_equiv_pos_as_xyz
  1  'x, y, z'
loop_
 _atom_site_type_symbol
 _atom_site_label
 _atom_site_symmetry_multiplicity
 _atom_site_fract_x
 _atom_site_fract_y
 _atom_site_fract_z
 _atom_site_occupancy
  Nd  Nd0  1  0.472423  0.001862  0.001862  1
  Nd  Nd1  1  0.002337  0.501168  0.001168  1
  Nd  Nd2  1  0.002337  0.001168  0.501168  1
  Nd  Nd3  1  0.472423  0.470561  0.470561  1
  Bi  Bi4  1  0.983297  0.308126  0.308126  1
  Bi  Bi5  1  0.685104  0.991489  0.693616  1
  Bi  Bi6  1  0.685104  0.693616  0.991489  1
  Bi  Bi7  1  0.983297  0.675170  0.675170  1
  Sb  Sb8  1  0.329326  0.992436  0.336890  1
  Sb  Sb9  1  0.329326  0.336890  0.992436  1
  Rh  Rh10  1  0.091015  0.045508  0.045508  1
  Rh  Rh11  1  0.498112  0.749056  0.249056  1
  Rh  Rh12  1  0.739453  0.499620  0.239832  1
  Rh  Rh13  1  0.244442  0.745524  0.498918  1
  Rh  Rh14  1  0.244442  0.498918  0.745524  1
  Rh  Rh15  1  0.498112  0.249056  0.749056  1
  Rh  Rh16  1  0.739453  0.239832  0.499620  1
