# generated using pymatgen
data_Sr21Al3Ga5SnBiPb5
_symmetry_space_group_name_H-M   'P 1'
_cell_length_a   12.15441940
_cell_length_b   12.17758152
_cell_length_c   12.17758000
_cell_angle_alpha   59.99930872
_cell_angle_beta   59.93683662
_cell_angle_gamma   59.93683578
_symmetry_Int_Tables_number   1
_chemical_formula_structural   Sr21Al3Ga5SnBiPb5
_chemical_formula_sum   'Sr21 Al3 Ga5 Sn1 Bi1 Pb5'
_cell_volume   1273.27936836
_cell_formula_units_Z   1
loop_
 _symmetry_equiv_pos_site_id
 _symmetry_equiv_pos_as_xyz
  1  'x, y, z'
loop_
 _atom_site_type_symbol
 _atom_site_label
 _atom_site_symmetry_multiplicity
 _atom_site_fract_x
 _atom_site_fract_y
 _atom_site_fract_z
 _atom_site_occupancy
  Sr  Sr0  1  0.870297  0.869449  0.390724  1
  Sr  Sr1  1  0.606002  0.131198  0.131549  1
  Sr  Sr2  1  0.871662  0.390273  0.869064  1
  Sr  Sr3  1  0.131520  0.131655  0.130260  1
  Sr  Sr4  1  0.389176  0.871251  0.869608  1
  Sr  Sr5  1  0.870402  0.869427  0.869629  1
  Sr  Sr6  1  0.176713  0.822560  0.500401  1
  Sr  Sr7  1  0.822334  0.499422  0.499318  1
  Sr  Sr8  1  0.131588  0.131823  0.606398  1
  Sr  Sr9  1  0.822585  0.178989  0.499249  1
  Sr  Sr10  1  0.176637  0.499539  0.501130  1
  Sr  Sr11  1  0.131324  0.605946  0.131435  1
  Sr  Sr12  1  0.499333  0.499123  0.178768  1
  Sr  Sr13  1  0.498511  0.178457  0.822808  1
  Sr  Sr14  1  0.499570  0.822664  0.178528  1
  Sr  Sr15  1  0.499503  0.499378  0.822860  1
  Sr  Sr16  1  0.498424  0.178359  0.500181  1
  Sr  Sr17  1  0.176637  0.499561  0.822527  1
  Sr  Sr18  1  0.000354  0.000691  0.999569  1
  Sr  Sr19  1  0.499408  0.822604  0.499403  1
  Sr  Sr20  1  0.822427  0.499311  0.179190  1
  Al  Al21  1  0.695048  0.917348  0.693772  1
  Al  Al22  1  0.694979  0.693805  0.917473  1
  Al  Al23  1  0.694874  0.693741  0.693612  1
  Ga  Ga24  1  0.306307  0.079786  0.306925  1
  Ga  Ga25  1  0.921804  0.692970  0.692518  1
  Ga  Ga26  1  0.306369  0.306922  0.079799  1
  Ga  Ga27  1  0.079620  0.306857  0.306775  1
  Ga  Ga28  1  0.306531  0.306943  0.306947  1
  Sn  Sn29  1  0.213437  0.213123  0.786622  1
  Bi  Bi30  1  0.499350  0.500388  0.500312  1
  Pb  Pb31  1  0.786898  0.213224  0.786435  1
  Pb  Pb32  1  0.786989  0.213051  0.213295  1
  Pb  Pb33  1  0.213172  0.786793  0.213376  1
  Pb  Pb34  1  0.213371  0.786646  0.786533  1
  Pb  Pb35  1  0.786844  0.786722  0.213007  1
