# generated using pymatgen
data_SnSb3Mo2
_symmetry_space_group_name_H-M   'P 1'
_cell_length_a   5.36387674
_cell_length_b   5.36387629
_cell_length_c   8.21996428
_cell_angle_alpha   117.58399493
_cell_angle_beta   117.58399216
_cell_angle_gamma   39.16901276
_symmetry_Int_Tables_number   1
_chemical_formula_structural   SnSb3Mo2
_chemical_formula_sum   'Sn1 Sb3 Mo2'
_cell_volume   130.08847752
_cell_formula_units_Z   1
loop_
 _symmetry_equiv_pos_site_id
 _symmetry_equiv_pos_as_xyz
  1  'x, y, z'
loop_
 _atom_site_type_symbol
 _atom_site_label
 _atom_site_symmetry_multiplicity
 _atom_site_fract_x
 _atom_site_fract_y
 _atom_site_fract_z
 _atom_site_occupancy
  Sn  Sn0  1  0.150457  0.150457  0.041858  1
  Sb  Sb1  1  0.595296  0.595296  0.386885  1
  Sb  Sb2  1  0.405458  0.405458  0.611973  1
  Sb  Sb3  1  0.844085  0.844085  0.956358  1
  Mo  Mo4  1  0.852094  0.852094  0.315645  1
  Mo  Mo5  1  0.152609  0.152609  0.687280  1
