# generated using pymatgen
data_Tb4Dy8Tc3Rh
_symmetry_space_group_name_H-M   'P 1'
_cell_length_a   6.29901142
_cell_length_b   7.39305406
_cell_length_c   9.18872500
_cell_angle_alpha   90.00000000
_cell_angle_beta   90.00000000
_cell_angle_gamma   89.88941632
_symmetry_Int_Tables_number   1
_chemical_formula_structural   Tb4Dy8Tc3Rh
_chemical_formula_sum   'Tb4 Dy8 Tc3 Rh1'
_cell_volume   427.90831207
_cell_formula_units_Z   1
loop_
 _symmetry_equiv_pos_site_id
 _symmetry_equiv_pos_as_xyz
  1  'x, y, z'
loop_
 _atom_site_type_symbol
 _atom_site_label
 _atom_site_symmetry_multiplicity
 _atom_site_fract_x
 _atom_site_fract_y
 _atom_site_fract_z
 _atom_site_occupancy
  Tb  Tb0  1  0.873214  0.541822  0.250000  1
  Tb  Tb1  1  0.624184  0.039010  0.250000  1
  Tb  Tb2  1  0.131044  0.457735  0.750000  1
  Tb  Tb3  1  0.371053  0.959113  0.750000  1
  Dy  Dy4  1  0.332950  0.676827  0.066435  1
  Dy  Dy5  1  0.162488  0.177047  0.436028  1
  Dy  Dy6  1  0.663251  0.321228  0.561528  1
  Dy  Dy7  1  0.838263  0.825754  0.938367  1
  Dy  Dy8  1  0.663251  0.321228  0.938472  1
  Dy  Dy9  1  0.838263  0.825754  0.561633  1
  Dy  Dy10  1  0.332950  0.676827  0.433565  1
  Dy  Dy11  1  0.162488  0.177047  0.063972  1
  Tc  Tc12  1  0.038956  0.883926  0.250000  1
  Tc  Tc13  1  0.462545  0.386391  0.250000  1
  Tc  Tc14  1  0.959831  0.115921  0.750000  1
  Rh  Rh15  1  0.545272  0.614368  0.750000  1
