# generated using pymatgen
data_LiZn3F8
_symmetry_space_group_name_H-M   'P 1'
_cell_length_a   4.71995100
_cell_length_b   5.68174934
_cell_length_c   10.50632414
_cell_angle_alpha   83.26717523
_cell_angle_beta   90.00000000
_cell_angle_gamma   90.00000000
_symmetry_Int_Tables_number   1
_chemical_formula_structural   LiZn3F8
_chemical_formula_sum   'Li2 Zn6 F16'
_cell_volume   279.81109558
_cell_formula_units_Z   2
loop_
 _symmetry_equiv_pos_site_id
 _symmetry_equiv_pos_as_xyz
  1  'x, y, z'
loop_
 _atom_site_type_symbol
 _atom_site_label
 _atom_site_symmetry_multiplicity
 _atom_site_fract_x
 _atom_site_fract_y
 _atom_site_fract_z
 _atom_site_occupancy
  Li  Li0  1  0.000000  0.000000  0.000000  1
  Li  Li1  1  0.500000  0.000000  0.500000  1
  Zn  Zn2  1  0.500000  0.500000  0.000000  1
  Zn  Zn3  1  0.004531  0.241947  0.249977  1
  Zn  Zn4  1  0.504531  0.758053  0.250023  1
  Zn  Zn5  1  0.000000  0.500000  0.500000  1
  Zn  Zn6  1  0.495469  0.241947  0.749977  1
  Zn  Zn7  1  0.995469  0.758053  0.750023  1
  F  F8  1  0.708299  0.478743  0.177133  1
  F  F9  1  0.208299  0.521257  0.322867  1
  F  F10  1  0.791701  0.478743  0.677133  1
  F  F11  1  0.291701  0.521257  0.822867  1
  F  F12  1  0.202363  0.278085  0.078343  1
  F  F13  1  0.313568  0.765835  0.077094  1
  F  F14  1  0.802196  0.981584  0.173340  1
  F  F15  1  0.302196  0.018416  0.326660  1
  F  F16  1  0.813568  0.234165  0.422906  1
  F  F17  1  0.702363  0.721915  0.421657  1
  F  F18  1  0.297637  0.278085  0.578343  1
  F  F19  1  0.186432  0.765835  0.577094  1
  F  F20  1  0.697804  0.981584  0.673340  1
  F  F21  1  0.197804  0.018416  0.826660  1
  F  F22  1  0.686432  0.234165  0.922906  1
  F  F23  1  0.797637  0.721915  0.921657  1
