# generated using pymatgen
data_SrLa5NdFeBr12
_symmetry_space_group_name_H-M   'P 1'
_cell_length_a   9.80762829
_cell_length_b   9.79359633
_cell_length_c   9.40273987
_cell_angle_alpha   105.92870484
_cell_angle_beta   106.15467662
_cell_angle_gamma   106.69825019
_symmetry_Int_Tables_number   1
_chemical_formula_structural   SrLa5NdFeBr12
_chemical_formula_sum   'Sr1 La5 Nd1 Fe1 Br12'
_cell_volume   766.79108380
_cell_formula_units_Z   1
loop_
 _symmetry_equiv_pos_site_id
 _symmetry_equiv_pos_as_xyz
  1  'x, y, z'
loop_
 _atom_site_type_symbol
 _atom_site_label
 _atom_site_symmetry_multiplicity
 _atom_site_fract_x
 _atom_site_fract_y
 _atom_site_fract_z
 _atom_site_occupancy
  Sr  Sr0  1  0.499459  0.500237  0.499004  1
  La  La1  1  0.316612  0.020435  0.109669  1
  La  La2  1  0.019549  0.095019  0.283016  1
  La  La3  1  0.980820  0.906373  0.717292  1
  La  La4  1  0.683605  0.980221  0.890217  1
  La  La5  1  0.891690  0.681217  0.983904  1
  Nd  Nd6  1  0.107171  0.311883  0.016870  1
  Fe  Fe7  1  0.000199  0.000316  0.000668  1
  Br  Br8  1  0.214193  0.680817  0.071280  1
  Br  Br9  1  0.445924  0.363940  0.144694  1
  Br  Br10  1  0.682308  0.072300  0.219633  1
  Br  Br11  1  0.931851  0.786882  0.327116  1
  Br  Br12  1  0.155904  0.447421  0.363179  1
  Br  Br13  1  0.368748  0.159319  0.457147  1
  Br  Br14  1  0.631361  0.841334  0.543005  1
  Br  Br15  1  0.843036  0.552207  0.631852  1
  Br  Br16  1  0.069648  0.216929  0.678950  1
  Br  Br17  1  0.317825  0.928060  0.780360  1
  Br  Br18  1  0.550534  0.636618  0.852791  1
  Br  Br19  1  0.789563  0.318474  0.929354  1
