# generated using pymatgen
data_TbBi3IrRh3O14
_symmetry_space_group_name_H-M   'P 1'
_cell_length_a   7.29806531
_cell_length_b   7.31394286
_cell_length_c   7.31394204
_cell_angle_alpha   60.37549859
_cell_angle_beta   60.41585481
_cell_angle_gamma   60.41585828
_symmetry_Int_Tables_number   1
_chemical_formula_structural   TbBi3IrRh3O14
_chemical_formula_sum   'Tb1 Bi3 Ir1 Rh3 O14'
_cell_volume   278.56716010
_cell_formula_units_Z   1
loop_
 _symmetry_equiv_pos_site_id
 _symmetry_equiv_pos_as_xyz
  1  'x, y, z'
loop_
 _atom_site_type_symbol
 _atom_site_label
 _atom_site_symmetry_multiplicity
 _atom_site_fract_x
 _atom_site_fract_y
 _atom_site_fract_z
 _atom_site_occupancy
  Tb  Tb0  1  0.125000  0.125000  0.125000  1
  Bi  Bi1  1  0.125000  0.625000  0.125000  1
  Bi  Bi2  1  0.625000  0.125000  0.125000  1
  Bi  Bi3  1  0.125000  0.125000  0.625000  1
  Ir  Ir4  1  0.125000  0.625000  0.625000  1
  Rh  Rh5  1  0.625000  0.625000  0.625000  1
  Rh  Rh6  1  0.625000  0.625000  0.125000  1
  Rh  Rh7  1  0.625000  0.125000  0.625000  1
  O  O8  1  0.247529  0.249093  0.249093  1
  O  O9  1  0.287953  0.714324  0.292765  1
  O  O10  1  0.962047  0.957235  0.535676  1
  O  O11  1  0.540980  0.957462  0.543532  1
  O  O12  1  0.709020  0.706468  0.292538  1
  O  O13  1  0.958166  0.544295  0.544295  1
  O  O14  1  0.709020  0.292538  0.706468  1
  O  O15  1  0.287953  0.292765  0.714324  1
  O  O16  1  0.717106  0.288786  0.288786  1
  O  O17  1  0.291834  0.705705  0.705705  1
  O  O18  1  0.962047  0.535676  0.957235  1
  O  O19  1  0.540980  0.543532  0.957462  1
  O  O20  1  0.002471  0.000907  0.000907  1
  O  O21  1  0.532894  0.961214  0.961214  1
