# generated using pymatgen
data_DyLuGaNi7B2
_symmetry_space_group_name_H-M   'P 1'
_cell_length_a   5.03869300
_cell_length_b   5.03204062
_cell_length_c   6.86830000
_cell_angle_alpha   90.00000000
_cell_angle_beta   90.00000000
_cell_angle_gamma   120.04296656
_symmetry_Int_Tables_number   1
_chemical_formula_structural   DyLuGaNi7B2
_chemical_formula_sum   'Dy1 Lu1 Ga1 Ni7 B2'
_cell_volume   150.74875345
_cell_formula_units_Z   1
loop_
 _symmetry_equiv_pos_site_id
 _symmetry_equiv_pos_as_xyz
  1  'x, y, z'
loop_
 _atom_site_type_symbol
 _atom_site_label
 _atom_site_symmetry_multiplicity
 _atom_site_fract_x
 _atom_site_fract_y
 _atom_site_fract_z
 _atom_site_occupancy
  Dy  Dy0  1  0.499993  0.999985  0.000000  1
  Lu  Lu1  1  0.499992  0.999990  0.500000  1
  Ga  Ga2  1  0.833550  0.667097  0.000000  1
  Ni  Ni3  1  0.166514  0.333035  0.000000  1
  Ni  Ni4  1  0.000756  0.001514  0.704012  1
  Ni  Ni5  1  0.498460  0.499229  0.704156  1
  Ni  Ni6  1  0.000770  0.499226  0.704159  1
  Ni  Ni7  1  0.000756  0.001514  0.295988  1
  Ni  Ni8  1  0.498460  0.499229  0.295844  1
  Ni  Ni9  1  0.000770  0.499226  0.295841  1
  B  B10  1  0.833164  0.666322  0.500000  1
  B  B11  1  0.166815  0.333635  0.500000  1
