# generated using pymatgen
data_Zn11AgRu
_symmetry_space_group_name_H-M   'P 1'
_cell_length_a   7.97325725
_cell_length_b   7.97325678
_cell_length_c   7.97034196
_cell_angle_alpha   109.43576714
_cell_angle_beta   109.43576160
_cell_angle_gamma   109.55694801
_symmetry_Int_Tables_number   1
_chemical_formula_structural   Zn11AgRu
_chemical_formula_sum   'Zn22 Ag2 Ru2'
_cell_volume   389.98389765
_cell_formula_units_Z   2
loop_
 _symmetry_equiv_pos_site_id
 _symmetry_equiv_pos_as_xyz
  1  'x, y, z'
loop_
 _atom_site_type_symbol
 _atom_site_label
 _atom_site_symmetry_multiplicity
 _atom_site_fract_x
 _atom_site_fract_y
 _atom_site_fract_z
 _atom_site_occupancy
  Zn  Zn0  1  0.786305  0.990101  0.000000  1
  Zn  Zn1  1  0.651377  0.280624  0.000000  1
  Zn  Zn2  1  0.354426  0.354426  0.000000  1
  Zn  Zn3  1  0.639804  0.639804  0.000000  1
  Zn  Zn4  1  0.280624  0.651377  0.000000  1
  Zn  Zn5  1  0.990101  0.786305  0.000000  1
  Zn  Zn6  1  0.220870  0.220870  0.228148  1
  Zn  Zn7  1  0.658357  0.004653  0.281759  1
  Zn  Zn8  1  0.004653  0.658357  0.281759  1
  Zn  Zn9  1  0.622996  0.358308  0.352615  1
  Zn  Zn10  1  0.358308  0.622996  0.352615  1
  Zn  Zn11  1  0.347285  0.982893  0.348851  1
  Zn  Zn12  1  0.982893  0.347285  0.348851  1
  Zn  Zn13  1  0.734837  0.734837  0.382199  1
  Zn  Zn14  1  0.352638  0.352638  0.617802  1
  Zn  Zn15  1  0.634042  0.998433  0.651149  1
  Zn  Zn16  1  0.998433  0.634042  0.651149  1
  Zn  Zn17  1  0.270381  0.005693  0.647385  1
  Zn  Zn18  1  0.005693  0.270381  0.647385  1
  Zn  Zn19  1  0.722895  0.376599  0.718242  1
  Zn  Zn20  1  0.376599  0.722895  0.718242  1
  Zn  Zn21  1  0.992722  0.992722  0.771852  1
  Ag  Ag22  1  0.352347  0.001713  0.000000  1
  Ag  Ag23  1  0.001713  0.352347  0.000000  1
  Ru  Ru24  1  0.003636  0.003636  0.347567  1
  Ru  Ru25  1  0.656069  0.656069  0.652433  1
