# generated using pymatgen
data_Zr4Mn7Si
_symmetry_space_group_name_H-M   'P 1'
_cell_length_a   4.95555000
_cell_length_b   4.95554897
_cell_length_c   8.13652100
_cell_angle_alpha   90.00000000
_cell_angle_beta   90.00000000
_cell_angle_gamma   120.00000688
_symmetry_Int_Tables_number   1
_chemical_formula_structural   Zr4Mn7Si
_chemical_formula_sum   'Zr4 Mn7 Si1'
_cell_volume   173.04258164
_cell_formula_units_Z   1
loop_
 _symmetry_equiv_pos_site_id
 _symmetry_equiv_pos_as_xyz
  1  'x, y, z'
loop_
 _atom_site_type_symbol
 _atom_site_label
 _atom_site_symmetry_multiplicity
 _atom_site_fract_x
 _atom_site_fract_y
 _atom_site_fract_z
 _atom_site_occupancy
  Zr  Zr0  1  0.333333  0.666667  0.062261  1
  Zr  Zr1  1  0.666667  0.333333  0.566433  1
  Zr  Zr2  1  0.666667  0.333333  0.937739  1
  Zr  Zr3  1  0.333333  0.666667  0.433567  1
  Mn  Mn4  1  0.000000  0.000000  0.000000  1
  Mn  Mn5  1  0.170449  0.340897  0.751023  1
  Mn  Mn6  1  0.829551  0.170449  0.248977  1
  Mn  Mn7  1  0.829551  0.659103  0.248977  1
  Mn  Mn8  1  0.170449  0.829551  0.751023  1
  Mn  Mn9  1  0.659103  0.829551  0.751023  1
  Mn  Mn10  1  0.340897  0.170449  0.248977  1
  Si  Si11  1  0.000000  0.000000  0.500000  1
