# generated using pymatgen
data_Ho4Er4Cd2IrRu
_symmetry_space_group_name_H-M   'P 1'
_cell_length_a   9.57181075
_cell_length_b   9.57181208
_cell_length_c   9.61625900
_cell_angle_alpha   59.84627082
_cell_angle_beta   59.84626621
_cell_angle_gamma   59.73756501
_symmetry_Int_Tables_number   1
_chemical_formula_structural   Ho4Er4Cd2IrRu
_chemical_formula_sum   'Ho8 Er8 Cd4 Ir2 Ru2'
_cell_volume   620.29973216
_cell_formula_units_Z   2
loop_
 _symmetry_equiv_pos_site_id
 _symmetry_equiv_pos_as_xyz
  1  'x, y, z'
loop_
 _atom_site_type_symbol
 _atom_site_label
 _atom_site_symmetry_multiplicity
 _atom_site_fract_x
 _atom_site_fract_y
 _atom_site_fract_z
 _atom_site_occupancy
  Ho  Ho0  1  0.437994  0.437994  0.062006  1
  Ho  Ho1  1  0.059665  0.059665  0.440335  1
  Ho  Ho2  1  0.188193  0.810015  0.813085  1
  Ho  Ho3  1  0.810015  0.188193  0.188708  1
  Ho  Ho4  1  0.810015  0.188193  0.813085  1
  Ho  Ho5  1  0.188193  0.810015  0.188708  1
  Ho  Ho6  1  0.811322  0.811322  0.188678  1
  Ho  Ho7  1  0.188663  0.188663  0.811337  1
  Er  Er8  1  0.598214  0.598214  0.597791  1
  Er  Er9  1  0.598214  0.598214  0.205783  1
  Er  Er10  1  0.596744  0.209405  0.596926  1
  Er  Er11  1  0.209405  0.596744  0.596926  1
  Er  Er12  1  0.061798  0.437972  0.440087  1
  Er  Er13  1  0.437972  0.061798  0.060144  1
  Er  Er14  1  0.437972  0.061798  0.440087  1
  Er  Er15  1  0.061798  0.437972  0.060144  1
  Cd  Cd16  1  0.830299  0.830299  0.830502  1
  Cd  Cd17  1  0.830299  0.830299  0.508900  1
  Cd  Cd18  1  0.830616  0.507766  0.830808  1
  Cd  Cd19  1  0.507766  0.830616  0.830808  1
  Ir  Ir20  1  0.394380  0.826630  0.389495  1
  Ir  Ir21  1  0.826630  0.394380  0.389495  1
  Ru  Ru22  1  0.391918  0.391918  0.388207  1
  Ru  Ru23  1  0.391918  0.391918  0.827958  1
