# generated using pymatgen
data_Tb9Dy(Bi3C)2
_symmetry_space_group_name_H-M   'P 1'
_cell_length_a   9.19128900
_cell_length_b   9.19128991
_cell_length_c   6.52560200
_cell_angle_alpha   90.00000000
_cell_angle_beta   90.00000000
_cell_angle_gamma   119.99953312
_symmetry_Int_Tables_number   1
_chemical_formula_structural   Tb9Dy(Bi3C)2
_chemical_formula_sum   'Tb9 Dy1 Bi6 C2'
_cell_volume   477.42608482
_cell_formula_units_Z   1
loop_
 _symmetry_equiv_pos_site_id
 _symmetry_equiv_pos_as_xyz
  1  'x, y, z'
loop_
 _atom_site_type_symbol
 _atom_site_label
 _atom_site_symmetry_multiplicity
 _atom_site_fract_x
 _atom_site_fract_y
 _atom_site_fract_z
 _atom_site_occupancy
  Tb  Tb0  1  0.666666  0.333340  0.000075  1
  Tb  Tb1  1  0.333340  0.666666  0.000075  1
  Tb  Tb2  1  0.333340  0.666666  0.499925  1
  Tb  Tb3  1  0.666666  0.333340  0.499925  1
  Tb  Tb4  1  0.208391  0.999952  0.750000  1
  Tb  Tb5  1  0.999952  0.208391  0.750000  1
  Tb  Tb6  1  0.208308  0.208308  0.250000  1
  Tb  Tb7  1  0.791285  0.999705  0.250000  1
  Tb  Tb8  1  0.999705  0.791285  0.250000  1
  Dy  Dy9  1  0.793771  0.793771  0.750000  1
  Bi  Bi10  1  0.402191  0.402191  0.750000  1
  Bi  Bi11  1  0.598301  0.999555  0.750000  1
  Bi  Bi12  1  0.999555  0.598301  0.750000  1
  Bi  Bi13  1  0.598127  0.598127  0.250000  1
  Bi  Bi14  1  0.401778  0.000048  0.250000  1
  Bi  Bi15  1  0.000048  0.401778  0.250000  1
  C  C16  1  0.999287  0.999287  0.999368  1
  C  C17  1  0.999287  0.999287  0.500632  1
