# generated using pymatgen
data_Dy4YHo3(OsC2)4
_symmetry_space_group_name_H-M   'P 1'
_cell_length_a   5.13165800
_cell_length_b   6.43962250
_cell_length_c   9.79753264
_cell_angle_alpha   89.95681472
_cell_angle_beta   90.00000000
_cell_angle_gamma   90.00000000
_symmetry_Int_Tables_number   1
_chemical_formula_structural   Dy4YHo3(OsC2)4
_chemical_formula_sum   'Dy4 Y1 Ho3 Os4 C8'
_cell_volume   323.76858670
_cell_formula_units_Z   1
loop_
 _symmetry_equiv_pos_site_id
 _symmetry_equiv_pos_as_xyz
  1  'x, y, z'
loop_
 _atom_site_type_symbol
 _atom_site_label
 _atom_site_symmetry_multiplicity
 _atom_site_fract_x
 _atom_site_fract_y
 _atom_site_fract_z
 _atom_site_occupancy
  Dy  Dy0  1  0.250000  0.524548  0.218990  1
  Dy  Dy1  1  0.750000  0.475487  0.780369  1
  Dy  Dy2  1  0.750000  0.975550  0.719854  1
  Dy  Dy3  1  0.250000  0.024612  0.279900  1
  Y  Y4  1  0.250000  0.685968  0.551876  1
  Ho  Ho5  1  0.750000  0.315640  0.447333  1
  Ho  Ho6  1  0.750000  0.815989  0.052380  1
  Ho  Ho7  1  0.250000  0.184049  0.947755  1
  Os  Os8  1  0.250000  0.726427  0.865527  1
  Os  Os9  1  0.750000  0.273527  0.134604  1
  Os  Os10  1  0.750000  0.773462  0.364674  1
  Os  Os11  1  0.250000  0.226638  0.635075  1
  C  C12  1  0.250000  0.462047  0.758920  1
  C  C13  1  0.750000  0.537130  0.241945  1
  C  C14  1  0.750000  0.037438  0.257884  1
  C  C15  1  0.250000  0.963353  0.743003  1
  C  C16  1  0.250000  0.825474  0.053032  1
  C  C17  1  0.750000  0.174385  0.947192  1
  C  C18  1  0.750000  0.674872  0.552451  1
  C  C19  1  0.250000  0.323404  0.447239  1
