# generated using pymatgen
data_Dy4CrReOs6
_symmetry_space_group_name_H-M   'P 1'
_cell_length_a   5.22435637
_cell_length_b   5.22435751
_cell_length_c   8.87217400
_cell_angle_alpha   90.00000000
_cell_angle_beta   90.00000000
_cell_angle_gamma   116.92783445
_symmetry_Int_Tables_number   1
_chemical_formula_structural   Dy4CrReOs6
_chemical_formula_sum   'Dy4 Cr1 Re1 Os6'
_cell_volume   215.90112066
_cell_formula_units_Z   1
loop_
 _symmetry_equiv_pos_site_id
 _symmetry_equiv_pos_as_xyz
  1  'x, y, z'
loop_
 _atom_site_type_symbol
 _atom_site_label
 _atom_site_symmetry_multiplicity
 _atom_site_fract_x
 _atom_site_fract_y
 _atom_site_fract_z
 _atom_site_occupancy
  Dy  Dy0  1  0.330049  0.669951  0.436255  1
  Dy  Dy1  1  0.666735  0.333265  0.564798  1
  Dy  Dy2  1  0.666735  0.333265  0.935202  1
  Dy  Dy3  1  0.330049  0.669951  0.063745  1
  Cr  Cr4  1  0.175352  0.824648  0.750000  1
  Re  Re5  1  0.834465  0.165535  0.250000  1
  Os  Os6  1  0.997111  0.002889  0.503794  1
  Os  Os7  1  0.997111  0.002889  0.996206  1
  Os  Os8  1  0.828708  0.651972  0.250000  1
  Os  Os9  1  0.348028  0.171292  0.250000  1
  Os  Os10  1  0.171869  0.346210  0.750000  1
  Os  Os11  1  0.653790  0.828131  0.750000  1
