# generated using pymatgen
data_Th5TiRh10
_symmetry_space_group_name_H-M   'P 1'
_cell_length_a   5.93609080
_cell_length_b   5.93609222
_cell_length_c   9.03305900
_cell_angle_alpha   90.00000000
_cell_angle_beta   90.00000000
_cell_angle_gamma   102.02513935
_symmetry_Int_Tables_number   1
_chemical_formula_structural   Th5TiRh10
_chemical_formula_sum   'Th5 Ti1 Rh10'
_cell_volume   311.31487263
_cell_formula_units_Z   1
loop_
 _symmetry_equiv_pos_site_id
 _symmetry_equiv_pos_as_xyz
  1  'x, y, z'
loop_
 _atom_site_type_symbol
 _atom_site_label
 _atom_site_symmetry_multiplicity
 _atom_site_fract_x
 _atom_site_fract_y
 _atom_site_fract_z
 _atom_site_occupancy
  Th  Th0  1  0.372895  0.372895  0.250000  1
  Th  Th1  1  0.798823  0.215011  0.505464  1
  Th  Th2  1  0.215011  0.798823  0.994536  1
  Th  Th3  1  0.215011  0.798823  0.505464  1
  Th  Th4  1  0.798823  0.215011  0.994536  1
  Ti  Ti5  1  0.604143  0.604143  0.750000  1
  Rh  Rh6  1  0.705081  0.705081  0.020597  1
  Rh  Rh7  1  0.705081  0.705081  0.479403  1
  Rh  Rh8  1  0.327585  0.327585  0.918619  1
  Rh  Rh9  1  0.327585  0.327585  0.581381  1
  Rh  Rh10  1  0.506640  0.000640  0.750000  1
  Rh  Rh11  1  0.502540  0.942643  0.250000  1
  Rh  Rh12  1  0.982650  0.982650  0.250000  1
  Rh  Rh13  1  0.994849  0.994849  0.750000  1
  Rh  Rh14  1  0.000640  0.506640  0.750000  1
  Rh  Rh15  1  0.942643  0.502540  0.250000  1
