# generated using pymatgen
data_YHf3(SnRh5)2
_symmetry_space_group_name_H-M   'P 1'
_cell_length_a   4.18689900
_cell_length_b   5.65987026
_cell_length_c   11.18356150
_cell_angle_alpha   89.90193124
_cell_angle_beta   90.00000000
_cell_angle_gamma   90.00000000
_symmetry_Int_Tables_number   1
_chemical_formula_structural   YHf3(SnRh5)2
_chemical_formula_sum   'Y1 Hf3 Sn2 Rh10'
_cell_volume   265.01988084
_cell_formula_units_Z   1
loop_
 _symmetry_equiv_pos_site_id
 _symmetry_equiv_pos_as_xyz
  1  'x, y, z'
loop_
 _atom_site_type_symbol
 _atom_site_label
 _atom_site_symmetry_multiplicity
 _atom_site_fract_x
 _atom_site_fract_y
 _atom_site_fract_z
 _atom_site_occupancy
  Y  Y0  1  0.500000  0.182618  0.640506  1
  Hf  Hf1  1  0.500000  0.819915  0.357137  1
  Hf  Hf2  1  0.500000  0.681007  0.857751  1
  Hf  Hf3  1  0.500000  0.322389  0.140759  1
  Sn  Sn4  1  0.000000  0.497054  0.498163  1
  Sn  Sn5  1  0.000000  0.999104  0.001259  1
  Rh  Rh6  1  0.500000  0.203803  0.894609  1
  Rh  Rh7  1  0.500000  0.799208  0.113897  1
  Rh  Rh8  1  0.500000  0.695142  0.613708  1
  Rh  Rh9  1  0.500000  0.300082  0.378923  1
  Rh  Rh10  1  0.000000  0.446202  0.755062  1
  Rh  Rh11  1  0.000000  0.565831  0.250852  1
  Rh  Rh12  1  0.000000  0.988319  0.492075  1
  Rh  Rh13  1  0.000000  0.501448  0.002320  1
  Rh  Rh14  1  0.000000  0.064562  0.245610  1
  Rh  Rh15  1  0.000000  0.933316  0.757368  1
