# generated using pymatgen
data_Yb3C3ClF
_symmetry_space_group_name_H-M   'P 1'
_cell_length_a   6.46822514
_cell_length_b   6.46822597
_cell_length_c   11.01911100
_cell_angle_alpha   90.00000000
_cell_angle_beta   90.00000000
_cell_angle_gamma   146.65693560
_symmetry_Int_Tables_number   1
_chemical_formula_structural   Yb3C3ClF
_chemical_formula_sum   'Yb6 C6 Cl2 F2'
_cell_volume   253.39835306
_cell_formula_units_Z   2
loop_
 _symmetry_equiv_pos_site_id
 _symmetry_equiv_pos_as_xyz
  1  'x, y, z'
loop_
 _atom_site_type_symbol
 _atom_site_label
 _atom_site_symmetry_multiplicity
 _atom_site_fract_x
 _atom_site_fract_y
 _atom_site_fract_z
 _atom_site_occupancy
  Yb  Yb0  1  0.656503  0.343497  0.580489  1
  Yb  Yb1  1  0.343497  0.656503  0.419511  1
  Yb  Yb2  1  0.343497  0.656503  0.080489  1
  Yb  Yb3  1  0.656503  0.343497  0.919511  1
  Yb  Yb4  1  0.090446  0.909554  0.250000  1
  Yb  Yb5  1  0.909554  0.090446  0.750000  1
  C  C6  1  0.282118  0.717882  0.630046  1
  C  C7  1  0.717882  0.282118  0.369954  1
  C  C8  1  0.717882  0.282118  0.130046  1
  C  C9  1  0.282118  0.717882  0.869954  1
  C  C10  1  0.728971  0.271029  0.250000  1
  C  C11  1  0.271029  0.728971  0.750000  1
  Cl  Cl12  1  0.000000  0.000000  0.000000  1
  Cl  Cl13  1  0.000000  0.000000  0.500000  1
  F  F14  1  0.536828  0.463172  0.750000  1
  F  F15  1  0.463172  0.536828  0.250000  1
