# generated using pymatgen
data_Dy3Hf(Al3Co)6
_symmetry_space_group_name_H-M   'P 1'
_cell_length_a   7.35163800
_cell_length_b   7.34077735
_cell_length_c   9.22882100
_cell_angle_alpha   90.00000000
_cell_angle_beta   90.00000000
_cell_angle_gamma   119.31090252
_symmetry_Int_Tables_number   1
_chemical_formula_structural   Dy3Hf(Al3Co)6
_chemical_formula_sum   'Dy3 Hf1 Al18 Co6'
_cell_volume   434.28715794
_cell_formula_units_Z   1
loop_
 _symmetry_equiv_pos_site_id
 _symmetry_equiv_pos_as_xyz
  1  'x, y, z'
loop_
 _atom_site_type_symbol
 _atom_site_label
 _atom_site_symmetry_multiplicity
 _atom_site_fract_x
 _atom_site_fract_y
 _atom_site_fract_z
 _atom_site_occupancy
  Dy  Dy0  1  0.006387  0.326942  0.250000  1
  Dy  Dy1  1  0.671960  0.994066  0.750000  1
  Dy  Dy2  1  0.327985  0.007264  0.250000  1
  Hf  Hf3  1  0.995513  0.673215  0.750000  1
  Al  Al4  1  0.121281  0.117771  0.750000  1
  Al  Al5  1  0.874222  0.872806  0.250000  1
  Al  Al6  1  0.997433  0.338486  0.575576  1
  Al  Al7  1  0.002016  0.665126  0.433492  1
  Al  Al8  1  0.002016  0.665126  0.066508  1
  Al  Al9  1  0.332056  0.994701  0.924556  1
  Al  Al10  1  0.997433  0.338486  0.924424  1
  Al  Al11  1  0.664420  0.000504  0.070265  1
  Al  Al12  1  0.664420  0.000504  0.429735  1
  Al  Al13  1  0.332056  0.994701  0.575444  1
  Al  Al14  1  0.332899  0.333085  0.039303  1
  Al  Al15  1  0.670893  0.668287  0.949906  1
  Al  Al16  1  0.670893  0.668287  0.550094  1
  Al  Al17  1  0.332899  0.333085  0.460697  1
  Al  Al18  1  0.333883  0.555681  0.750000  1
  Al  Al19  1  0.661572  0.447476  0.250000  1
  Al  Al20  1  0.561707  0.345034  0.750000  1
  Al  Al21  1  0.445639  0.660038  0.250000  1
  Co  Co22  1  0.672404  0.329854  0.501687  1
  Co  Co23  1  0.328148  0.671361  0.502285  1
  Co  Co24  1  0.328148  0.671361  0.997715  1
  Co  Co25  1  0.672404  0.329854  0.998313  1
  Co  Co26  1  0.999655  0.998450  0.501767  1
  Co  Co27  1  0.999655  0.998450  0.998233  1
