# generated using pymatgen
data_La2Ni2Ir
_symmetry_space_group_name_H-M   'P 1'
_cell_length_a   5.46594591
_cell_length_b   5.46594591
_cell_length_c   8.21015800
_cell_angle_alpha   90.00000000
_cell_angle_beta   90.00000000
_cell_angle_gamma   125.78092609
_symmetry_Int_Tables_number   1
_chemical_formula_structural   La2Ni2Ir
_chemical_formula_sum   'La4 Ni4 Ir2'
_cell_volume   198.99466738
_cell_formula_units_Z   2
loop_
 _symmetry_equiv_pos_site_id
 _symmetry_equiv_pos_as_xyz
  1  'x, y, z'
loop_
 _atom_site_type_symbol
 _atom_site_label
 _atom_site_symmetry_multiplicity
 _atom_site_fract_x
 _atom_site_fract_y
 _atom_site_fract_z
 _atom_site_occupancy
  La  La0  1  0.845479  0.154521  0.593859  1
  La  La1  1  0.154521  0.845479  0.406141  1
  La  La2  1  0.654521  0.345479  0.093859  1
  La  La3  1  0.345479  0.654521  0.906141  1
  Ni  Ni4  1  0.843935  0.656065  0.750000  1
  Ni  Ni5  1  0.656065  0.843935  0.250000  1
  Ni  Ni6  1  0.343935  0.156065  0.750000  1
  Ni  Ni7  1  0.156065  0.343935  0.250000  1
  Ir  Ir8  1  0.500000  0.500000  0.500000  1
  Ir  Ir9  1  0.000000  0.000000  0.000000  1
