# generated using pymatgen
data_La2ZnSnRh2
_symmetry_space_group_name_H-M   'P 1'
_cell_length_a   7.55953200
_cell_length_b   4.25619600
_cell_length_c   16.58296100
_cell_angle_alpha   90.00000000
_cell_angle_beta   90.00000000
_cell_angle_gamma   90.00000000
_symmetry_Int_Tables_number   1
_chemical_formula_structural   La2ZnSnRh2
_chemical_formula_sum   'La8 Zn4 Sn4 Rh8'
_cell_volume   533.55428041
_cell_formula_units_Z   4
loop_
 _symmetry_equiv_pos_site_id
 _symmetry_equiv_pos_as_xyz
  1  'x, y, z'
loop_
 _atom_site_type_symbol
 _atom_site_label
 _atom_site_symmetry_multiplicity
 _atom_site_fract_x
 _atom_site_fract_y
 _atom_site_fract_z
 _atom_site_occupancy
  La  La0  1  0.048188  0.250001  0.286983  1
  La  La1  1  0.451812  0.750000  0.786983  1
  La  La2  1  0.548188  0.250001  0.213017  1
  La  La3  1  0.951813  0.750000  0.713017  1
  La  La4  1  0.177410  0.250001  0.059025  1
  La  La5  1  0.322590  0.750000  0.559025  1
  La  La6  1  0.677411  0.250001  0.440974  1
  La  La7  1  0.822590  0.750000  0.940974  1
  Zn  Zn8  1  0.002095  0.250001  0.558402  1
  Zn  Zn9  1  0.497905  0.750000  0.058402  1
  Zn  Zn10  1  0.502095  0.250001  0.941598  1
  Zn  Zn11  1  0.997906  0.750000  0.441598  1
  Sn  Sn12  1  0.123275  0.250001  0.850090  1
  Sn  Sn13  1  0.376725  0.750000  0.350090  1
  Sn  Sn14  1  0.623275  0.250001  0.649910  1
  Sn  Sn15  1  0.876726  0.750000  0.149910  1
  Rh  Rh16  1  0.235873  0.250001  0.433384  1
  Rh  Rh17  1  0.264127  0.750000  0.933384  1
  Rh  Rh18  1  0.735871  0.250001  0.066616  1
  Rh  Rh19  1  0.764127  0.750000  0.566616  1
  Rh  Rh20  1  0.250727  0.250001  0.685680  1
  Rh  Rh21  1  0.249273  0.750000  0.185679  1
  Rh  Rh22  1  0.750725  0.250001  0.814321  1
  Rh  Rh23  1  0.749273  0.750000  0.314321  1
