# generated using pymatgen
data_LaPr8YC4I15
_symmetry_space_group_name_H-M   'P 1'
_cell_length_a   9.85134613
_cell_length_b   10.73091967
_cell_length_c   11.82869189
_cell_angle_alpha   93.83219102
_cell_angle_beta   114.13287524
_cell_angle_gamma   109.43865306
_symmetry_Int_Tables_number   1
_chemical_formula_structural   LaPr8YC4I15
_chemical_formula_sum   'La1 Pr8 Y1 C4 I15'
_cell_volume   1045.78218754
_cell_formula_units_Z   1
loop_
 _symmetry_equiv_pos_site_id
 _symmetry_equiv_pos_as_xyz
  1  'x, y, z'
loop_
 _atom_site_type_symbol
 _atom_site_label
 _atom_site_symmetry_multiplicity
 _atom_site_fract_x
 _atom_site_fract_y
 _atom_site_fract_z
 _atom_site_occupancy
  La  La0  1  0.657759  0.254684  0.832114  1
  Pr  Pr1  1  0.345398  0.745954  0.164386  1
  Pr  Pr2  1  0.777058  0.882943  0.257699  1
  Pr  Pr3  1  0.527751  0.185595  0.102823  1
  Pr  Pr4  1  0.223488  0.115879  0.743789  1
  Pr  Pr5  1  0.402047  0.458794  0.657742  1
  Pr  Pr6  1  0.472652  0.814360  0.898249  1
  Pr  Pr7  1  0.704008  0.568014  0.044824  1
  Pr  Pr8  1  0.295675  0.432622  0.955929  1
  Y  Y9  1  0.593312  0.545258  0.334740  1
  C  C10  1  0.483482  0.300958  0.938042  1
  C  C11  1  0.518266  0.698055  0.062058  1
  C  C12  1  0.453748  0.362780  0.834829  1
  C  C13  1  0.546429  0.635891  0.165162  1
  I  I14  1  0.206716  0.906392  0.938020  1
  I  I15  1  0.103579  0.186578  0.468654  1
  I  I16  1  0.151586  0.555051  0.703974  1
  I  I17  1  0.401626  0.966036  0.645210  1
  I  I18  1  0.714826  0.733891  0.821946  1
  I  I19  1  0.295127  0.273299  0.185601  1
  I  I20  1  0.840046  0.447688  0.301592  1
  I  I21  1  0.885241  0.801197  0.527539  1
  I  I22  1  0.367568  0.628430  0.412156  1
  I  I23  1  0.053629  0.831838  0.221580  1
  I  I24  1  0.794032  0.095028  0.064182  1
  I  I25  1  0.640884  0.375751  0.581420  1
  I  I26  1  0.946564  0.166071  0.779838  1
  I  I27  1  0.594709  0.029881  0.353116  1
  I  I28  1  0.002793  0.501079  0.002785  1
