# generated using pymatgen
data_Y20CdAg5Os2
_symmetry_space_group_name_H-M   'P 1'
_cell_length_a   9.54898398
_cell_length_b   9.51598633
_cell_length_c   9.80027200
_cell_angle_alpha   90.00000000
_cell_angle_beta   90.00000000
_cell_angle_gamma   119.88575503
_symmetry_Int_Tables_number   1
_chemical_formula_structural   Y20CdAg5Os2
_chemical_formula_sum   'Y20 Cd1 Ag5 Os2'
_cell_volume   772.10888220
_cell_formula_units_Z   1
loop_
 _symmetry_equiv_pos_site_id
 _symmetry_equiv_pos_as_xyz
  1  'x, y, z'
loop_
 _atom_site_type_symbol
 _atom_site_label
 _atom_site_symmetry_multiplicity
 _atom_site_fract_x
 _atom_site_fract_y
 _atom_site_fract_z
 _atom_site_occupancy
  Y  Y0  1  0.004273  0.002137  0.494234  1
  Y  Y1  1  0.004273  0.002137  0.005766  1
  Y  Y2  1  0.208328  0.791273  0.441152  1
  Y  Y3  1  0.208328  0.417054  0.441152  1
  Y  Y4  1  0.582703  0.791352  0.442318  1
  Y  Y5  1  0.791807  0.207777  0.558494  1
  Y  Y6  1  0.791807  0.584030  0.558494  1
  Y  Y7  1  0.418477  0.209239  0.557918  1
  Y  Y8  1  0.791807  0.207777  0.941506  1
  Y  Y9  1  0.791807  0.584030  0.941506  1
  Y  Y10  1  0.418477  0.209239  0.942082  1
  Y  Y11  1  0.208328  0.791273  0.058848  1
  Y  Y12  1  0.208328  0.417054  0.058848  1
  Y  Y13  1  0.582703  0.791352  0.057682  1
  Y  Y14  1  0.538756  0.460584  0.250000  1
  Y  Y15  1  0.538756  0.078172  0.250000  1
  Y  Y16  1  0.920754  0.460377  0.250000  1
  Y  Y17  1  0.454883  0.534291  0.750000  1
  Y  Y18  1  0.454883  0.920592  0.750000  1
  Y  Y19  1  0.076168  0.538084  0.750000  1
  Cd  Cd20  1  0.773933  0.886966  0.750000  1
  Ag  Ag21  1  0.883155  0.116395  0.250000  1
  Ag  Ag22  1  0.883155  0.766762  0.250000  1
  Ag  Ag23  1  0.234419  0.117210  0.250000  1
  Ag  Ag24  1  0.114162  0.885497  0.750000  1
  Ag  Ag25  1  0.114162  0.228663  0.750000  1
  Os  Os26  1  0.333175  0.666588  0.250000  1
  Os  Os27  1  0.668192  0.334096  0.750000  1
