# generated using pymatgen
data_LiTb2Si5PPd20
_symmetry_space_group_name_H-M   'P 1'
_cell_length_a   8.68323622
_cell_length_b   8.68323934
_cell_length_c   8.68350100
_cell_angle_alpha   59.99900699
_cell_angle_beta   59.99899508
_cell_angle_gamma   60.00052306
_symmetry_Int_Tables_number   1
_chemical_formula_structural   LiTb2Si5PPd20
_chemical_formula_sum   'Li1 Tb2 Si5 P1 Pd20'
_cell_volume   462.95460387
_cell_formula_units_Z   1
loop_
 _symmetry_equiv_pos_site_id
 _symmetry_equiv_pos_as_xyz
  1  'x, y, z'
loop_
 _atom_site_type_symbol
 _atom_site_label
 _atom_site_symmetry_multiplicity
 _atom_site_fract_x
 _atom_site_fract_y
 _atom_site_fract_z
 _atom_site_occupancy
  Li  Li0  1  0.001479  0.001479  0.998521  1
  Tb  Tb1  1  0.249363  0.249365  0.250636  1
  Tb  Tb2  1  0.749404  0.749402  0.750597  1
  Si  Si3  1  0.734513  0.264163  0.265506  1
  Si  Si4  1  0.264163  0.734513  0.735816  1
  Si  Si5  1  0.264163  0.734513  0.265506  1
  Si  Si6  1  0.734513  0.264163  0.735816  1
  Si  Si7  1  0.265247  0.265247  0.734753  1
  P  P8  1  0.735486  0.735486  0.264514  1
  Pd  Pd9  1  0.383696  0.383699  0.383523  1
  Pd  Pd10  1  0.616461  0.616458  0.614442  1
  Pd  Pd11  1  0.383696  0.383699  0.849081  1
  Pd  Pd12  1  0.385546  0.847338  0.383558  1
  Pd  Pd13  1  0.616461  0.616458  0.152640  1
  Pd  Pd14  1  0.616492  0.150930  0.616289  1
  Pd  Pd15  1  0.847338  0.385548  0.383558  1
  Pd  Pd16  1  0.150930  0.616490  0.616289  1
  Pd  Pd17  1  0.344415  0.000018  0.000046  1
  Pd  Pd18  1  0.656486  0.998063  0.001883  1
  Pd  Pd19  1  0.000017  0.344417  0.655520  1
  Pd  Pd20  1  0.998064  0.656484  0.343567  1
  Pd  Pd21  1  0.000017  0.344417  0.000045  1
  Pd  Pd22  1  0.656486  0.998063  0.343567  1
  Pd  Pd23  1  0.998064  0.656484  0.001884  1
  Pd  Pd24  1  0.344415  0.000018  0.655520  1
  Pd  Pd25  1  0.000768  0.000768  0.343864  1
  Pd  Pd26  1  0.000768  0.000768  0.654602  1
  Pd  Pd27  1  0.656026  0.345522  0.999227  1
  Pd  Pd28  1  0.345519  0.656023  0.999229  1
