# generated using pymatgen
data_CsBi(PS3)2
_symmetry_space_group_name_H-M   'P 1'
_cell_length_a   7.79447000
_cell_length_b   6.99582877
_cell_length_c   10.54881098
_cell_angle_alpha   87.21225864
_cell_angle_beta   90.00000000
_cell_angle_gamma   90.00000000
_symmetry_Int_Tables_number   1
_chemical_formula_structural   CsBi(PS3)2
_chemical_formula_sum   'Cs2 Bi2 P4 S12'
_cell_volume   574.53303942
_cell_formula_units_Z   2
loop_
 _symmetry_equiv_pos_site_id
 _symmetry_equiv_pos_as_xyz
  1  'x, y, z'
loop_
 _atom_site_type_symbol
 _atom_site_label
 _atom_site_symmetry_multiplicity
 _atom_site_fract_x
 _atom_site_fract_y
 _atom_site_fract_z
 _atom_site_occupancy
  Cs  Cs0  1  0.484510  0.711465  0.496149  1
  Cs  Cs1  1  0.984510  0.288535  0.503851  1
  Bi  Bi2  1  0.243476  0.205516  0.990121  1
  Bi  Bi3  1  0.743476  0.794484  0.009879  1
  P  P4  1  0.679865  0.307076  0.841706  1
  P  P5  1  0.956064  0.784485  0.279681  1
  P  P6  1  0.179865  0.692924  0.158294  1
  P  P7  1  0.456064  0.215515  0.720319  1
  S  S8  1  0.767397  0.561979  0.770777  1
  S  S9  1  0.526464  0.198988  0.540753  1
  S  S10  1  0.775242  0.583038  0.245675  1
  S  S11  1  0.570194  0.330823  0.019806  1
  S  S12  1  0.381254  0.965976  0.817656  1
  S  S13  1  0.275242  0.416962  0.754325  1
  S  S14  1  0.070194  0.669177  0.980194  1
  S  S15  1  0.881254  0.034024  0.182344  1
  S  S16  1  0.026464  0.801012  0.459247  1
  S  S17  1  0.364425  0.903742  0.162253  1
  S  S18  1  0.864425  0.096258  0.837747  1
  S  S19  1  0.267397  0.438021  0.229223  1
