# generated using pymatgen
data_Yb2AlMoO6
_symmetry_space_group_name_H-M   'P 1'
_cell_length_a   5.32569528
_cell_length_b   5.46253600
_cell_length_c   7.53396696
_cell_angle_alpha   90.00000000
_cell_angle_beta   89.59133353
_cell_angle_gamma   90.00000000
_symmetry_Int_Tables_number   1
_chemical_formula_structural   Yb2AlMoO6
_chemical_formula_sum   'Yb4 Al2 Mo2 O12'
_cell_volume   219.17110115
_cell_formula_units_Z   2
loop_
 _symmetry_equiv_pos_site_id
 _symmetry_equiv_pos_as_xyz
  1  'x, y, z'
loop_
 _atom_site_type_symbol
 _atom_site_label
 _atom_site_symmetry_multiplicity
 _atom_site_fract_x
 _atom_site_fract_y
 _atom_site_fract_z
 _atom_site_occupancy
  Yb  Yb0  1  0.512703  0.550503  0.249968  1
  Yb  Yb1  1  0.987297  0.050503  0.250032  1
  Yb  Yb2  1  0.487297  0.449497  0.750032  1
  Yb  Yb3  1  0.012703  0.949497  0.749968  1
  Al  Al4  1  0.000000  0.500000  0.500000  1
  Al  Al5  1  0.500000  0.000000  0.000000  1
  Mo  Mo6  1  0.000000  0.500000  0.000000  1
  Mo  Mo7  1  0.500000  0.000000  0.500000  1
  O  O8  1  0.416810  0.982233  0.246743  1
  O  O9  1  0.083190  0.482233  0.253257  1
  O  O10  1  0.583190  0.017767  0.753257  1
  O  O11  1  0.916810  0.517767  0.746743  1
  O  O12  1  0.785596  0.799547  0.044351  1
  O  O13  1  0.714404  0.299547  0.455649  1
  O  O14  1  0.200232  0.210554  0.540058  1
  O  O15  1  0.299768  0.710554  0.959942  1
  O  O16  1  0.214404  0.200453  0.955649  1
  O  O17  1  0.285596  0.700453  0.544351  1
  O  O18  1  0.799768  0.789446  0.459942  1
  O  O19  1  0.700232  0.289446  0.040058  1
