# generated using pymatgen
data_Ho20Ir5Pt7
_symmetry_space_group_name_H-M   'P 1'
_cell_length_a   11.00613637
_cell_length_b   11.00613637
_cell_length_c   6.30407902
_cell_angle_alpha   90.00639808
_cell_angle_beta   90.00639808
_cell_angle_gamma   90.14937517
_symmetry_Int_Tables_number   1
_chemical_formula_structural   Ho20Ir5Pt7
_chemical_formula_sum   'Ho20 Ir5 Pt7'
_cell_volume   763.64224530
_cell_formula_units_Z   1
loop_
 _symmetry_equiv_pos_site_id
 _symmetry_equiv_pos_as_xyz
  1  'x, y, z'
loop_
 _atom_site_type_symbol
 _atom_site_label
 _atom_site_symmetry_multiplicity
 _atom_site_fract_x
 _atom_site_fract_y
 _atom_site_fract_z
 _atom_site_occupancy
  Ho  Ho0  1  0.294956  0.087017  0.374205  1
  Ho  Ho1  1  0.295167  0.909369  0.874075  1
  Ho  Ho2  1  0.705051  0.087187  0.874205  1
  Ho  Ho3  1  0.705098  0.912283  0.373835  1
  Ho  Ho4  1  0.584593  0.793071  0.873509  1
  Ho  Ho5  1  0.587406  0.205868  0.375139  1
  Ho  Ho6  1  0.411177  0.792312  0.378196  1
  Ho  Ho7  1  0.412457  0.204867  0.874985  1
  Ho  Ho8  1  0.206929  0.415407  0.626491  1
  Ho  Ho9  1  0.207688  0.588823  0.121804  1
  Ho  Ho10  1  0.794132  0.412594  0.124861  1
  Ho  Ho11  1  0.795133  0.587543  0.625015  1
  Ho  Ho12  1  0.912983  0.705044  0.125795  1
  Ho  Ho13  1  0.912813  0.294949  0.625795  1
  Ho  Ho14  1  0.090631  0.704833  0.625925  1
  Ho  Ho15  1  0.087717  0.294902  0.126165  1
  Ho  Ho16  1  0.999879  0.999938  0.500104  1
  Ho  Ho17  1  0.000062  0.000121  0.999896  1
  Ho  Ho18  1  0.498303  0.501165  0.999537  1
  Ho  Ho19  1  0.498835  0.501697  0.500463  1
  Ir  Ir20  1  0.346651  0.653349  0.750000  1
  Ir  Ir21  1  0.500228  0.000375  0.121926  1
  Ir  Ir22  1  0.500100  0.000480  0.620824  1
  Ir  Ir23  1  0.999520  0.499900  0.879176  1
  Ir  Ir24  1  0.999625  0.499772  0.378074  1
  Pt  Pt25  1  0.846213  0.153787  0.250000  1
  Pt  Pt26  1  0.845928  0.846347  0.750301  1
  Pt  Pt27  1  0.153653  0.154072  0.749699  1
  Pt  Pt28  1  0.153299  0.846701  0.250000  1
  Pt  Pt29  1  0.653574  0.346426  0.750000  1
  Pt  Pt30  1  0.654514  0.654313  0.250063  1
  Pt  Pt31  1  0.345687  0.345486  0.249937  1
