# generated using pymatgen
data_BaDy2SeS3
_symmetry_space_group_name_H-M   'P 1'
_cell_length_a   4.10688900
_cell_length_b   12.71344700
_cell_length_c   14.55078300
_cell_angle_alpha   90.00000000
_cell_angle_beta   90.00000000
_cell_angle_gamma   90.00000000
_symmetry_Int_Tables_number   1
_chemical_formula_structural   BaDy2SeS3
_chemical_formula_sum   'Ba4 Dy8 Se4 S12'
_cell_volume   759.73589507
_cell_formula_units_Z   4
loop_
 _symmetry_equiv_pos_site_id
 _symmetry_equiv_pos_as_xyz
  1  'x, y, z'
loop_
 _atom_site_type_symbol
 _atom_site_label
 _atom_site_symmetry_multiplicity
 _atom_site_fract_x
 _atom_site_fract_y
 _atom_site_fract_z
 _atom_site_occupancy
  Ba  Ba0  1  0.250000  0.758848  0.342189  1
  Ba  Ba1  1  0.250000  0.258848  0.157811  1
  Ba  Ba2  1  0.750000  0.241152  0.657811  1
  Ba  Ba3  1  0.750000  0.741152  0.842189  1
  Dy  Dy4  1  0.250000  0.442262  0.390234  1
  Dy  Dy5  1  0.250000  0.942262  0.109766  1
  Dy  Dy6  1  0.750000  0.557738  0.609766  1
  Dy  Dy7  1  0.750000  0.057738  0.890234  1
  Dy  Dy8  1  0.250000  0.426138  0.898670  1
  Dy  Dy9  1  0.250000  0.926138  0.601330  1
  Dy  Dy10  1  0.750000  0.573862  0.101330  1
  Dy  Dy11  1  0.750000  0.073862  0.398670  1
  Se  Se12  1  0.250000  0.206515  0.837561  1
  Se  Se13  1  0.250000  0.706515  0.662439  1
  Se  Se14  1  0.750000  0.793485  0.162439  1
  Se  Se15  1  0.750000  0.293485  0.337561  1
  S  S16  1  0.250000  0.120919  0.523665  1
  S  S17  1  0.250000  0.620919  0.976335  1
  S  S18  1  0.750000  0.879081  0.476335  1
  S  S19  1  0.750000  0.379081  0.023665  1
  S  S20  1  0.250000  0.525169  0.215885  1
  S  S21  1  0.250000  0.025169  0.284115  1
  S  S22  1  0.750000  0.474831  0.784115  1
  S  S23  1  0.750000  0.974831  0.715885  1
  S  S24  1  0.250000  0.417401  0.576202  1
  S  S25  1  0.250000  0.917401  0.923798  1
  S  S26  1  0.750000  0.582599  0.423798  1
  S  S27  1  0.750000  0.082599  0.076202  1
