# generated using pymatgen
data_Tb2DyEr7Bi6
_symmetry_space_group_name_H-M   'P 1'
_cell_length_a   8.23651700
_cell_length_b   9.48681557
_cell_length_c   11.99281301
_cell_angle_alpha   89.98238876
_cell_angle_beta   90.00000000
_cell_angle_gamma   90.00000000
_symmetry_Int_Tables_number   1
_chemical_formula_structural   Tb2DyEr7Bi6
_chemical_formula_sum   'Tb4 Dy2 Er14 Bi12'
_cell_volume   937.09818892
_cell_formula_units_Z   2
loop_
 _symmetry_equiv_pos_site_id
 _symmetry_equiv_pos_as_xyz
  1  'x, y, z'
loop_
 _atom_site_type_symbol
 _atom_site_label
 _atom_site_symmetry_multiplicity
 _atom_site_fract_x
 _atom_site_fract_y
 _atom_site_fract_z
 _atom_site_occupancy
  Tb  Tb0  1  0.312680  0.250040  0.219012  1
  Tb  Tb1  1  0.812680  0.249960  0.280988  1
  Tb  Tb2  1  0.687438  0.749833  0.780949  1
  Tb  Tb3  1  0.187438  0.750167  0.719051  1
  Dy  Dy4  1  0.693353  0.936116  0.058941  1
  Dy  Dy5  1  0.193353  0.563884  0.441059  1
  Er  Er6  1  0.352937  0.750027  0.216088  1
  Er  Er7  1  0.852937  0.749973  0.283912  1
  Er  Er8  1  0.647411  0.249820  0.783932  1
  Er  Er9  1  0.147411  0.250180  0.716068  1
  Er  Er10  1  0.693305  0.564560  0.058976  1
  Er  Er11  1  0.193305  0.935440  0.441024  1
  Er  Er12  1  0.306829  0.064732  0.941165  1
  Er  Er13  1  0.806829  0.435268  0.558835  1
  Er  Er14  1  0.306452  0.435354  0.940954  1
  Er  Er15  1  0.806452  0.064646  0.559046  1
  Er  Er16  1  0.475438  0.249836  0.488628  1
  Er  Er17  1  0.975438  0.250164  0.011372  1
  Er  Er18  1  0.525034  0.750214  0.511603  1
  Er  Er19  1  0.025034  0.749786  0.988397  1
  Bi  Bi20  1  0.406585  0.749539  0.958008  1
  Bi  Bi21  1  0.906585  0.750461  0.541992  1
  Bi  Bi22  1  0.592596  0.251334  0.041550  1
  Bi  Bi23  1  0.092596  0.248666  0.458450  1
  Bi  Bi24  1  0.564985  0.994580  0.325866  1
  Bi  Bi25  1  0.064985  0.505420  0.174134  1
  Bi  Bi26  1  0.434788  0.494470  0.674429  1
  Bi  Bi27  1  0.934788  0.005530  0.825571  1
  Bi  Bi28  1  0.434749  0.005564  0.674235  1
  Bi  Bi29  1  0.934749  0.494436  0.825765  1
  Bi  Bi30  1  0.565421  0.505449  0.325646  1
  Bi  Bi31  1  0.065421  0.994551  0.174354  1
