# generated using pymatgen
data_ScUSi(PRu2)6
_symmetry_space_group_name_H-M   'P 1'
_cell_length_a   9.43289800
_cell_length_b   9.43289724
_cell_length_c   3.89927400
_cell_angle_alpha   90.00000000
_cell_angle_beta   90.00000000
_cell_angle_gamma   119.99999565
_symmetry_Int_Tables_number   1
_chemical_formula_structural   ScUSi(PRu2)6
_chemical_formula_sum   'Sc1 U1 Si1 P6 Ru12'
_cell_volume   300.47244185
_cell_formula_units_Z   1
loop_
 _symmetry_equiv_pos_site_id
 _symmetry_equiv_pos_as_xyz
  1  'x, y, z'
loop_
 _atom_site_type_symbol
 _atom_site_label
 _atom_site_symmetry_multiplicity
 _atom_site_fract_x
 _atom_site_fract_y
 _atom_site_fract_z
 _atom_site_occupancy
  Sc  Sc0  1  0.666667  0.333333  0.500000  1
  U  U1  1  0.333333  0.666667  0.000000  1
  Si  Si2  1  0.000000  0.000000  0.000000  1
  P  P3  1  0.605270  0.716975  0.500000  1
  P  P4  1  0.283025  0.888296  0.500000  1
  P  P5  1  0.111704  0.394730  0.500000  1
  P  P6  1  0.882268  0.573250  0.000000  1
  P  P7  1  0.426750  0.309019  0.000000  1
  P  P8  1  0.690981  0.117732  0.000000  1
  Ru  Ru9  1  0.548994  0.940419  0.500000  1
  Ru  Ru10  1  0.391426  0.451006  0.500000  1
  Ru  Ru11  1  0.908979  0.119516  0.500000  1
  Ru  Ru12  1  0.210536  0.091021  0.500000  1
  Ru  Ru13  1  0.880484  0.789464  0.500000  1
  Ru  Ru14  1  0.716951  0.885118  0.000000  1
  Ru  Ru15  1  0.114882  0.831832  0.000000  1
  Ru  Ru16  1  0.168168  0.283049  0.000000  1
  Ru  Ru17  1  0.430099  0.071447  0.000000  1
  Ru  Ru18  1  0.928553  0.358653  0.000000  1
  Ru  Ru19  1  0.641347  0.569901  0.000000  1
  Ru  Ru20  1  0.059581  0.608574  0.500000  1
