# generated using pymatgen
data_Ce4Cd2PdRh3
_symmetry_space_group_name_H-M   'P 1'
_cell_length_a   7.74024472
_cell_length_b   7.74024472
_cell_length_c   3.74230800
_cell_angle_alpha   90.00000000
_cell_angle_beta   90.00000000
_cell_angle_gamma   90.45761273
_symmetry_Int_Tables_number   1
_chemical_formula_structural   Ce4Cd2PdRh3
_chemical_formula_sum   'Ce4 Cd2 Pd1 Rh3'
_cell_volume   224.19971672
_cell_formula_units_Z   1
loop_
 _symmetry_equiv_pos_site_id
 _symmetry_equiv_pos_as_xyz
  1  'x, y, z'
loop_
 _atom_site_type_symbol
 _atom_site_label
 _atom_site_symmetry_multiplicity
 _atom_site_fract_x
 _atom_site_fract_y
 _atom_site_fract_z
 _atom_site_occupancy
  Ce  Ce0  1  0.322166  0.833982  0.500000  1
  Ce  Ce1  1  0.842167  0.657833  0.500000  1
  Ce  Ce2  1  0.172711  0.327289  0.500000  1
  Ce  Ce3  1  0.666018  0.177834  0.500000  1
  Cd  Cd4  1  0.995279  0.999450  0.000000  1
  Cd  Cd5  1  0.500550  0.504721  0.000000  1
  Pd  Pd6  1  0.633876  0.866124  0.000000  1
  Rh  Rh7  1  0.364759  0.135241  0.000000  1
  Rh  Rh8  1  0.863654  0.361181  0.000000  1
  Rh  Rh9  1  0.138819  0.636346  0.000000  1
