# generated using pymatgen
data_HfBe9V2
_symmetry_space_group_name_H-M   'P 1'
_cell_length_a   7.43970160
_cell_length_b   7.43970200
_cell_length_c   7.43970059
_cell_angle_alpha   34.67616050
_cell_angle_beta   34.67615797
_cell_angle_gamma   34.67616403
_symmetry_Int_Tables_number   1
_chemical_formula_structural   HfBe9V2
_chemical_formula_sum   'Hf1 Be9 V2'
_cell_volume   118.94593879
_cell_formula_units_Z   1
loop_
 _symmetry_equiv_pos_site_id
 _symmetry_equiv_pos_as_xyz
  1  'x, y, z'
loop_
 _atom_site_type_symbol
 _atom_site_label
 _atom_site_symmetry_multiplicity
 _atom_site_fract_x
 _atom_site_fract_y
 _atom_site_fract_z
 _atom_site_occupancy
  Hf  Hf0  1  0.000000  0.000000  0.000000  1
  Be  Be1  1  0.587911  0.587911  0.078946  1
  Be  Be2  1  0.334766  0.334766  0.334766  1
  Be  Be3  1  0.921053  0.412089  0.412091  1
  Be  Be4  1  0.412089  0.921053  0.412091  1
  Be  Be5  1  0.500000  0.500000  0.500000  1
  Be  Be6  1  0.587911  0.078947  0.587909  1
  Be  Be7  1  0.078947  0.587911  0.587909  1
  Be  Be8  1  0.665234  0.665234  0.665234  1
  Be  Be9  1  0.412089  0.412089  0.921054  1
  V  V10  1  0.145109  0.145109  0.145109  1
  V  V11  1  0.854891  0.854891  0.854891  1
