# generated using pymatgen
data_La3Nd9(IrI3)4
_symmetry_space_group_name_H-M   'P 1'
_cell_length_a   10.87298355
_cell_length_b   10.89802435
_cell_length_c   10.90237891
_cell_angle_alpha   109.95203914
_cell_angle_beta   109.85980452
_cell_angle_gamma   108.54147451
_symmetry_Int_Tables_number   1
_chemical_formula_structural   La3Nd9(IrI3)4
_chemical_formula_sum   'La3 Nd9 Ir4 I12'
_cell_volume   995.07844210
_cell_formula_units_Z   1
loop_
 _symmetry_equiv_pos_site_id
 _symmetry_equiv_pos_as_xyz
  1  'x, y, z'
loop_
 _atom_site_type_symbol
 _atom_site_label
 _atom_site_symmetry_multiplicity
 _atom_site_fract_x
 _atom_site_fract_y
 _atom_site_fract_z
 _atom_site_occupancy
  La  La0  1  0.022225  0.476539  0.749314  1
  La  La1  1  0.274686  0.024686  0.049372  1
  La  La2  1  0.227088  0.272775  0.749314  1
  Nd  Nd3  1  0.455456  0.479058  0.227187  1
  Nd  Nd4  1  0.753411  0.229238  0.274121  1
  Nd  Nd5  1  0.740533  0.016785  0.472319  1
  Nd  Nd6  1  0.231786  0.455535  0.472319  1
  Nd  Nd7  1  0.271733  0.748129  0.227187  1
  Nd  Nd8  1  0.040673  0.269882  0.022473  1
  Nd  Nd9  1  0.020710  0.044881  0.274121  1
  Nd  Nd10  1  0.481798  0.752590  0.022473  1
  Nd  Nd11  1  0.479833  0.229833  0.459667  1
  Ir  Ir12  1  0.249959  0.248881  0.249434  1
  Ir  Ir13  1  0.499474  0.000553  0.249434  1
  Ir  Ir14  1  0.001543  0.251543  0.503086  1
  Ir  Ir15  1  0.248303  0.498303  0.996606  1
  I  I16  1  0.253013  0.757632  0.740770  1
  I  I17  1  0.517986  0.511004  0.757967  1
  I  I18  1  0.982754  0.742187  0.995097  1
  I  I19  1  0.739980  0.246963  0.757967  1
  I  I20  1  0.987756  0.983139  0.740770  1
  I  I21  1  0.250622  0.991202  0.506624  1
  I  I22  1  0.756002  0.515420  0.506624  1
  I  I23  1  0.512344  0.252910  0.995097  1
  I  I24  1  0.758513  0.741432  0.250179  1
  I  I25  1  0.741536  0.991536  0.983072  1
  I  I26  1  0.991666  0.508747  0.250179  1
  I  I27  1  0.508615  0.758615  0.517230  1
