# generated using pymatgen
data_Ba4LiAu17
_symmetry_space_group_name_H-M   'P 1'
_cell_length_a   9.29009912
_cell_length_b   9.12750146
_cell_length_c   9.12750329
_cell_angle_alpha   57.83744369
_cell_angle_beta   58.10667887
_cell_angle_gamma   58.10668062
_symmetry_Int_Tables_number   1
_chemical_formula_structural   Ba4LiAu17
_chemical_formula_sum   'Ba4 Li1 Au17'
_cell_volume   522.37836985
_cell_formula_units_Z   1
loop_
 _symmetry_equiv_pos_site_id
 _symmetry_equiv_pos_as_xyz
  1  'x, y, z'
loop_
 _atom_site_type_symbol
 _atom_site_label
 _atom_site_symmetry_multiplicity
 _atom_site_fract_x
 _atom_site_fract_y
 _atom_site_fract_z
 _atom_site_occupancy
  Ba  Ba0  1  0.378444  0.397492  0.423380  1
  Ba  Ba1  1  0.881293  0.925132  0.897835  1
  Ba  Ba2  1  0.618707  0.602165  0.574868  1
  Ba  Ba3  1  0.121556  0.076620  0.102508  1
  Li  Li4  1  0.750000  0.571056  0.928944  1
  Au  Au5  1  0.059377  0.241667  0.447748  1
  Au  Au6  1  0.440623  0.052252  0.258333  1
  Au  Au7  1  0.250000  0.439276  0.060724  1
  Au  Au8  1  0.934231  0.751682  0.560139  1
  Au  Au9  1  0.565769  0.939861  0.748318  1
  Au  Au10  1  0.966343  0.340816  0.745506  1
  Au  Au11  1  0.729898  0.992900  0.331989  1
  Au  Au12  1  0.383154  0.696866  0.973614  1
  Au  Au13  1  0.228662  0.828877  0.492955  1
  Au  Au14  1  0.472143  0.240515  0.831966  1
  Au  Au15  1  0.866966  0.475743  0.196887  1
  Au  Au16  1  0.027857  0.668034  0.259485  1
  Au  Au17  1  0.271338  0.007045  0.671123  1
  Au  Au18  1  0.633034  0.303113  0.024257  1
  Au  Au19  1  0.770102  0.168011  0.507100  1
  Au  Au20  1  0.533657  0.754494  0.159184  1
  Au  Au21  1  0.116846  0.526386  0.803134  1
