# generated using pymatgen
data_Tb3PuPS3
_symmetry_space_group_name_H-M   'P 1'
_cell_length_a   6.85178427
_cell_length_b   6.85178494
_cell_length_c   6.85178407
_cell_angle_alpha   131.84674876
_cell_angle_beta   131.84675913
_cell_angle_gamma   70.47117631
_symmetry_Int_Tables_number   1
_chemical_formula_structural   Tb3PuPS3
_chemical_formula_sum   'Tb3 Pu1 P1 S3'
_cell_volume   174.90837214
_cell_formula_units_Z   1
loop_
 _symmetry_equiv_pos_site_id
 _symmetry_equiv_pos_as_xyz
  1  'x, y, z'
loop_
 _atom_site_type_symbol
 _atom_site_label
 _atom_site_symmetry_multiplicity
 _atom_site_fract_x
 _atom_site_fract_y
 _atom_site_fract_z
 _atom_site_occupancy
  Tb  Tb0  1  0.753684  0.753684  0.000000  1
  Tb  Tb1  1  0.498708  0.998709  0.499999  1
  Tb  Tb2  1  0.998709  0.498708  0.499999  1
  Pu  Pu3  1  0.248784  0.248784  0.000000  1
  P  P4  1  0.000893  0.000893  0.000000  1
  S  S5  1  0.501156  0.501156  0.000000  1
  S  S6  1  0.749033  0.249033  0.499999  1
  S  S7  1  0.249033  0.749033  0.499999  1
