# generated using pymatgen
data_La4ErCo2
_symmetry_space_group_name_H-M   'P 1'
_cell_length_a   9.09686765
_cell_length_b   9.09686736
_cell_length_c   6.93802865
_cell_angle_alpha   85.79077144
_cell_angle_beta   85.79076610
_cell_angle_gamma   42.18607847
_symmetry_Int_Tables_number   1
_chemical_formula_structural   La4ErCo2
_chemical_formula_sum   'La8 Er2 Co4'
_cell_volume   384.36513814
_cell_formula_units_Z   2
loop_
 _symmetry_equiv_pos_site_id
 _symmetry_equiv_pos_as_xyz
  1  'x, y, z'
loop_
 _atom_site_type_symbol
 _atom_site_label
 _atom_site_symmetry_multiplicity
 _atom_site_fract_x
 _atom_site_fract_y
 _atom_site_fract_z
 _atom_site_occupancy
  La  La0  1  0.017223  0.797278  0.900680  1
  La  La1  1  0.202722  0.982777  0.599320  1
  La  La2  1  0.982777  0.202722  0.099320  1
  La  La3  1  0.797278  0.017223  0.400680  1
  La  La4  1  0.365454  0.217516  0.828249  1
  La  La5  1  0.782484  0.634546  0.671751  1
  La  La6  1  0.634546  0.782484  0.171751  1
  La  La7  1  0.217516  0.365454  0.328249  1
  Er  Er8  1  0.566775  0.433225  0.750000  1
  Er  Er9  1  0.433225  0.566775  0.250000  1
  Co  Co10  1  0.187171  0.603874  0.576284  1
  Co  Co11  1  0.396126  0.812829  0.923716  1
  Co  Co12  1  0.812829  0.396126  0.423716  1
  Co  Co13  1  0.603874  0.187171  0.076284  1
