# generated using pymatgen
data_Nd11In9(CoPd)2
_symmetry_space_group_name_H-M   'P 1'
_cell_length_a   13.39084023
_cell_length_b   13.46579038
_cell_length_c   3.79012600
_cell_angle_alpha   90.00000000
_cell_angle_beta   90.00000000
_cell_angle_gamma   111.22193928
_symmetry_Int_Tables_number   1
_chemical_formula_structural   Nd11In9(CoPd)2
_chemical_formula_sum   'Nd11 In9 Co2 Pd2'
_cell_volume   637.08232804
_cell_formula_units_Z   1
loop_
 _symmetry_equiv_pos_site_id
 _symmetry_equiv_pos_as_xyz
  1  'x, y, z'
loop_
 _atom_site_type_symbol
 _atom_site_label
 _atom_site_symmetry_multiplicity
 _atom_site_fract_x
 _atom_site_fract_y
 _atom_site_fract_z
 _atom_site_occupancy
  Nd  Nd0  1  0.316971  0.306154  0.000000  1
  Nd  Nd1  1  0.683029  0.693846  0.000000  1
  Nd  Nd2  1  0.000000  0.000000  0.000000  1
  Nd  Nd3  1  0.072981  0.417209  0.000000  1
  Nd  Nd4  1  0.927019  0.582791  0.000000  1
  Nd  Nd5  1  0.420204  0.079530  0.000000  1
  Nd  Nd6  1  0.579796  0.920470  0.000000  1
  Nd  Nd7  1  0.838789  0.157074  0.000000  1
  Nd  Nd8  1  0.161211  0.842926  0.000000  1
  Nd  Nd9  1  0.618989  0.365472  0.000000  1
  Nd  Nd10  1  0.381011  0.634528  0.000000  1
  In  In11  1  0.837876  0.366695  0.500000  1
  In  In12  1  0.162124  0.633305  0.500000  1
  In  In13  1  0.366350  0.836662  0.500000  1
  In  In14  1  0.633650  0.163338  0.500000  1
  In  In15  1  0.078449  0.219197  0.500000  1
  In  In16  1  0.921551  0.780803  0.500000  1
  In  In17  1  0.221620  0.079255  0.500000  1
  In  In18  1  0.778380  0.920745  0.500000  1
  In  In19  1  0.500000  0.500000  0.500000  1
  Co  Co20  1  0.449190  0.239951  0.500000  1
  Co  Co21  1  0.550810  0.760049  0.500000  1
  Pd  Pd22  1  0.249442  0.450011  0.500000  1
  Pd  Pd23  1  0.750558  0.549989  0.500000  1
