# generated using pymatgen
data_Tb5Ho7Ga2(NiOs)2
_symmetry_space_group_name_H-M   'P 1'
_cell_length_a   8.35016506
_cell_length_b   8.35016576
_cell_length_c   8.36657361
_cell_angle_alpha   113.14768582
_cell_angle_beta   110.08678391
_cell_angle_gamma   105.18917674
_symmetry_Int_Tables_number   1
_chemical_formula_structural   Tb5Ho7Ga2(NiOs)2
_chemical_formula_sum   'Tb5 Ho7 Ga2 Ni2 Os2'
_cell_volume   447.37533274
_cell_formula_units_Z   1
loop_
 _symmetry_equiv_pos_site_id
 _symmetry_equiv_pos_as_xyz
  1  'x, y, z'
loop_
 _atom_site_type_symbol
 _atom_site_label
 _atom_site_symmetry_multiplicity
 _atom_site_fract_x
 _atom_site_fract_y
 _atom_site_fract_z
 _atom_site_occupancy
  Tb  Tb0  1  0.436290  0.242734  0.193003  1
  Tb  Tb1  1  0.564321  0.757789  0.807537  1
  Tb  Tb2  1  0.049748  0.243216  0.807537  1
  Tb  Tb3  1  0.950269  0.756712  0.193003  1
  Tb  Tb4  1  0.178743  0.277982  0.456724  1
  Ho  Ho5  1  0.821197  0.722176  0.543374  1
  Ho  Ho6  1  0.179210  0.722589  0.901799  1
  Ho  Ho7  1  0.819923  0.277705  0.097628  1
  Ho  Ho8  1  0.331681  0.645051  0.313508  1
  Ho  Ho9  1  0.669164  0.355434  0.686997  1
  Ho  Ho10  1  0.331564  0.017832  0.686997  1
  Ho  Ho11  1  0.668456  0.981828  0.313508  1
  Ga  Ga12  1  0.500092  0.499920  0.000012  1
  Ga  Ga13  1  0.999319  0.999124  0.998442  1
  Ni  Ni14  1  0.115814  0.616034  0.500120  1
  Ni  Ni15  1  0.884085  0.384306  0.500120  1
  Os  Os16  1  0.329627  0.999627  0.329254  1
  Os  Os17  1  0.670497  0.999941  0.670438  1
