# generated using pymatgen
data_Tb3Mg3Al2Cd
_symmetry_space_group_name_H-M   'P 1'
_cell_length_a   7.53475100
_cell_length_b   7.53475058
_cell_length_c   4.46130000
_cell_angle_alpha   90.00000000
_cell_angle_beta   90.00000000
_cell_angle_gamma   120.00000625
_symmetry_Int_Tables_number   1
_chemical_formula_structural   Tb3Mg3Al2Cd
_chemical_formula_sum   'Tb3 Mg3 Al2 Cd1'
_cell_volume   219.34604997
_cell_formula_units_Z   1
loop_
 _symmetry_equiv_pos_site_id
 _symmetry_equiv_pos_as_xyz
  1  'x, y, z'
loop_
 _atom_site_type_symbol
 _atom_site_label
 _atom_site_symmetry_multiplicity
 _atom_site_fract_x
 _atom_site_fract_y
 _atom_site_fract_z
 _atom_site_occupancy
  Tb  Tb0  1  0.000000  0.572939  0.000000  1
  Tb  Tb1  1  0.427061  0.427061  0.000000  1
  Tb  Tb2  1  0.572939  0.000000  0.000000  1
  Mg  Mg3  1  0.751728  0.751728  0.500000  1
  Mg  Mg4  1  0.248272  0.000000  0.500000  1
  Mg  Mg5  1  0.000000  0.248272  0.500000  1
  Al  Al6  1  0.666667  0.333333  0.500000  1
  Al  Al7  1  0.333333  0.666667  0.500000  1
  Cd  Cd8  1  0.000000  0.000000  0.000000  1
