# generated using pymatgen
data_Ho2Lu6Al3Si8Ge
_symmetry_space_group_name_H-M   'P 1'
_cell_length_a   5.50632668
_cell_length_b   5.50632752
_cell_length_c   19.28377153
_cell_angle_alpha   81.72226813
_cell_angle_beta   81.72226781
_cell_angle_gamma   42.70966731
_symmetry_Int_Tables_number   1
_chemical_formula_structural   Ho2Lu6Al3Si8Ge
_chemical_formula_sum   'Ho2 Lu6 Al3 Si8 Ge1'
_cell_volume   391.80978808
_cell_formula_units_Z   1
loop_
 _symmetry_equiv_pos_site_id
 _symmetry_equiv_pos_as_xyz
  1  'x, y, z'
loop_
 _atom_site_type_symbol
 _atom_site_label
 _atom_site_symmetry_multiplicity
 _atom_site_fract_x
 _atom_site_fract_y
 _atom_site_fract_z
 _atom_site_occupancy
  Ho  Ho0  1  0.297723  0.297723  0.070909  1
  Ho  Ho1  1  0.537830  0.537830  0.323878  1
  Lu  Lu2  1  0.462008  0.462008  0.676235  1
  Lu  Lu3  1  0.702848  0.702848  0.927836  1
  Lu  Lu4  1  0.974813  0.974813  0.179611  1
  Lu  Lu5  1  0.216965  0.216965  0.428706  1
  Lu  Lu6  1  0.782581  0.782581  0.572362  1
  Lu  Lu7  1  0.025399  0.025399  0.820234  1
  Al  Al8  1  0.256293  0.256293  0.252382  1
  Al  Al9  1  0.499482  0.499482  0.500447  1
  Al  Al10  1  0.744453  0.744453  0.747374  1
  Si  Si11  1  0.171709  0.171709  0.676173  1
  Si  Si12  1  0.416002  0.416002  0.922064  1
  Si  Si13  1  0.688192  0.688192  0.180093  1
  Si  Si14  1  0.927501  0.927501  0.429014  1
  Si  Si15  1  0.071148  0.071148  0.572182  1
  Si  Si16  1  0.311612  0.311612  0.819448  1
  Si  Si17  1  0.584539  0.584539  0.076902  1
  Si  Si18  1  0.827564  0.827564  0.324432  1
  Ge  Ge19  1  0.001337  0.001337  0.999717  1
