# generated using pymatgen
data_Tb4Y6Si5As
_symmetry_space_group_name_H-M   'P 1'
_cell_length_a   8.47569800
_cell_length_b   8.48752948
_cell_length_c   6.36789500
_cell_angle_alpha   90.00000000
_cell_angle_beta   90.00000000
_cell_angle_gamma   119.95389030
_symmetry_Int_Tables_number   1
_chemical_formula_structural   Tb4Y6Si5As
_chemical_formula_sum   'Tb4 Y6 Si5 As1'
_cell_volume   396.90346878
_cell_formula_units_Z   1
loop_
 _symmetry_equiv_pos_site_id
 _symmetry_equiv_pos_as_xyz
  1  'x, y, z'
loop_
 _atom_site_type_symbol
 _atom_site_label
 _atom_site_symmetry_multiplicity
 _atom_site_fract_x
 _atom_site_fract_y
 _atom_site_fract_z
 _atom_site_occupancy
  Tb  Tb0  1  0.333037  0.664098  0.498968  1
  Tb  Tb1  1  0.668940  0.335902  0.001032  1
  Tb  Tb2  1  0.668940  0.335902  0.498968  1
  Tb  Tb3  1  0.333037  0.664098  0.001032  1
  Y  Y4  1  0.996775  0.753313  0.750000  1
  Y  Y5  1  0.000189  0.244331  0.250000  1
  Y  Y6  1  0.755857  0.755669  0.250000  1
  Y  Y7  1  0.757578  0.000000  0.750000  1
  Y  Y8  1  0.243460  0.246687  0.750000  1
  Y  Y9  1  0.243870  0.000000  0.250000  1
  Si  Si10  1  0.393448  0.392309  0.250000  1
  Si  Si11  1  0.001140  0.607691  0.250000  1
  Si  Si12  1  0.999750  0.393432  0.750000  1
  Si  Si13  1  0.606319  0.606568  0.750000  1
  Si  Si14  1  0.607695  0.000000  0.250000  1
  As  As15  1  0.389967  0.000000  0.750000  1
