# generated using pymatgen
data_TaSe38
_symmetry_space_group_name_H-M   'P 1'
_cell_length_a   9.66268158
_cell_length_b   10.29280470
_cell_length_c   12.13443600
_cell_angle_alpha   73.59649791
_cell_angle_beta   75.69180509
_cell_angle_gamma   85.21391653
_symmetry_Int_Tables_number   1
_chemical_formula_structural   TaSe38
_chemical_formula_sum   'Ta1 Se38'
_cell_volume   1121.68820377
_cell_formula_units_Z   1
loop_
 _symmetry_equiv_pos_site_id
 _symmetry_equiv_pos_as_xyz
  1  'x, y, z'
loop_
 _atom_site_type_symbol
 _atom_site_label
 _atom_site_symmetry_multiplicity
 _atom_site_fract_x
 _atom_site_fract_y
 _atom_site_fract_z
 _atom_site_occupancy
  Ta  Ta0  1  0.000000  0.000000  0.000000  1
  Se  Se1  1  0.232745  0.689306  0.077792  1
  Se  Se2  1  0.767255  0.310694  0.922208  1
  Se  Se3  1  0.689500  0.077932  0.233025  1
  Se  Se4  1  0.310500  0.922068  0.766975  1
  Se  Se5  1  0.922114  0.767118  0.310767  1
  Se  Se6  1  0.077886  0.232882  0.689233  1
  Se  Se7  1  0.155448  0.462981  0.384743  1
  Se  Se8  1  0.844552  0.537019  0.615257  1
  Se  Se9  1  0.463427  0.385372  0.154452  1
  Se  Se10  1  0.536573  0.614628  0.845548  1
  Se  Se11  1  0.614305  0.844702  0.537771  1
  Se  Se12  1  0.385695  0.155298  0.462229  1
  Se  Se13  1  0.951073  0.743785  0.089078  1
  Se  Se14  1  0.048927  0.256215  0.910922  1
  Se  Se15  1  0.729222  0.040304  0.015042  1
  Se  Se16  1  0.270778  0.959696  0.984958  1
  Se  Se17  1  0.025327  0.966137  0.792528  1
  Se  Se18  1  0.974673  0.033863  0.207472  1
  Se  Se19  1  0.642281  0.812679  0.323927  1
  Se  Se20  1  0.357719  0.187321  0.676073  1
  Se  Se21  1  0.797384  0.273800  0.707575  1
  Se  Se22  1  0.202616  0.726200  0.292425  1
  Se  Se23  1  0.258679  0.657494  0.862620  1
  Se  Se24  1  0.741321  0.342506  0.137380  1
  Se  Se25  1  0.874451  0.506232  0.400294  1
  Se  Se26  1  0.125549  0.493768  0.599706  1
  Se  Se27  1  0.491502  0.350425  0.939071  1
  Se  Se28  1  0.508498  0.649575  0.060929  1
  Se  Se29  1  0.335566  0.889209  0.555724  1
  Se  Se30  1  0.664434  0.110791  0.444276  1
  Se  Se31  1  0.183100  0.428967  0.169098  1
  Se  Se32  1  0.816900  0.571033  0.830902  1
  Se  Se33  1  0.414022  0.119890  0.247283  1
  Se  Se34  1  0.585978  0.880110  0.752717  1
  Se  Se35  1  0.104738  0.197885  0.478575  1
  Se  Se36  1  0.895262  0.802115  0.521425  1
  Se  Se37  1  0.565745  0.581239  0.631186  1
  Se  Se38  1  0.434255  0.418761  0.368814  1
