# generated using pymatgen
data_Ba(AuBr4)2
_symmetry_space_group_name_H-M   'P 1'
_cell_length_a   8.08459000
_cell_length_b   8.19474100
_cell_length_c   13.08605300
_cell_angle_alpha   98.88476679
_cell_angle_beta   90.00000000
_cell_angle_gamma   90.00000000
_symmetry_Int_Tables_number   1
_chemical_formula_structural   Ba(AuBr4)2
_chemical_formula_sum   'Ba2 Au4 Br16'
_cell_volume   856.56292931
_cell_formula_units_Z   2
loop_
 _symmetry_equiv_pos_site_id
 _symmetry_equiv_pos_as_xyz
  1  'x, y, z'
loop_
 _atom_site_type_symbol
 _atom_site_label
 _atom_site_symmetry_multiplicity
 _atom_site_fract_x
 _atom_site_fract_y
 _atom_site_fract_z
 _atom_site_occupancy
  Ba  Ba0  1  0.170882  0.500000  0.250000  1
  Ba  Ba1  1  0.829118  0.500000  0.750000  1
  Au  Au2  1  0.245952  0.742613  0.627305  1
  Au  Au3  1  0.754048  0.742613  0.127305  1
  Au  Au4  1  0.754048  0.257387  0.372695  1
  Au  Au5  1  0.245952  0.257387  0.872695  1
  Br  Br6  1  0.542956  0.764522  0.675221  1
  Br  Br7  1  0.329886  0.762836  0.446842  1
  Br  Br8  1  0.834094  0.262563  0.189490  1
  Br  Br9  1  0.165906  0.737437  0.810510  1
  Br  Br10  1  0.457044  0.235478  0.324779  1
  Br  Br11  1  0.329886  0.237164  0.053158  1
  Br  Br12  1  0.670114  0.237164  0.553158  1
  Br  Br13  1  0.457044  0.764522  0.175221  1
  Br  Br14  1  0.165906  0.262563  0.689490  1
  Br  Br15  1  0.542956  0.235478  0.824779  1
  Br  Br16  1  0.834094  0.737437  0.310510  1
  Br  Br17  1  0.050374  0.736045  0.077980  1
  Br  Br18  1  0.670114  0.762836  0.946842  1
  Br  Br19  1  0.949626  0.263955  0.922020  1
  Br  Br20  1  0.050374  0.263955  0.422020  1
  Br  Br21  1  0.949626  0.736045  0.577980  1
