# generated using pymatgen
data_Sm5P12Ir11Ru8
_symmetry_space_group_name_H-M   'P 1'
_cell_length_a   12.62413400
_cell_length_b   12.59304779
_cell_length_c   3.97489700
_cell_angle_alpha   90.00000000
_cell_angle_beta   90.00000000
_cell_angle_gamma   120.04653255
_symmetry_Int_Tables_number   1
_chemical_formula_structural   Sm5P12Ir11Ru8
_chemical_formula_sum   'Sm5 P12 Ir11 Ru8'
_cell_volume   546.99723324
_cell_formula_units_Z   1
loop_
 _symmetry_equiv_pos_site_id
 _symmetry_equiv_pos_as_xyz
  1  'x, y, z'
loop_
 _atom_site_type_symbol
 _atom_site_label
 _atom_site_symmetry_multiplicity
 _atom_site_fract_x
 _atom_site_fract_y
 _atom_site_fract_z
 _atom_site_occupancy
  Sm  Sm0  1  0.667045  0.331495  0.000000  1
  Sm  Sm1  1  0.334701  0.669082  0.000000  1
  Sm  Sm2  1  0.813256  0.000973  0.500000  1
  Sm  Sm3  1  0.184188  0.185730  0.500000  1
  Sm  Sm4  1  0.999260  0.814207  0.500000  1
  P  P5  1  0.632836  0.998825  0.000000  1
  P  P6  1  0.364332  0.364595  0.000000  1
  P  P7  1  0.000408  0.634949  0.000000  1
  P  P8  1  0.688818  0.518065  0.500000  1
  P  P9  1  0.830260  0.307354  0.500000  1
  P  P10  1  0.317253  0.834896  0.500000  1
  P  P11  1  0.519826  0.691370  0.500000  1
  P  P12  1  0.179692  0.000144  0.000000  1
  P  P13  1  0.818342  0.818460  0.000000  1
  P  P14  1  0.996899  0.181990  0.000000  1
  P  P15  1  0.479583  0.166937  0.500000  1
  P  P16  1  0.170043  0.481928  0.500000  1
  Ir  Ir17  1  0.623490  0.802438  0.000000  1
  Ir  Ir18  1  0.182722  0.377743  0.000000  1
  Ir  Ir19  1  0.375365  0.181044  0.000000  1
  Ir  Ir20  1  0.193322  0.819095  0.000000  1
  Ir  Ir21  1  0.804588  0.622116  0.000000  1
  Ir  Ir22  1  0.871770  0.508007  0.500000  1
  Ir  Ir23  1  0.490876  0.360654  0.500000  1
  Ir  Ir24  1  0.636770  0.128036  0.500000  1
  Ir  Ir25  1  0.131317  0.640700  0.500000  1
  Ir  Ir26  1  0.363071  0.491139  0.500000  1
  Ir  Ir27  1  0.998890  0.000392  0.000000  1
  Ru  Ru28  1  0.512499  0.872859  0.500000  1
  Ru  Ru29  1  0.711464  0.709908  0.500000  1
  Ru  Ru30  1  0.002301  0.289966  0.500000  1
  Ru  Ru31  1  0.449729  0.998677  0.000000  1
  Ru  Ru32  1  0.547613  0.545364  0.000000  1
  Ru  Ru33  1  0.002115  0.454225  0.000000  1
  Ru  Ru34  1  0.818609  0.196822  0.000000  1
  Ru  Ru35  1  0.286746  0.999810  0.500000  1
