# generated using pymatgen
data_Er3Tm13MgIn3Ir4
_symmetry_space_group_name_H-M   'P 1'
_cell_length_a   9.56727287
_cell_length_b   9.54765888
_cell_length_c   9.55734200
_cell_angle_alpha   59.96644524
_cell_angle_beta   60.03433095
_cell_angle_gamma   60.06346481
_symmetry_Int_Tables_number   1
_chemical_formula_structural   Er3Tm13MgIn3Ir4
_chemical_formula_sum   'Er3 Tm13 Mg1 In3 Ir4'
_cell_volume   617.61423819
_cell_formula_units_Z   1
loop_
 _symmetry_equiv_pos_site_id
 _symmetry_equiv_pos_as_xyz
  1  'x, y, z'
loop_
 _atom_site_type_symbol
 _atom_site_label
 _atom_site_symmetry_multiplicity
 _atom_site_fract_x
 _atom_site_fract_y
 _atom_site_fract_z
 _atom_site_occupancy
  Er  Er0  1  0.059697  0.438366  0.439286  1
  Er  Er1  1  0.435454  0.438249  0.063149  1
  Er  Er2  1  0.059697  0.438366  0.062651  1
  Tm  Tm3  1  0.058833  0.059728  0.440719  1
  Tm  Tm4  1  0.650291  0.044252  0.652728  1
  Tm  Tm5  1  0.192560  0.809593  0.190908  1
  Tm  Tm6  1  0.437266  0.061308  0.439620  1
  Tm  Tm7  1  0.193516  0.192475  0.807005  1
  Tm  Tm8  1  0.651174  0.652346  0.655011  1
  Tm  Tm9  1  0.050057  0.648945  0.650499  1
  Tm  Tm10  1  0.437266  0.061308  0.061806  1
  Tm  Tm11  1  0.651174  0.652346  0.041468  1
  Tm  Tm12  1  0.192560  0.809593  0.806939  1
  Tm  Tm13  1  0.811913  0.189523  0.809789  1
  Tm  Tm14  1  0.811913  0.189523  0.188774  1
  Tm  Tm15  1  0.810102  0.811228  0.189335  1
  Mg  Mg16  1  0.732603  0.422594  0.422401  1
  In  In17  1  0.419207  0.416014  0.749343  1
  In  In18  1  0.418989  0.749539  0.415736  1
  In  In19  1  0.419207  0.416014  0.415436  1
  Ir  Ir20  1  0.861216  0.858072  0.857187  1
  Ir  Ir21  1  0.421905  0.860141  0.858977  1
  Ir  Ir22  1  0.861216  0.858072  0.423526  1
  Ir  Ir23  1  0.862185  0.422403  0.857706  1
