# generated using pymatgen
data_Dy5Zr5(Si5Ir2)4
_symmetry_space_group_name_H-M   'P 1'
_cell_length_a   12.53770400
_cell_length_b   12.53770400
_cell_length_c   4.18339900
_cell_angle_alpha   90.00000000
_cell_angle_beta   90.00000000
_cell_angle_gamma   90.00000000
_symmetry_Int_Tables_number   1
_chemical_formula_structural   Dy5Zr5(Si5Ir2)4
_chemical_formula_sum   'Dy5 Zr5 Si20 Ir8'
_cell_volume   657.60531273
_cell_formula_units_Z   1
loop_
 _symmetry_equiv_pos_site_id
 _symmetry_equiv_pos_as_xyz
  1  'x, y, z'
loop_
 _atom_site_type_symbol
 _atom_site_label
 _atom_site_symmetry_multiplicity
 _atom_site_fract_x
 _atom_site_fract_y
 _atom_site_fract_z
 _atom_site_occupancy
  Dy  Dy0  1  0.000000  0.000000  0.000000  1
  Dy  Dy1  1  0.884423  0.384730  0.500000  1
  Dy  Dy2  1  0.115577  0.615270  0.500000  1
  Dy  Dy3  1  0.384730  0.115577  0.500000  1
  Dy  Dy4  1  0.615270  0.884423  0.500000  1
  Zr  Zr5  1  0.500000  0.500000  0.000000  1
  Zr  Zr6  1  0.673869  0.175490  0.500000  1
  Zr  Zr7  1  0.326131  0.824510  0.500000  1
  Zr  Zr8  1  0.175490  0.326131  0.500000  1
  Zr  Zr9  1  0.824510  0.673869  0.500000  1
  Si  Si10  1  0.566123  0.067586  0.000000  1
  Si  Si11  1  0.433877  0.932414  0.000000  1
  Si  Si12  1  0.067586  0.433877  0.000000  1
  Si  Si13  1  0.932414  0.566123  0.000000  1
  Si  Si14  1  0.665055  0.700224  0.000000  1
  Si  Si15  1  0.334945  0.299776  0.000000  1
  Si  Si16  1  0.164212  0.800958  0.000000  1
  Si  Si17  1  0.835788  0.199042  0.000000  1
  Si  Si18  1  0.299776  0.665055  0.000000  1
  Si  Si19  1  0.700224  0.334945  0.000000  1
  Si  Si20  1  0.199042  0.164212  0.000000  1
  Si  Si21  1  0.800958  0.835788  0.000000  1
  Si  Si22  1  0.652924  0.506509  0.500000  1
  Si  Si23  1  0.347076  0.493491  0.500000  1
  Si  Si24  1  0.157690  0.993530  0.500000  1
  Si  Si25  1  0.842310  0.006470  0.500000  1
  Si  Si26  1  0.493491  0.652924  0.500000  1
  Si  Si27  1  0.506509  0.347076  0.500000  1
  Si  Si28  1  0.006470  0.157690  0.500000  1
  Si  Si29  1  0.993530  0.842310  0.500000  1
  Ir  Ir30  1  0.742763  0.520810  0.000000  1
  Ir  Ir31  1  0.257237  0.479190  0.000000  1
  Ir  Ir32  1  0.246016  0.978956  0.000000  1
  Ir  Ir33  1  0.753984  0.021044  0.000000  1
  Ir  Ir34  1  0.479190  0.742763  0.000000  1
  Ir  Ir35  1  0.520810  0.257237  0.000000  1
  Ir  Ir36  1  0.021044  0.246016  0.000000  1
  Ir  Ir37  1  0.978956  0.753984  0.000000  1
