# generated using pymatgen
data_Sc2TiNb(Co4P3)2
_symmetry_space_group_name_H-M   'P 1'
_cell_length_a   11.97622909
_cell_length_b   11.97622816
_cell_length_c   3.61208300
_cell_angle_alpha   90.00000000
_cell_angle_beta   90.00000000
_cell_angle_gamma   119.89212100
_symmetry_Int_Tables_number   1
_chemical_formula_structural   Sc2TiNb(Co4P3)2
_chemical_formula_sum   'Sc4 Ti2 Nb2 Co16 P12'
_cell_volume   449.15846342
_cell_formula_units_Z   2
loop_
 _symmetry_equiv_pos_site_id
 _symmetry_equiv_pos_as_xyz
  1  'x, y, z'
loop_
 _atom_site_type_symbol
 _atom_site_label
 _atom_site_symmetry_multiplicity
 _atom_site_fract_x
 _atom_site_fract_y
 _atom_site_fract_z
 _atom_site_occupancy
  Sc  Sc0  1  0.821274  0.999874  0.500000  1
  Sc  Sc1  1  0.999874  0.821274  0.500000  1
  Sc  Sc2  1  0.332702  0.666647  0.000000  1
  Sc  Sc3  1  0.666647  0.332702  0.000000  1
  Ti  Ti4  1  0.443273  0.999903  0.000000  1
  Ti  Ti5  1  0.999903  0.443273  0.000000  1
  Nb  Nb6  1  0.182669  0.182669  0.500000  1
  Nb  Nb7  1  0.552553  0.552553  0.000000  1
  Co  Co8  1  0.281813  0.003227  0.500000  1
  Co  Co9  1  0.003227  0.281813  0.500000  1
  Co  Co10  1  0.720552  0.720552  0.500000  1
  Co  Co11  1  0.627523  0.804950  0.000000  1
  Co  Co12  1  0.196745  0.824179  0.000000  1
  Co  Co13  1  0.175117  0.370243  0.000000  1
  Co  Co14  1  0.370243  0.175117  0.000000  1
  Co  Co15  1  0.804950  0.627523  0.000000  1
  Co  Co16  1  0.824179  0.196745  0.000000  1
  Co  Co17  1  0.518025  0.874154  0.500000  1
  Co  Co18  1  0.126470  0.645755  0.500000  1
  Co  Co19  1  0.350444  0.478306  0.500000  1
  Co  Co20  1  0.478306  0.350444  0.500000  1
  Co  Co21  1  0.874154  0.518025  0.500000  1
  Co  Co22  1  0.645755  0.126470  0.500000  1
  Co  Co23  1  0.001944  0.001944  0.000000  1
  P  P24  1  0.174654  0.999658  0.000000  1
  P  P25  1  0.999658  0.174654  0.000000  1
  P  P26  1  0.826531  0.826531  0.000000  1
  P  P27  1  0.516475  0.688306  0.500000  1
  P  P28  1  0.313337  0.831406  0.500000  1
  P  P29  1  0.169103  0.484536  0.500000  1
  P  P30  1  0.484536  0.169103  0.500000  1
  P  P31  1  0.688306  0.516475  0.500000  1
  P  P32  1  0.831406  0.313337  0.500000  1
  P  P33  1  0.649022  0.000636  0.000000  1
  P  P34  1  0.000636  0.649022  0.000000  1
  P  P35  1  0.347995  0.347995  0.000000  1
