# generated using pymatgen
data_Y4ErIn4PdAu
_symmetry_space_group_name_H-M   'P 1'
_cell_length_a   3.66990100
_cell_length_b   8.17041784
_cell_length_c   18.34852064
_cell_angle_alpha   89.93085675
_cell_angle_beta   90.00000000
_cell_angle_gamma   90.00000000
_symmetry_Int_Tables_number   1
_chemical_formula_structural   Y4ErIn4PdAu
_chemical_formula_sum   'Y8 Er2 In8 Pd2 Au2'
_cell_volume   550.17310251
_cell_formula_units_Z   2
loop_
 _symmetry_equiv_pos_site_id
 _symmetry_equiv_pos_as_xyz
  1  'x, y, z'
loop_
 _atom_site_type_symbol
 _atom_site_label
 _atom_site_symmetry_multiplicity
 _atom_site_fract_x
 _atom_site_fract_y
 _atom_site_fract_z
 _atom_site_occupancy
  Y  Y0  1  0.000000  0.500000  0.500000  1
  Y  Y1  1  0.000000  0.000000  0.000000  1
  Y  Y2  1  0.000000  0.745072  0.283915  1
  Y  Y3  1  0.000000  0.254928  0.716085  1
  Y  Y4  1  0.000000  0.768064  0.779880  1
  Y  Y5  1  0.000000  0.231936  0.220120  1
  Y  Y6  1  0.000000  0.619286  0.080119  1
  Y  Y7  1  0.000000  0.380714  0.919881  1
  Er  Er8  1  0.000000  0.885956  0.582746  1
  Er  Er9  1  0.000000  0.114044  0.417254  1
  In  In10  1  0.500000  0.711735  0.931766  1
  In  In11  1  0.500000  0.288265  0.068234  1
  In  In12  1  0.500000  0.792194  0.433669  1
  In  In13  1  0.500000  0.207806  0.566331  1
  In  In14  1  0.500000  0.585543  0.647377  1
  In  In15  1  0.500000  0.414457  0.352623  1
  In  In16  1  0.500000  0.921061  0.149273  1
  In  In17  1  0.500000  0.078939  0.850727  1
  Pd  Pd18  1  0.500000  0.974202  0.694164  1
  Pd  Pd19  1  0.500000  0.025798  0.305836  1
  Au  Au20  1  0.500000  0.526089  0.197798  1
  Au  Au21  1  0.500000  0.473911  0.802202  1
