# generated using pymatgen
data_LiHo4Lu(Si3Ru)8
_symmetry_space_group_name_H-M   'P 1'
_cell_length_a   10.09158202
_cell_length_b   10.09158137
_cell_length_c   8.07413105
_cell_angle_alpha   89.99867488
_cell_angle_beta   89.99868384
_cell_angle_gamma   132.76817422
_symmetry_Int_Tables_number   1
_chemical_formula_structural   LiHo4Lu(Si3Ru)8
_chemical_formula_sum   'Li1 Ho4 Lu1 Si24 Ru8'
_cell_volume   603.63405399
_cell_formula_units_Z   1
loop_
 _symmetry_equiv_pos_site_id
 _symmetry_equiv_pos_as_xyz
  1  'x, y, z'
loop_
 _atom_site_type_symbol
 _atom_site_label
 _atom_site_symmetry_multiplicity
 _atom_site_fract_x
 _atom_site_fract_y
 _atom_site_fract_z
 _atom_site_occupancy
  Li  Li0  1  0.500000  0.500000  0.500000  1
  Ho  Ho1  1  0.501944  0.001942  0.749234  1
  Ho  Ho2  1  0.998058  0.498056  0.250766  1
  Ho  Ho3  1  0.498056  0.998058  0.250766  1
  Ho  Ho4  1  0.001942  0.501944  0.749234  1
  Lu  Lu5  1  0.000000  0.000000  0.000000  1
  Si  Si6  1  0.796724  0.203276  0.500000  1
  Si  Si7  1  0.296467  0.703533  0.000000  1
  Si  Si8  1  0.203276  0.796724  0.500000  1
  Si  Si9  1  0.703533  0.296467  0.000000  1
  Si  Si10  1  0.336279  0.336279  0.827471  1
  Si  Si11  1  0.663721  0.663721  0.172529  1
  Si  Si12  1  0.172214  0.172214  0.336192  1
  Si  Si13  1  0.827786  0.827786  0.663808  1
  Si  Si14  1  0.123428  0.890344  0.728870  1
  Si  Si15  1  0.109656  0.876572  0.271130  1
  Si  Si16  1  0.607431  0.378133  0.234439  1
  Si  Si17  1  0.621867  0.392569  0.765561  1
  Si  Si18  1  0.876572  0.109656  0.271130  1
  Si  Si19  1  0.890344  0.123428  0.728870  1
  Si  Si20  1  0.392569  0.621867  0.765561  1
  Si  Si21  1  0.378133  0.607431  0.234439  1
  Si  Si22  1  0.349512  0.120594  0.507273  1
  Si  Si23  1  0.879406  0.650488  0.492727  1
  Si  Si24  1  0.387480  0.154511  0.006255  1
  Si  Si25  1  0.845489  0.612520  0.993745  1
  Si  Si26  1  0.650488  0.879406  0.492727  1
  Si  Si27  1  0.120594  0.349512  0.507273  1
  Si  Si28  1  0.612520  0.845489  0.993745  1
  Si  Si29  1  0.154511  0.387480  0.006255  1
  Ru  Ru30  1  0.671946  0.328054  0.500000  1
  Ru  Ru31  1  0.170600  0.829400  0.000000  1
  Ru  Ru32  1  0.328054  0.671946  0.500000  1
  Ru  Ru33  1  0.829400  0.170600  0.000000  1
  Ru  Ru34  1  0.123658  0.123658  0.629359  1
  Ru  Ru35  1  0.876342  0.876342  0.370641  1
  Ru  Ru36  1  0.370742  0.370742  0.123765  1
  Ru  Ru37  1  0.629258  0.629258  0.876235  1
