# generated using pymatgen
data_Al4V12Ga3CoN4
_symmetry_space_group_name_H-M   'P 1'
_cell_length_a   6.58829517
_cell_length_b   6.59580335
_cell_length_c   6.58397553
_cell_angle_alpha   90.08508984
_cell_angle_beta   90.06147055
_cell_angle_gamma   90.03087699
_symmetry_Int_Tables_number   1
_chemical_formula_structural   Al4V12Ga3CoN4
_chemical_formula_sum   'Al4 V12 Ga3 Co1 N4'
_cell_volume   286.10678863
_cell_formula_units_Z   1
loop_
 _symmetry_equiv_pos_site_id
 _symmetry_equiv_pos_as_xyz
  1  'x, y, z'
loop_
 _atom_site_type_symbol
 _atom_site_label
 _atom_site_symmetry_multiplicity
 _atom_site_fract_x
 _atom_site_fract_y
 _atom_site_fract_z
 _atom_site_occupancy
  Al  Al0  1  0.319503  0.176755  0.820539  1
  Al  Al1  1  0.823370  0.319943  0.180409  1
  Al  Al2  1  0.679985  0.679766  0.676594  1
  Al  Al3  1  0.417717  0.923960  0.557257  1
  V  V4  1  0.793540  0.958850  0.374829  1
  V  V5  1  0.708973  0.040316  0.875445  1
  V  V6  1  0.207496  0.462620  0.124418  1
  V  V7  1  0.292065  0.544374  0.626673  1
  V  V8  1  0.958393  0.377258  0.791126  1
  V  V9  1  0.042304  0.873356  0.706593  1
  V  V10  1  0.457670  0.125495  0.207980  1
  V  V11  1  0.537600  0.625355  0.292845  1
  V  V12  1  0.375212  0.792930  0.961057  1
  V  V13  1  0.873735  0.707447  0.043345  1
  V  V14  1  0.128139  0.206795  0.459582  1
  V  V15  1  0.621116  0.288594  0.540252  1
  Ga  Ga16  1  0.569438  0.430566  0.930734  1
  Ga  Ga17  1  0.941588  0.580145  0.425716  1
  Ga  Ga18  1  0.074287  0.058633  0.080613  1
  Co  Co19  1  0.182276  0.819358  0.319522  1
  N  N20  1  0.876468  0.125260  0.624651  1
  N  N21  1  0.624128  0.875820  0.127632  1
  N  N22  1  0.123764  0.628752  0.876816  1
  N  N23  1  0.371234  0.377653  0.375374  1
