# generated using pymatgen
data_Zr6TlBCl15
_symmetry_space_group_name_H-M   'P 1'
_cell_length_a   9.96993000
_cell_length_b   14.21674800
_cell_length_c   18.93029700
_cell_angle_alpha   90.00000000
_cell_angle_beta   90.00000000
_cell_angle_gamma   90.00000000
_symmetry_Int_Tables_number   1
_chemical_formula_structural   Zr6TlBCl15
_chemical_formula_sum   'Zr24 Tl4 B4 Cl60'
_cell_volume   2683.17996337
_cell_formula_units_Z   4
loop_
 _symmetry_equiv_pos_site_id
 _symmetry_equiv_pos_as_xyz
  1  'x, y, z'
loop_
 _atom_site_type_symbol
 _atom_site_label
 _atom_site_symmetry_multiplicity
 _atom_site_fract_x
 _atom_site_fract_y
 _atom_site_fract_z
 _atom_site_occupancy
  Zr  Zr0  1  0.343041  0.617113  0.530244  1
  Zr  Zr1  1  0.604505  0.000000  0.250000  1
  Zr  Zr2  1  0.416940  0.500000  0.114679  1
  Zr  Zr3  1  0.343041  0.382887  0.530244  1
  Zr  Zr4  1  0.163873  0.117511  0.838064  1
  Zr  Zr5  1  0.836127  0.117511  0.161936  1
  Zr  Zr6  1  0.163873  0.882489  0.838064  1
  Zr  Zr7  1  0.163873  0.882489  0.661936  1
  Zr  Zr8  1  0.163873  0.117511  0.661936  1
  Zr  Zr9  1  0.656959  0.382887  0.030244  1
  Zr  Zr10  1  0.656959  0.382887  0.469756  1
  Zr  Zr11  1  0.836127  0.117511  0.338064  1
  Zr  Zr12  1  0.069883  0.000000  0.250000  1
  Zr  Zr13  1  0.416940  0.500000  0.385321  1
  Zr  Zr14  1  0.583060  0.500000  0.614679  1
  Zr  Zr15  1  0.395495  0.000000  0.750000  1
  Zr  Zr16  1  0.343041  0.617113  0.969756  1
  Zr  Zr17  1  0.930117  0.000000  0.750000  1
  Zr  Zr18  1  0.656959  0.617113  0.469756  1
  Zr  Zr19  1  0.583060  0.500000  0.885321  1
  Zr  Zr20  1  0.836127  0.882489  0.338064  1
  Zr  Zr21  1  0.836127  0.882489  0.161936  1
  Zr  Zr22  1  0.656959  0.617113  0.030244  1
  Zr  Zr23  1  0.343041  0.382887  0.969756  1
  Tl  Tl24  1  0.326610  0.747436  0.250000  1
  Tl  Tl25  1  0.673390  0.747436  0.750000  1
  Tl  Tl26  1  0.326610  0.252564  0.250000  1
  Tl  Tl27  1  0.673390  0.252564  0.750000  1
  B  B28  1  0.500000  0.500000  0.000000  1
  B  B29  1  0.837397  0.000000  0.250000  1
  B  B30  1  0.162603  0.000000  0.750000  1
  B  B31  1  0.500000  0.500000  0.500000  1
  Cl  Cl32  1  0.500000  0.752423  0.000000  1
  Cl  Cl33  1  0.420773  0.874304  0.844771  1
  Cl  Cl34  1  0.500000  0.752423  0.500000  1
  Cl  Cl35  1  0.094074  0.873694  0.153790  1
  Cl  Cl36  1  0.500000  0.247577  0.000000  1
  Cl  Cl37  1  0.663390  0.000000  0.750000  1
  Cl  Cl38  1  0.420773  0.125696  0.655229  1
  Cl  Cl39  1  0.336610  0.000000  0.250000  1
  Cl  Cl40  1  0.832903  0.250534  0.435884  1
  Cl  Cl41  1  0.579250  0.375007  0.159079  1
  Cl  Cl42  1  0.905926  0.873694  0.846210  1
  Cl  Cl43  1  0.420750  0.624993  0.659079  1
  Cl  Cl44  1  0.420750  0.624993  0.840921  1
  Cl  Cl45  1  0.838175  0.500000  0.433558  1
  Cl  Cl46  1  0.094074  0.126306  0.346210  1
  Cl  Cl47  1  0.420750  0.375007  0.840921  1
  Cl  Cl48  1  0.832903  0.749466  0.064116  1
  Cl  Cl49  1  0.420750  0.375007  0.659079  1
  Cl  Cl50  1  0.760895  0.627450  0.594431  1
  Cl  Cl51  1  0.155722  0.747005  0.750000  1
  Cl  Cl52  1  0.420773  0.874304  0.655229  1
  Cl  Cl53  1  0.905926  0.126306  0.846210  1
  Cl  Cl54  1  0.239105  0.627450  0.405569  1
  Cl  Cl55  1  0.500000  0.247577  0.500000  1
  Cl  Cl56  1  0.832903  0.749466  0.435884  1
  Cl  Cl57  1  0.579227  0.125696  0.155229  1
  Cl  Cl58  1  0.094074  0.126306  0.153790  1
  Cl  Cl59  1  0.838175  0.500000  0.066442  1
  Cl  Cl60  1  0.844278  0.252995  0.250000  1
  Cl  Cl61  1  0.579250  0.375007  0.340921  1
  Cl  Cl62  1  0.319205  0.500000  0.250000  1
  Cl  Cl63  1  0.832903  0.250534  0.064116  1
  Cl  Cl64  1  0.161825  0.500000  0.566442  1
  Cl  Cl65  1  0.094074  0.873694  0.346210  1
  Cl  Cl66  1  0.844278  0.747005  0.250000  1
  Cl  Cl67  1  0.161825  0.500000  0.933558  1
  Cl  Cl68  1  0.760895  0.372550  0.594431  1
  Cl  Cl69  1  0.836886  0.000000  0.060076  1
  Cl  Cl70  1  0.167097  0.749466  0.935884  1
  Cl  Cl71  1  0.167097  0.250534  0.564116  1
  Cl  Cl72  1  0.163114  0.000000  0.939924  1
  Cl  Cl73  1  0.579250  0.624993  0.159079  1
  Cl  Cl74  1  0.155722  0.252995  0.750000  1
  Cl  Cl75  1  0.579227  0.874304  0.155229  1
  Cl  Cl76  1  0.760895  0.627450  0.905569  1
  Cl  Cl77  1  0.239105  0.627450  0.094431  1
  Cl  Cl78  1  0.905926  0.873694  0.653790  1
  Cl  Cl79  1  0.239105  0.372550  0.405569  1
  Cl  Cl80  1  0.420773  0.125696  0.844771  1
  Cl  Cl81  1  0.163114  0.000000  0.560076  1
  Cl  Cl82  1  0.680795  0.500000  0.750000  1
  Cl  Cl83  1  0.905926  0.126306  0.653790  1
  Cl  Cl84  1  0.239105  0.372550  0.094431  1
  Cl  Cl85  1  0.579227  0.874304  0.344771  1
  Cl  Cl86  1  0.579250  0.624993  0.340921  1
  Cl  Cl87  1  0.167097  0.749466  0.564116  1
  Cl  Cl88  1  0.167097  0.250534  0.935884  1
  Cl  Cl89  1  0.836886  0.000000  0.439924  1
  Cl  Cl90  1  0.760895  0.372550  0.905569  1
  Cl  Cl91  1  0.579227  0.125696  0.344771  1
