# generated using pymatgen
data_La6Tb7Ho3(CdIr)4
_symmetry_space_group_name_H-M   'P 1'
_cell_length_a   9.83721174
_cell_length_b   9.84573271
_cell_length_c   9.83739789
_cell_angle_alpha   59.97071659
_cell_angle_beta   59.94086590
_cell_angle_gamma   59.97259295
_symmetry_Int_Tables_number   1
_chemical_formula_structural   La6Tb7Ho3(CdIr)4
_chemical_formula_sum   'La6 Tb7 Ho3 Cd4 Ir4'
_cell_volume   673.13907304
_cell_formula_units_Z   1
loop_
 _symmetry_equiv_pos_site_id
 _symmetry_equiv_pos_as_xyz
  1  'x, y, z'
loop_
 _atom_site_type_symbol
 _atom_site_label
 _atom_site_symmetry_multiplicity
 _atom_site_fract_x
 _atom_site_fract_y
 _atom_site_fract_z
 _atom_site_occupancy
  La  La0  1  0.193054  0.806848  0.806717  1
  La  La1  1  0.806717  0.193381  0.193054  1
  La  La2  1  0.807141  0.192859  0.807141  1
  La  La3  1  0.193549  0.806451  0.193549  1
  La  La4  1  0.806736  0.806730  0.193133  1
  La  La5  1  0.193133  0.193401  0.806736  1
  Tb  Tb6  1  0.596778  0.596446  0.597398  1
  Tb  Tb7  1  0.597510  0.596545  0.208796  1
  Tb  Tb8  1  0.597398  0.209378  0.596778  1
  Tb  Tb9  1  0.208796  0.597149  0.597510  1
  Tb  Tb10  1  0.062953  0.437151  0.435959  1
  Tb  Tb11  1  0.435959  0.063936  0.062953  1
  Tb  Tb12  1  0.436712  0.063288  0.436712  1
  Ho  Ho13  1  0.063320  0.436680  0.063320  1
  Ho  Ho14  1  0.436270  0.437416  0.062624  1
  Ho  Ho15  1  0.062624  0.063690  0.436270  1
  Cd  Cd16  1  0.828911  0.828442  0.828694  1
  Cd  Cd17  1  0.829065  0.828766  0.513599  1
  Cd  Cd18  1  0.828694  0.513951  0.828911  1
  Cd  Cd19  1  0.513599  0.828569  0.829065  1
  Ir  Ir20  1  0.391621  0.390791  0.390862  1
  Ir  Ir21  1  0.391061  0.391110  0.827536  1
  Ir  Ir22  1  0.390862  0.826726  0.391621  1
  Ir  Ir23  1  0.827536  0.390293  0.391061  1
