# generated using pymatgen
data_Th2Al2ZnCu7
_symmetry_space_group_name_H-M   'P 1'
_cell_length_a   4.20357800
_cell_length_b   5.20601651
_cell_length_c   8.93255171
_cell_angle_alpha   89.31030818
_cell_angle_beta   90.00000000
_cell_angle_gamma   90.00000000
_symmetry_Int_Tables_number   1
_chemical_formula_structural   Th2Al2ZnCu7
_chemical_formula_sum   'Th2 Al2 Zn1 Cu7'
_cell_volume   195.46487456
_cell_formula_units_Z   1
loop_
 _symmetry_equiv_pos_site_id
 _symmetry_equiv_pos_as_xyz
  1  'x, y, z'
loop_
 _atom_site_type_symbol
 _atom_site_label
 _atom_site_symmetry_multiplicity
 _atom_site_fract_x
 _atom_site_fract_y
 _atom_site_fract_z
 _atom_site_occupancy
  Th  Th0  1  0.000000  0.248095  0.748622  1
  Th  Th1  1  0.000000  0.751905  0.251378  1
  Al  Al2  1  0.500000  0.741344  0.745931  1
  Al  Al3  1  0.500000  0.258656  0.254069  1
  Zn  Zn4  1  0.500000  0.000000  0.000000  1
  Cu  Cu5  1  0.000000  0.257288  0.084682  1
  Cu  Cu6  1  0.000000  0.751499  0.581431  1
  Cu  Cu7  1  0.000000  0.742712  0.915318  1
  Cu  Cu8  1  0.000000  0.248501  0.418569  1
  Cu  Cu9  1  0.500000  0.500000  0.500000  1
  Cu  Cu10  1  0.500000  0.500000  0.000000  1
  Cu  Cu11  1  0.500000  0.000000  0.500000  1
