# generated using pymatgen
data_Nd2ThNi2
_symmetry_space_group_name_H-M   'P 1'
_cell_length_a   6.21130064
_cell_length_b   6.21130012
_cell_length_c   6.21129892
_cell_angle_alpha   144.07254915
_cell_angle_beta   118.68775828
_cell_angle_gamma   73.15421783
_symmetry_Int_Tables_number   1
_chemical_formula_structural   Nd2ThNi2
_chemical_formula_sum   'Nd2 Th1 Ni2'
_cell_volume   121.04864756
_cell_formula_units_Z   1
loop_
 _symmetry_equiv_pos_site_id
 _symmetry_equiv_pos_as_xyz
  1  'x, y, z'
loop_
 _atom_site_type_symbol
 _atom_site_label
 _atom_site_symmetry_multiplicity
 _atom_site_fract_x
 _atom_site_fract_y
 _atom_site_fract_z
 _atom_site_occupancy
  Nd  Nd0  1  0.306768  0.806768  0.500000  1
  Nd  Nd1  1  0.693232  0.193232  0.500000  1
  Th  Th2  1  0.000000  0.000000  0.000000  1
  Ni  Ni3  1  0.297455  0.500000  0.797455  1
  Ni  Ni4  1  0.702545  0.500000  0.202545  1
