# generated using pymatgen
data_Li4FeAuO6
_symmetry_space_group_name_H-M   'P 1'
_cell_length_a   5.19494701
_cell_length_b   5.19494771
_cell_length_c   5.19531760
_cell_angle_alpha   99.71469576
_cell_angle_beta   99.71474079
_cell_angle_gamma   119.85004621
_symmetry_Int_Tables_number   1
_chemical_formula_structural   Li4FeAuO6
_chemical_formula_sum   'Li4 Fe1 Au1 O6'
_cell_volume   114.50582775
_cell_formula_units_Z   1
loop_
 _symmetry_equiv_pos_site_id
 _symmetry_equiv_pos_as_xyz
  1  'x, y, z'
loop_
 _atom_site_type_symbol
 _atom_site_label
 _atom_site_symmetry_multiplicity
 _atom_site_fract_x
 _atom_site_fract_y
 _atom_site_fract_z
 _atom_site_occupancy
  Li  Li0  1  0.500192  0.499808  0.000000  1
  Li  Li1  1  0.659545  0.340455  0.500000  1
  Li  Li2  1  0.332927  0.667075  0.500000  1
  Li  Li3  1  0.008199  0.991800  0.500000  1
  Fe  Fe4  1  0.833284  0.166717  0.000000  1
  Au  Au5  1  0.166668  0.833334  0.000000  1
  O  O6  1  0.927906  0.579095  0.233786  1
  O  O7  1  0.577868  0.927996  0.235387  1
  O  O8  1  0.229702  0.229200  0.238905  1
  O  O9  1  0.770801  0.770299  0.761095  1
  O  O10  1  0.072004  0.422133  0.764614  1
  O  O11  1  0.420906  0.072095  0.766215  1
