# generated using pymatgen
data_Y2Re7Si4W
_symmetry_space_group_name_H-M   'P 1'
_cell_length_a   7.17468286
_cell_length_b   7.68676965
_cell_length_c   4.17257800
_cell_angle_alpha   90.00000000
_cell_angle_beta   90.00000000
_cell_angle_gamma   90.07875442
_symmetry_Int_Tables_number   1
_chemical_formula_structural   Y2Re7Si4W
_chemical_formula_sum   'Y2 Re7 Si4 W1'
_cell_volume   230.11802023
_cell_formula_units_Z   1
loop_
 _symmetry_equiv_pos_site_id
 _symmetry_equiv_pos_as_xyz
  1  'x, y, z'
loop_
 _atom_site_type_symbol
 _atom_site_label
 _atom_site_symmetry_multiplicity
 _atom_site_fract_x
 _atom_site_fract_y
 _atom_site_fract_z
 _atom_site_occupancy
  Y  Y0  1  0.500803  0.498018  0.000000  1
  Y  Y1  1  0.999399  0.999730  0.500000  1
  Re  Re2  1  0.155687  0.604393  0.500000  1
  Re  Re3  1  0.083420  0.341005  0.000000  1
  Re  Re4  1  0.917855  0.658877  0.000000  1
  Re  Re5  1  0.417303  0.839554  0.500000  1
  Re  Re6  1  0.583030  0.163749  0.500000  1
  Re  Re7  1  0.342065  0.106713  0.000000  1
  Re  Re8  1  0.846533  0.394110  0.500000  1
  Si  Si9  1  0.222572  0.805468  0.000000  1
  Si  Si10  1  0.779893  0.196853  0.000000  1
  Si  Si11  1  0.723069  0.692511  0.500000  1
  Si  Si12  1  0.277991  0.304547  0.500000  1
  W  W13  1  0.650382  0.894471  0.000000  1
