# generated using pymatgen
data_Nd3Er2(In2Pd)2
_symmetry_space_group_name_H-M   'P 1'
_cell_length_a   3.72664100
_cell_length_b   8.32076300
_cell_length_c   18.39028100
_cell_angle_alpha   90.00000000
_cell_angle_beta   90.00000000
_cell_angle_gamma   90.00000000
_symmetry_Int_Tables_number   1
_chemical_formula_structural   Nd3Er2(In2Pd)2
_chemical_formula_sum   'Nd6 Er4 In8 Pd4'
_cell_volume   570.25496489
_cell_formula_units_Z   2
loop_
 _symmetry_equiv_pos_site_id
 _symmetry_equiv_pos_as_xyz
  1  'x, y, z'
loop_
 _atom_site_type_symbol
 _atom_site_label
 _atom_site_symmetry_multiplicity
 _atom_site_fract_x
 _atom_site_fract_y
 _atom_site_fract_z
 _atom_site_occupancy
  Nd  Nd0  1  0.000000  0.500000  0.500000  1
  Nd  Nd1  1  0.000000  0.000000  0.000000  1
  Nd  Nd2  1  0.000000  0.735551  0.285414  1
  Nd  Nd3  1  0.000000  0.264449  0.714586  1
  Nd  Nd4  1  0.000000  0.764449  0.785414  1
  Nd  Nd5  1  0.000000  0.235551  0.214586  1
  Er  Er6  1  0.000000  0.617637  0.085108  1
  Er  Er7  1  0.000000  0.382363  0.914892  1
  Er  Er8  1  0.000000  0.882363  0.585108  1
  Er  Er9  1  0.000000  0.117637  0.414892  1
  In  In10  1  0.500000  0.695601  0.937152  1
  In  In11  1  0.500000  0.304399  0.062848  1
  In  In12  1  0.500000  0.804399  0.437152  1
  In  In13  1  0.500000  0.195601  0.562848  1
  In  In14  1  0.500000  0.590682  0.651969  1
  In  In15  1  0.500000  0.409318  0.348031  1
  In  In16  1  0.500000  0.909318  0.151969  1
  In  In17  1  0.500000  0.090682  0.848031  1
  Pd  Pd18  1  0.500000  0.524541  0.192772  1
  Pd  Pd19  1  0.500000  0.475459  0.807228  1
  Pd  Pd20  1  0.500000  0.975459  0.692772  1
  Pd  Pd21  1  0.500000  0.024541  0.307228  1
