# generated using pymatgen
data_Li3La4AlIrPt3
_symmetry_space_group_name_H-M   'P 1'
_cell_length_a   4.16456100
_cell_length_b   7.31768562
_cell_length_c   8.62347675
_cell_angle_alpha   89.91507412
_cell_angle_beta   90.00000000
_cell_angle_gamma   90.00000000
_symmetry_Int_Tables_number   1
_chemical_formula_structural   Li3La4AlIrPt3
_chemical_formula_sum   'Li3 La4 Al1 Ir1 Pt3'
_cell_volume   262.79971787
_cell_formula_units_Z   1
loop_
 _symmetry_equiv_pos_site_id
 _symmetry_equiv_pos_as_xyz
  1  'x, y, z'
loop_
 _atom_site_type_symbol
 _atom_site_label
 _atom_site_symmetry_multiplicity
 _atom_site_fract_x
 _atom_site_fract_y
 _atom_site_fract_z
 _atom_site_occupancy
  Li  Li0  1  0.250000  0.136359  0.057596  1
  Li  Li1  1  0.250000  0.629047  0.441723  1
  Li  Li2  1  0.750000  0.871901  0.941579  1
  La  La3  1  0.250000  0.041087  0.684386  1
  La  La4  1  0.250000  0.538829  0.811818  1
  La  La5  1  0.750000  0.966040  0.309304  1
  La  La6  1  0.750000  0.459405  0.194996  1
  Al  Al7  1  0.750000  0.364289  0.556685  1
  Ir  Ir8  1  0.250000  0.258084  0.403705  1
  Pt  Pt9  1  0.250000  0.753486  0.115137  1
  Pt  Pt10  1  0.750000  0.730977  0.610143  1
  Pt  Pt11  1  0.750000  0.250496  0.872929  1
