# generated using pymatgen
data_InSb12Ru3Pt
_symmetry_space_group_name_H-M   'P 1'
_cell_length_a   8.18835577
_cell_length_b   8.18638798
_cell_length_c   8.18638832
_cell_angle_alpha   109.46634921
_cell_angle_beta   109.47608839
_cell_angle_gamma   109.47609158
_symmetry_Int_Tables_number   1
_chemical_formula_structural   InSb12Ru3Pt
_chemical_formula_sum   'In1 Sb12 Ru3 Pt1'
_cell_volume   422.40921570
_cell_formula_units_Z   1
loop_
 _symmetry_equiv_pos_site_id
 _symmetry_equiv_pos_as_xyz
  1  'x, y, z'
loop_
 _atom_site_type_symbol
 _atom_site_label
 _atom_site_symmetry_multiplicity
 _atom_site_fract_x
 _atom_site_fract_y
 _atom_site_fract_z
 _atom_site_occupancy
  In  In0  1  0.000000  0.000000  0.000000  1
  Sb  Sb1  1  0.149989  0.813168  0.653869  1
  Sb  Sb2  1  0.850011  0.186832  0.346131  1
  Sb  Sb3  1  0.842099  0.503804  0.661923  1
  Sb  Sb4  1  0.157901  0.496196  0.338077  1
  Sb  Sb5  1  0.819824  0.661923  0.158119  1
  Sb  Sb6  1  0.180176  0.338077  0.841881  1
  Sb  Sb7  1  0.503880  0.653869  0.840701  1
  Sb  Sb8  1  0.496120  0.346131  0.159299  1
  Sb  Sb9  1  0.663179  0.159299  0.813168  1
  Sb  Sb10  1  0.336821  0.840701  0.186832  1
  Sb  Sb11  1  0.661705  0.841881  0.503804  1
  Sb  Sb12  1  0.338295  0.158119  0.496196  1
  Ru  Ru13  1  0.000000  0.000000  0.500000  1
  Ru  Ru14  1  0.000000  0.500000  0.000000  1
  Ru  Ru15  1  0.500000  0.500000  0.500000  1
  Pt  Pt16  1  0.500000  0.000000  0.000000  1
