# generated using pymatgen
data_Mo2SeF14
_symmetry_space_group_name_H-M   'P 1'
_cell_length_a   17.59701700
_cell_length_b   7.82361572
_cell_length_c   9.04874900
_cell_angle_alpha   76.22094156
_cell_angle_beta   90.00000000
_cell_angle_gamma   90.00000000
_symmetry_Int_Tables_number   1
_chemical_formula_structural   Mo2SeF14
_chemical_formula_sum   'Mo8 Se4 F56'
_cell_volume   1209.91078583
_cell_formula_units_Z   4
loop_
 _symmetry_equiv_pos_site_id
 _symmetry_equiv_pos_as_xyz
  1  'x, y, z'
loop_
 _atom_site_type_symbol
 _atom_site_label
 _atom_site_symmetry_multiplicity
 _atom_site_fract_x
 _atom_site_fract_y
 _atom_site_fract_z
 _atom_site_occupancy
  Mo  Mo0  1  0.818337  0.783313  0.225021  1
  Mo  Mo1  1  0.318337  0.216687  0.274979  1
  Mo  Mo2  1  0.181663  0.216687  0.774979  1
  Mo  Mo3  1  0.681663  0.783313  0.725021  1
  Mo  Mo4  1  0.539640  0.211735  0.673165  1
  Mo  Mo5  1  0.039640  0.788265  0.826835  1
  Mo  Mo6  1  0.460360  0.788265  0.326835  1
  Mo  Mo7  1  0.960360  0.211735  0.173165  1
  Se  Se8  1  0.862725  0.165935  0.629973  1
  Se  Se9  1  0.362725  0.834065  0.870027  1
  Se  Se10  1  0.137275  0.834065  0.370027  1
  Se  Se11  1  0.637275  0.165935  0.129973  1
  F  F12  1  0.667105  0.176331  0.309789  1
  F  F13  1  0.167105  0.823669  0.190211  1
  F  F14  1  0.332895  0.823669  0.690211  1
  F  F15  1  0.832895  0.176331  0.809789  1
  F  F16  1  0.701657  0.320389  0.034959  1
  F  F17  1  0.201657  0.679611  0.465041  1
  F  F18  1  0.298343  0.679611  0.965041  1
  F  F19  1  0.798343  0.320389  0.534959  1
  F  F20  1  0.566934  0.320028  0.130263  1
  F  F21  1  0.066934  0.679972  0.369737  1
  F  F22  1  0.433066  0.679972  0.869737  1
  F  F23  1  0.933066  0.320028  0.630263  1
  F  F24  1  0.761696  0.969500  0.659536  1
  F  F25  1  0.261696  0.030500  0.840464  1
  F  F26  1  0.238304  0.030500  0.340464  1
  F  F27  1  0.738304  0.969500  0.159536  1
  F  F28  1  0.604394  0.615800  0.797489  1
  F  F29  1  0.104394  0.384200  0.702511  1
  F  F30  1  0.395606  0.384200  0.202511  1
  F  F31  1  0.895606  0.615800  0.297489  1
  F  F32  1  0.756851  0.607616  0.766379  1
  F  F33  1  0.256851  0.392384  0.733621  1
  F  F34  1  0.243149  0.392384  0.233621  1
  F  F35  1  0.743149  0.607616  0.266379  1
  F  F36  1  0.680501  0.845350  0.912462  1
  F  F37  1  0.180501  0.154650  0.587538  1
  F  F38  1  0.319499  0.154650  0.087538  1
  F  F39  1  0.819499  0.845350  0.412462  1
  F  F40  1  0.669000  0.779701  0.521232  1
  F  F41  1  0.169000  0.220299  0.978768  1
  F  F42  1  0.331000  0.220299  0.478768  1
  F  F43  1  0.831000  0.779701  0.021232  1
  F  F44  1  0.600743  0.988169  0.669089  1
  F  F45  1  0.100743  0.011831  0.830911  1
  F  F46  1  0.399257  0.011831  0.330911  1
  F  F47  1  0.899257  0.988169  0.169089  1
  F  F48  1  0.455895  0.051661  0.756551  1
  F  F49  1  0.955895  0.948339  0.743449  1
  F  F50  1  0.544105  0.948339  0.243449  1
  F  F51  1  0.044105  0.051661  0.256551  1
  F  F52  1  0.628319  0.343052  0.617037  1
  F  F53  1  0.128319  0.656948  0.882963  1
  F  F54  1  0.371681  0.656948  0.382963  1
  F  F55  1  0.871681  0.343052  0.117037  1
  F  F56  1  0.479300  0.408726  0.677796  1
  F  F57  1  0.979300  0.591274  0.822204  1
  F  F58  1  0.520700  0.591274  0.322204  1
  F  F59  1  0.020700  0.408726  0.177796  1
  F  F60  1  0.574711  0.180021  0.883215  1
  F  F61  1  0.074711  0.819979  0.616785  1
  F  F62  1  0.425289  0.819979  0.116785  1
  F  F63  1  0.925289  0.180021  0.383215  1
  F  F64  1  0.504425  0.205316  0.479525  1
  F  F65  1  0.004425  0.794684  0.020475  1
  F  F66  1  0.495575  0.794684  0.520475  1
  F  F67  1  0.995575  0.205316  0.979525  1
