# generated using pymatgen
data_Er12MnZnIn2Fe
_symmetry_space_group_name_H-M   'P 1'
_cell_length_a   8.33607213
_cell_length_b   8.33607184
_cell_length_c   8.33607138
_cell_angle_alpha   109.63517520
_cell_angle_beta   109.63518351
_cell_angle_gamma   109.14379629
_symmetry_Int_Tables_number   1
_chemical_formula_structural   Er12MnZnIn2Fe
_chemical_formula_sum   'Er12 Mn1 Zn1 In2 Fe1'
_cell_volume   445.91474014
_cell_formula_units_Z   1
loop_
 _symmetry_equiv_pos_site_id
 _symmetry_equiv_pos_as_xyz
  1  'x, y, z'
loop_
 _atom_site_type_symbol
 _atom_site_label
 _atom_site_symmetry_multiplicity
 _atom_site_fract_x
 _atom_site_fract_y
 _atom_site_fract_z
 _atom_site_occupancy
  Er  Er0  1  0.304664  0.304664  0.610369  1
  Er  Er1  1  0.694295  0.694295  0.389631  1
  Er  Er2  1  0.304664  0.694295  0.000000  1
  Er  Er3  1  0.694295  0.304664  0.000000  1
  Er  Er4  1  0.446217  0.202855  0.243363  1
  Er  Er5  1  0.554203  0.797212  0.756991  1
  Er  Er6  1  0.959492  0.202855  0.756637  1
  Er  Er7  1  0.202855  0.959492  0.756637  1
  Er  Er8  1  0.040220  0.797212  0.243009  1
  Er  Er9  1  0.797212  0.040220  0.243009  1
  Er  Er10  1  0.202855  0.446217  0.243363  1
  Er  Er11  1  0.797212  0.554203  0.756991  1
  Mn  Mn12  1  0.390226  0.390226  0.000000  1
  Zn  Zn13  1  0.999906  0.999906  0.000000  1
  In  In14  1  0.499920  0.999920  0.500000  1
  In  In15  1  0.999920  0.499920  0.500000  1
  Fe  Fe16  1  0.611844  0.611844  0.000000  1
