# generated using pymatgen
data_Li8ZrPa3Cl24
_symmetry_space_group_name_H-M   'P 1'
_cell_length_a   6.47901900
_cell_length_b   6.47901871
_cell_length_c   26.11783200
_cell_angle_alpha   90.00000000
_cell_angle_beta   90.00000000
_cell_angle_gamma   119.99999637
_symmetry_Int_Tables_number   1
_chemical_formula_structural   Li8ZrPa3Cl24
_chemical_formula_sum   'Li8 Zr1 Pa3 Cl24'
_cell_volume   949.48095783
_cell_formula_units_Z   1
loop_
 _symmetry_equiv_pos_site_id
 _symmetry_equiv_pos_as_xyz
  1  'x, y, z'
loop_
 _atom_site_type_symbol
 _atom_site_label
 _atom_site_symmetry_multiplicity
 _atom_site_fract_x
 _atom_site_fract_y
 _atom_site_fract_z
 _atom_site_occupancy
  Li  Li0  1  0.000000  0.000000  0.249996  1
  Li  Li1  1  0.000000  0.000000  0.750000  1
  Li  Li2  1  0.333333  0.666667  0.000227  1
  Li  Li3  1  0.333333  0.666667  0.499774  1
  Li  Li4  1  0.333333  0.666667  0.249996  1
  Li  Li5  1  0.666667  0.333333  0.750001  1
  Li  Li6  1  0.666667  0.333333  0.999622  1
  Li  Li7  1  0.666667  0.333333  0.500380  1
  Zr  Zr8  1  0.333333  0.666667  0.750018  1
  Pa  Pa9  1  0.000000  0.000000  0.999855  1
  Pa  Pa10  1  0.000000  0.000000  0.500148  1
  Pa  Pa11  1  0.666667  0.333333  0.249977  1
  Cl  Cl12  1  0.324979  0.991680  0.305688  1
  Cl  Cl13  1  0.333307  0.987458  0.803074  1
  Cl  Cl14  1  0.000418  0.341669  0.055599  1
  Cl  Cl15  1  0.999568  0.341612  0.555827  1
  Cl  Cl16  1  0.008320  0.333299  0.305688  1
  Cl  Cl17  1  0.012542  0.345850  0.803074  1
  Cl  Cl18  1  0.324969  0.333298  0.194281  1
  Cl  Cl19  1  0.333308  0.345838  0.696955  1
  Cl  Cl20  1  0.341228  0.341647  0.444395  1
  Cl  Cl21  1  0.342073  0.341644  0.944184  1
  Cl  Cl22  1  0.658353  0.999580  0.444395  1
  Cl  Cl23  1  0.341252  0.999582  0.055599  1
  Cl  Cl24  1  0.342044  0.000432  0.555827  1
  Cl  Cl25  1  0.658331  0.658748  0.055599  1
  Cl  Cl26  1  0.658388  0.657956  0.555827  1
  Cl  Cl27  1  0.666701  0.675021  0.305688  1
  Cl  Cl28  1  0.654150  0.666693  0.803074  1
  Cl  Cl29  1  0.008330  0.675031  0.194281  1
  Cl  Cl30  1  0.012529  0.666692  0.696955  1
  Cl  Cl31  1  0.000420  0.658772  0.444395  1
  Cl  Cl32  1  0.999571  0.657927  0.944184  1
  Cl  Cl33  1  0.658356  0.000429  0.944184  1
  Cl  Cl34  1  0.666702  0.991670  0.194281  1
  Cl  Cl35  1  0.654162  0.987471  0.696955  1
