# generated using pymatgen
data_DyZnCu3Hg
_symmetry_space_group_name_H-M   'P 1'
_cell_length_a   5.16962773
_cell_length_b   5.16962865
_cell_length_c   5.13534881
_cell_angle_alpha   59.77894256
_cell_angle_beta   59.77893383
_cell_angle_gamma   59.99999791
_symmetry_Int_Tables_number   1
_chemical_formula_structural   DyZnCu3Hg
_chemical_formula_sum   'Dy1 Zn1 Cu3 Hg1'
_cell_volume   96.71956206
_cell_formula_units_Z   1
loop_
 _symmetry_equiv_pos_site_id
 _symmetry_equiv_pos_as_xyz
  1  'x, y, z'
loop_
 _atom_site_type_symbol
 _atom_site_label
 _atom_site_symmetry_multiplicity
 _atom_site_fract_x
 _atom_site_fract_y
 _atom_site_fract_z
 _atom_site_occupancy
  Dy  Dy0  1  0.001746  0.001746  0.994764  1
  Zn  Zn1  1  0.623306  0.623306  0.130084  1
  Cu  Cu2  1  0.624380  0.125422  0.625817  1
  Cu  Cu3  1  0.125422  0.624380  0.625817  1
  Cu  Cu4  1  0.624380  0.624380  0.625817  1
  Hg  Hg5  1  0.250767  0.250767  0.247701  1
