# generated using pymatgen
data_Ce11Er(Si3Ir)4
_symmetry_space_group_name_H-M   'P 1'
_cell_length_a   4.33930800
_cell_length_b   10.48220483
_cell_length_c   12.72966947
_cell_angle_alpha   90.45151574
_cell_angle_beta   90.00000000
_cell_angle_gamma   90.00000000
_symmetry_Int_Tables_number   1
_chemical_formula_structural   Ce11Er(Si3Ir)4
_chemical_formula_sum   'Ce11 Er1 Si12 Ir4'
_cell_volume   578.99759659
_cell_formula_units_Z   1
loop_
 _symmetry_equiv_pos_site_id
 _symmetry_equiv_pos_as_xyz
  1  'x, y, z'
loop_
 _atom_site_type_symbol
 _atom_site_label
 _atom_site_symmetry_multiplicity
 _atom_site_fract_x
 _atom_site_fract_y
 _atom_site_fract_z
 _atom_site_occupancy
  Ce  Ce0  1  0.250000  0.599060  0.527643  1
  Ce  Ce1  1  0.750000  0.109909  0.970833  1
  Ce  Ce2  1  0.750000  0.401359  0.471281  1
  Ce  Ce3  1  0.250000  0.914822  0.598044  1
  Ce  Ce4  1  0.250000  0.583065  0.093601  1
  Ce  Ce5  1  0.750000  0.084956  0.403504  1
  Ce  Ce6  1  0.750000  0.416830  0.905370  1
  Ce  Ce7  1  0.250000  0.661958  0.806879  1
  Ce  Ce8  1  0.250000  0.837865  0.305050  1
  Ce  Ce9  1  0.750000  0.336261  0.194221  1
  Ce  Ce10  1  0.750000  0.163395  0.694169  1
  Er  Er11  1  0.250000  0.890663  0.029062  1
  Si  Si12  1  0.250000  0.997852  0.818716  1
  Si  Si13  1  0.250000  0.501866  0.310927  1
  Si  Si14  1  0.750000  0.001375  0.183084  1
  Si  Si15  1  0.750000  0.497728  0.688481  1
  Si  Si16  1  0.250000  0.237928  0.841971  1
  Si  Si17  1  0.250000  0.262149  0.340944  1
  Si  Si18  1  0.750000  0.762237  0.156328  1
  Si  Si19  1  0.750000  0.737056  0.659224  1
  Si  Si20  1  0.250000  0.216668  0.539995  1
  Si  Si21  1  0.250000  0.286640  0.041554  1
  Si  Si22  1  0.750000  0.783451  0.459793  1
  Si  Si23  1  0.750000  0.715810  0.959990  1
  Ir  Ir24  1  0.250000  0.382847  0.687334  1
  Ir  Ir25  1  0.250000  0.116176  0.183269  1
  Ir  Ir26  1  0.750000  0.616705  0.311427  1
  Ir  Ir27  1  0.750000  0.883368  0.817303  1
