# generated using pymatgen
data_Mn11CoMo12CN3
_symmetry_space_group_name_H-M   'P 1'
_cell_length_a   7.82913482
_cell_length_b   7.84546350
_cell_length_c   7.82915800
_cell_angle_alpha   60.06894279
_cell_angle_beta   60.00045900
_cell_angle_gamma   60.06889593
_symmetry_Int_Tables_number   1
_chemical_formula_structural   Mn11CoMo12CN3
_chemical_formula_sum   'Mn11 Co1 Mo12 C1 N3'
_cell_volume   340.39688272
_cell_formula_units_Z   1
loop_
 _symmetry_equiv_pos_site_id
 _symmetry_equiv_pos_as_xyz
  1  'x, y, z'
loop_
 _atom_site_type_symbol
 _atom_site_label
 _atom_site_symmetry_multiplicity
 _atom_site_fract_x
 _atom_site_fract_y
 _atom_site_fract_z
 _atom_site_occupancy
  Mn  Mn0  1  0.624241  0.127286  0.624229  1
  Mn  Mn1  1  0.626931  0.622415  0.123717  1
  Mn  Mn2  1  0.123706  0.622423  0.626926  1
  Mn  Mn3  1  0.626953  0.622420  0.626935  1
  Mn  Mn4  1  0.828705  0.513857  0.828686  1
  Mn  Mn5  1  0.421038  0.426140  0.731804  1
  Mn  Mn6  1  0.731845  0.426128  0.421031  1
  Mn  Mn7  1  0.421026  0.426122  0.421030  1
  Mn  Mn8  1  0.514451  0.828891  0.828301  1
  Mn  Mn9  1  0.828329  0.828898  0.828308  1
  Mn  Mn10  1  0.828310  0.828887  0.514460  1
  Co  Co11  1  0.418228  0.745242  0.418245  1
  Mo  Mo12  1  0.200282  0.197497  0.801109  1
  Mo  Mo13  1  0.450624  0.050536  0.048215  1
  Mo  Mo14  1  0.051328  0.448078  0.449276  1
  Mo  Mo15  1  0.449267  0.448074  0.051344  1
  Mo  Mo16  1  0.450627  0.050543  0.450634  1
  Mo  Mo17  1  0.051320  0.448074  0.051339  1
  Mo  Mo18  1  0.801130  0.197485  0.801109  1
  Mo  Mo19  1  0.801117  0.197490  0.200294  1
  Mo  Mo20  1  0.200959  0.798955  0.799121  1
  Mo  Mo21  1  0.200963  0.798940  0.200985  1
  Mo  Mo22  1  0.048201  0.050540  0.450633  1
  Mo  Mo23  1  0.799128  0.798939  0.200975  1
  C  C24  1  0.124937  0.625190  0.124941  1
  N  N25  1  0.125608  0.123650  0.625137  1
  N  N26  1  0.625139  0.123649  0.125608  1
  N  N27  1  0.125607  0.123651  0.125610  1
