# generated using pymatgen
data_LaYb7(DyIr2)2
_symmetry_space_group_name_H-M   'P 1'
_cell_length_a   6.58902781
_cell_length_b   7.34051088
_cell_length_c   8.57774087
_cell_angle_alpha   97.15198161
_cell_angle_beta   112.05274472
_cell_angle_gamma   89.66785763
_symmetry_Int_Tables_number   1
_chemical_formula_structural   LaYb7(DyIr2)2
_chemical_formula_sum   'La1 Yb7 Dy2 Ir4'
_cell_volume   381.15482158
_cell_formula_units_Z   1
loop_
 _symmetry_equiv_pos_site_id
 _symmetry_equiv_pos_as_xyz
  1  'x, y, z'
loop_
 _atom_site_type_symbol
 _atom_site_label
 _atom_site_symmetry_multiplicity
 _atom_site_fract_x
 _atom_site_fract_y
 _atom_site_fract_z
 _atom_site_occupancy
  La  La0  1  0.365400  0.679577  0.567533  1
  Yb  Yb1  1  0.804790  0.080419  0.827706  1
  Yb  Yb2  1  0.975439  0.418741  0.174196  1
  Yb  Yb3  1  0.195389  0.921124  0.173758  1
  Yb  Yb4  1  0.021083  0.581110  0.825446  1
  Yb  Yb5  1  0.202528  0.180989  0.562687  1
  Yb  Yb6  1  0.644084  0.314174  0.434229  1
  Yb  Yb7  1  0.798267  0.819734  0.434234  1
  Dy  Dy8  1  0.433114  0.251425  0.000884  1
  Dy  Dy9  1  0.565456  0.751483  0.006229  1
  Ir  Ir10  1  0.593850  0.427816  0.782497  1
  Ir  Ir11  1  0.808982  0.075641  0.205632  1
  Ir  Ir12  1  0.400272  0.576298  0.220259  1
  Ir  Ir13  1  0.191345  0.921471  0.784711  1
