# generated using pymatgen
data_CeU(AlC)6
_symmetry_space_group_name_H-M   'P 1'
_cell_length_a   3.41021300
_cell_length_b   3.41021404
_cell_length_c   17.55493700
_cell_angle_alpha   90.00000000
_cell_angle_beta   90.00000000
_cell_angle_gamma   119.99999963
_symmetry_Int_Tables_number   1
_chemical_formula_structural   CeU(AlC)6
_chemical_formula_sum   'Ce1 U1 Al6 C6'
_cell_volume   176.80439316
_cell_formula_units_Z   1
loop_
 _symmetry_equiv_pos_site_id
 _symmetry_equiv_pos_as_xyz
  1  'x, y, z'
loop_
 _atom_site_type_symbol
 _atom_site_label
 _atom_site_symmetry_multiplicity
 _atom_site_fract_x
 _atom_site_fract_y
 _atom_site_fract_z
 _atom_site_occupancy
  Ce  Ce0  1  0.000000  0.000000  0.003303  1
  U  U1  1  0.000000  0.000000  0.503304  1
  Al  Al2  1  0.333333  0.666667  0.139422  1
  Al  Al3  1  0.666667  0.333333  0.866998  1
  Al  Al4  1  0.666667  0.333333  0.636679  1
  Al  Al5  1  0.333333  0.666667  0.761202  1
  Al  Al6  1  0.333333  0.666667  0.369892  1
  Al  Al7  1  0.666667  0.333333  0.246228  1
  C  C8  1  0.333333  0.666667  0.590938  1
  C  C9  1  0.666667  0.333333  0.414895  1
  C  C10  1  0.333333  0.666667  0.898264  1
  C  C11  1  0.666667  0.333333  0.107263  1
  C  C12  1  0.666667  0.333333  0.749437  1
  C  C13  1  0.333333  0.666667  0.256774  1
