# generated using pymatgen
data_Nd3Tm(CO3)6
_symmetry_space_group_name_H-M   'P 1'
_cell_length_a   7.79171859
_cell_length_b   8.09551778
_cell_length_c   8.11125070
_cell_angle_alpha   119.91556882
_cell_angle_beta   90.02140825
_cell_angle_gamma   89.89918386
_symmetry_Int_Tables_number   1
_chemical_formula_structural   Nd3Tm(CO3)6
_chemical_formula_sum   'Nd3 Tm1 C6 O18'
_cell_volume   443.47022207
_cell_formula_units_Z   1
loop_
 _symmetry_equiv_pos_site_id
 _symmetry_equiv_pos_as_xyz
  1  'x, y, z'
loop_
 _atom_site_type_symbol
 _atom_site_label
 _atom_site_symmetry_multiplicity
 _atom_site_fract_x
 _atom_site_fract_y
 _atom_site_fract_z
 _atom_site_occupancy
  Nd  Nd0  1  0.945681  0.667989  0.333613  1
  Nd  Nd1  1  0.449502  0.665923  0.332343  1
  Nd  Nd2  1  0.448281  0.332570  0.666477  1
  Tm  Tm3  1  0.955162  0.334773  0.666943  1
  C  C4  1  0.248822  0.001492  0.385687  1
  C  C5  1  0.249757  0.385737  0.998583  1
  C  C6  1  0.759708  0.385472  0.394935  1
  C  C7  1  0.250786  0.613557  0.613789  1
  C  C8  1  0.758015  0.605955  0.990993  1
  C  C9  1  0.755614  0.007887  0.616287  1
  O  O10  1  0.179842  0.838432  0.276592  1
  O  O11  1  0.408707  0.000064  0.439457  1
  O  O12  1  0.689772  0.712368  0.156148  1
  O  O13  1  0.408790  0.442820  0.999216  1
  O  O14  1  0.181491  0.438860  0.161702  1
  O  O15  1  0.690203  0.442112  0.287343  1
  O  O16  1  0.690124  0.840539  0.554471  1
  O  O17  1  0.183084  0.723846  0.560024  1
  O  O18  1  0.409666  0.555934  0.556383  1
  O  O19  1  0.691877  0.273363  0.445742  1
  O  O20  1  0.914807  0.449202  0.460482  1
  O  O21  1  0.177106  0.165420  0.448118  1
  O  O22  1  0.179086  0.553408  0.716922  1
  O  O23  1  0.913884  0.540757  0.987257  1
  O  O24  1  0.688021  0.556650  0.829958  1
  O  O25  1  0.178603  0.283261  0.835037  1
  O  O26  1  0.682347  0.166621  0.728927  1
  O  O27  1  0.911261  0.014988  0.556569  1
