# generated using pymatgen
data_TlCoAs3F18
_symmetry_space_group_name_H-M   'P 1'
_cell_length_a   9.72328500
_cell_length_b   10.67050100
_cell_length_c   14.30829300
_cell_angle_alpha   90.00000000
_cell_angle_beta   90.00000000
_cell_angle_gamma   90.00000000
_symmetry_Int_Tables_number   1
_chemical_formula_structural   TlCoAs3F18
_chemical_formula_sum   'Tl4 Co4 As12 F72'
_cell_volume   1484.51862712
_cell_formula_units_Z   4
loop_
 _symmetry_equiv_pos_site_id
 _symmetry_equiv_pos_as_xyz
  1  'x, y, z'
loop_
 _atom_site_type_symbol
 _atom_site_label
 _atom_site_symmetry_multiplicity
 _atom_site_fract_x
 _atom_site_fract_y
 _atom_site_fract_z
 _atom_site_occupancy
  Tl  Tl0  1  0.524360  0.924905  0.750000  1
  Tl  Tl1  1  0.975640  0.424905  0.750000  1
  Tl  Tl2  1  0.475640  0.075095  0.250000  1
  Tl  Tl3  1  0.024360  0.575095  0.250000  1
  Co  Co4  1  0.000000  0.000000  0.500000  1
  Co  Co5  1  0.500000  0.500000  0.000000  1
  Co  Co6  1  0.000000  0.000000  0.000000  1
  Co  Co7  1  0.500000  0.500000  0.500000  1
  As  As8  1  0.105769  0.020701  0.750000  1
  As  As9  1  0.394231  0.520701  0.750000  1
  As  As10  1  0.894231  0.979299  0.250000  1
  As  As11  1  0.605769  0.479299  0.250000  1
  As  As12  1  0.694774  0.204218  0.548310  1
  As  As13  1  0.805226  0.704218  0.951690  1
  As  As14  1  0.305226  0.795782  0.048310  1
  As  As15  1  0.194774  0.295782  0.451690  1
  As  As16  1  0.305226  0.795782  0.451690  1
  As  As17  1  0.194774  0.295782  0.048310  1
  As  As18  1  0.694774  0.204218  0.951690  1
  As  As19  1  0.805226  0.704218  0.548310  1
  F  F20  1  0.108665  0.024252  0.621912  1
  F  F21  1  0.391335  0.524252  0.878088  1
  F  F22  1  0.891335  0.975748  0.121912  1
  F  F23  1  0.608665  0.475748  0.378088  1
  F  F24  1  0.891335  0.975748  0.378088  1
  F  F25  1  0.608665  0.475748  0.121912  1
  F  F26  1  0.108665  0.024252  0.878088  1
  F  F27  1  0.391335  0.524252  0.621912  1
  F  F28  1  0.155408  0.863878  0.750000  1
  F  F29  1  0.344592  0.363878  0.750000  1
  F  F30  1  0.844592  0.136122  0.250000  1
  F  F31  1  0.655408  0.636122  0.250000  1
  F  F32  1  0.279315  0.067040  0.750000  1
  F  F33  1  0.220685  0.567040  0.750000  1
  F  F34  1  0.720685  0.932960  0.250000  1
  F  F35  1  0.779315  0.432960  0.250000  1
  F  F36  1  0.059796  0.180438  0.750000  1
  F  F37  1  0.440204  0.680438  0.750000  1
  F  F38  1  0.940204  0.819562  0.250000  1
  F  F39  1  0.559796  0.319562  0.250000  1
  F  F40  1  0.931742  0.979809  0.750000  1
  F  F41  1  0.568258  0.479809  0.750000  1
  F  F42  1  0.068258  0.020191  0.250000  1
  F  F43  1  0.431742  0.520191  0.250000  1
  F  F44  1  0.823014  0.077795  0.555295  1
  F  F45  1  0.676986  0.577795  0.944705  1
  F  F46  1  0.176986  0.922205  0.055295  1
  F  F47  1  0.323014  0.422205  0.444705  1
  F  F48  1  0.176986  0.922205  0.444705  1
  F  F49  1  0.323014  0.422205  0.055295  1
  F  F50  1  0.823014  0.077795  0.944705  1
  F  F51  1  0.676986  0.577795  0.555295  1
  F  F52  1  0.792427  0.284770  0.466005  1
  F  F53  1  0.707573  0.784770  0.033995  1
  F  F54  1  0.207573  0.715230  0.966005  1
  F  F55  1  0.292427  0.215230  0.533995  1
  F  F56  1  0.207573  0.715230  0.533995  1
  F  F57  1  0.292427  0.215230  0.966005  1
  F  F58  1  0.792427  0.284770  0.033995  1
  F  F59  1  0.707573  0.784770  0.466005  1
  F  F60  1  0.607594  0.124512  0.459237  1
  F  F61  1  0.892406  0.624512  0.040763  1
  F  F62  1  0.392406  0.875488  0.959237  1
  F  F63  1  0.107594  0.375488  0.540763  1
  F  F64  1  0.392406  0.875488  0.540763  1
  F  F65  1  0.107594  0.375488  0.959237  1
  F  F66  1  0.607594  0.124512  0.040763  1
  F  F67  1  0.892406  0.624512  0.459237  1
  F  F68  1  0.563508  0.327442  0.548176  1
  F  F69  1  0.936492  0.827442  0.951824  1
  F  F70  1  0.436492  0.672558  0.048176  1
  F  F71  1  0.063508  0.172558  0.451824  1
  F  F72  1  0.436492  0.672558  0.451824  1
  F  F73  1  0.063508  0.172558  0.048176  1
  F  F74  1  0.563508  0.327442  0.951824  1
  F  F75  1  0.936492  0.827442  0.548176  1
  F  F76  1  0.596783  0.123650  0.632329  1
  F  F77  1  0.903217  0.623650  0.867671  1
  F  F78  1  0.403217  0.876350  0.132329  1
  F  F79  1  0.096783  0.376350  0.367671  1
  F  F80  1  0.403217  0.876350  0.367671  1
  F  F81  1  0.096783  0.376350  0.132329  1
  F  F82  1  0.596783  0.123650  0.867671  1
  F  F83  1  0.903217  0.623650  0.632329  1
  F  F84  1  0.781585  0.282438  0.639145  1
  F  F85  1  0.718415  0.782438  0.860855  1
  F  F86  1  0.218415  0.717562  0.139145  1
  F  F87  1  0.281585  0.217562  0.360855  1
  F  F88  1  0.218415  0.717562  0.360855  1
  F  F89  1  0.281585  0.217562  0.139145  1
  F  F90  1  0.781585  0.282438  0.860855  1
  F  F91  1  0.718415  0.782438  0.639145  1
