# generated using pymatgen
data_Ho3BC2N
_symmetry_space_group_name_H-M   'P 1'
_cell_length_a   3.57703386
_cell_length_b   3.57703298
_cell_length_c   15.69163800
_cell_angle_alpha   90.00000000
_cell_angle_beta   90.00000000
_cell_angle_gamma   90.32093391
_symmetry_Int_Tables_number   1
_chemical_formula_structural   Ho3BC2N
_chemical_formula_sum   'Ho6 B2 C4 N2'
_cell_volume   200.77399612
_cell_formula_units_Z   2
loop_
 _symmetry_equiv_pos_site_id
 _symmetry_equiv_pos_as_xyz
  1  'x, y, z'
loop_
 _atom_site_type_symbol
 _atom_site_label
 _atom_site_symmetry_multiplicity
 _atom_site_fract_x
 _atom_site_fract_y
 _atom_site_fract_z
 _atom_site_occupancy
  Ho  Ho0  1  0.568380  0.431619  0.104688  1
  Ho  Ho1  1  0.074476  0.925523  0.250000  1
  Ho  Ho2  1  0.568380  0.431619  0.395312  1
  Ho  Ho3  1  0.431619  0.568380  0.604688  1
  Ho  Ho4  1  0.925523  0.074476  0.750000  1
  Ho  Ho5  1  0.431619  0.568380  0.895312  1
  B  B6  1  0.000000  0.000000  0.000000  1
  B  B7  1  0.000000  0.000000  0.500000  1
  C  C8  1  0.063119  0.936879  0.092213  1
  C  C9  1  0.063119  0.936879  0.407787  1
  C  C10  1  0.936879  0.063119  0.592212  1
  C  C11  1  0.936879  0.063119  0.907787  1
  N  N12  1  0.578501  0.421497  0.250000  1
  N  N13  1  0.421497  0.578501  0.750000  1
