# generated using pymatgen
data_CeSm3In2Rh3
_symmetry_space_group_name_H-M   'P 1'
_cell_length_a   7.58292220
_cell_length_b   7.58292031
_cell_length_c   4.25575600
_cell_angle_alpha   90.00000000
_cell_angle_beta   90.00000000
_cell_angle_gamma   121.22451856
_symmetry_Int_Tables_number   1
_chemical_formula_structural   CeSm3In2Rh3
_chemical_formula_sum   'Ce1 Sm3 In2 Rh3'
_cell_volume   209.26100423
_cell_formula_units_Z   1
loop_
 _symmetry_equiv_pos_site_id
 _symmetry_equiv_pos_as_xyz
  1  'x, y, z'
loop_
 _atom_site_type_symbol
 _atom_site_label
 _atom_site_symmetry_multiplicity
 _atom_site_fract_x
 _atom_site_fract_y
 _atom_site_fract_z
 _atom_site_occupancy
  Ce  Ce0  1  0.266745  0.266745  0.000000  1
  Sm  Sm1  1  0.969716  0.408910  0.500000  1
  Sm  Sm2  1  0.625018  0.625018  0.500000  1
  Sm  Sm3  1  0.408910  0.969716  0.500000  1
  In  In4  1  0.004794  0.749870  0.000000  1
  In  In5  1  0.749870  0.004794  0.000000  1
  Rh  Rh6  1  0.324143  0.640970  0.000000  1
  Rh  Rh7  1  0.009833  0.009833  0.500000  1
  Rh  Rh8  1  0.640970  0.324143  0.000000  1
