# generated using pymatgen
data_Dy12InGaFe4
_symmetry_space_group_name_H-M   'P 1'
_cell_length_a   8.38404066
_cell_length_b   8.38404026
_cell_length_c   8.38404100
_cell_angle_alpha   111.50196082
_cell_angle_beta   110.25166458
_cell_angle_gamma   106.69773437
_symmetry_Int_Tables_number   1
_chemical_formula_structural   Dy12InGaFe4
_chemical_formula_sum   'Dy12 In1 Ga1 Fe4'
_cell_volume   452.81888334
_cell_formula_units_Z   1
loop_
 _symmetry_equiv_pos_site_id
 _symmetry_equiv_pos_as_xyz
  1  'x, y, z'
loop_
 _atom_site_type_symbol
 _atom_site_label
 _atom_site_symmetry_multiplicity
 _atom_site_fract_x
 _atom_site_fract_y
 _atom_site_fract_z
 _atom_site_occupancy
  Dy  Dy0  1  0.186911  0.287544  0.474455  1
  Dy  Dy1  1  0.813089  0.712456  0.525545  1
  Dy  Dy2  1  0.186911  0.712456  0.899368  1
  Dy  Dy3  1  0.813089  0.287544  0.100632  1
  Dy  Dy4  1  0.311785  0.610685  0.298901  1
  Dy  Dy5  1  0.688215  0.389315  0.701099  1
  Dy  Dy6  1  0.311785  0.012885  0.701099  1
  Dy  Dy7  1  0.688215  0.987115  0.298901  1
  Dy  Dy8  1  0.432494  0.224183  0.208311  1
  Dy  Dy9  1  0.567506  0.775817  0.791689  1
  Dy  Dy10  1  0.015873  0.224183  0.791689  1
  Dy  Dy11  1  0.984127  0.775817  0.208311  1
  In  In12  1  0.500000  0.500000  0.000000  1
  Ga  Ga13  1  0.000000  0.000000  0.000000  1
  Fe  Fe14  1  0.107964  0.607964  0.500000  1
  Fe  Fe15  1  0.892036  0.392036  0.500000  1
  Fe  Fe16  1  0.385929  0.000000  0.385929  1
  Fe  Fe17  1  0.614071  0.000000  0.614071  1
