# generated using pymatgen
data_Dy3Er4Zn(Co3Sn11)2
_symmetry_space_group_name_H-M   'P 1'
_cell_length_a   9.64511021
_cell_length_b   9.64511003
_cell_length_c   9.93383323
_cell_angle_alpha   90.02130367
_cell_angle_beta   89.97869662
_cell_angle_gamma   119.98892978
_symmetry_Int_Tables_number   1
_chemical_formula_structural   Dy3Er4Zn(Co3Sn11)2
_chemical_formula_sum   'Dy3 Er4 Zn1 Co6 Sn22'
_cell_volume   800.40588410
_cell_formula_units_Z   1
loop_
 _symmetry_equiv_pos_site_id
 _symmetry_equiv_pos_as_xyz
  1  'x, y, z'
loop_
 _atom_site_type_symbol
 _atom_site_label
 _atom_site_symmetry_multiplicity
 _atom_site_fract_x
 _atom_site_fract_y
 _atom_site_fract_z
 _atom_site_occupancy
  Dy  Dy0  1  0.479323  0.520677  0.305911  1
  Dy  Dy1  1  0.520677  0.479323  0.694089  1
  Dy  Dy2  1  0.000000  0.000000  0.000000  1
  Er  Er3  1  0.479472  0.958947  0.305990  1
  Er  Er4  1  0.520528  0.041053  0.694010  1
  Er  Er5  1  0.041053  0.520528  0.305990  1
  Er  Er6  1  0.958947  0.479472  0.694010  1
  Zn  Zn7  1  0.000000  0.000000  0.500000  1
  Co  Co8  1  0.832109  0.167891  0.197665  1
  Co  Co9  1  0.167891  0.832109  0.802335  1
  Co  Co10  1  0.832372  0.664319  0.197564  1
  Co  Co11  1  0.167628  0.335681  0.802436  1
  Co  Co12  1  0.335681  0.167628  0.197564  1
  Co  Co13  1  0.664319  0.832372  0.802436  1
  Sn  Sn14  1  0.114808  0.885192  0.276145  1
  Sn  Sn15  1  0.885192  0.114808  0.723855  1
  Sn  Sn16  1  0.114468  0.229351  0.276119  1
  Sn  Sn17  1  0.885532  0.770649  0.723881  1
  Sn  Sn18  1  0.770649  0.885532  0.276119  1
  Sn  Sn19  1  0.229351  0.114468  0.723881  1
  Sn  Sn20  1  0.782295  0.217705  0.453621  1
  Sn  Sn21  1  0.217705  0.782295  0.546379  1
  Sn  Sn22  1  0.782832  0.564622  0.453649  1
  Sn  Sn23  1  0.217168  0.435378  0.546351  1
  Sn  Sn24  1  0.435378  0.217168  0.453649  1
  Sn  Sn25  1  0.564622  0.782832  0.546351  1
  Sn  Sn26  1  0.346010  0.999915  0.999984  1
  Sn  Sn27  1  0.653990  0.000085  0.000016  1
  Sn  Sn28  1  0.999915  0.346010  0.000016  1
  Sn  Sn29  1  0.000085  0.653990  0.999984  1
  Sn  Sn30  1  0.654056  0.654056  0.000000  1
  Sn  Sn31  1  0.345944  0.345944  0.000000  1
  Sn  Sn32  1  0.333074  0.666926  0.120476  1
  Sn  Sn33  1  0.666926  0.333074  0.879524  1
  Sn  Sn34  1  0.333208  0.666792  0.818752  1
  Sn  Sn35  1  0.666792  0.333208  0.181248  1
