# generated using pymatgen
data_Nd7Er13Si15As
_symmetry_space_group_name_H-M   'P 1'
_cell_length_a   7.70545739
_cell_length_b   7.73217401
_cell_length_c   14.23460187
_cell_angle_alpha   89.46469560
_cell_angle_beta   90.06081405
_cell_angle_gamma   90.15242527
_symmetry_Int_Tables_number   1
_chemical_formula_structural   Nd7Er13Si15As
_chemical_formula_sum   'Nd7 Er13 Si15 As1'
_cell_volume   848.05621781
_cell_formula_units_Z   1
loop_
 _symmetry_equiv_pos_site_id
 _symmetry_equiv_pos_as_xyz
  1  'x, y, z'
loop_
 _atom_site_type_symbol
 _atom_site_label
 _atom_site_symmetry_multiplicity
 _atom_site_fract_x
 _atom_site_fract_y
 _atom_site_fract_z
 _atom_site_occupancy
  Nd  Nd0  1  0.358364  0.005764  0.958143  1
  Nd  Nd1  1  0.994142  0.643617  0.539922  1
  Nd  Nd2  1  0.490741  0.855851  0.211339  1
  Nd  Nd3  1  0.511667  0.145934  0.710520  1
  Nd  Nd4  1  0.858479  0.492201  0.791110  1
  Nd  Nd5  1  0.138245  0.504846  0.291036  1
  Nd  Nd6  1  0.006474  0.357034  0.041860  1
  Er  Er7  1  0.491336  0.358617  0.124477  1
  Er  Er8  1  0.990754  0.141220  0.626679  1
  Er  Er9  1  0.859988  0.008548  0.874407  1
  Er  Er10  1  0.140720  0.989050  0.376353  1
  Er  Er11  1  0.508351  0.643234  0.620284  1
  Er  Er12  1  0.359483  0.492166  0.875808  1
  Er  Er13  1  0.644543  0.506380  0.375681  1
  Er  Er14  1  0.006414  0.860211  0.126923  1
  Er  Er15  1  0.637652  0.994932  0.456219  1
  Er  Er16  1  0.317825  0.323726  0.498254  1
  Er  Er17  1  0.183611  0.818316  0.750853  1
  Er  Er18  1  0.815783  0.180591  0.250999  1
  Er  Er19  1  0.681896  0.681066  0.000215  1
  Si  Si20  1  0.709172  0.061462  0.061923  1
  Si  Si21  1  0.936136  0.285544  0.438874  1
  Si  Si22  1  0.440528  0.204085  0.313643  1
  Si  Si23  1  0.562662  0.789427  0.810821  1
  Si  Si24  1  0.211061  0.441615  0.687188  1
  Si  Si25  1  0.786921  0.562514  0.187940  1
  Si  Si26  1  0.062552  0.709977  0.938834  1
  Si  Si27  1  0.797672  0.846798  0.688427  1
  Si  Si28  1  0.203881  0.150295  0.189997  1
  Si  Si29  1  0.844877  0.801784  0.315465  1
  Si  Si30  1  0.354185  0.694973  0.427296  1
  Si  Si31  1  0.651446  0.295276  0.938901  1
  Si  Si32  1  0.701132  0.343852  0.560314  1
  Si  Si33  1  0.294418  0.651533  0.061273  1
  Si  Si34  1  0.152312  0.203639  0.811405  1
  As  As35  1  0.294575  0.953924  0.566616  1
