# generated using pymatgen
data_YCu4HgO8
_symmetry_space_group_name_H-M   'P 1'
_cell_length_a   6.28893219
_cell_length_b   6.28893180
_cell_length_c   6.28893168
_cell_angle_alpha   125.44017937
_cell_angle_beta   125.44018146
_cell_angle_gamma   80.81020343
_symmetry_Int_Tables_number   1
_chemical_formula_structural   YCu4HgO8
_chemical_formula_sum   'Y1 Cu4 Hg1 O8'
_cell_volume   159.15530710
_cell_formula_units_Z   1
loop_
 _symmetry_equiv_pos_site_id
 _symmetry_equiv_pos_as_xyz
  1  'x, y, z'
loop_
 _atom_site_type_symbol
 _atom_site_label
 _atom_site_symmetry_multiplicity
 _atom_site_fract_x
 _atom_site_fract_y
 _atom_site_fract_z
 _atom_site_occupancy
  Y  Y0  1  0.750000  0.250000  0.500000  1
  Cu  Cu1  1  0.872752  0.631548  0.255246  1
  Cu  Cu2  1  0.376302  0.617506  0.744754  1
  Cu  Cu3  1  0.382494  0.127248  0.758796  1
  Cu  Cu4  1  0.368452  0.623698  0.241204  1
  Hg  Hg5  1  0.000000  0.000000  0.000000  1
  O  O6  1  0.358095  0.977967  0.933044  1
  O  O7  1  0.044923  0.425050  0.066956  1
  O  O8  1  0.684682  0.836231  0.416554  1
  O  O9  1  0.419677  0.268128  0.583446  1
  O  O10  1  0.163769  0.580323  0.848451  1
  O  O11  1  0.731872  0.315318  0.151549  1
  O  O12  1  0.574950  0.641905  0.619873  1
  O  O13  1  0.022033  0.955077  0.380127  1
