# generated using pymatgen
data_USiNiH2
_symmetry_space_group_name_H-M   'P 1'
_cell_length_a   4.00361900
_cell_length_b   4.00361859
_cell_length_c   7.86624100
_cell_angle_alpha   90.00000000
_cell_angle_beta   90.00000000
_cell_angle_gamma   120.00001164
_symmetry_Int_Tables_number   1
_chemical_formula_structural   USiNiH2
_chemical_formula_sum   'U2 Si2 Ni2 H4'
_cell_volume   109.19512944
_cell_formula_units_Z   2
loop_
 _symmetry_equiv_pos_site_id
 _symmetry_equiv_pos_as_xyz
  1  'x, y, z'
loop_
 _atom_site_type_symbol
 _atom_site_label
 _atom_site_symmetry_multiplicity
 _atom_site_fract_x
 _atom_site_fract_y
 _atom_site_fract_z
 _atom_site_occupancy
  U  U0  1  0.000000  0.000000  0.500000  1
  U  U1  1  0.000000  0.000000  0.000000  1
  Si  Si2  1  0.333333  0.666667  0.750000  1
  Si  Si3  1  0.666667  0.333333  0.250000  1
  Ni  Ni4  1  0.666667  0.333333  0.750000  1
  Ni  Ni5  1  0.333333  0.666667  0.250000  1
  H  H6  1  0.333333  0.666667  0.465627  1
  H  H7  1  0.666667  0.333333  0.534373  1
  H  H8  1  0.333333  0.666667  0.034373  1
  H  H9  1  0.666667  0.333333  0.965627  1
