# generated using pymatgen
data_Tb4Lu4B24RhW3
_symmetry_space_group_name_H-M   'P 1'
_cell_length_a   3.61262300
_cell_length_b   9.20780235
_cell_length_c   11.61490845
_cell_angle_alpha   90.15401345
_cell_angle_beta   90.00000000
_cell_angle_gamma   90.00000000
_symmetry_Int_Tables_number   1
_chemical_formula_structural   Tb4Lu4B24RhW3
_chemical_formula_sum   'Tb4 Lu4 B24 Rh1 W3'
_cell_volume   386.36061870
_cell_formula_units_Z   1
loop_
 _symmetry_equiv_pos_site_id
 _symmetry_equiv_pos_as_xyz
  1  'x, y, z'
loop_
 _atom_site_type_symbol
 _atom_site_label
 _atom_site_symmetry_multiplicity
 _atom_site_fract_x
 _atom_site_fract_y
 _atom_site_fract_z
 _atom_site_occupancy
  Tb  Tb0  1  0.500000  0.318835  0.414789  1
  Tb  Tb1  1  0.500000  0.679052  0.587940  1
  Tb  Tb2  1  0.500000  0.178893  0.913782  1
  Tb  Tb3  1  0.500000  0.823572  0.083247  1
  Lu  Lu4  1  0.500000  0.444136  0.129258  1
  Lu  Lu5  1  0.500000  0.555730  0.873130  1
  Lu  Lu6  1  0.500000  0.054619  0.627247  1
  Lu  Lu7  1  0.500000  0.942551  0.371114  1
  B  B8  1  0.000000  0.096894  0.472286  1
  B  B9  1  0.000000  0.897931  0.526067  1
  B  B10  1  0.000000  0.400999  0.973814  1
  B  B11  1  0.000000  0.600286  0.029417  1
  B  B12  1  0.000000  0.130440  0.318346  1
  B  B13  1  0.000000  0.868675  0.682401  1
  B  B14  1  0.000000  0.370051  0.816626  1
  B  B15  1  0.000000  0.631463  0.183922  1
  B  B16  1  0.000000  0.052591  0.066106  1
  B  B17  1  0.000000  0.948293  0.934121  1
  B  B18  1  0.000000  0.448407  0.564479  1
  B  B19  1  0.000000  0.555399  0.432093  1
  B  B20  1  0.000000  0.484277  0.287375  1
  B  B21  1  0.000000  0.521358  0.713519  1
  B  B22  1  0.000000  0.020583  0.785504  1
  B  B23  1  0.000000  0.978851  0.213575  1
  B  B24  1  0.000000  0.253483  0.080644  1
  B  B25  1  0.000000  0.747546  0.920557  1
  B  B26  1  0.000000  0.245786  0.579216  1
  B  B27  1  0.000000  0.750590  0.418424  1
  B  B28  1  0.000000  0.296280  0.237059  1
  B  B29  1  0.000000  0.704243  0.765162  1
  B  B30  1  0.000000  0.204792  0.734787  1
  B  B31  1  0.000000  0.791915  0.264744  1
  Rh  Rh32  1  0.500000  0.639717  0.319738  1
  W  W33  1  0.500000  0.140294  0.181845  1
  W  W34  1  0.500000  0.860096  0.819455  1
  W  W35  1  0.500000  0.361373  0.678212  1
