# generated using pymatgen
data_PrHo6Sn23Os6
_symmetry_space_group_name_H-M   'P 1'
_cell_length_a   9.86214900
_cell_length_b   9.86214776
_cell_length_c   10.13054500
_cell_angle_alpha   90.00000000
_cell_angle_beta   90.00000000
_cell_angle_gamma   119.99999411
_symmetry_Int_Tables_number   1
_chemical_formula_structural   PrHo6Sn23Os6
_chemical_formula_sum   'Pr1 Ho6 Sn23 Os6'
_cell_volume   853.30940451
_cell_formula_units_Z   1
loop_
 _symmetry_equiv_pos_site_id
 _symmetry_equiv_pos_as_xyz
  1  'x, y, z'
loop_
 _atom_site_type_symbol
 _atom_site_label
 _atom_site_symmetry_multiplicity
 _atom_site_fract_x
 _atom_site_fract_y
 _atom_site_fract_z
 _atom_site_occupancy
  Pr  Pr0  1  0.000000  0.000000  0.000000  1
  Ho  Ho1  1  0.514522  0.485478  0.698168  1
  Ho  Ho2  1  0.514522  0.029042  0.698168  1
  Ho  Ho3  1  0.970958  0.485478  0.698168  1
  Ho  Ho4  1  0.029042  0.514522  0.301832  1
  Ho  Ho5  1  0.485478  0.970958  0.301832  1
  Ho  Ho6  1  0.485478  0.514522  0.301832  1
  Sn  Sn7  1  0.666667  0.333333  0.174873  1
  Sn  Sn8  1  0.666667  0.333333  0.869776  1
  Sn  Sn9  1  0.333333  0.666667  0.130224  1
  Sn  Sn10  1  0.350638  0.350638  0.000000  1
  Sn  Sn11  1  0.000000  0.649362  0.000000  1
  Sn  Sn12  1  0.649362  0.000000  0.000000  1
  Sn  Sn13  1  0.649362  0.649362  0.000000  1
  Sn  Sn14  1  0.333333  0.666667  0.825127  1
  Sn  Sn15  1  0.440032  0.220017  0.463094  1
  Sn  Sn16  1  0.220017  0.779983  0.536906  1
  Sn  Sn17  1  0.220017  0.440032  0.536906  1
  Sn  Sn18  1  0.559968  0.779983  0.536906  1
  Sn  Sn19  1  0.118031  0.881969  0.276650  1
  Sn  Sn20  1  0.779983  0.559968  0.463094  1
  Sn  Sn21  1  0.779983  0.220017  0.463094  1
  Sn  Sn22  1  0.350638  0.000000  0.000000  1
  Sn  Sn23  1  0.118031  0.236064  0.276650  1
  Sn  Sn24  1  0.763936  0.881969  0.276650  1
  Sn  Sn25  1  0.236064  0.118031  0.723350  1
  Sn  Sn26  1  0.881969  0.763936  0.723350  1
  Sn  Sn27  1  0.881969  0.118031  0.723350  1
  Sn  Sn28  1  0.000000  0.000000  0.500000  1
  Sn  Sn29  1  0.000000  0.350638  0.000000  1
  Os  Os30  1  0.170845  0.829155  0.797156  1
  Os  Os31  1  0.170845  0.341689  0.797156  1
  Os  Os32  1  0.658311  0.829155  0.797156  1
  Os  Os33  1  0.341689  0.170845  0.202844  1
  Os  Os34  1  0.829155  0.658311  0.202844  1
  Os  Os35  1  0.829155  0.170845  0.202844  1
