# generated using pymatgen
data_Ta2Co2IrPt3
_symmetry_space_group_name_H-M   'P 1'
_cell_length_a   4.43825900
_cell_length_b   4.85898656
_cell_length_c   5.49571472
_cell_angle_alpha   90.17093656
_cell_angle_beta   90.00000000
_cell_angle_gamma   90.00000000
_symmetry_Int_Tables_number   1
_chemical_formula_structural   Ta2Co2IrPt3
_chemical_formula_sum   'Ta2 Co2 Ir1 Pt3'
_cell_volume   118.51698310
_cell_formula_units_Z   1
loop_
 _symmetry_equiv_pos_site_id
 _symmetry_equiv_pos_as_xyz
  1  'x, y, z'
loop_
 _atom_site_type_symbol
 _atom_site_label
 _atom_site_symmetry_multiplicity
 _atom_site_fract_x
 _atom_site_fract_y
 _atom_site_fract_z
 _atom_site_occupancy
  Ta  Ta0  1  0.500000  0.657809  0.493866  1
  Ta  Ta1  1  0.000000  0.348187  0.004077  1
  Co  Co2  1  0.000000  0.325712  0.497977  1
  Co  Co3  1  0.500000  0.672320  0.003610  1
  Ir  Ir4  1  0.000000  0.821662  0.247446  1
  Pt  Pt5  1  0.500000  0.170637  0.253302  1
  Pt  Pt6  1  0.000000  0.827352  0.751905  1
  Pt  Pt7  1  0.500000  0.176320  0.747819  1
