# generated using pymatgen
data_Ac2CuS4
_symmetry_space_group_name_H-M   'P 1'
_cell_length_a   7.84679700
_cell_length_b   7.94165100
_cell_length_c   11.19481931
_cell_angle_alpha   75.35298057
_cell_angle_beta   90.00000000
_cell_angle_gamma   90.00000000
_symmetry_Int_Tables_number   1
_chemical_formula_structural   Ac2CuS4
_chemical_formula_sum   'Ac8 Cu4 S16'
_cell_volume   674.95088079
_cell_formula_units_Z   4
loop_
 _symmetry_equiv_pos_site_id
 _symmetry_equiv_pos_as_xyz
  1  'x, y, z'
loop_
 _atom_site_type_symbol
 _atom_site_label
 _atom_site_symmetry_multiplicity
 _atom_site_fract_x
 _atom_site_fract_y
 _atom_site_fract_z
 _atom_site_occupancy
  Ac  Ac0  1  0.297739  0.058257  0.139644  1
  Ac  Ac1  1  0.797739  0.941743  0.360356  1
  Ac  Ac2  1  0.702261  0.941743  0.860356  1
  Ac  Ac3  1  0.202261  0.058257  0.639644  1
  Ac  Ac4  1  0.623378  0.528030  0.675281  1
  Ac  Ac5  1  0.123378  0.471970  0.824719  1
  Ac  Ac6  1  0.376622  0.471970  0.324719  1
  Ac  Ac7  1  0.876622  0.528030  0.175281  1
  Cu  Cu8  1  0.614067  0.323519  0.994922  1
  Cu  Cu9  1  0.114067  0.676481  0.505078  1
  Cu  Cu10  1  0.385933  0.676481  0.005078  1
  Cu  Cu11  1  0.885933  0.323519  0.494922  1
  S  S12  1  0.944586  0.108043  0.025167  1
  S  S13  1  0.444586  0.891957  0.474833  1
  S  S14  1  0.055414  0.891957  0.974833  1
  S  S15  1  0.555414  0.108043  0.525167  1
  S  S16  1  0.065687  0.212010  0.374910  1
  S  S17  1  0.565687  0.787990  0.125090  1
  S  S18  1  0.934313  0.787990  0.625090  1
  S  S19  1  0.434313  0.212010  0.874910  1
  S  S20  1  0.605161  0.247899  0.204024  1
  S  S21  1  0.105161  0.752101  0.295976  1
  S  S22  1  0.394839  0.752101  0.795976  1
  S  S23  1  0.894839  0.247899  0.704024  1
  S  S24  1  0.785134  0.551591  0.913660  1
  S  S25  1  0.285134  0.448409  0.586340  1
  S  S26  1  0.214866  0.448409  0.086340  1
  S  S27  1  0.714866  0.551591  0.413660  1
