# generated using pymatgen
data_Ca3YEr2(Si3Ru)8
_symmetry_space_group_name_H-M   'P 1'
_cell_length_a   10.15859009
_cell_length_b   10.15859131
_cell_length_c   8.14225423
_cell_angle_alpha   89.98131498
_cell_angle_beta   90.00531978
_cell_angle_gamma   132.73324974
_symmetry_Int_Tables_number   1
_chemical_formula_structural   Ca3YEr2(Si3Ru)8
_chemical_formula_sum   'Ca3 Y1 Er2 Si24 Ru8'
_cell_volume   617.18551558
_cell_formula_units_Z   1
loop_
 _symmetry_equiv_pos_site_id
 _symmetry_equiv_pos_as_xyz
  1  'x, y, z'
loop_
 _atom_site_type_symbol
 _atom_site_label
 _atom_site_symmetry_multiplicity
 _atom_site_fract_x
 _atom_site_fract_y
 _atom_site_fract_z
 _atom_site_occupancy
  Ca  Ca0  1  0.000113  0.999936  0.999971  1
  Ca  Ca1  1  0.001191  0.501045  0.249819  1
  Ca  Ca2  1  0.498925  0.998788  0.750172  1
  Y  Y3  1  0.501715  0.001766  0.249845  1
  Er  Er4  1  0.499935  0.500039  0.500031  1
  Er  Er5  1  0.998253  0.498316  0.750262  1
  Si  Si6  1  0.294626  0.704715  0.999676  1
  Si  Si7  1  0.794533  0.206187  0.500365  1
  Si  Si8  1  0.705934  0.294785  0.999629  1
  Si  Si9  1  0.205024  0.794318  0.500321  1
  Si  Si10  1  0.831459  0.836744  0.332028  1
  Si  Si11  1  0.163212  0.168558  0.667979  1
  Si  Si12  1  0.670148  0.665031  0.833852  1
  Si  Si13  1  0.334926  0.329870  0.166133  1
  Si  Si14  1  0.622957  0.389666  0.228288  1
  Si  Si15  1  0.610576  0.377209  0.771799  1
  Si  Si16  1  0.108719  0.875596  0.729224  1
  Si  Si17  1  0.124127  0.891128  0.270685  1
  Si  Si18  1  0.375108  0.608523  0.771711  1
  Si  Si19  1  0.391326  0.624620  0.228370  1
  Si  Si20  1  0.889638  0.122801  0.270629  1
  Si  Si21  1  0.877358  0.110602  0.729275  1
  Si  Si22  1  0.846094  0.612685  0.005114  1
  Si  Si23  1  0.387206  0.153879  0.994662  1
  Si  Si24  1  0.888580  0.655332  0.506857  1
  Si  Si25  1  0.344693  0.111569  0.493368  1
  Si  Si26  1  0.153873  0.386665  0.992307  1
  Si  Si27  1  0.613491  0.846156  0.007454  1
  Si  Si28  1  0.110836  0.344557  0.496300  1
  Si  Si29  1  0.655423  0.889052  0.503920  1
  Ru  Ru30  1  0.170375  0.828899  0.999671  1
  Ru  Ru31  1  0.669025  0.331651  0.500348  1
  Ru  Ru32  1  0.830396  0.170289  0.999641  1
  Ru  Ru33  1  0.330145  0.669156  0.500318  1
  Ru  Ru34  1  0.624506  0.625338  0.127744  1
  Ru  Ru35  1  0.374666  0.375461  0.872290  1
  Ru  Ru36  1  0.872315  0.871418  0.624674  1
  Ru  Ru37  1  0.128578  0.127650  0.375270  1
