# generated using pymatgen
data_Er2Sc4Pb5
_symmetry_space_group_name_H-M   'P 1'
_cell_length_a   11.26594335
_cell_length_b   11.26594350
_cell_length_c   11.26594303
_cell_angle_alpha   131.89188862
_cell_angle_beta   59.38016099
_cell_angle_gamma   147.31075901
_symmetry_Int_Tables_number   1
_chemical_formula_structural   Er2Sc4Pb5
_chemical_formula_sum   'Er4 Sc8 Pb10'
_cell_volume   569.92721306
_cell_formula_units_Z   2
loop_
 _symmetry_equiv_pos_site_id
 _symmetry_equiv_pos_as_xyz
  1  'x, y, z'
loop_
 _atom_site_type_symbol
 _atom_site_label
 _atom_site_symmetry_multiplicity
 _atom_site_fract_x
 _atom_site_fract_y
 _atom_site_fract_z
 _atom_site_occupancy
  Er  Er0  1  0.142206  0.111269  0.253475  1
  Er  Er1  1  0.857793  0.888733  0.746526  1
  Er  Er2  1  0.357793  0.611269  0.969061  1
  Er  Er3  1  0.642207  0.388732  0.030937  1
  Sc  Sc4  1  0.557008  0.250000  0.307007  1
  Sc  Sc5  1  0.942993  0.250000  0.692993  1
  Sc  Sc6  1  0.442993  0.750000  0.692993  1
  Sc  Sc7  1  0.057007  0.750000  0.307007  1
  Sc  Sc8  1  0.437928  0.237231  0.675160  1
  Sc  Sc9  1  0.562073  0.762769  0.324840  1
  Sc  Sc10  1  0.062072  0.737232  0.799304  1
  Sc  Sc11  1  0.937928  0.262770  0.200697  1
  Pb  Pb12  1  0.290886  0.299641  0.590527  1
  Pb  Pb13  1  0.709114  0.700359  0.409472  1
  Pb  Pb14  1  0.209115  0.799642  0.008755  1
  Pb  Pb15  1  0.790887  0.200358  0.991245  1
  Pb  Pb16  1  0.250000  0.250000  0.000000  1
  Pb  Pb17  1  0.749999  0.749999  0.000000  1
  Pb  Pb18  1  0.071866  0.403569  0.475435  1
  Pb  Pb19  1  0.928135  0.596431  0.524565  1
  Pb  Pb20  1  0.428135  0.903570  0.331703  1
  Pb  Pb21  1  0.571865  0.096430  0.668297  1
