# generated using pymatgen
data_Pr4Nd8Si(PBr4)3
_symmetry_space_group_name_H-M   'P 1'
_cell_length_a   10.33927963
_cell_length_b   10.33928413
_cell_length_c   10.33663217
_cell_angle_alpha   109.41011617
_cell_angle_beta   109.41023202
_cell_angle_gamma   109.46768474
_symmetry_Int_Tables_number   1
_chemical_formula_structural   Pr4Nd8Si(PBr4)3
_chemical_formula_sum   'Pr4 Nd8 Si1 P3 Br12'
_cell_volume   851.94063656
_cell_formula_units_Z   1
loop_
 _symmetry_equiv_pos_site_id
 _symmetry_equiv_pos_as_xyz
  1  'x, y, z'
loop_
 _atom_site_type_symbol
 _atom_site_label
 _atom_site_symmetry_multiplicity
 _atom_site_fract_x
 _atom_site_fract_y
 _atom_site_fract_z
 _atom_site_occupancy
  Pr  Pr0  1  0.489720  0.236449  0.475443  1
  Pr  Pr1  1  0.014230  0.485769  0.750000  1
  Pr  Pr2  1  0.263551  0.010280  0.024557  1
  Pr  Pr3  1  0.235588  0.264412  0.750000  1
  Nd  Nd4  1  0.474339  0.489026  0.236084  1
  Nd  Nd5  1  0.749634  0.234826  0.264829  1
  Nd  Nd6  1  0.750342  0.015041  0.485314  1
  Nd  Nd7  1  0.235577  0.474084  0.489121  1
  Nd  Nd8  1  0.265174  0.750365  0.235171  1
  Nd  Nd9  1  0.025916  0.264423  0.010879  1
  Nd  Nd10  1  0.010976  0.025661  0.263917  1
  Nd  Nd11  1  0.484960  0.749658  0.014686  1
  Si  Si12  1  0.249325  0.250676  0.250000  1
  P  P13  1  0.501045  0.998954  0.250000  1
  P  P14  1  0.998867  0.249181  0.498583  1
  P  P15  1  0.250819  0.501133  0.001417  1
  Br  Br16  1  0.252247  0.755312  0.743958  1
  Br  Br17  1  0.511292  0.508675  0.756766  1
  Br  Br18  1  0.988769  0.743899  0.996493  1
  Br  Br19  1  0.744688  0.247752  0.756042  1
  Br  Br20  1  0.991325  0.988708  0.743234  1
  Br  Br21  1  0.247742  0.991408  0.503437  1
  Br  Br22  1  0.756101  0.511231  0.503507  1
  Br  Br23  1  0.508592  0.252258  0.996563  1
  Br  Br24  1  0.754592  0.745408  0.250000  1
  Br  Br25  1  0.744556  0.994923  0.990802  1
  Br  Br26  1  0.994955  0.505044  0.250000  1
  Br  Br27  1  0.505077  0.755444  0.509198  1
