# generated using pymatgen
data_Dy3ErSb2(RhO7)2
_symmetry_space_group_name_H-M   'P 1'
_cell_length_a   7.29428307
_cell_length_b   7.26469742
_cell_length_c   7.29428388
_cell_angle_alpha   60.15980457
_cell_angle_beta   60.76028815
_cell_angle_gamma   60.15980878
_symmetry_Int_Tables_number   1
_chemical_formula_structural   Dy3ErSb2(RhO7)2
_chemical_formula_sum   'Dy3 Er1 Sb2 Rh2 O14'
_cell_volume   275.52321523
_cell_formula_units_Z   1
loop_
 _symmetry_equiv_pos_site_id
 _symmetry_equiv_pos_as_xyz
  1  'x, y, z'
loop_
 _atom_site_type_symbol
 _atom_site_label
 _atom_site_symmetry_multiplicity
 _atom_site_fract_x
 _atom_site_fract_y
 _atom_site_fract_z
 _atom_site_occupancy
  Dy  Dy0  1  0.125000  0.125000  0.625000  1
  Dy  Dy1  1  0.625000  0.125000  0.125000  1
  Dy  Dy2  1  0.125000  0.125000  0.125000  1
  Er  Er3  1  0.125000  0.625000  0.125000  1
  Sb  Sb4  1  0.125000  0.625000  0.625000  1
  Sb  Sb5  1  0.625000  0.625000  0.125000  1
  Rh  Rh6  1  0.625000  0.625000  0.625000  1
  Rh  Rh7  1  0.625000  0.125000  0.625000  1
  O  O8  1  0.283263  0.705878  0.720080  1
  O  O9  1  0.531267  0.959043  0.966600  1
  O  O10  1  0.724800  0.275311  0.724800  1
  O  O11  1  0.283400  0.290957  0.718733  1
  O  O12  1  0.720080  0.705878  0.283263  1
  O  O13  1  0.004615  0.993024  0.004615  1
  O  O14  1  0.295432  0.703977  0.295432  1
  O  O15  1  0.954568  0.546023  0.954568  1
  O  O16  1  0.966600  0.959043  0.531267  1
  O  O17  1  0.529920  0.544122  0.966737  1
  O  O18  1  0.245385  0.256976  0.245385  1
  O  O19  1  0.525200  0.974689  0.525200  1
  O  O20  1  0.718733  0.290957  0.283400  1
  O  O21  1  0.966737  0.544122  0.529920  1
