# generated using pymatgen
data_DyEr3OsBr4
_symmetry_space_group_name_H-M   'P 1'
_cell_length_a   8.95393627
_cell_length_b   8.91476427
_cell_length_c   6.52671466
_cell_angle_alpha   89.62624572
_cell_angle_beta   89.32818120
_cell_angle_gamma   89.32109503
_symmetry_Int_Tables_number   1
_chemical_formula_structural   DyEr3OsBr4
_chemical_formula_sum   'Dy2 Er6 Os2 Br8'
_cell_volume   520.89392406
_cell_formula_units_Z   2
loop_
 _symmetry_equiv_pos_site_id
 _symmetry_equiv_pos_as_xyz
  1  'x, y, z'
loop_
 _atom_site_type_symbol
 _atom_site_label
 _atom_site_symmetry_multiplicity
 _atom_site_fract_x
 _atom_site_fract_y
 _atom_site_fract_z
 _atom_site_occupancy
  Dy  Dy0  1  0.250123  0.900581  0.008782  1
  Dy  Dy1  1  0.749877  0.099419  0.991218  1
  Er  Er2  1  0.098132  0.752208  0.489035  1
  Er  Er3  1  0.901868  0.247792  0.510965  1
  Er  Er4  1  0.753836  0.902966  0.508793  1
  Er  Er5  1  0.246164  0.097034  0.491207  1
  Er  Er6  1  0.096065  0.247056  0.991772  1
  Er  Er7  1  0.903935  0.752944  0.008228  1
  Os  Os8  1  0.995339  0.004804  0.249970  1
  Os  Os9  1  0.004661  0.995196  0.750030  1
  Br  Br10  1  0.418603  0.817327  0.411478  1
  Br  Br11  1  0.581397  0.182673  0.588522  1
  Br  Br12  1  0.181945  0.579809  0.092218  1
  Br  Br13  1  0.818055  0.420191  0.907782  1
  Br  Br14  1  0.412001  0.192407  0.093008  1
  Br  Br15  1  0.587999  0.807593  0.906992  1
  Br  Br16  1  0.810793  0.585857  0.406397  1
  Br  Br17  1  0.189207  0.414143  0.593603  1
