# generated using pymatgen
data_ThU2Cu3Sb4
_symmetry_space_group_name_H-M   'P 1'
_cell_length_a   8.36265290
_cell_length_b   8.36265253
_cell_length_c   8.36265301
_cell_angle_alpha   109.26007611
_cell_angle_beta   109.89434988
_cell_angle_gamma   109.26007414
_symmetry_Int_Tables_number   1
_chemical_formula_structural   ThU2Cu3Sb4
_chemical_formula_sum   'Th2 U4 Cu6 Sb8'
_cell_volume   450.18652131
_cell_formula_units_Z   2
loop_
 _symmetry_equiv_pos_site_id
 _symmetry_equiv_pos_as_xyz
  1  'x, y, z'
loop_
 _atom_site_type_symbol
 _atom_site_label
 _atom_site_symmetry_multiplicity
 _atom_site_fract_x
 _atom_site_fract_y
 _atom_site_fract_z
 _atom_site_occupancy
  Th  Th0  1  0.875000  0.250000  0.125000  1
  Th  Th1  1  0.625000  0.750000  0.375000  1
  U  U2  1  0.250000  0.130301  0.880301  1
  U  U3  1  0.750000  0.369699  0.619699  1
  U  U4  1  0.119699  0.869699  0.250000  1
  U  U5  1  0.380301  0.630301  0.750000  1
  Cu  Cu6  1  0.375000  0.250000  0.625000  1
  Cu  Cu7  1  0.125000  0.750000  0.875000  1
  Cu  Cu8  1  0.250000  0.624307  0.374307  1
  Cu  Cu9  1  0.750000  0.875693  0.125693  1
  Cu  Cu10  1  0.625693  0.375693  0.250000  1
  Cu  Cu11  1  0.874307  0.124307  0.750000  1
  Sb  Sb12  1  0.666732  0.498820  0.995489  1
  Sb  Sb13  1  0.496669  0.001180  0.667912  1
  Sb  Sb14  1  0.003331  0.671244  0.504511  1
  Sb  Sb15  1  0.833268  0.828756  0.832088  1
  Sb  Sb16  1  0.495489  0.998820  0.166732  1
  Sb  Sb17  1  0.167912  0.501180  0.996669  1
  Sb  Sb18  1  0.004511  0.171244  0.503331  1
  Sb  Sb19  1  0.332088  0.328756  0.333268  1
