# generated using pymatgen
data_Hf12Zn3Si(Pt2N)4
_symmetry_space_group_name_H-M   'P 1'
_cell_length_a   8.53889318
_cell_length_b   8.52986093
_cell_length_c   8.53986000
_cell_angle_alpha   59.96315985
_cell_angle_beta   59.99786939
_cell_angle_gamma   59.94667637
_symmetry_Int_Tables_number   1
_chemical_formula_structural   Hf12Zn3Si(Pt2N)4
_chemical_formula_sum   'Hf12 Zn3 Si1 Pt8 N4'
_cell_volume   439.51733881
_cell_formula_units_Z   1
loop_
 _symmetry_equiv_pos_site_id
 _symmetry_equiv_pos_as_xyz
  1  'x, y, z'
loop_
 _atom_site_type_symbol
 _atom_site_label
 _atom_site_symmetry_multiplicity
 _atom_site_fract_x
 _atom_site_fract_y
 _atom_site_fract_z
 _atom_site_occupancy
  Hf  Hf0  1  0.809575  0.191667  0.189139  1
  Hf  Hf1  1  0.189757  0.809960  0.189810  1
  Hf  Hf2  1  0.810496  0.809961  0.189777  1
  Hf  Hf3  1  0.189765  0.809966  0.810463  1
  Hf  Hf4  1  0.809573  0.191642  0.809632  1
  Hf  Hf5  1  0.189185  0.191591  0.809618  1
  Hf  Hf6  1  0.440425  0.058333  0.060861  1
  Hf  Hf7  1  0.060243  0.440040  0.060190  1
  Hf  Hf8  1  0.439504  0.440039  0.060223  1
  Hf  Hf9  1  0.060235  0.440034  0.439537  1
  Hf  Hf10  1  0.440427  0.058358  0.440368  1
  Hf  Hf11  1  0.060815  0.058409  0.440382  1
  Zn  Zn12  1  0.625000  0.625000  0.125000  1
  Zn  Zn13  1  0.625000  0.625000  0.625000  1
  Zn  Zn14  1  0.125000  0.625000  0.625000  1
  Si  Si15  1  0.625000  0.125000  0.625000  1
  Pt  Pt16  1  0.413705  0.405099  0.767539  1
  Pt  Pt17  1  0.413711  0.405117  0.413635  1
  Pt  Pt18  1  0.767534  0.405147  0.413648  1
  Pt  Pt19  1  0.410324  0.769116  0.410270  1
  Pt  Pt20  1  0.836295  0.844901  0.482461  1
  Pt  Pt21  1  0.836289  0.844883  0.836365  1
  Pt  Pt22  1  0.482466  0.844853  0.836352  1
  Pt  Pt23  1  0.839676  0.480884  0.839730  1
  N  N24  1  0.125000  0.125000  0.625000  1
  N  N25  1  0.125000  0.125000  0.125000  1
  N  N26  1  0.625000  0.125000  0.125000  1
  N  N27  1  0.125000  0.625000  0.125000  1
