# generated using pymatgen
data_TbTm7Re2(B12Rh)2
_symmetry_space_group_name_H-M   'P 1'
_cell_length_a   3.64743000
_cell_length_b   9.09089084
_cell_length_c   11.48160204
_cell_angle_alpha   90.40557264
_cell_angle_beta   90.00000000
_cell_angle_gamma   90.00000000
_symmetry_Int_Tables_number   1
_chemical_formula_structural   TbTm7Re2(B12Rh)2
_chemical_formula_sum   'Tb1 Tm7 Re2 B24 Rh2'
_cell_volume   380.70187706
_cell_formula_units_Z   1
loop_
 _symmetry_equiv_pos_site_id
 _symmetry_equiv_pos_as_xyz
  1  'x, y, z'
loop_
 _atom_site_type_symbol
 _atom_site_label
 _atom_site_symmetry_multiplicity
 _atom_site_fract_x
 _atom_site_fract_y
 _atom_site_fract_z
 _atom_site_occupancy
  Tb  Tb0  1  0.500000  0.318896  0.411201  1
  Tm  Tm1  1  0.500000  0.682474  0.589359  1
  Tm  Tm2  1  0.500000  0.173876  0.917399  1
  Tm  Tm3  1  0.500000  0.825983  0.082392  1
  Tm  Tm4  1  0.500000  0.442463  0.126217  1
  Tm  Tm5  1  0.500000  0.557621  0.873620  1
  Tm  Tm6  1  0.500000  0.054243  0.628372  1
  Tm  Tm7  1  0.500000  0.945211  0.371779  1
  Re  Re8  1  0.500000  0.138138  0.179231  1
  Re  Re9  1  0.500000  0.861149  0.820125  1
  B  B10  1  0.000000  0.105131  0.471704  1
  B  B11  1  0.000000  0.893477  0.528781  1
  B  B12  1  0.000000  0.394667  0.970677  1
  B  B13  1  0.000000  0.605469  0.029146  1
  B  B14  1  0.000000  0.131107  0.314771  1
  B  B15  1  0.000000  0.868024  0.684709  1
  B  B16  1  0.000000  0.367592  0.817207  1
  B  B17  1  0.000000  0.632618  0.182702  1
  B  B18  1  0.000000  0.052565  0.066784  1
  B  B19  1  0.000000  0.947134  0.932894  1
  B  B20  1  0.000000  0.446149  0.566323  1
  B  B21  1  0.000000  0.555307  0.434562  1
  B  B22  1  0.000000  0.483951  0.287083  1
  B  B23  1  0.000000  0.517288  0.712504  1
  B  B24  1  0.000000  0.017622  0.786955  1
  B  B25  1  0.000000  0.981880  0.212897  1
  B  B26  1  0.000000  0.248934  0.080532  1
  B  B27  1  0.000000  0.750968  0.919064  1
  B  B28  1  0.000000  0.250194  0.579469  1
  B  B29  1  0.000000  0.749645  0.421785  1
  B  B30  1  0.000000  0.293055  0.234242  1
  B  B31  1  0.000000  0.706452  0.764945  1
  B  B32  1  0.000000  0.207961  0.735451  1
  B  B33  1  0.000000  0.791979  0.264770  1
  Rh  Rh34  1  0.500000  0.361888  0.679472  1
  Rh  Rh35  1  0.500000  0.638888  0.320874  1
