# generated using pymatgen
data_Th2InCuRu
_symmetry_space_group_name_H-M   'P 1'
_cell_length_a   7.69022100
_cell_length_b   7.76580900
_cell_length_c   3.84910800
_cell_angle_alpha   90.00000000
_cell_angle_beta   90.00000000
_cell_angle_gamma   90.00000000
_symmetry_Int_Tables_number   1
_chemical_formula_structural   Th2InCuRu
_chemical_formula_sum   'Th4 In2 Cu2 Ru2'
_cell_volume   229.87176075
_cell_formula_units_Z   2
loop_
 _symmetry_equiv_pos_site_id
 _symmetry_equiv_pos_as_xyz
  1  'x, y, z'
loop_
 _atom_site_type_symbol
 _atom_site_label
 _atom_site_symmetry_multiplicity
 _atom_site_fract_x
 _atom_site_fract_y
 _atom_site_fract_z
 _atom_site_occupancy
  Th  Th0  1  0.674189  0.158826  0.500000  1
  Th  Th1  1  0.174189  0.341174  0.500000  1
  Th  Th2  1  0.828568  0.690977  0.500000  1
  Th  Th3  1  0.328568  0.809023  0.500000  1
  In  In4  1  0.006869  0.009216  0.000000  1
  In  In5  1  0.506869  0.490784  0.000000  1
  Cu  Cu6  1  0.366170  0.122925  0.000000  1
  Cu  Cu7  1  0.866170  0.377075  0.000000  1
  Ru  Ru8  1  0.124204  0.622263  0.000000  1
  Ru  Ru9  1  0.624204  0.877737  0.000000  1
