# generated using pymatgen
data_NdEr3(Ni5Sn)4
_symmetry_space_group_name_H-M   'P 1'
_cell_length_a   4.85307200
_cell_length_b   4.85307195
_cell_length_c   19.60422900
_cell_angle_alpha   90.00000000
_cell_angle_beta   90.00000000
_cell_angle_gamma   120.00001399
_symmetry_Int_Tables_number   1
_chemical_formula_structural   NdEr3(Ni5Sn)4
_chemical_formula_sum   'Nd1 Er3 Ni20 Sn4'
_cell_volume   399.86537707
_cell_formula_units_Z   1
loop_
 _symmetry_equiv_pos_site_id
 _symmetry_equiv_pos_as_xyz
  1  'x, y, z'
loop_
 _atom_site_type_symbol
 _atom_site_label
 _atom_site_symmetry_multiplicity
 _atom_site_fract_x
 _atom_site_fract_y
 _atom_site_fract_z
 _atom_site_occupancy
  Nd  Nd0  1  0.000000  0.000000  0.000000  1
  Er  Er1  1  0.333333  0.666667  0.250918  1
  Er  Er2  1  0.666667  0.333333  0.749082  1
  Er  Er3  1  0.000000  0.000000  0.500000  1
  Ni  Ni4  1  0.000000  0.000000  0.250397  1
  Ni  Ni5  1  0.000000  0.000000  0.749603  1
  Ni  Ni6  1  0.333333  0.666667  0.749374  1
  Ni  Ni7  1  0.666667  0.333333  0.250626  1
  Ni  Ni8  1  0.333333  0.666667  0.956855  1
  Ni  Ni9  1  0.666667  0.333333  0.043145  1
  Ni  Ni10  1  0.666667  0.333333  0.457902  1
  Ni  Ni11  1  0.333333  0.666667  0.542098  1
  Ni  Ni12  1  0.834097  0.165903  0.353757  1
  Ni  Ni13  1  0.834097  0.668194  0.353757  1
  Ni  Ni14  1  0.331806  0.165903  0.353757  1
  Ni  Ni15  1  0.165903  0.834097  0.646243  1
  Ni  Ni16  1  0.165903  0.331806  0.646243  1
  Ni  Ni17  1  0.668194  0.834097  0.646243  1
  Ni  Ni18  1  0.166341  0.833659  0.852395  1
  Ni  Ni19  1  0.166341  0.332681  0.852395  1
  Ni  Ni20  1  0.667319  0.833659  0.852395  1
  Ni  Ni21  1  0.833659  0.166341  0.147605  1
  Ni  Ni22  1  0.833659  0.667319  0.147605  1
  Ni  Ni23  1  0.332681  0.166341  0.147605  1
  Sn  Sn24  1  0.333333  0.666667  0.412934  1
  Sn  Sn25  1  0.666667  0.333333  0.587066  1
  Sn  Sn26  1  0.666667  0.333333  0.911310  1
  Sn  Sn27  1  0.333333  0.666667  0.088690  1
