# generated using pymatgen
data_Hf8TlS16
_symmetry_space_group_name_H-M   'P 1'
_cell_length_a   7.24740700
_cell_length_b   7.24442826
_cell_length_c   14.93245500
_cell_angle_alpha   90.00000000
_cell_angle_beta   89.99963634
_cell_angle_gamma   119.98639238
_symmetry_Int_Tables_number   1
_chemical_formula_structural   Hf8TlS16
_chemical_formula_sum   'Hf8 Tl1 S16'
_cell_volume   679.05999730
_cell_formula_units_Z   1
loop_
 _symmetry_equiv_pos_site_id
 _symmetry_equiv_pos_as_xyz
  1  'x, y, z'
loop_
 _atom_site_type_symbol
 _atom_site_label
 _atom_site_symmetry_multiplicity
 _atom_site_fract_x
 _atom_site_fract_y
 _atom_site_fract_z
 _atom_site_occupancy
  Hf  Hf0  1  0.500835  0.499229  0.738310  1
  Hf  Hf1  1  0.499165  0.500771  0.261690  1
  Hf  Hf2  1  0.500835  0.001607  0.738310  1
  Hf  Hf3  1  0.499165  0.998393  0.261690  1
  Hf  Hf4  1  0.998426  0.499212  0.738290  1
  Hf  Hf5  1  0.001574  0.500788  0.261710  1
  Hf  Hf6  1  0.000042  0.000021  0.733204  1
  Hf  Hf7  1  0.999958  0.999979  0.266796  1
  Tl  Tl8  1  0.000000  0.000000  0.000000  1
  S  S9  1  0.834156  0.668367  0.163863  1
  S  S10  1  0.832145  0.664359  0.639649  1
  S  S11  1  0.834156  0.165789  0.163862  1
  S  S12  1  0.832145  0.167785  0.639648  1
  S  S13  1  0.333272  0.666636  0.162922  1
  S  S14  1  0.333315  0.666657  0.642664  1
  S  S15  1  0.331577  0.165789  0.163851  1
  S  S16  1  0.335601  0.167801  0.639665  1
  S  S17  1  0.668423  0.834211  0.836149  1
  S  S18  1  0.664399  0.832199  0.360335  1
  S  S19  1  0.666728  0.333364  0.837078  1
  S  S20  1  0.666685  0.333343  0.357336  1
  S  S21  1  0.165844  0.834211  0.836138  1
  S  S22  1  0.167855  0.832215  0.360352  1
  S  S23  1  0.165844  0.331633  0.836137  1
  S  S24  1  0.167855  0.335641  0.360351  1
