# generated using pymatgen
data_Y8Ho12Bi11Sb
_symmetry_space_group_name_H-M   'P 1'
_cell_length_a   8.21434188
_cell_length_b   9.46118100
_cell_length_c   12.06299700
_cell_angle_alpha   90.00000000
_cell_angle_beta   90.31083249
_cell_angle_gamma   90.00000000
_symmetry_Int_Tables_number   1
_chemical_formula_structural   Y8Ho12Bi11Sb
_chemical_formula_sum   'Y8 Ho12 Bi11 Sb1'
_cell_volume   937.49066931
_cell_formula_units_Z   1
loop_
 _symmetry_equiv_pos_site_id
 _symmetry_equiv_pos_as_xyz
  1  'x, y, z'
loop_
 _atom_site_type_symbol
 _atom_site_label
 _atom_site_symmetry_multiplicity
 _atom_site_fract_x
 _atom_site_fract_y
 _atom_site_fract_z
 _atom_site_occupancy
  Y  Y0  1  0.188894  0.750000  0.721569  1
  Y  Y1  1  0.679714  0.750000  0.784520  1
  Y  Y2  1  0.812962  0.250000  0.280527  1
  Y  Y3  1  0.314177  0.250000  0.219224  1
  Y  Y4  1  0.353872  0.750000  0.211968  1
  Y  Y5  1  0.852390  0.750000  0.284679  1
  Y  Y6  1  0.648283  0.250000  0.785049  1
  Y  Y7  1  0.147743  0.250000  0.716160  1
  Ho  Ho8  1  0.028225  0.750000  0.989189  1
  Ho  Ho9  1  0.526343  0.750000  0.511840  1
  Ho  Ho10  1  0.976408  0.250000  0.010083  1
  Ho  Ho11  1  0.474361  0.250000  0.488452  1
  Ho  Ho12  1  0.308161  0.440006  0.940626  1
  Ho  Ho13  1  0.806922  0.063662  0.559608  1
  Ho  Ho14  1  0.690102  0.933273  0.057157  1
  Ho  Ho15  1  0.193329  0.564118  0.439804  1
  Ho  Ho16  1  0.690102  0.566727  0.057157  1
  Ho  Ho17  1  0.193329  0.935882  0.439804  1
  Ho  Ho18  1  0.308161  0.059994  0.940626  1
  Ho  Ho19  1  0.806922  0.436338  0.559608  1
  Bi  Bi20  1  0.434088  0.004437  0.673368  1
  Bi  Bi21  1  0.933845  0.496870  0.826445  1
  Bi  Bi22  1  0.566110  0.504409  0.326607  1
  Bi  Bi23  1  0.065387  0.996306  0.173290  1
  Bi  Bi24  1  0.566110  0.995591  0.326607  1
  Bi  Bi25  1  0.065387  0.503694  0.173290  1
  Bi  Bi26  1  0.434088  0.495563  0.673368  1
  Bi  Bi27  1  0.933845  0.003130  0.826445  1
  Bi  Bi28  1  0.909914  0.750000  0.543041  1
  Bi  Bi29  1  0.592831  0.250000  0.042395  1
  Bi  Bi30  1  0.091279  0.250000  0.458329  1
  Sb  Sb31  1  0.406719  0.750000  0.959168  1
