# generated using pymatgen
data_Cs2KErSb2
_symmetry_space_group_name_H-M   'P 1'
_cell_length_a   10.45578715
_cell_length_b   10.45575826
_cell_length_c   10.45578775
_cell_angle_alpha   132.97419005
_cell_angle_beta   65.71663133
_cell_angle_gamma   136.85159189
_symmetry_Int_Tables_number   1
_chemical_formula_structural   Cs2KErSb2
_chemical_formula_sum   'Cs4 K2 Er2 Sb4'
_cell_volume   563.43153447
_cell_formula_units_Z   2
loop_
 _symmetry_equiv_pos_site_id
 _symmetry_equiv_pos_as_xyz
  1  'x, y, z'
loop_
 _atom_site_type_symbol
 _atom_site_label
 _atom_site_symmetry_multiplicity
 _atom_site_fract_x
 _atom_site_fract_y
 _atom_site_fract_z
 _atom_site_occupancy
  Cs  Cs0  1  0.318896  0.764089  0.082956  1
  Cs  Cs1  1  0.181132  0.264088  0.445191  1
  Cs  Cs2  1  0.818868  0.735912  0.554808  1
  Cs  Cs3  1  0.681104  0.235912  0.917044  1
  K  K4  1  0.250000  0.250000  0.000000  1
  K  K5  1  0.750000  0.750000  0.000000  1
  Er  Er6  1  0.750122  0.250000  0.500123  1
  Er  Er7  1  0.249877  0.750000  0.499877  1
  Sb  Sb8  1  0.905489  0.298797  0.204365  1
  Sb  Sb9  1  0.594432  0.798797  0.393307  1
  Sb  Sb10  1  0.405569  0.201203  0.606694  1
  Sb  Sb11  1  0.094512  0.701203  0.795635  1
