# generated using pymatgen
data_Ti7RuPt19Rh
_symmetry_space_group_name_H-M   'P 1'
_cell_length_a   5.57693069
_cell_length_b   5.56278016
_cell_length_c   15.93024833
_cell_angle_alpha   90.12037333
_cell_angle_beta   90.10274094
_cell_angle_gamma   119.81613414
_symmetry_Int_Tables_number   1
_chemical_formula_structural   Ti7RuPt19Rh
_chemical_formula_sum   'Ti7 Ru1 Pt19 Rh1'
_cell_volume   428.78413048
_cell_formula_units_Z   1
loop_
 _symmetry_equiv_pos_site_id
 _symmetry_equiv_pos_as_xyz
  1  'x, y, z'
loop_
 _atom_site_type_symbol
 _atom_site_label
 _atom_site_symmetry_multiplicity
 _atom_site_fract_x
 _atom_site_fract_y
 _atom_site_fract_z
 _atom_site_occupancy
  Ti  Ti0  1  0.994374  0.992478  0.717561  1
  Ti  Ti1  1  0.677729  0.337896  0.861076  1
  Ti  Ti2  1  0.322708  0.663096  0.139330  1
  Ti  Ti3  1  0.002549  0.001730  0.280505  1
  Ti  Ti4  1  0.670131  0.342536  0.432558  1
  Ti  Ti5  1  0.000112  0.000903  0.999421  1
  Ti  Ti6  1  0.335583  0.666369  0.571513  1
  Ru  Ru7  1  0.000639  0.499664  0.000032  1
  Pt  Pt8  1  0.332872  0.165140  0.570894  1
  Pt  Pt9  1  0.169960  0.334912  0.857553  1
  Pt  Pt10  1  0.167462  0.333692  0.428788  1
  Pt  Pt11  1  0.166234  0.833568  0.428899  1
  Pt  Pt12  1  0.497725  0.000728  0.713589  1
  Pt  Pt13  1  0.666550  0.833998  0.429657  1
  Pt  Pt14  1  0.169515  0.829548  0.857468  1
  Pt  Pt15  1  0.670041  0.833830  0.856211  1
  Pt  Pt16  1  0.828778  0.168265  0.142032  1
  Pt  Pt17  1  0.832588  0.164769  0.571577  1
  Pt  Pt18  1  0.499771  0.497813  0.712973  1
  Pt  Pt19  1  0.328462  0.165847  0.143280  1
  Pt  Pt20  1  0.829208  0.663148  0.142432  1
  Pt  Pt21  1  0.502423  0.504264  0.286742  1
  Pt  Pt22  1  0.502047  0.000695  0.286195  1
  Pt  Pt23  1  0.499817  0.000348  0.999652  1
  Pt  Pt24  1  0.000270  0.500224  0.286728  1
  Pt  Pt25  1  0.999969  0.499656  0.712727  1
  Pt  Pt26  1  0.500754  0.500879  0.999845  1
  Rh  Rh27  1  0.831731  0.664005  0.570765  1
