# generated using pymatgen
data_CaGa3NiRu
_symmetry_space_group_name_H-M   'P 1'
_cell_length_a   6.29470457
_cell_length_b   6.29470545
_cell_length_c   5.45463200
_cell_angle_alpha   90.00000000
_cell_angle_beta   90.00000000
_cell_angle_gamma   100.97508037
_symmetry_Int_Tables_number   1
_chemical_formula_structural   CaGa3NiRu
_chemical_formula_sum   'Ca2 Ga6 Ni2 Ru2'
_cell_volume   212.17757000
_cell_formula_units_Z   2
loop_
 _symmetry_equiv_pos_site_id
 _symmetry_equiv_pos_as_xyz
  1  'x, y, z'
loop_
 _atom_site_type_symbol
 _atom_site_label
 _atom_site_symmetry_multiplicity
 _atom_site_fract_x
 _atom_site_fract_y
 _atom_site_fract_z
 _atom_site_occupancy
  Ca  Ca0  1  0.346779  0.346779  0.250001  1
  Ca  Ca1  1  0.653219  0.653219  0.750000  1
  Ga  Ga2  1  0.534826  0.914224  0.254274  1
  Ga  Ga3  1  0.465172  0.085774  0.754273  1
  Ga  Ga4  1  0.085774  0.465172  0.745727  1
  Ga  Ga5  1  0.914224  0.534826  0.245728  1
  Ga  Ga6  1  0.960868  0.960868  0.250001  1
  Ga  Ga7  1  0.039132  0.039132  0.750000  1
  Ni  Ni8  1  0.787389  0.212612  0.000000  1
  Ni  Ni9  1  0.212612  0.787389  0.500001  1
  Ru  Ru10  1  0.211188  0.788813  0.000000  1
  Ru  Ru11  1  0.788813  0.211188  0.500001  1
