# generated using pymatgen
data_Ho2Tm2Os5Ru3
_symmetry_space_group_name_H-M   'P 1'
_cell_length_a   5.32302567
_cell_length_b   5.18341109
_cell_length_c   8.94393706
_cell_angle_alpha   89.98981192
_cell_angle_beta   89.99756137
_cell_angle_gamma   119.61448468
_symmetry_Int_Tables_number   1
_chemical_formula_structural   Ho2Tm2Os5Ru3
_chemical_formula_sum   'Ho2 Tm2 Os5 Ru3'
_cell_volume   214.53966657
_cell_formula_units_Z   1
loop_
 _symmetry_equiv_pos_site_id
 _symmetry_equiv_pos_as_xyz
  1  'x, y, z'
loop_
 _atom_site_type_symbol
 _atom_site_label
 _atom_site_symmetry_multiplicity
 _atom_site_fract_x
 _atom_site_fract_y
 _atom_site_fract_z
 _atom_site_occupancy
  Ho  Ho0  1  0.668023  0.334429  0.566418  1
  Ho  Ho1  1  0.331786  0.665487  0.433144  1
  Tm  Tm2  1  0.331418  0.665249  0.066458  1
  Tm  Tm3  1  0.668335  0.334652  0.933870  1
  Os  Os4  1  0.170507  0.339263  0.751347  1
  Os  Os5  1  0.172635  0.830562  0.751226  1
  Os  Os6  1  0.657296  0.828764  0.751394  1
  Os  Os7  1  0.835305  0.662436  0.248688  1
  Os  Os8  1  0.833067  0.172646  0.248767  1
  Ru  Ru9  1  0.992607  0.996642  0.499551  1
  Ru  Ru10  1  0.992403  0.996584  0.000473  1
  Ru  Ru11  1  0.346618  0.173283  0.248662  1
