# generated using pymatgen
data_Mn2ZnCo4Si
_symmetry_space_group_name_H-M   'P 1'
_cell_length_a   6.93449977
_cell_length_b   6.93449935
_cell_length_c   6.93449868
_cell_angle_alpha   33.51400406
_cell_angle_beta   33.51400781
_cell_angle_gamma   33.51400760
_symmetry_Int_Tables_number   1
_chemical_formula_structural   Mn2ZnCo4Si
_chemical_formula_sum   'Mn2 Zn1 Co4 Si1'
_cell_volume   90.54345331
_cell_formula_units_Z   1
loop_
 _symmetry_equiv_pos_site_id
 _symmetry_equiv_pos_as_xyz
  1  'x, y, z'
loop_
 _atom_site_type_symbol
 _atom_site_label
 _atom_site_symmetry_multiplicity
 _atom_site_fract_x
 _atom_site_fract_y
 _atom_site_fract_z
 _atom_site_occupancy
  Mn  Mn0  1  0.251774  0.251774  0.251774  1
  Mn  Mn1  1  0.748226  0.748226  0.748226  1
  Zn  Zn2  1  0.000000  0.000000  0.000000  1
  Co  Co3  1  0.871523  0.871523  0.871523  1
  Co  Co4  1  0.379127  0.379127  0.379127  1
  Co  Co5  1  0.128477  0.128477  0.128477  1
  Co  Co6  1  0.620873  0.620873  0.620873  1
  Si  Si7  1  0.500000  0.500000  0.500000  1
