# generated using pymatgen
data_Nd6HoEr13Pt16
_symmetry_space_group_name_H-M   'P 1'
_cell_length_a   7.53821300
_cell_length_b   7.61848614
_cell_length_c   14.75893000
_cell_angle_alpha   90.01084474
_cell_angle_beta   90.00112491
_cell_angle_gamma   89.91692693
_symmetry_Int_Tables_number   1
_chemical_formula_structural   Nd6HoEr13Pt16
_chemical_formula_sum   'Nd6 Ho1 Er13 Pt16'
_cell_volume   847.60106833
_cell_formula_units_Z   1
loop_
 _symmetry_equiv_pos_site_id
 _symmetry_equiv_pos_as_xyz
  1  'x, y, z'
loop_
 _atom_site_type_symbol
 _atom_site_label
 _atom_site_symmetry_multiplicity
 _atom_site_fract_x
 _atom_site_fract_y
 _atom_site_fract_z
 _atom_site_occupancy
  Nd  Nd0  1  0.499429  0.678769  0.093891  1
  Nd  Nd1  1  0.500387  0.322791  0.593912  1
  Nd  Nd2  1  0.000096  0.176005  0.907328  1
  Nd  Nd3  1  0.999547  0.175254  0.592451  1
  Nd  Nd4  1  0.500600  0.322796  0.906087  1
  Nd  Nd5  1  0.499380  0.678887  0.406461  1
  Ho  Ho6  1  0.998307  0.820523  0.094625  1
  Er  Er7  1  0.681958  0.990664  0.250265  1
  Er  Er8  1  0.179842  0.510545  0.250287  1
  Er  Er9  1  0.820111  0.490673  0.749835  1
  Er  Er10  1  0.319369  0.009270  0.749990  1
  Er  Er11  1  0.656655  0.832608  0.622946  1
  Er  Er12  1  0.154954  0.668529  0.877345  1
  Er  Er13  1  0.844246  0.331396  0.376404  1
  Er  Er14  1  0.341835  0.166431  0.123475  1
  Er  Er15  1  0.341626  0.166268  0.376978  1
  Er  Er16  1  0.844385  0.331402  0.123861  1
  Er  Er17  1  0.154479  0.668921  0.622330  1
  Er  Er18  1  0.656837  0.832471  0.877039  1
  Er  Er19  1  0.997554  0.819700  0.405231  1
  Pt  Pt20  1  0.820325  0.642604  0.251026  1
  Pt  Pt21  1  0.312243  0.861569  0.250461  1
  Pt  Pt22  1  0.684673  0.138280  0.749684  1
  Pt  Pt23  1  0.184672  0.362005  0.749601  1
  Pt  Pt24  1  0.548348  0.380448  0.250269  1
  Pt  Pt25  1  0.045673  0.116612  0.250536  1
  Pt  Pt26  1  0.952902  0.879052  0.749825  1
  Pt  Pt27  1  0.452963  0.621086  0.749738  1
  Pt  Pt28  1  0.821169  0.539214  0.541152  1
  Pt  Pt29  1  0.319932  0.962572  0.958457  1
  Pt  Pt30  1  0.686172  0.031860  0.456187  1
  Pt  Pt31  1  0.177515  0.467815  0.044018  1
  Pt  Pt32  1  0.176913  0.469284  0.455505  1
  Pt  Pt33  1  0.684029  0.033391  0.043504  1
  Pt  Pt34  1  0.319743  0.962189  0.541069  1
  Pt  Pt35  1  0.821131  0.538116  0.958225  1
