# generated using pymatgen
data_Y5Lu5Si5Sn
_symmetry_space_group_name_H-M   'P 1'
_cell_length_a   8.42439476
_cell_length_b   8.45986140
_cell_length_c   6.27338300
_cell_angle_alpha   90.00000000
_cell_angle_beta   90.00000000
_cell_angle_gamma   119.96954542
_symmetry_Int_Tables_number   1
_chemical_formula_structural   Y5Lu5Si5Sn
_chemical_formula_sum   'Y5 Lu5 Si5 Sn1'
_cell_volume   387.31791600
_cell_formula_units_Z   1
loop_
 _symmetry_equiv_pos_site_id
 _symmetry_equiv_pos_as_xyz
  1  'x, y, z'
loop_
 _atom_site_type_symbol
 _atom_site_label
 _atom_site_symmetry_multiplicity
 _atom_site_fract_x
 _atom_site_fract_y
 _atom_site_fract_z
 _atom_site_occupancy
  Y  Y0  1  0.998719  0.244809  0.250000  1
  Y  Y1  1  0.755675  0.756267  0.250000  1
  Y  Y2  1  0.764816  0.999598  0.750000  1
  Y  Y3  1  0.241466  0.251375  0.750000  1
  Y  Y4  1  0.241227  0.999309  0.250000  1
  Lu  Lu5  1  0.989164  0.747068  0.750000  1
  Lu  Lu6  1  0.331191  0.657970  0.497271  1
  Lu  Lu7  1  0.673892  0.342585  0.002513  1
  Lu  Lu8  1  0.673892  0.342585  0.497487  1
  Lu  Lu9  1  0.331191  0.657970  0.002729  1
  Si  Si10  1  0.395465  0.394072  0.250000  1
  Si  Si11  1  0.001159  0.605371  0.250000  1
  Si  Si12  1  0.998399  0.397736  0.750000  1
  Si  Si13  1  0.605158  0.604834  0.750000  1
  Si  Si14  1  0.603783  0.999736  0.250000  1
  Sn  Sn15  1  0.394803  0.998714  0.750000  1
