# generated using pymatgen
data_PaMoBr10
_symmetry_space_group_name_H-M   'P 1'
_cell_length_a   11.63537600
_cell_length_b   9.12934379
_cell_length_c   13.03823626
_cell_angle_alpha   45.33895974
_cell_angle_beta   90.00000000
_cell_angle_gamma   90.00000000
_symmetry_Int_Tables_number   1
_chemical_formula_structural   PaMoBr10
_chemical_formula_sum   'Pa2 Mo2 Br20'
_cell_volume   985.09465497
_cell_formula_units_Z   2
loop_
 _symmetry_equiv_pos_site_id
 _symmetry_equiv_pos_as_xyz
  1  'x, y, z'
loop_
 _atom_site_type_symbol
 _atom_site_label
 _atom_site_symmetry_multiplicity
 _atom_site_fract_x
 _atom_site_fract_y
 _atom_site_fract_z
 _atom_site_occupancy
  Pa  Pa0  1  0.625270  0.191906  0.354297  1
  Pa  Pa1  1  0.125270  0.808094  0.145703  1
  Mo  Mo2  1  0.365075  0.790889  0.658007  1
  Mo  Mo3  1  0.865075  0.209111  0.841993  1
  Br  Br4  1  0.157453  0.808165  0.643216  1
  Br  Br5  1  0.657453  0.191835  0.856784  1
  Br  Br6  1  0.854036  0.159290  0.379733  1
  Br  Br7  1  0.354036  0.840710  0.120267  1
  Br  Br8  1  0.106720  0.192651  0.851790  1
  Br  Br9  1  0.606720  0.807349  0.648210  1
  Br  Br10  1  0.880856  0.829857  0.131337  1
  Br  Br11  1  0.380856  0.170143  0.368663  1
  Br  Br12  1  0.117859  0.446864  0.421603  1
  Br  Br13  1  0.617859  0.553136  0.078397  1
  Br  Br14  1  0.869954  0.535433  0.593040  1
  Br  Br15  1  0.369954  0.464567  0.906960  1
  Br  Br16  1  0.123167  0.007299  0.227435  1
  Br  Br17  1  0.623167  0.992701  0.272565  1
  Br  Br18  1  0.887424  0.996659  0.794900  1
  Br  Br19  1  0.387424  0.003341  0.705100  1
  Br  Br20  1  0.120794  0.612854  0.060854  1
  Br  Br21  1  0.620794  0.387146  0.439146  1
  Br  Br22  1  0.891392  0.349512  0.943583  1
  Br  Br23  1  0.391392  0.650488  0.556417  1
