# generated using pymatgen
data_Y20Cd3Ni2Au3
_symmetry_space_group_name_H-M   'P 1'
_cell_length_a   9.66334000
_cell_length_b   9.66337441
_cell_length_c   9.57425400
_cell_angle_alpha   90.00000000
_cell_angle_beta   90.00000000
_cell_angle_gamma   120.00239803
_symmetry_Int_Tables_number   1
_chemical_formula_structural   Y20Cd3Ni2Au3
_chemical_formula_sum   'Y20 Cd3 Ni2 Au3'
_cell_volume   774.24988366
_cell_formula_units_Z   1
loop_
 _symmetry_equiv_pos_site_id
 _symmetry_equiv_pos_as_xyz
  1  'x, y, z'
loop_
 _atom_site_type_symbol
 _atom_site_label
 _atom_site_symmetry_multiplicity
 _atom_site_fract_x
 _atom_site_fract_y
 _atom_site_fract_z
 _atom_site_occupancy
  Y  Y0  1  0.000036  0.999977  0.459949  1
  Y  Y1  1  0.000036  0.999977  0.040051  1
  Y  Y2  1  0.542223  0.457694  0.250000  1
  Y  Y3  1  0.542285  0.084514  0.250000  1
  Y  Y4  1  0.915473  0.457795  0.250000  1
  Y  Y5  1  0.456610  0.543367  0.750000  1
  Y  Y6  1  0.456674  0.913289  0.750000  1
  Y  Y7  1  0.086704  0.543344  0.750000  1
  Y  Y8  1  0.209545  0.790492  0.436803  1
  Y  Y9  1  0.209492  0.419035  0.436777  1
  Y  Y10  1  0.580967  0.790461  0.436775  1
  Y  Y11  1  0.790971  0.209023  0.560256  1
  Y  Y12  1  0.790959  0.581954  0.560256  1
  Y  Y13  1  0.418051  0.209038  0.560253  1
  Y  Y14  1  0.790971  0.209023  0.939744  1
  Y  Y15  1  0.790959  0.581954  0.939744  1
  Y  Y16  1  0.418051  0.209038  0.939747  1
  Y  Y17  1  0.209545  0.790492  0.063197  1
  Y  Y18  1  0.209492  0.419035  0.063223  1
  Y  Y19  1  0.580967  0.790461  0.063225  1
  Cd  Cd20  1  0.109884  0.890123  0.750000  1
  Cd  Cd21  1  0.109886  0.219748  0.750000  1
  Cd  Cd22  1  0.780256  0.890106  0.750000  1
  Ni  Ni23  1  0.333321  0.666681  0.250000  1
  Ni  Ni24  1  0.666669  0.333335  0.750000  1
  Au  Au25  1  0.869329  0.130694  0.250000  1
  Au  Au26  1  0.869268  0.738632  0.250000  1
  Au  Au27  1  0.261378  0.130720  0.250000  1
