# generated using pymatgen
data_TiBe3GaTc
_symmetry_space_group_name_H-M   'P 1'
_cell_length_a   4.55553623
_cell_length_b   4.55553673
_cell_length_c   4.59415557
_cell_angle_alpha   89.99999973
_cell_angle_beta   60.27770079
_cell_angle_gamma   120.00000564
_symmetry_Int_Tables_number   1
_chemical_formula_structural   TiBe3GaTc
_chemical_formula_sum   'Ti1 Be3 Ga1 Tc1'
_cell_volume   67.69864114
_cell_formula_units_Z   1
loop_
 _symmetry_equiv_pos_site_id
 _symmetry_equiv_pos_as_xyz
  1  'x, y, z'
loop_
 _atom_site_type_symbol
 _atom_site_label
 _atom_site_symmetry_multiplicity
 _atom_site_fract_x
 _atom_site_fract_y
 _atom_site_fract_z
 _atom_site_occupancy
  Ti  Ti0  1  0.996515  0.998258  0.005227  1
  Be  Be1  1  0.248826  0.375145  0.376028  1
  Be  Be2  1  0.248826  0.873681  0.376028  1
  Be  Be3  1  0.750290  0.375145  0.376028  1
  Ga  Ga4  1  0.750237  0.375118  0.874645  1
  Tc  Tc5  1  0.505305  0.752652  0.742043  1
