# generated using pymatgen
data_LaTmCo5B2
_symmetry_space_group_name_H-M   'P 1'
_cell_length_a   5.10829000
_cell_length_b   5.10829093
_cell_length_c   20.19723300
_cell_angle_alpha   90.00000000
_cell_angle_beta   90.00000000
_cell_angle_gamma   120.02526536
_symmetry_Int_Tables_number   1
_chemical_formula_structural   LaTmCo5B2
_chemical_formula_sum   'La4 Tm4 Co20 B8'
_cell_volume   456.31322062
_cell_formula_units_Z   4
loop_
 _symmetry_equiv_pos_site_id
 _symmetry_equiv_pos_as_xyz
  1  'x, y, z'
loop_
 _atom_site_type_symbol
 _atom_site_label
 _atom_site_symmetry_multiplicity
 _atom_site_fract_x
 _atom_site_fract_y
 _atom_site_fract_z
 _atom_site_occupancy
  La  La0  1  0.666632  0.333368  0.522567  1
  La  La1  1  0.333368  0.666632  0.477433  1
  La  La2  1  0.333368  0.666632  0.022567  1
  La  La3  1  0.666632  0.333368  0.977433  1
  Tm  Tm4  1  0.666740  0.333260  0.676166  1
  Tm  Tm5  1  0.333260  0.666740  0.323834  1
  Tm  Tm6  1  0.333260  0.666740  0.176166  1
  Tm  Tm7  1  0.666740  0.333260  0.823834  1
  Co  Co8  1  0.000000  0.000000  0.500000  1
  Co  Co9  1  0.000000  0.000000  0.000000  1
  Co  Co10  1  0.167835  0.335365  0.750000  1
  Co  Co11  1  0.167827  0.832173  0.750000  1
  Co  Co12  1  0.664635  0.832165  0.750000  1
  Co  Co13  1  0.832165  0.664635  0.250000  1
  Co  Co14  1  0.832173  0.167827  0.250000  1
  Co  Co15  1  0.335365  0.167835  0.250000  1
  Co  Co16  1  0.161046  0.322022  0.609799  1
  Co  Co17  1  0.161017  0.838983  0.609809  1
  Co  Co18  1  0.677978  0.838955  0.609799  1
  Co  Co19  1  0.838955  0.677978  0.390201  1
  Co  Co20  1  0.838983  0.161017  0.390191  1
  Co  Co21  1  0.322022  0.161046  0.390201  1
  Co  Co22  1  0.838955  0.677978  0.109799  1
  Co  Co23  1  0.838983  0.161017  0.109809  1
  Co  Co24  1  0.322022  0.161046  0.109799  1
  Co  Co25  1  0.161046  0.322022  0.890201  1
  Co  Co26  1  0.161017  0.838983  0.890191  1
  Co  Co27  1  0.677978  0.838955  0.890201  1
  B  B28  1  0.000023  0.999977  0.679462  1
  B  B29  1  0.999977  0.000023  0.320538  1
  B  B30  1  0.999977  0.000023  0.179462  1
  B  B31  1  0.000023  0.999977  0.820538  1
  B  B32  1  0.666600  0.333400  0.323978  1
  B  B33  1  0.333400  0.666600  0.676022  1
  B  B34  1  0.333400  0.666600  0.823978  1
  B  B35  1  0.666600  0.333400  0.176022  1
