# generated using pymatgen
data_Pr16Ho4Si15Ge
_symmetry_space_group_name_H-M   'P 1'
_cell_length_a   7.85892207
_cell_length_b   7.84494141
_cell_length_c   15.36036200
_cell_angle_alpha   90.04066607
_cell_angle_beta   89.88413867
_cell_angle_gamma   89.91607715
_symmetry_Int_Tables_number   1
_chemical_formula_structural   Pr16Ho4Si15Ge
_chemical_formula_sum   'Pr16 Ho4 Si15 Ge1'
_cell_volume   947.00587492
_cell_formula_units_Z   1
loop_
 _symmetry_equiv_pos_site_id
 _symmetry_equiv_pos_as_xyz
  1  'x, y, z'
loop_
 _atom_site_type_symbol
 _atom_site_label
 _atom_site_symmetry_multiplicity
 _atom_site_fract_x
 _atom_site_fract_y
 _atom_site_fract_z
 _atom_site_occupancy
  Pr  Pr0  1  0.379101  0.013405  0.444936  1
  Pr  Pr1  1  0.488482  0.877339  0.694949  1
  Pr  Pr2  1  0.512975  0.120783  0.194687  1
  Pr  Pr3  1  0.879196  0.486737  0.305026  1
  Pr  Pr4  1  0.120676  0.514567  0.805803  1
  Pr  Pr5  1  0.621694  0.986151  0.945331  1
  Pr  Pr6  1  0.011743  0.380740  0.553791  1
  Pr  Pr7  1  0.986771  0.620857  0.055330  1
  Pr  Pr8  1  0.125200  0.976097  0.879059  1
  Pr  Pr9  1  0.524336  0.624855  0.128509  1
  Pr  Pr10  1  0.476993  0.376297  0.628599  1
  Pr  Pr11  1  0.625412  0.525247  0.871958  1
  Pr  Pr12  1  0.375121  0.475648  0.371399  1
  Pr  Pr13  1  0.874967  0.024073  0.378562  1
  Pr  Pr14  1  0.975870  0.125205  0.121511  1
  Pr  Pr15  1  0.022474  0.872716  0.620920  1
  Ho  Ho16  1  0.308909  0.308767  0.000079  1
  Ho  Ho17  1  0.190887  0.808826  0.249910  1
  Ho  Ho18  1  0.805561  0.190947  0.750691  1
  Ho  Ho19  1  0.690278  0.691086  0.499507  1
  Si  Si20  1  0.327027  0.686995  0.958894  1
  Si  Si21  1  0.672342  0.312916  0.458522  1
  Si  Si22  1  0.687353  0.327314  0.041510  1
  Si  Si23  1  0.313055  0.672906  0.541352  1
  Si  Si24  1  0.812952  0.827142  0.208559  1
  Si  Si25  1  0.172688  0.187063  0.291400  1
  Si  Si26  1  0.828340  0.813064  0.791516  1
  Si  Si27  1  0.286033  0.920546  0.063573  1
  Si  Si28  1  0.579551  0.786388  0.313414  1
  Si  Si29  1  0.424092  0.213596  0.815015  1
  Si  Si30  1  0.786528  0.579134  0.686682  1
  Si  Si31  1  0.214001  0.420387  0.186509  1
  Si  Si32  1  0.713612  0.079803  0.563575  1
  Si  Si33  1  0.920834  0.286433  0.936562  1
  Si  Si34  1  0.079795  0.713837  0.436340  1
  Ge  Ge35  1  0.185153  0.172134  0.706025  1
