# generated using pymatgen
data_EuDyHoSbO7
_symmetry_space_group_name_H-M   'P 1'
_cell_length_a   6.49127500
_cell_length_b   6.49127450
_cell_length_c   7.56577700
_cell_angle_alpha   90.00000000
_cell_angle_beta   90.00000000
_cell_angle_gamma   108.72680472
_symmetry_Int_Tables_number   1
_chemical_formula_structural   EuDyHoSbO7
_chemical_formula_sum   'Eu2 Dy2 Ho2 Sb2 O14'
_cell_volume   301.91945370
_cell_formula_units_Z   2
loop_
 _symmetry_equiv_pos_site_id
 _symmetry_equiv_pos_as_xyz
  1  'x, y, z'
loop_
 _atom_site_type_symbol
 _atom_site_label
 _atom_site_symmetry_multiplicity
 _atom_site_fract_x
 _atom_site_fract_y
 _atom_site_fract_z
 _atom_site_occupancy
  Eu  Eu0  1  0.499840  0.499840  0.500000  1
  Eu  Eu1  1  0.499840  0.499840  0.000000  1
  Dy  Dy2  1  0.531731  0.000344  0.750000  1
  Dy  Dy3  1  0.000344  0.531731  0.250000  1
  Ho  Ho4  1  0.468575  0.999435  0.250000  1
  Ho  Ho5  1  0.999435  0.468575  0.750000  1
  Sb  Sb6  1  0.999887  0.999887  0.500000  1
  Sb  Sb7  1  0.999887  0.999887  0.000000  1
  O  O8  1  0.679797  0.933763  0.469344  1
  O  O9  1  0.933763  0.679797  0.530656  1
  O  O10  1  0.679797  0.933763  0.030656  1
  O  O11  1  0.933763  0.679797  0.969344  1
  O  O12  1  0.320374  0.066361  0.529395  1
  O  O13  1  0.066361  0.320374  0.470605  1
  O  O14  1  0.320374  0.066361  0.970605  1
  O  O15  1  0.066361  0.320374  0.029395  1
  O  O16  1  0.930315  0.070099  0.750000  1
  O  O17  1  0.070099  0.930315  0.250000  1
  O  O18  1  0.364832  0.633064  0.750000  1
  O  O19  1  0.633064  0.364832  0.250000  1
  O  O20  1  0.640577  0.360984  0.750000  1
  O  O21  1  0.360984  0.640577  0.250000  1
