# generated using pymatgen
data_Ca2La(B3Ir4)2
_symmetry_space_group_name_H-M   'P 1'
_cell_length_a   9.96112010
_cell_length_b   9.08604221
_cell_length_c   5.68147230
_cell_angle_alpha   81.30305625
_cell_angle_beta   64.37748030
_cell_angle_gamma   34.31947386
_symmetry_Int_Tables_number   1
_chemical_formula_structural   Ca2La(B3Ir4)2
_chemical_formula_sum   'Ca2 La1 B6 Ir8'
_cell_volume   238.99566927
_cell_formula_units_Z   1
loop_
 _symmetry_equiv_pos_site_id
 _symmetry_equiv_pos_as_xyz
  1  'x, y, z'
loop_
 _atom_site_type_symbol
 _atom_site_label
 _atom_site_symmetry_multiplicity
 _atom_site_fract_x
 _atom_site_fract_y
 _atom_site_fract_z
 _atom_site_occupancy
  Ca  Ca0  1  0.316318  0.316318  0.683682  1
  Ca  Ca1  1  0.683682  0.683682  0.316318  1
  La  La2  1  0.500000  0.500000  0.500000  1
  B  B3  1  0.669736  0.984008  0.015992  1
  B  B4  1  0.984008  0.669736  0.330264  1
  B  B5  1  0.330264  0.015992  0.984008  1
  B  B6  1  0.015992  0.330264  0.669736  1
  B  B7  1  0.167892  0.832108  0.167892  1
  B  B8  1  0.832108  0.167892  0.832108  1
  Ir  Ir9  1  0.585953  0.585953  0.914047  1
  Ir  Ir10  1  0.911987  0.911987  0.088013  1
  Ir  Ir11  1  0.414047  0.414047  0.085953  1
  Ir  Ir12  1  0.085953  0.085953  0.414047  1
  Ir  Ir13  1  0.914047  0.914047  0.585953  1
  Ir  Ir14  1  0.250000  0.250000  0.250000  1
  Ir  Ir15  1  0.088013  0.088013  0.911987  1
  Ir  Ir16  1  0.750000  0.750000  0.750000  1
