# generated using pymatgen
data_MgSi4(PdRh2)2
_symmetry_space_group_name_H-M   'P 1'
_cell_length_a   7.14826116
_cell_length_b   7.21271525
_cell_length_c   3.63066100
_cell_angle_alpha   90.00000000
_cell_angle_beta   90.00000000
_cell_angle_gamma   120.29871950
_symmetry_Int_Tables_number   1
_chemical_formula_structural   MgSi4(PdRh2)2
_chemical_formula_sum   'Mg1 Si4 Pd2 Rh4'
_cell_volume   161.62196247
_cell_formula_units_Z   1
loop_
 _symmetry_equiv_pos_site_id
 _symmetry_equiv_pos_as_xyz
  1  'x, y, z'
loop_
 _atom_site_type_symbol
 _atom_site_label
 _atom_site_symmetry_multiplicity
 _atom_site_fract_x
 _atom_site_fract_y
 _atom_site_fract_z
 _atom_site_occupancy
  Mg  Mg0  1  0.997321  0.998661  0.000000  1
  Si  Si1  1  0.795814  0.194435  0.500000  1
  Si  Si2  1  0.404487  0.202244  0.500000  1
  Si  Si3  1  0.344216  0.672109  0.000000  1
  Si  Si4  1  0.795814  0.601378  0.500000  1
  Pd  Pd5  1  0.189470  0.810027  0.500000  1
  Pd  Pd6  1  0.189470  0.379444  0.500000  1
  Rh  Rh7  1  0.532233  0.068403  0.000000  1
  Rh  Rh8  1  0.933970  0.466985  0.000000  1
  Rh  Rh9  1  0.532233  0.463829  0.000000  1
  Rh  Rh10  1  0.618305  0.809153  0.500000  1
