# generated using pymatgen
data_Dy5YB14RuW
_symmetry_space_group_name_H-M   'P 1'
_cell_length_a   8.13082002
_cell_length_b   8.13081966
_cell_length_c   9.40765200
_cell_angle_alpha   90.00000000
_cell_angle_beta   90.00000000
_cell_angle_gamma   155.11868767
_symmetry_Int_Tables_number   1
_chemical_formula_structural   Dy5YB14RuW
_chemical_formula_sum   'Dy5 Y1 B14 Ru1 W1'
_cell_volume   261.67586568
_cell_formula_units_Z   1
loop_
 _symmetry_equiv_pos_site_id
 _symmetry_equiv_pos_as_xyz
  1  'x, y, z'
loop_
 _atom_site_type_symbol
 _atom_site_label
 _atom_site_symmetry_multiplicity
 _atom_site_fract_x
 _atom_site_fract_y
 _atom_site_fract_z
 _atom_site_occupancy
  Dy  Dy0  1  0.894087  0.105913  0.437321  1
  Dy  Dy1  1  0.107056  0.892944  0.558483  1
  Dy  Dy2  1  0.894087  0.105913  0.062679  1
  Dy  Dy3  1  0.107056  0.892944  0.941517  1
  Dy  Dy4  1  0.243191  0.756809  0.250000  1
  Y  Y5  1  0.754613  0.245387  0.750000  1
  B  B6  1  0.726538  0.273462  0.465140  1
  B  B7  1  0.272039  0.727961  0.531622  1
  B  B8  1  0.726538  0.273462  0.034860  1
  B  B9  1  0.272039  0.727961  0.968378  1
  B  B10  1  0.631587  0.368413  0.151591  1
  B  B11  1  0.365296  0.634704  0.853004  1
  B  B12  1  0.631587  0.368413  0.348409  1
  B  B13  1  0.365296  0.634704  0.646996  1
  B  B14  1  0.521322  0.478678  0.096677  1
  B  B15  1  0.480351  0.519649  0.909065  1
  B  B16  1  0.521322  0.478678  0.403323  1
  B  B17  1  0.480351  0.519649  0.590935  1
  B  B18  1  0.458832  0.541168  0.250000  1
  B  B19  1  0.545147  0.454853  0.750000  1
  Ru  Ru20  1  0.054377  0.945623  0.250000  1
  W  W21  1  0.947288  0.052712  0.750000  1
