# generated using pymatgen
data_NdEu3Ga4PdPt3
_symmetry_space_group_name_H-M   'P 1'
_cell_length_a   4.44631100
_cell_length_b   7.30766711
_cell_length_c   7.90629770
_cell_angle_alpha   89.96432027
_cell_angle_beta   90.00000000
_cell_angle_gamma   90.00000000
_symmetry_Int_Tables_number   1
_chemical_formula_structural   NdEu3Ga4PdPt3
_chemical_formula_sum   'Nd1 Eu3 Ga4 Pd1 Pt3'
_cell_volume   256.89264547
_cell_formula_units_Z   1
loop_
 _symmetry_equiv_pos_site_id
 _symmetry_equiv_pos_as_xyz
  1  'x, y, z'
loop_
 _atom_site_type_symbol
 _atom_site_label
 _atom_site_symmetry_multiplicity
 _atom_site_fract_x
 _atom_site_fract_y
 _atom_site_fract_z
 _atom_site_occupancy
  Nd  Nd0  1  0.750000  0.476175  0.188931  1
  Eu  Eu1  1  0.250000  0.023569  0.689547  1
  Eu  Eu2  1  0.250000  0.519916  0.810026  1
  Eu  Eu3  1  0.750000  0.981123  0.311450  1
  Ga  Ga4  1  0.250000  0.157266  0.072743  1
  Ga  Ga5  1  0.250000  0.661993  0.426614  1
  Ga  Ga6  1  0.750000  0.842191  0.929605  1
  Ga  Ga7  1  0.750000  0.337285  0.572970  1
  Pd  Pd8  1  0.750000  0.709280  0.604418  1
  Pt  Pt9  1  0.250000  0.292109  0.390610  1
  Pt  Pt10  1  0.250000  0.782365  0.108387  1
  Pt  Pt11  1  0.750000  0.216727  0.894698  1
