# generated using pymatgen
data_Ba6PdAu
_symmetry_space_group_name_H-M   'P 1'
_cell_length_a   7.98772200
_cell_length_b   7.98772135
_cell_length_c   7.63269400
_cell_angle_alpha   90.00000000
_cell_angle_beta   90.00000000
_cell_angle_gamma   119.99999440
_symmetry_Int_Tables_number   1
_chemical_formula_structural   Ba6PdAu
_chemical_formula_sum   'Ba6 Pd1 Au1'
_cell_volume   421.74928561
_cell_formula_units_Z   1
loop_
 _symmetry_equiv_pos_site_id
 _symmetry_equiv_pos_as_xyz
  1  'x, y, z'
loop_
 _atom_site_type_symbol
 _atom_site_label
 _atom_site_symmetry_multiplicity
 _atom_site_fract_x
 _atom_site_fract_y
 _atom_site_fract_z
 _atom_site_occupancy
  Ba  Ba0  1  0.340961  0.003671  0.992612  1
  Ba  Ba1  1  0.996329  0.337290  0.992612  1
  Ba  Ba2  1  0.662711  0.659039  0.992612  1
  Ba  Ba3  1  0.662710  0.003671  0.507388  1
  Ba  Ba4  1  0.340961  0.337290  0.507388  1
  Ba  Ba5  1  0.996329  0.659039  0.507388  1
  Pd  Pd6  1  0.666667  0.333333  0.749999  1
  Au  Au7  1  0.333333  0.666666  0.250000  1
