# generated using pymatgen
data_YHo2Lu7Ru4
_symmetry_space_group_name_H-M   'P 1'
_cell_length_a   6.22122100
_cell_length_b   7.23388705
_cell_length_c   8.31988724
_cell_angle_alpha   97.16114880
_cell_angle_beta   111.84492730
_cell_angle_gamma   89.79987876
_symmetry_Int_Tables_number   1
_chemical_formula_structural   YHo2Lu7Ru4
_chemical_formula_sum   'Y1 Ho2 Lu7 Ru4'
_cell_volume   344.45393765
_cell_formula_units_Z   1
loop_
 _symmetry_equiv_pos_site_id
 _symmetry_equiv_pos_as_xyz
  1  'x, y, z'
loop_
 _atom_site_type_symbol
 _atom_site_label
 _atom_site_symmetry_multiplicity
 _atom_site_fract_x
 _atom_site_fract_y
 _atom_site_fract_z
 _atom_site_occupancy
  Y  Y0  1  0.522358  0.082032  0.810246  1
  Ho  Ho1  1  0.476879  0.916887  0.188792  1
  Ho  Ho2  1  0.710596  0.417076  0.187782  1
  Lu  Lu3  1  0.290861  0.584033  0.812706  1
  Lu  Lu4  1  0.298261  0.316297  0.434152  1
  Lu  Lu5  1  0.702828  0.684850  0.566345  1
  Lu  Lu6  1  0.864760  0.185123  0.565914  1
  Lu  Lu7  1  0.135565  0.813626  0.434263  1
  Lu  Lu8  1  0.080408  0.251129  0.999557  1
  Lu  Lu9  1  0.919894  0.749077  0.999772  1
  Ru  Ru10  1  0.319877  0.577071  0.221009  1
  Ru  Ru11  1  0.679296  0.425540  0.778686  1
  Ru  Ru12  1  0.095499  0.920807  0.777780  1
  Ru  Ru13  1  0.902920  0.076451  0.222996  1
