# generated using pymatgen
data_Dy3Mg2CdPb2Au
_symmetry_space_group_name_H-M   'P 1'
_cell_length_a   7.58474100
_cell_length_b   7.54336634
_cell_length_c   4.55986400
_cell_angle_alpha   90.00000000
_cell_angle_beta   90.00000000
_cell_angle_gamma   120.18161012
_symmetry_Int_Tables_number   1
_chemical_formula_structural   Dy3Mg2CdPb2Au
_chemical_formula_sum   'Dy3 Mg2 Cd1 Pb2 Au1'
_cell_volume   225.52297639
_cell_formula_units_Z   1
loop_
 _symmetry_equiv_pos_site_id
 _symmetry_equiv_pos_as_xyz
  1  'x, y, z'
loop_
 _atom_site_type_symbol
 _atom_site_label
 _atom_site_symmetry_multiplicity
 _atom_site_fract_x
 _atom_site_fract_y
 _atom_site_fract_z
 _atom_site_occupancy
  Dy  Dy0  1  0.593325  0.000000  0.000000  1
  Dy  Dy1  1  0.002412  0.598688  0.000000  1
  Dy  Dy2  1  0.403724  0.401312  0.000000  1
  Mg  Mg3  1  0.000678  0.230748  0.500000  1
  Mg  Mg4  1  0.769930  0.769252  0.500000  1
  Cd  Cd5  1  0.235081  0.000000  0.500000  1
  Pb  Pb6  1  0.334681  0.662852  0.500000  1
  Pb  Pb7  1  0.671829  0.337148  0.500000  1
  Au  Au8  1  0.988340  0.000000  0.000000  1
