# generated using pymatgen
data_Zr3Sc2P12Ru19
_symmetry_space_group_name_H-M   'P 1'
_cell_length_a   12.41954400
_cell_length_b   12.41954447
_cell_length_c   3.92839400
_cell_angle_alpha   90.00000000
_cell_angle_beta   90.00000000
_cell_angle_gamma   120.06443953
_symmetry_Int_Tables_number   1
_chemical_formula_structural   Zr3Sc2P12Ru19
_chemical_formula_sum   'Zr3 Sc2 P12 Ru19'
_cell_volume   524.41441221
_cell_formula_units_Z   1
loop_
 _symmetry_equiv_pos_site_id
 _symmetry_equiv_pos_as_xyz
  1  'x, y, z'
loop_
 _atom_site_type_symbol
 _atom_site_label
 _atom_site_symmetry_multiplicity
 _atom_site_fract_x
 _atom_site_fract_y
 _atom_site_fract_z
 _atom_site_occupancy
  Zr  Zr0  1  0.187249  0.187249  0.500000  1
  Zr  Zr1  1  0.332253  0.665231  0.000000  1
  Zr  Zr2  1  0.665231  0.332253  0.000000  1
  Sc  Sc3  1  0.813229  0.000494  0.500000  1
  Sc  Sc4  1  0.000494  0.813229  0.500000  1
  P  P5  1  0.817896  0.817896  0.000000  1
  P  P6  1  0.180584  0.999613  0.000000  1
  P  P7  1  0.999613  0.180584  0.000000  1
  P  P8  1  0.172462  0.478539  0.500000  1
  P  P9  1  0.522121  0.695129  0.500000  1
  P  P10  1  0.305335  0.827566  0.500000  1
  P  P11  1  0.695129  0.522121  0.500000  1
  P  P12  1  0.827566  0.305335  0.500000  1
  P  P13  1  0.478539  0.172462  0.500000  1
  P  P14  1  0.370473  0.370473  0.000000  1
  P  P15  1  0.629152  0.000148  0.000000  1
  P  P16  1  0.000148  0.629152  0.000000  1
  Ru  Ru17  1  0.554612  0.554612  0.000000  1
  Ru  Ru18  1  0.445592  0.001996  0.000000  1
  Ru  Ru19  1  0.001996  0.445592  0.000000  1
  Ru  Ru20  1  0.720963  0.720963  0.500000  1
  Ru  Ru21  1  0.279955  0.001110  0.500000  1
  Ru  Ru22  1  0.001110  0.279955  0.500000  1
  Ru  Ru23  1  0.184927  0.373244  0.000000  1
  Ru  Ru24  1  0.624055  0.809693  0.000000  1
  Ru  Ru25  1  0.190120  0.815253  0.000000  1
  Ru  Ru26  1  0.809693  0.624055  0.000000  1
  Ru  Ru27  1  0.815253  0.190120  0.000000  1
  Ru  Ru28  1  0.373244  0.184927  0.000000  1
  Ru  Ru29  1  0.366363  0.494842  0.500000  1
  Ru  Ru30  1  0.505057  0.872469  0.500000  1
  Ru  Ru31  1  0.128523  0.633922  0.500000  1
  Ru  Ru32  1  0.872469  0.505057  0.500000  1
  Ru  Ru33  1  0.633922  0.128523  0.500000  1
  Ru  Ru34  1  0.494842  0.366363  0.500000  1
  Ru  Ru35  1  0.999834  0.999834  0.000000  1
