# generated using pymatgen
data_Hf3Be2SiIr
_symmetry_space_group_name_H-M   'P 1'
_cell_length_a   3.71301600
_cell_length_b   10.23374800
_cell_length_c   11.36179800
_cell_angle_alpha   90.00000000
_cell_angle_beta   90.00000000
_cell_angle_gamma   90.00000000
_symmetry_Int_Tables_number   1
_chemical_formula_structural   Hf3Be2SiIr
_chemical_formula_sum   'Hf12 Be8 Si4 Ir4'
_cell_volume   431.72639646
_cell_formula_units_Z   4
loop_
 _symmetry_equiv_pos_site_id
 _symmetry_equiv_pos_as_xyz
  1  'x, y, z'
loop_
 _atom_site_type_symbol
 _atom_site_label
 _atom_site_symmetry_multiplicity
 _atom_site_fract_x
 _atom_site_fract_y
 _atom_site_fract_z
 _atom_site_occupancy
  Hf  Hf0  1  0.250000  0.876051  0.013845  1
  Hf  Hf1  1  0.250000  0.623949  0.513845  1
  Hf  Hf2  1  0.750000  0.123949  0.986155  1
  Hf  Hf3  1  0.750000  0.376051  0.486155  1
  Hf  Hf4  1  0.250000  0.921464  0.611852  1
  Hf  Hf5  1  0.250000  0.578536  0.111852  1
  Hf  Hf6  1  0.750000  0.078536  0.388148  1
  Hf  Hf7  1  0.750000  0.421464  0.888148  1
  Hf  Hf8  1  0.250000  0.658031  0.792099  1
  Hf  Hf9  1  0.250000  0.841969  0.292099  1
  Hf  Hf10  1  0.750000  0.341969  0.207901  1
  Hf  Hf11  1  0.750000  0.158031  0.707901  1
  Be  Be12  1  0.250000  0.028699  0.827862  1
  Be  Be13  1  0.250000  0.471301  0.327862  1
  Be  Be14  1  0.750000  0.971301  0.172138  1
  Be  Be15  1  0.750000  0.528699  0.672138  1
  Be  Be16  1  0.250000  0.245998  0.848255  1
  Be  Be17  1  0.250000  0.254002  0.348255  1
  Be  Be18  1  0.750000  0.754002  0.151745  1
  Be  Be19  1  0.750000  0.745998  0.651745  1
  Si  Si20  1  0.250000  0.185572  0.539388  1
  Si  Si21  1  0.250000  0.314428  0.039388  1
  Si  Si22  1  0.750000  0.814428  0.460612  1
  Si  Si23  1  0.750000  0.685572  0.960612  1
  Ir  Ir24  1  0.250000  0.390610  0.681676  1
  Ir  Ir25  1  0.250000  0.109390  0.181676  1
  Ir  Ir26  1  0.750000  0.609390  0.318324  1
  Ir  Ir27  1  0.750000  0.890610  0.818324  1
