# generated using pymatgen
data_Ce4ErTm5(MnBi2)2
_symmetry_space_group_name_H-M   'P 1'
_cell_length_a   7.89042442
_cell_length_b   9.01950300
_cell_length_c   12.07977300
_cell_angle_alpha   90.00000000
_cell_angle_beta   90.16922792
_cell_angle_gamma   90.00000000
_symmetry_Int_Tables_number   1
_chemical_formula_structural   Ce4ErTm5(MnBi2)2
_chemical_formula_sum   'Ce8 Er2 Tm10 Mn4 Bi8'
_cell_volume   859.68599202
_cell_formula_units_Z   2
loop_
 _symmetry_equiv_pos_site_id
 _symmetry_equiv_pos_as_xyz
  1  'x, y, z'
loop_
 _atom_site_type_symbol
 _atom_site_label
 _atom_site_symmetry_multiplicity
 _atom_site_fract_x
 _atom_site_fract_y
 _atom_site_fract_z
 _atom_site_occupancy
  Ce  Ce0  1  0.658161  0.008509  0.551918  1
  Ce  Ce1  1  0.341839  0.991491  0.448082  1
  Ce  Ce2  1  0.157749  0.991402  0.947924  1
  Ce  Ce3  1  0.341839  0.508509  0.448082  1
  Ce  Ce4  1  0.842251  0.008598  0.052076  1
  Ce  Ce5  1  0.658161  0.491491  0.551918  1
  Ce  Ce6  1  0.842251  0.491402  0.052076  1
  Ce  Ce7  1  0.157749  0.508598  0.947924  1
  Er  Er8  1  0.474886  0.250000  0.001606  1
  Er  Er9  1  0.525114  0.750000  0.998394  1
  Tm  Tm10  1  0.826207  0.750000  0.787777  1
  Tm  Tm11  1  0.173793  0.250000  0.212223  1
  Tm  Tm12  1  0.326542  0.250000  0.711230  1
  Tm  Tm13  1  0.673458  0.750000  0.288770  1
  Tm  Tm14  1  0.364475  0.750000  0.702931  1
  Tm  Tm15  1  0.635525  0.250000  0.297069  1
  Tm  Tm16  1  0.864272  0.250000  0.796178  1
  Tm  Tm17  1  0.135728  0.750000  0.203822  1
  Tm  Tm18  1  0.974554  0.750000  0.498652  1
  Tm  Tm19  1  0.025446  0.250000  0.501348  1
  Mn  Mn20  1  0.615113  0.750000  0.531772  1
  Mn  Mn21  1  0.384887  0.250000  0.468228  1
  Mn  Mn22  1  0.113342  0.250000  0.968491  1
  Mn  Mn23  1  0.886658  0.750000  0.031509  1
  Bi  Bi24  1  0.563066  0.491028  0.825116  1
  Bi  Bi25  1  0.436934  0.508972  0.174884  1
  Bi  Bi26  1  0.062960  0.508889  0.674415  1
  Bi  Bi27  1  0.436934  0.991028  0.174884  1
  Bi  Bi28  1  0.937040  0.491111  0.325585  1
  Bi  Bi29  1  0.563066  0.008972  0.825116  1
  Bi  Bi30  1  0.937040  0.008889  0.325585  1
  Bi  Bi31  1  0.062960  0.991111  0.674415  1
