# generated using pymatgen
data_Tb16In4Ru2PtRh
_symmetry_space_group_name_H-M   'P 1'
_cell_length_a   9.71588751
_cell_length_b   9.73706174
_cell_length_c   9.72834866
_cell_angle_alpha   59.97037119
_cell_angle_beta   59.93400262
_cell_angle_gamma   59.92788272
_symmetry_Int_Tables_number   1
_chemical_formula_structural   Tb16In4Ru2PtRh
_chemical_formula_sum   'Tb16 In4 Ru2 Pt1 Rh1'
_cell_volume   649.95499222
_cell_formula_units_Z   1
loop_
 _symmetry_equiv_pos_site_id
 _symmetry_equiv_pos_as_xyz
  1  'x, y, z'
loop_
 _atom_site_type_symbol
 _atom_site_label
 _atom_site_symmetry_multiplicity
 _atom_site_fract_x
 _atom_site_fract_y
 _atom_site_fract_z
 _atom_site_occupancy
  Tb  Tb0  1  0.810996  0.808726  0.185493  1
  Tb  Tb1  1  0.810684  0.189534  0.810248  1
  Tb  Tb2  1  0.188159  0.191403  0.811104  1
  Tb  Tb3  1  0.649940  0.047427  0.653254  1
  Tb  Tb4  1  0.061646  0.061071  0.441501  1
  Tb  Tb5  1  0.440616  0.436675  0.061844  1
  Tb  Tb6  1  0.649940  0.649380  0.653254  1
  Tb  Tb7  1  0.810996  0.194785  0.185493  1
  Tb  Tb8  1  0.188159  0.809334  0.811104  1
  Tb  Tb9  1  0.046836  0.649916  0.653331  1
  Tb  Tb10  1  0.440616  0.060865  0.061844  1
  Tb  Tb11  1  0.435979  0.062939  0.438143  1
  Tb  Tb12  1  0.058915  0.440941  0.059202  1
  Tb  Tb13  1  0.651411  0.651488  0.045612  1
  Tb  Tb14  1  0.194564  0.808863  0.187710  1
  Tb  Tb15  1  0.061646  0.435782  0.441501  1
  In  In16  1  0.418337  0.417439  0.418293  1
  In  In17  1  0.417579  0.417089  0.748241  1
  In  In18  1  0.418337  0.745932  0.418293  1
  In  In19  1  0.747560  0.417311  0.417816  1
  Ru  Ru20  1  0.857805  0.424656  0.857567  1
  Ru  Ru21  1  0.857805  0.859973  0.857567  1
  Pt  Pt22  1  0.857425  0.859264  0.424047  1
  Rh  Rh23  1  0.424048  0.859207  0.857539  1
