# generated using pymatgen
data_Nd8Dy12Sn15Sb
_symmetry_space_group_name_H-M   'P 1'
_cell_length_a   8.09342996
_cell_length_b   8.21876543
_cell_length_c   15.49801800
_cell_angle_alpha   90.03015800
_cell_angle_beta   90.26252950
_cell_angle_gamma   90.04267932
_symmetry_Int_Tables_number   1
_chemical_formula_structural   Nd8Dy12Sn15Sb
_chemical_formula_sum   'Nd8 Dy12 Sn15 Sb1'
_cell_volume   1030.88594601
_cell_formula_units_Z   1
loop_
 _symmetry_equiv_pos_site_id
 _symmetry_equiv_pos_as_xyz
  1  'x, y, z'
loop_
 _atom_site_type_symbol
 _atom_site_label
 _atom_site_symmetry_multiplicity
 _atom_site_fract_x
 _atom_site_fract_y
 _atom_site_fract_z
 _atom_site_occupancy
  Nd  Nd0  1  0.519753  0.321825  0.902136  1
  Nd  Nd1  1  0.017807  0.178941  0.597239  1
  Nd  Nd2  1  0.482169  0.678623  0.402450  1
  Nd  Nd3  1  0.978555  0.820973  0.098393  1
  Nd  Nd4  1  0.481024  0.678457  0.097544  1
  Nd  Nd5  1  0.982022  0.820985  0.402465  1
  Nd  Nd6  1  0.517983  0.320857  0.597320  1
  Nd  Nd7  1  0.018806  0.179370  0.901844  1
  Dy  Dy8  1  0.366752  0.836813  0.878612  1
  Dy  Dy9  1  0.865080  0.663736  0.622711  1
  Dy  Dy10  1  0.634874  0.163592  0.377168  1
  Dy  Dy11  1  0.133303  0.337063  0.122332  1
  Dy  Dy12  1  0.634729  0.163403  0.121460  1
  Dy  Dy13  1  0.135487  0.336291  0.377160  1
  Dy  Dy14  1  0.364831  0.836394  0.622530  1
  Dy  Dy15  1  0.865724  0.663451  0.877513  1
  Dy  Dy16  1  0.196918  0.502791  0.749689  1
  Dy  Dy17  1  0.696824  0.996900  0.750660  1
  Dy  Dy18  1  0.802882  0.497164  0.250591  1
  Dy  Dy19  1  0.303064  0.002423  0.250947  1
  Sn  Sn20  1  0.798619  0.460696  0.458069  1
  Sn  Sn21  1  0.701509  0.960589  0.541863  1
  Sn  Sn22  1  0.203010  0.538485  0.957996  1
  Sn  Sn23  1  0.707299  0.961837  0.957508  1
  Sn  Sn24  1  0.201339  0.539071  0.541797  1
  Sn  Sn25  1  0.298910  0.039057  0.457994  1
  Sn  Sn26  1  0.797226  0.461883  0.042336  1
  Sn  Sn27  1  0.563788  0.622569  0.750083  1
  Sn  Sn28  1  0.064673  0.877961  0.750658  1
  Sn  Sn29  1  0.436227  0.377553  0.249062  1
  Sn  Sn30  1  0.935869  0.122021  0.249358  1
  Sn  Sn31  1  0.326580  0.143166  0.749870  1
  Sn  Sn32  1  0.826416  0.356753  0.749707  1
  Sn  Sn33  1  0.672800  0.856736  0.249941  1
  Sn  Sn34  1  0.173229  0.643501  0.249788  1
  Sb  Sb35  1  0.293920  0.038071  0.043210  1
