# generated using pymatgen
data_NdLuTe2(RhO6)2
_symmetry_space_group_name_H-M   'P 1'
_cell_length_a   5.26035200
_cell_length_b   5.26024138
_cell_length_c   9.82401700
_cell_angle_alpha   90.00081201
_cell_angle_beta   90.00101658
_cell_angle_gamma   120.00178978
_symmetry_Int_Tables_number   1
_chemical_formula_structural   NdLuTe2(RhO6)2
_chemical_formula_sum   'Nd1 Lu1 Te2 Rh2 O12'
_cell_volume   235.41405238
_cell_formula_units_Z   1
loop_
 _symmetry_equiv_pos_site_id
 _symmetry_equiv_pos_as_xyz
  1  'x, y, z'
loop_
 _atom_site_type_symbol
 _atom_site_label
 _atom_site_symmetry_multiplicity
 _atom_site_fract_x
 _atom_site_fract_y
 _atom_site_fract_z
 _atom_site_occupancy
  Nd  Nd0  1  0.000000  0.999997  0.499997  1
  Lu  Lu1  1  0.999985  0.999968  0.999996  1
  Te  Te2  1  0.666669  0.333342  0.241006  1
  Te  Te3  1  0.333334  0.666672  0.758990  1
  Rh  Rh4  1  0.333333  0.666665  0.242279  1
  Rh  Rh5  1  0.666672  0.333365  0.757726  1
  O  O6  1  0.660320  0.647813  0.133342  1
  O  O7  1  0.987499  0.339686  0.133339  1
  O  O8  1  0.352186  0.012490  0.133348  1
  O  O9  1  0.373874  0.363355  0.354744  1
  O  O10  1  0.989485  0.626142  0.354745  1
  O  O11  1  0.636652  0.010508  0.354735  1
  O  O12  1  0.363353  0.989498  0.645263  1
  O  O13  1  0.010496  0.373845  0.645260  1
  O  O14  1  0.626143  0.636652  0.645256  1
  O  O15  1  0.647811  0.987501  0.866651  1
  O  O16  1  0.012509  0.660312  0.866662  1
  O  O17  1  0.339677  0.352190  0.866658  1
