# generated using pymatgen
data_DyY13Th2(CdNi)4
_symmetry_space_group_name_H-M   'P 1'
_cell_length_a   9.61076202
_cell_length_b   9.61847933
_cell_length_c   9.61542900
_cell_angle_alpha   60.01048666
_cell_angle_beta   59.98393176
_cell_angle_gamma   60.04499711
_symmetry_Int_Tables_number   1
_chemical_formula_structural   DyY13Th2(CdNi)4
_chemical_formula_sum   'Dy1 Y13 Th2 Cd4 Ni4'
_cell_volume   628.70512140
_cell_formula_units_Z   1
loop_
 _symmetry_equiv_pos_site_id
 _symmetry_equiv_pos_as_xyz
  1  'x, y, z'
loop_
 _atom_site_type_symbol
 _atom_site_label
 _atom_site_symmetry_multiplicity
 _atom_site_fract_x
 _atom_site_fract_y
 _atom_site_fract_z
 _atom_site_occupancy
  Dy  Dy0  1  0.598578  0.201096  0.600163  1
  Y  Y1  1  0.198635  0.599628  0.600868  1
  Y  Y2  1  0.061593  0.440289  0.438186  1
  Y  Y3  1  0.440736  0.061275  0.059625  1
  Y  Y4  1  0.440736  0.061275  0.438364  1
  Y  Y5  1  0.061593  0.440289  0.059932  1
  Y  Y6  1  0.438641  0.438465  0.061447  1
  Y  Y7  1  0.062199  0.062306  0.437748  1
  Y  Y8  1  0.186992  0.814371  0.815299  1
  Y  Y9  1  0.813758  0.187022  0.183987  1
  Y  Y10  1  0.813758  0.187022  0.815233  1
  Y  Y11  1  0.186992  0.814371  0.183337  1
  Y  Y12  1  0.814140  0.814513  0.185673  1
  Y  Y13  1  0.185866  0.185305  0.814414  1
  Th  Th14  1  0.593575  0.593849  0.600612  1
  Th  Th15  1  0.593575  0.593849  0.211963  1
  Cd  Cd16  1  0.832415  0.832663  0.829966  1
  Cd  Cd17  1  0.832415  0.832663  0.504953  1
  Cd  Cd18  1  0.833272  0.504337  0.831195  1
  Cd  Cd19  1  0.504610  0.833411  0.830989  1
  Ni  Ni20  1  0.394955  0.393192  0.391526  1
  Ni  Ni21  1  0.394955  0.393192  0.820328  1
  Ni  Ni22  1  0.398444  0.818156  0.391701  1
  Ni  Ni23  1  0.817562  0.397454  0.392492  1
