# generated using pymatgen
data_Ba8Tm3Lu(CoO5)4
_symmetry_space_group_name_H-M   'P 1'
_cell_length_a   6.11162901
_cell_length_b   7.90319045
_cell_length_c   12.41423410
_cell_angle_alpha   91.63105279
_cell_angle_beta   90.00327876
_cell_angle_gamma   89.99525843
_symmetry_Int_Tables_number   1
_chemical_formula_structural   Ba8Tm3Lu(CoO5)4
_chemical_formula_sum   'Ba8 Tm3 Lu1 Co4 O20'
_cell_volume   599.38153981
_cell_formula_units_Z   1
loop_
 _symmetry_equiv_pos_site_id
 _symmetry_equiv_pos_as_xyz
  1  'x, y, z'
loop_
 _atom_site_type_symbol
 _atom_site_label
 _atom_site_symmetry_multiplicity
 _atom_site_fract_x
 _atom_site_fract_y
 _atom_site_fract_z
 _atom_site_occupancy
  Ba  Ba0  1  0.757111  0.493231  0.361717  1
  Ba  Ba1  1  0.742850  0.993640  0.861709  1
  Ba  Ba2  1  0.242830  0.506549  0.638575  1
  Ba  Ba3  1  0.257065  0.006929  0.138056  1
  Ba  Ba4  1  0.753332  0.992674  0.383850  1
  Ba  Ba5  1  0.746687  0.492311  0.883809  1
  Ba  Ba6  1  0.246610  0.007534  0.616503  1
  Ba  Ba7  1  0.253330  0.507073  0.115909  1
  Tm  Tm8  1  0.747993  0.262066  0.630351  1
  Tm  Tm9  1  0.751899  0.762180  0.129684  1
  Tm  Tm10  1  0.251882  0.737816  0.370254  1
  Lu  Lu11  1  0.247946  0.238268  0.869830  1
  Co  Co12  1  0.741989  0.745813  0.591519  1
  Co  Co13  1  0.758044  0.245637  0.090488  1
  Co  Co14  1  0.257967  0.254147  0.408593  1
  Co  Co15  1  0.242020  0.754058  0.908270  1
  O  O16  1  0.754246  0.972819  0.632583  1
  O  O17  1  0.745835  0.472169  0.132491  1
  O  O18  1  0.245740  0.027421  0.367469  1
  O  O19  1  0.254119  0.526355  0.867679  1
  O  O20  1  0.739675  0.052654  0.168231  1
  O  O21  1  0.760355  0.551982  0.668428  1
  O  O22  1  0.260207  0.949039  0.832208  1
  O  O23  1  0.239626  0.447767  0.331604  1
  O  O24  1  0.534617  0.747002  0.266951  1
  O  O25  1  0.967691  0.246920  0.767285  1
  O  O26  1  0.464922  0.252843  0.734186  1
  O  O27  1  0.034403  0.753050  0.233123  1
  O  O28  1  0.523987  0.230799  0.986846  1
  O  O29  1  0.974184  0.730697  0.487694  1
  O  O30  1  0.474182  0.769244  0.012311  1
  O  O31  1  0.025391  0.269327  0.512567  1
  O  O32  1  0.028721  0.233776  0.013392  1
  O  O33  1  0.472208  0.733717  0.514620  1
  O  O34  1  0.972300  0.766177  0.985434  1
  O  O35  1  0.528037  0.266314  0.485780  1
