# generated using pymatgen
data_NdDy3(Er3Pt4)2
_symmetry_space_group_name_H-M   'P 1'
_cell_length_a   7.49193600
_cell_length_b   7.55811523
_cell_length_c   14.72988500
_cell_angle_alpha   90.01407735
_cell_angle_beta   90.00000000
_cell_angle_gamma   90.00000000
_symmetry_Int_Tables_number   1
_chemical_formula_structural   NdDy3(Er3Pt4)2
_chemical_formula_sum   'Nd2 Dy6 Er12 Pt16'
_cell_volume   834.07846930
_cell_formula_units_Z   2
loop_
 _symmetry_equiv_pos_site_id
 _symmetry_equiv_pos_as_xyz
  1  'x, y, z'
loop_
 _atom_site_type_symbol
 _atom_site_label
 _atom_site_symmetry_multiplicity
 _atom_site_fract_x
 _atom_site_fract_y
 _atom_site_fract_z
 _atom_site_occupancy
  Nd  Nd0  1  0.999615  0.822511  0.407839  1
  Nd  Nd1  1  0.499615  0.677489  0.092161  1
  Dy  Dy2  1  0.501877  0.320685  0.593527  1
  Dy  Dy3  1  0.001877  0.179315  0.906473  1
  Dy  Dy4  1  0.002409  0.181366  0.594404  1
  Dy  Dy5  1  0.502409  0.318634  0.905596  1
  Dy  Dy6  1  0.497767  0.677830  0.406525  1
  Dy  Dy7  1  0.997767  0.822170  0.093475  1
  Er  Er8  1  0.680437  0.989592  0.249718  1
  Er  Er9  1  0.180437  0.510408  0.250282  1
  Er  Er10  1  0.819037  0.489377  0.750042  1
  Er  Er11  1  0.319037  0.010623  0.749958  1
  Er  Er12  1  0.655666  0.831877  0.622517  1
  Er  Er13  1  0.155666  0.668123  0.877483  1
  Er  Er14  1  0.843385  0.332566  0.378084  1
  Er  Er15  1  0.343385  0.167434  0.121916  1
  Er  Er16  1  0.345145  0.168252  0.377701  1
  Er  Er17  1  0.845145  0.331748  0.122299  1
  Er  Er18  1  0.158163  0.666293  0.623194  1
  Er  Er19  1  0.658163  0.833707  0.876806  1
  Pt  Pt20  1  0.815956  0.640165  0.248955  1
  Pt  Pt21  1  0.315956  0.859835  0.251045  1
  Pt  Pt22  1  0.683614  0.141940  0.749878  1
  Pt  Pt23  1  0.183614  0.358060  0.750122  1
  Pt  Pt24  1  0.546523  0.381165  0.250933  1
  Pt  Pt25  1  0.046523  0.118835  0.249067  1
  Pt  Pt26  1  0.953387  0.884022  0.749742  1
  Pt  Pt27  1  0.453387  0.615978  0.750258  1
  Pt  Pt28  1  0.816754  0.530513  0.543640  1
  Pt  Pt29  1  0.316754  0.969487  0.956360  1
  Pt  Pt30  1  0.677696  0.036893  0.459199  1
  Pt  Pt31  1  0.177696  0.463107  0.040801  1
  Pt  Pt32  1  0.184114  0.462539  0.459781  1
  Pt  Pt33  1  0.684114  0.037461  0.040219  1
  Pt  Pt34  1  0.318456  0.968764  0.544131  1
  Pt  Pt35  1  0.818456  0.531236  0.955869  1
