# generated using pymatgen
data_ScBi6(IrO9)2
_symmetry_space_group_name_H-M   'P 1'
_cell_length_a   9.36569000
_cell_length_b   9.36568800
_cell_length_c   5.16221500
_cell_angle_alpha   90.00000000
_cell_angle_beta   90.00000000
_cell_angle_gamma   119.99999672
_symmetry_Int_Tables_number   1
_chemical_formula_structural   ScBi6(IrO9)2
_chemical_formula_sum   'Sc1 Bi6 Ir2 O18'
_cell_volume   392.14456410
_cell_formula_units_Z   1
loop_
 _symmetry_equiv_pos_site_id
 _symmetry_equiv_pos_as_xyz
  1  'x, y, z'
loop_
 _atom_site_type_symbol
 _atom_site_label
 _atom_site_symmetry_multiplicity
 _atom_site_fract_x
 _atom_site_fract_y
 _atom_site_fract_z
 _atom_site_occupancy
  Sc  Sc0  1  0.666667  0.333333  0.009810  1
  Bi  Bi1  1  0.988562  0.370481  0.507164  1
  Bi  Bi2  1  0.293496  0.292109  0.006133  1
  Bi  Bi3  1  0.998611  0.706504  0.006133  1
  Bi  Bi4  1  0.629519  0.618081  0.507164  1
  Bi  Bi5  1  0.381919  0.011438  0.507164  1
  Bi  Bi6  1  0.707891  0.001389  0.006133  1
  Ir  Ir7  1  0.000000  0.000000  0.496863  1
  Ir  Ir8  1  0.333333  0.666667  0.997675  1
  O  O9  1  0.086833  0.196945  0.706204  1
  O  O10  1  0.222734  0.469276  0.208000  1
  O  O11  1  0.137129  0.599648  0.782392  1
  O  O12  1  0.400352  0.537481  0.782392  1
  O  O13  1  0.246544  0.777266  0.208000  1
  O  O14  1  0.110110  0.913167  0.706204  1
  O  O15  1  0.530724  0.753456  0.208000  1
  O  O16  1  0.195158  0.072745  0.273859  1
  O  O17  1  0.462519  0.862871  0.782392  1
  O  O18  1  0.803055  0.889890  0.706204  1
  O  O19  1  0.449258  0.226609  0.777972  1
  O  O20  1  0.594461  0.120019  0.236824  1
  O  O21  1  0.525558  0.405539  0.236824  1
  O  O22  1  0.773391  0.222649  0.777972  1
  O  O23  1  0.927255  0.122412  0.273859  1
  O  O24  1  0.777351  0.550742  0.777972  1
  O  O25  1  0.879981  0.474442  0.236824  1
  O  O26  1  0.877588  0.804842  0.273859  1
