# generated using pymatgen
data_NaNi(Sb4Ru)3
_symmetry_space_group_name_H-M   'P 1'
_cell_length_a   8.09760245
_cell_length_b   8.09760301
_cell_length_c   8.13787700
_cell_angle_alpha   109.57200470
_cell_angle_beta   109.57200611
_cell_angle_gamma   109.37024953
_symmetry_Int_Tables_number   1
_chemical_formula_structural   NaNi(Sb4Ru)3
_chemical_formula_sum   'Na1 Ni1 Sb12 Ru3'
_cell_volume   410.26121298
_cell_formula_units_Z   1
loop_
 _symmetry_equiv_pos_site_id
 _symmetry_equiv_pos_as_xyz
  1  'x, y, z'
loop_
 _atom_site_type_symbol
 _atom_site_label
 _atom_site_symmetry_multiplicity
 _atom_site_fract_x
 _atom_site_fract_y
 _atom_site_fract_z
 _atom_site_occupancy
  Na  Na0  1  0.000000  0.000000  0.000000  1
  Ni  Ni1  1  0.000000  0.000000  0.500000  1
  Sb  Sb2  1  0.155622  0.818535  0.659322  1
  Sb  Sb3  1  0.844378  0.181465  0.340678  1
  Sb  Sb4  1  0.842636  0.503263  0.660933  1
  Sb  Sb5  1  0.157364  0.496737  0.339067  1
  Sb  Sb6  1  0.818535  0.662914  0.159214  1
  Sb  Sb7  1  0.181465  0.337086  0.840786  1
  Sb  Sb8  1  0.503263  0.660628  0.842331  1
  Sb  Sb9  1  0.496737  0.339372  0.157669  1
  Sb  Sb10  1  0.660628  0.157364  0.818297  1
  Sb  Sb11  1  0.339372  0.842636  0.181703  1
  Sb  Sb12  1  0.662914  0.844378  0.503701  1
  Sb  Sb13  1  0.337086  0.155622  0.496299  1
  Ru  Ru14  1  0.500000  0.000000  0.000000  1
  Ru  Ru15  1  0.000000  0.500000  0.000000  1
  Ru  Ru16  1  0.500000  0.500000  0.500000  1
