# generated using pymatgen
data_TbPr4NdRh18
_symmetry_space_group_name_H-M   'P 1'
_cell_length_a   5.34800900
_cell_length_b   5.34800955
_cell_length_c   17.64406000
_cell_angle_alpha   90.00000000
_cell_angle_beta   90.00000000
_cell_angle_gamma   120.00000278
_symmetry_Int_Tables_number   1
_chemical_formula_structural   TbPr4NdRh18
_chemical_formula_sum   'Tb1 Pr4 Nd1 Rh18'
_cell_volume   437.03221268
_cell_formula_units_Z   1
loop_
 _symmetry_equiv_pos_site_id
 _symmetry_equiv_pos_as_xyz
  1  'x, y, z'
loop_
 _atom_site_type_symbol
 _atom_site_label
 _atom_site_symmetry_multiplicity
 _atom_site_fract_x
 _atom_site_fract_y
 _atom_site_fract_z
 _atom_site_occupancy
  Tb  Tb0  1  0.333333  0.666667  0.957333  1
  Pr  Pr1  1  0.666667  0.333333  0.041213  1
  Pr  Pr2  1  0.666667  0.333333  0.457860  1
  Pr  Pr3  1  0.333333  0.666667  0.750810  1
  Pr  Pr4  1  0.666667  0.333333  0.249558  1
  Nd  Nd5  1  0.333333  0.666667  0.542273  1
  Rh  Rh6  1  0.166619  0.833381  0.371993  1
  Rh  Rh7  1  0.166619  0.333239  0.371993  1
  Rh  Rh8  1  0.666761  0.833381  0.371993  1
  Rh  Rh9  1  0.833366  0.166634  0.627679  1
  Rh  Rh10  1  0.833366  0.666731  0.627679  1
  Rh  Rh11  1  0.333269  0.166634  0.627679  1
  Rh  Rh12  1  0.833104  0.166896  0.874292  1
  Rh  Rh13  1  0.833104  0.666206  0.874292  1
  Rh  Rh14  1  0.333794  0.166896  0.874292  1
  Rh  Rh15  1  0.167043  0.832957  0.126428  1
  Rh  Rh16  1  0.167043  0.334085  0.126428  1
  Rh  Rh17  1  0.665915  0.832957  0.126428  1
  Rh  Rh18  1  0.333333  0.666667  0.249426  1
  Rh  Rh19  1  0.666667  0.333333  0.750734  1
  Rh  Rh20  1  0.000000  0.000000  0.249053  1
  Rh  Rh21  1  0.000000  0.000000  0.750879  1
  Rh  Rh22  1  0.000000  0.000000  0.499934  1
  Rh  Rh23  1  0.000000  0.000000  0.999753  1
