# generated using pymatgen
data_Np3Cu2S7
_symmetry_space_group_name_H-M   'P 1'
_cell_length_a   9.65778900
_cell_length_b   9.65778863
_cell_length_c   5.66817300
_cell_angle_alpha   90.00000000
_cell_angle_beta   90.00000000
_cell_angle_gamma   119.99999756
_symmetry_Int_Tables_number   1
_chemical_formula_structural   Np3Cu2S7
_chemical_formula_sum   'Np6 Cu4 S14'
_cell_volume   457.85625141
_cell_formula_units_Z   2
loop_
 _symmetry_equiv_pos_site_id
 _symmetry_equiv_pos_as_xyz
  1  'x, y, z'
loop_
 _atom_site_type_symbol
 _atom_site_label
 _atom_site_symmetry_multiplicity
 _atom_site_fract_x
 _atom_site_fract_y
 _atom_site_fract_z
 _atom_site_occupancy
  Np  Np0  1  0.228684  0.849731  0.029554  1
  Np  Np1  1  0.150269  0.378952  0.029554  1
  Np  Np2  1  0.849731  0.621048  0.529554  1
  Np  Np3  1  0.621048  0.771316  0.029554  1
  Np  Np4  1  0.771316  0.150269  0.529554  1
  Np  Np5  1  0.378952  0.228684  0.529554  1
  Cu  Cu6  1  0.666667  0.333333  0.150176  1
  Cu  Cu7  1  0.333333  0.666667  0.650176  1
  Cu  Cu8  1  0.000000  0.000000  0.500616  1
  Cu  Cu9  1  0.000000  0.000000  0.000616  1
  S  S10  1  0.666667  0.333333  0.751931  1
  S  S11  1  0.566903  0.486784  0.281414  1
  S  S12  1  0.154044  0.892901  0.515858  1
  S  S13  1  0.513216  0.080119  0.281414  1
  S  S14  1  0.433097  0.513216  0.781414  1
  S  S15  1  0.486784  0.919881  0.781414  1
  S  S16  1  0.845956  0.107099  0.015858  1
  S  S17  1  0.080119  0.566903  0.781414  1
  S  S18  1  0.738857  0.845956  0.515858  1
  S  S19  1  0.333333  0.666667  0.251931  1
  S  S20  1  0.919881  0.433097  0.281414  1
  S  S21  1  0.261143  0.154044  0.015858  1
  S  S22  1  0.107099  0.261143  0.515858  1
  S  S23  1  0.892901  0.738857  0.015858  1
