# generated using pymatgen
data_Tm5ThMn4(Co7P6)2
_symmetry_space_group_name_H-M   'P 1'
_cell_length_a   3.72398900
_cell_length_b   10.61583900
_cell_length_c   12.14459000
_cell_angle_alpha   90.00000000
_cell_angle_beta   90.00000000
_cell_angle_gamma   90.00000000
_symmetry_Int_Tables_number   1
_chemical_formula_structural   Tm5ThMn4(Co7P6)2
_chemical_formula_sum   'Tm5 Th1 Mn4 Co14 P12'
_cell_volume   480.11532711
_cell_formula_units_Z   1
loop_
 _symmetry_equiv_pos_site_id
 _symmetry_equiv_pos_as_xyz
  1  'x, y, z'
loop_
 _atom_site_type_symbol
 _atom_site_label
 _atom_site_symmetry_multiplicity
 _atom_site_fract_x
 _atom_site_fract_y
 _atom_site_fract_z
 _atom_site_occupancy
  Tm  Tm0  1  0.500000  0.000000  0.476354  1
  Tm  Tm1  1  0.500000  0.820041  0.203856  1
  Tm  Tm2  1  0.500000  0.179959  0.203856  1
  Tm  Tm3  1  0.000000  0.681277  0.798276  1
  Tm  Tm4  1  0.000000  0.318723  0.798276  1
  Th  Th5  1  0.000000  0.500000  0.526072  1
  Mn  Mn6  1  0.500000  0.500000  0.150497  1
  Mn  Mn7  1  0.000000  0.000000  0.845403  1
  Mn  Mn8  1  0.000000  0.500000  0.989187  1
  Mn  Mn9  1  0.500000  0.000000  0.011936  1
  Co  Co10  1  0.500000  0.500000  0.700173  1
  Co  Co11  1  0.000000  0.000000  0.299783  1
  Co  Co12  1  0.500000  0.331854  0.994786  1
  Co  Co13  1  0.500000  0.668146  0.994786  1
  Co  Co14  1  0.000000  0.167376  0.004492  1
  Co  Co15  1  0.000000  0.832624  0.004492  1
  Co  Co16  1  0.500000  0.293935  0.430432  1
  Co  Co17  1  0.500000  0.706065  0.430432  1
  Co  Co18  1  0.000000  0.200532  0.569913  1
  Co  Co19  1  0.000000  0.799468  0.569913  1
  Co  Co20  1  0.500000  0.879419  0.709670  1
  Co  Co21  1  0.500000  0.120581  0.709670  1
  Co  Co22  1  0.000000  0.622929  0.290431  1
  Co  Co23  1  0.000000  0.377071  0.290431  1
  P  P24  1  0.500000  0.500000  0.882542  1
  P  P25  1  0.000000  0.000000  0.117981  1
  P  P26  1  0.500000  0.500000  0.340345  1
  P  P27  1  0.000000  0.000000  0.652262  1
  P  P28  1  0.500000  0.304821  0.619324  1
  P  P29  1  0.500000  0.695179  0.619324  1
  P  P30  1  0.000000  0.187754  0.382850  1
  P  P31  1  0.000000  0.812246  0.382850  1
  P  P32  1  0.500000  0.844896  0.893591  1
  P  P33  1  0.500000  0.155104  0.893591  1
  P  P34  1  0.000000  0.656737  0.106110  1
  P  P35  1  0.000000  0.343263  0.106110  1
