# generated using pymatgen
data_HfSc7Co16As11P
_symmetry_space_group_name_H-M   'P 1'
_cell_length_a   12.51923643
_cell_length_b   12.51578040
_cell_length_c   3.74152300
_cell_angle_alpha   90.00000000
_cell_angle_beta   90.00000000
_cell_angle_gamma   119.99087327
_symmetry_Int_Tables_number   1
_chemical_formula_structural   HfSc7Co16As11P
_chemical_formula_sum   'Hf1 Sc7 Co16 As11 P1'
_cell_volume   507.75564467
_cell_formula_units_Z   1
loop_
 _symmetry_equiv_pos_site_id
 _symmetry_equiv_pos_as_xyz
  1  'x, y, z'
loop_
 _atom_site_type_symbol
 _atom_site_label
 _atom_site_symmetry_multiplicity
 _atom_site_fract_x
 _atom_site_fract_y
 _atom_site_fract_z
 _atom_site_occupancy
  Hf  Hf0  1  0.000000  0.558768  0.000000  1
  Sc  Sc1  1  0.824393  0.816410  0.500000  1
  Sc  Sc2  1  0.443051  0.443719  0.000000  1
  Sc  Sc3  1  0.000000  0.182422  0.500000  1
  Sc  Sc4  1  0.556949  0.000668  0.000000  1
  Sc  Sc5  1  0.332346  0.665570  0.000000  1
  Sc  Sc6  1  0.667654  0.333223  0.000000  1
  Sc  Sc7  1  0.175607  0.992016  0.500000  1
  Co  Co8  1  0.627119  0.823784  0.000000  1
  Co  Co9  1  0.372881  0.196665  0.000000  1
  Co  Co10  1  0.000000  0.725889  0.500000  1
  Co  Co11  1  0.279550  0.279692  0.500000  1
  Co  Co12  1  0.876814  0.356926  0.500000  1
  Co  Co13  1  0.720450  0.000141  0.500000  1
  Co  Co14  1  0.828801  0.634157  0.000000  1
  Co  Co15  1  0.171199  0.805356  0.000000  1
  Co  Co16  1  0.353986  0.876484  0.500000  1
  Co  Co17  1  0.123186  0.480112  0.500000  1
  Co  Co18  1  0.646014  0.522498  0.500000  1
  Co  Co19  1  0.000000  0.990997  0.000000  1
  Co  Co20  1  0.521697  0.645488  0.500000  1
  Co  Co21  1  0.478303  0.123790  0.500000  1
  Co  Co22  1  0.195295  0.371557  0.000000  1
  Co  Co23  1  0.804705  0.176261  0.000000  1
  As  As24  1  0.000000  0.347036  0.000000  1
  As  As25  1  0.825222  0.515523  0.500000  1
  As  As26  1  0.688383  0.174193  0.500000  1
  As  As27  1  0.173983  0.172565  0.000000  1
  As  As28  1  0.652362  0.652916  0.000000  1
  As  As29  1  0.826017  0.998582  0.000000  1
  As  As30  1  0.513699  0.826155  0.500000  1
  As  As31  1  0.174778  0.690300  0.500000  1
  As  As32  1  0.347638  0.000554  0.000000  1
  As  As33  1  0.486301  0.312456  0.500000  1
  As  As34  1  0.311617  0.485809  0.500000  1
  P  P35  1  0.000000  0.821317  0.000000  1
