# generated using pymatgen
data_Ho10In3BiSb2
_symmetry_space_group_name_H-M   'P 1'
_cell_length_a   8.96669000
_cell_length_b   8.94809221
_cell_length_c   6.55334400
_cell_angle_alpha   90.00000000
_cell_angle_beta   90.00000000
_cell_angle_gamma   120.06877706
_symmetry_Int_Tables_number   1
_chemical_formula_structural   Ho10In3BiSb2
_chemical_formula_sum   'Ho10 In3 Bi1 Sb2'
_cell_volume   455.04547610
_cell_formula_units_Z   1
loop_
 _symmetry_equiv_pos_site_id
 _symmetry_equiv_pos_as_xyz
  1  'x, y, z'
loop_
 _atom_site_type_symbol
 _atom_site_label
 _atom_site_symmetry_multiplicity
 _atom_site_fract_x
 _atom_site_fract_y
 _atom_site_fract_z
 _atom_site_occupancy
  Ho  Ho0  1  0.327487  0.662439  0.999138  1
  Ho  Ho1  1  0.665050  0.337561  0.500862  1
  Ho  Ho2  1  0.665050  0.337561  0.999138  1
  Ho  Ho3  1  0.327487  0.662439  0.500862  1
  Ho  Ho4  1  0.763804  0.000000  0.750000  1
  Ho  Ho5  1  0.765967  0.758732  0.250000  1
  Ho  Ho6  1  0.007235  0.241268  0.250000  1
  Ho  Ho7  1  0.003320  0.763838  0.750000  1
  Ho  Ho8  1  0.239484  0.236162  0.750000  1
  Ho  Ho9  1  0.233995  0.000000  0.250000  1
  In  In10  1  0.397813  0.000000  0.750000  1
  In  In11  1  0.396452  0.398235  0.250000  1
  In  In12  1  0.998216  0.601765  0.250000  1
  Bi  Bi13  1  0.606787  0.000000  0.250000  1
  Sb  Sb14  1  0.996088  0.390322  0.750000  1
  Sb  Sb15  1  0.605765  0.609678  0.750000  1
