# generated using pymatgen
data_Nd4Tm4Tc(B8Os)3
_symmetry_space_group_name_H-M   'P 1'
_cell_length_a   3.69123700
_cell_length_b   9.19771821
_cell_length_c   11.63988003
_cell_angle_alpha   89.94089536
_cell_angle_beta   90.00000000
_cell_angle_gamma   90.00000000
_symmetry_Int_Tables_number   1
_chemical_formula_structural   Nd4Tm4Tc(B8Os)3
_chemical_formula_sum   'Nd4 Tm4 Tc1 B24 Os3'
_cell_volume   395.18486530
_cell_formula_units_Z   1
loop_
 _symmetry_equiv_pos_site_id
 _symmetry_equiv_pos_as_xyz
  1  'x, y, z'
loop_
 _atom_site_type_symbol
 _atom_site_label
 _atom_site_symmetry_multiplicity
 _atom_site_fract_x
 _atom_site_fract_y
 _atom_site_fract_z
 _atom_site_occupancy
  Nd  Nd0  1  0.000000  0.323602  0.413570  1
  Nd  Nd1  1  0.000000  0.677412  0.583441  1
  Nd  Nd2  1  0.000000  0.820955  0.086880  1
  Nd  Nd3  1  0.000000  0.177237  0.915411  1
  Tm  Tm4  1  0.000000  0.943019  0.371917  1
  Tm  Tm5  1  0.000000  0.056557  0.628145  1
  Tm  Tm6  1  0.000000  0.445175  0.128942  1
  Tm  Tm7  1  0.000000  0.556123  0.871414  1
  Tc  Tc8  1  0.000000  0.639513  0.319058  1
  B  B9  1  0.500000  0.555351  0.430116  1
  B  B10  1  0.500000  0.443969  0.569921  1
  B  B11  1  0.500000  0.056220  0.069960  1
  B  B12  1  0.500000  0.943624  0.930446  1
  B  B13  1  0.500000  0.750110  0.416395  1
  B  B14  1  0.500000  0.249916  0.583511  1
  B  B15  1  0.500000  0.250341  0.083226  1
  B  B16  1  0.500000  0.749706  0.916674  1
  B  B17  1  0.500000  0.791412  0.266326  1
  B  B18  1  0.500000  0.208898  0.733868  1
  B  B19  1  0.500000  0.291089  0.233293  1
  B  B20  1  0.500000  0.709285  0.766045  1
  B  B21  1  0.500000  0.630113  0.185610  1
  B  B22  1  0.500000  0.369701  0.814963  1
  B  B23  1  0.500000  0.130091  0.314394  1
  B  B24  1  0.500000  0.870218  0.685206  1
  B  B25  1  0.500000  0.984875  0.214282  1
  B  B26  1  0.500000  0.014928  0.786258  1
  B  B27  1  0.500000  0.484393  0.285799  1
  B  B28  1  0.500000  0.514849  0.714161  1
  B  B29  1  0.500000  0.600517  0.026821  1
  B  B30  1  0.500000  0.399390  0.972378  1
  B  B31  1  0.500000  0.101078  0.472766  1
  B  B32  1  0.500000  0.900035  0.527821  1
  Os  Os33  1  0.000000  0.360289  0.681481  1
  Os  Os34  1  0.000000  0.139454  0.180685  1
  Os  Os35  1  0.000000  0.860554  0.818814  1
