# generated using pymatgen
data_Tm8HfZrIr6
_symmetry_space_group_name_H-M   'P 1'
_cell_length_a   10.72948400
_cell_length_b   10.72948400
_cell_length_c   6.20820500
_cell_angle_alpha   90.00000000
_cell_angle_beta   90.00000000
_cell_angle_gamma   90.00000000
_symmetry_Int_Tables_number   1
_chemical_formula_structural   Tm8HfZrIr6
_chemical_formula_sum   'Tm16 Hf2 Zr2 Ir12'
_cell_volume   714.69990141
_cell_formula_units_Z   2
loop_
 _symmetry_equiv_pos_site_id
 _symmetry_equiv_pos_as_xyz
  1  'x, y, z'
loop_
 _atom_site_type_symbol
 _atom_site_label
 _atom_site_symmetry_multiplicity
 _atom_site_fract_x
 _atom_site_fract_y
 _atom_site_fract_z
 _atom_site_occupancy
  Tm  Tm0  1  0.290268  0.086072  0.372895  1
  Tm  Tm1  1  0.290268  0.913928  0.872895  1
  Tm  Tm2  1  0.709732  0.086072  0.872895  1
  Tm  Tm3  1  0.709732  0.913928  0.372895  1
  Tm  Tm4  1  0.586322  0.790064  0.873202  1
  Tm  Tm5  1  0.586322  0.209936  0.373202  1
  Tm  Tm6  1  0.413678  0.790064  0.373202  1
  Tm  Tm7  1  0.413678  0.209936  0.873202  1
  Tm  Tm8  1  0.209936  0.413678  0.626798  1
  Tm  Tm9  1  0.209936  0.586322  0.126798  1
  Tm  Tm10  1  0.790064  0.413678  0.126798  1
  Tm  Tm11  1  0.790064  0.586322  0.626798  1
  Tm  Tm12  1  0.913928  0.709732  0.127105  1
  Tm  Tm13  1  0.913928  0.290268  0.627105  1
  Tm  Tm14  1  0.086072  0.709732  0.627105  1
  Tm  Tm15  1  0.086072  0.290268  0.127105  1
  Hf  Hf16  1  0.500000  0.500000  0.000000  1
  Hf  Hf17  1  0.500000  0.500000  0.500000  1
  Zr  Zr18  1  0.000000  0.000000  0.500000  1
  Zr  Zr19  1  0.000000  0.000000  0.000000  1
  Ir  Ir20  1  0.852502  0.147498  0.250000  1
  Ir  Ir21  1  0.852502  0.852502  0.750000  1
  Ir  Ir22  1  0.147498  0.147498  0.750000  1
  Ir  Ir23  1  0.147498  0.852502  0.250000  1
  Ir  Ir24  1  0.644565  0.355435  0.750000  1
  Ir  Ir25  1  0.644565  0.644565  0.250000  1
  Ir  Ir26  1  0.355435  0.355435  0.250000  1
  Ir  Ir27  1  0.355435  0.644565  0.750000  1
  Ir  Ir28  1  0.500000  0.000000  0.119900  1
  Ir  Ir29  1  0.500000  0.000000  0.619900  1
  Ir  Ir30  1  0.000000  0.500000  0.880100  1
  Ir  Ir31  1  0.000000  0.500000  0.380100  1
