# generated using pymatgen
data_K6ScCuF12
_symmetry_space_group_name_H-M   'P 1'
_cell_length_a   6.41550116
_cell_length_b   6.18650709
_cell_length_c   10.77139000
_cell_angle_alpha   55.13396594
_cell_angle_beta   90.15723647
_cell_angle_gamma   89.88157868
_symmetry_Int_Tables_number   1
_chemical_formula_structural   K6ScCuF12
_chemical_formula_sum   'K6 Sc1 Cu1 F12'
_cell_volume   350.76457700
_cell_formula_units_Z   1
loop_
 _symmetry_equiv_pos_site_id
 _symmetry_equiv_pos_as_xyz
  1  'x, y, z'
loop_
 _atom_site_type_symbol
 _atom_site_label
 _atom_site_symmetry_multiplicity
 _atom_site_fract_x
 _atom_site_fract_y
 _atom_site_fract_z
 _atom_site_occupancy
  K  K0  1  0.500000  0.500000  0.000000  1
  K  K1  1  0.000000  0.500000  0.500000  1
  K  K2  1  0.048613  0.725834  0.759729  1
  K  K3  1  0.951387  0.274166  0.240271  1
  K  K4  1  0.552581  0.258404  0.754738  1
  K  K5  1  0.447419  0.741596  0.245262  1
  Sc  Sc6  1  0.500000  0.000000  0.500000  1
  Cu  Cu7  1  0.000000  0.000000  0.000000  1
  F  F8  1  0.763299  0.772221  0.564008  1
  F  F9  1  0.236701  0.227779  0.435992  1
  F  F10  1  0.249675  0.218317  0.942330  1
  F  F11  1  0.750325  0.781683  0.057670  1
  F  F12  1  0.454522  0.880204  0.718212  1
  F  F13  1  0.545478  0.119796  0.281788  1
  F  F14  1  0.957832  0.113997  0.792069  1
  F  F15  1  0.042168  0.886003  0.207931  1
  F  F16  1  0.328493  0.686882  0.544183  1
  F  F17  1  0.671507  0.313118  0.455817  1
  F  F18  1  0.829534  0.294519  0.960268  1
  F  F19  1  0.170466  0.705481  0.039732  1
