# generated using pymatgen
data_Tb4DyBi3Cl
_symmetry_space_group_name_H-M   'P 1'
_cell_length_a   9.29097000
_cell_length_b   9.29096996
_cell_length_c   6.50534100
_cell_angle_alpha   90.00000000
_cell_angle_beta   90.00000000
_cell_angle_gamma   120.00000014
_symmetry_Int_Tables_number   1
_chemical_formula_structural   Tb4DyBi3Cl
_chemical_formula_sum   'Tb8 Dy2 Bi6 Cl2'
_cell_volume   486.32076250
_cell_formula_units_Z   2
loop_
 _symmetry_equiv_pos_site_id
 _symmetry_equiv_pos_as_xyz
  1  'x, y, z'
loop_
 _atom_site_type_symbol
 _atom_site_label
 _atom_site_symmetry_multiplicity
 _atom_site_fract_x
 _atom_site_fract_y
 _atom_site_fract_z
 _atom_site_occupancy
  Tb  Tb0  1  0.268912  0.000000  0.750166  1
  Tb  Tb1  1  0.731088  0.000000  0.249834  1
  Tb  Tb2  1  0.000000  0.268912  0.750166  1
  Tb  Tb3  1  0.000000  0.731088  0.249834  1
  Tb  Tb4  1  0.731088  0.731088  0.750166  1
  Tb  Tb5  1  0.268912  0.268912  0.249834  1
  Tb  Tb6  1  0.333333  0.666667  0.500000  1
  Tb  Tb7  1  0.666667  0.333333  0.500000  1
  Dy  Dy8  1  0.666667  0.333333  0.000000  1
  Dy  Dy9  1  0.333333  0.666667  0.000000  1
  Bi  Bi10  1  0.614584  0.000000  0.750628  1
  Bi  Bi11  1  0.385416  0.000000  0.249372  1
  Bi  Bi12  1  0.000000  0.614584  0.750628  1
  Bi  Bi13  1  0.000000  0.385416  0.249372  1
  Bi  Bi14  1  0.385416  0.385416  0.750628  1
  Bi  Bi15  1  0.614584  0.614584  0.249372  1
  Cl  Cl16  1  0.000000  0.000000  0.500000  1
  Cl  Cl17  1  0.000000  0.000000  0.000000  1
