# generated using pymatgen
data_Li5TcO6
_symmetry_space_group_name_H-M   'P 1'
_cell_length_a   5.07084341
_cell_length_b   5.07084273
_cell_length_c   5.05023202
_cell_angle_alpha   80.13761717
_cell_angle_beta   80.13761184
_cell_angle_gamma   119.85172063
_symmetry_Int_Tables_number   1
_chemical_formula_structural   Li5TcO6
_chemical_formula_sum   'Li5 Tc1 O6'
_cell_volume   105.84547282
_cell_formula_units_Z   1
loop_
 _symmetry_equiv_pos_site_id
 _symmetry_equiv_pos_as_xyz
  1  'x, y, z'
loop_
 _atom_site_type_symbol
 _atom_site_label
 _atom_site_symmetry_multiplicity
 _atom_site_fract_x
 _atom_site_fract_y
 _atom_site_fract_z
 _atom_site_occupancy
  Li  Li0  1  0.333343  0.666657  0.000000  1
  Li  Li1  1  0.666657  0.333343  0.000000  1
  Li  Li2  1  0.500000  0.500000  0.500000  1
  Li  Li3  1  0.176105  0.823895  0.500000  1
  Li  Li4  1  0.823895  0.176105  0.500000  1
  Tc  Tc5  1  0.000000  0.000000  0.000000  1
  O  O6  1  0.922415  0.614360  0.234588  1
  O  O7  1  0.614360  0.922415  0.234588  1
  O  O8  1  0.385640  0.077585  0.765412  1
  O  O9  1  0.077585  0.385640  0.765412  1
  O  O10  1  0.771060  0.771060  0.771901  1
  O  O11  1  0.228940  0.228940  0.228099  1
