# generated using pymatgen
data_LaErFe3Re14C3
_symmetry_space_group_name_H-M   'P 1'
_cell_length_a   6.94539280
_cell_length_b   6.94539265
_cell_length_c   6.94539093
_cell_angle_alpha   82.64342577
_cell_angle_beta   82.64342616
_cell_angle_gamma   82.64342252
_symmetry_Int_Tables_number   1
_chemical_formula_structural   LaErFe3Re14C3
_chemical_formula_sum   'La1 Er1 Fe3 Re14 C3'
_cell_volume   327.41224666
_cell_formula_units_Z   1
loop_
 _symmetry_equiv_pos_site_id
 _symmetry_equiv_pos_as_xyz
  1  'x, y, z'
loop_
 _atom_site_type_symbol
 _atom_site_label
 _atom_site_symmetry_multiplicity
 _atom_site_fract_x
 _atom_site_fract_y
 _atom_site_fract_z
 _atom_site_occupancy
  La  La0  1  0.647901  0.647901  0.647901  1
  Er  Er1  1  0.349847  0.349847  0.349847  1
  Fe  Fe2  1  0.998214  0.998214  0.501247  1
  Fe  Fe3  1  0.501247  0.998214  0.998214  1
  Fe  Fe4  1  0.998214  0.501247  0.998214  1
  Re  Re5  1  0.721902  0.277288  0.000990  1
  Re  Re6  1  0.000990  0.721902  0.277288  1
  Re  Re7  1  0.277288  0.000990  0.721902  1
  Re  Re8  1  0.000990  0.277288  0.721902  1
  Re  Re9  1  0.721902  0.000990  0.277288  1
  Re  Re10  1  0.277288  0.721902  0.000990  1
  Re  Re11  1  0.344625  0.865798  0.344625  1
  Re  Re12  1  0.344625  0.344625  0.865798  1
  Re  Re13  1  0.865798  0.344625  0.344625  1
  Re  Re14  1  0.653312  0.139990  0.653312  1
  Re  Re15  1  0.653312  0.653312  0.139990  1
  Re  Re16  1  0.139990  0.653312  0.653312  1
  Re  Re17  1  0.899152  0.899152  0.899152  1
  Re  Re18  1  0.101799  0.101799  0.101799  1
  C  C19  1  0.494675  0.494675  0.012253  1
  C  C20  1  0.012253  0.494675  0.494675  1
  C  C21  1  0.494675  0.012253  0.494675  1
