# generated using pymatgen
data_KYbH9W
_symmetry_space_group_name_H-M   'P 1'
_cell_length_a   8.85678300
_cell_length_b   8.85678182
_cell_length_c   5.36273500
_cell_angle_alpha   90.00000000
_cell_angle_beta   90.00000000
_cell_angle_gamma   120.00000067
_symmetry_Int_Tables_number   1
_chemical_formula_structural   KYbH9W
_chemical_formula_sum   'K3 Yb3 H27 W3'
_cell_volume   364.30817432
_cell_formula_units_Z   3
loop_
 _symmetry_equiv_pos_site_id
 _symmetry_equiv_pos_as_xyz
  1  'x, y, z'
loop_
 _atom_site_type_symbol
 _atom_site_label
 _atom_site_symmetry_multiplicity
 _atom_site_fract_x
 _atom_site_fract_y
 _atom_site_fract_z
 _atom_site_occupancy
  K  K0  1  0.000000  0.587381  0.000000  1
  K  K1  1  0.412619  0.412619  0.000000  1
  K  K2  1  0.587381  0.000000  0.000000  1
  Yb  Yb3  1  0.000000  0.274545  0.500000  1
  Yb  Yb4  1  0.725455  0.725455  0.500000  1
  Yb  Yb5  1  0.274545  0.000000  0.500000  1
  H  H6  1  0.791985  0.304337  0.735206  1
  H  H7  1  0.695663  0.487647  0.735206  1
  H  H8  1  0.512353  0.208015  0.735206  1
  H  H9  1  0.208015  0.512353  0.264794  1
  H  H10  1  0.512353  0.208015  0.264794  1
  H  H11  1  0.791985  0.304337  0.264794  1
  H  H12  1  0.695663  0.487647  0.264794  1
  H  H13  1  0.304337  0.791985  0.735206  1
  H  H14  1  0.487647  0.695663  0.735206  1
  H  H15  1  0.197657  0.000000  0.000000  1
  H  H16  1  0.802343  0.802343  0.000000  1
  H  H17  1  0.000000  0.197657  0.000000  1
  H  H18  1  0.860403  0.000000  0.241787  1
  H  H19  1  0.139597  0.139597  0.758213  1
  H  H20  1  0.000000  0.860403  0.758213  1
  H  H21  1  0.000000  0.860403  0.241787  1
  H  H22  1  0.139597  0.139597  0.241787  1
  H  H23  1  0.860403  0.000000  0.758213  1
  H  H24  1  0.121006  0.628701  0.500000  1
  H  H25  1  0.507695  0.878994  0.500000  1
  H  H26  1  0.371299  0.492305  0.500000  1
  H  H27  1  0.492305  0.371299  0.500000  1
  H  H28  1  0.878994  0.507695  0.500000  1
  H  H29  1  0.628701  0.121006  0.500000  1
  H  H30  1  0.208015  0.512353  0.735206  1
  H  H31  1  0.304337  0.791985  0.264794  1
  H  H32  1  0.487647  0.695663  0.264794  1
  W  W33  1  0.666667  0.333333  0.500000  1
  W  W34  1  0.333333  0.666667  0.500000  1
  W  W35  1  0.000000  0.000000  0.000000  1
