# generated using pymatgen
data_Nd3Zn2AgPt3
_symmetry_space_group_name_H-M   'P 1'
_cell_length_a   7.47347100
_cell_length_b   7.47347009
_cell_length_c   3.98931600
_cell_angle_alpha   90.00000000
_cell_angle_beta   90.00000000
_cell_angle_gamma   118.75913463
_symmetry_Int_Tables_number   1
_chemical_formula_structural   Nd3Zn2AgPt3
_chemical_formula_sum   'Nd3 Zn2 Ag1 Pt3'
_cell_volume   195.33018461
_cell_formula_units_Z   1
loop_
 _symmetry_equiv_pos_site_id
 _symmetry_equiv_pos_as_xyz
  1  'x, y, z'
loop_
 _atom_site_type_symbol
 _atom_site_label
 _atom_site_symmetry_multiplicity
 _atom_site_fract_x
 _atom_site_fract_y
 _atom_site_fract_z
 _atom_site_occupancy
  Nd  Nd0  1  0.403380  0.403380  0.000000  1
  Nd  Nd1  1  0.595819  0.997224  0.000000  1
  Nd  Nd2  1  0.997224  0.595819  0.000000  1
  Zn  Zn3  1  0.247534  0.997880  0.500000  1
  Zn  Zn4  1  0.997880  0.247534  0.500000  1
  Ag  Ag5  1  0.752769  0.752769  0.500000  1
  Pt  Pt6  1  0.022430  0.022430  0.000000  1
  Pt  Pt7  1  0.662494  0.320470  0.500000  1
  Pt  Pt8  1  0.320470  0.662494  0.500000  1
