# generated using pymatgen
data_TbNd3(RuO6)2
_symmetry_space_group_name_H-M   'P 1'
_cell_length_a   5.52624774
_cell_length_b   10.14053089
_cell_length_c   10.14050409
_cell_angle_alpha   69.21181716
_cell_angle_beta   75.04383739
_cell_angle_gamma   75.04378301
_symmetry_Int_Tables_number   1
_chemical_formula_structural   TbNd3(RuO6)2
_chemical_formula_sum   'Tb2 Nd6 Ru4 O24'
_cell_volume   504.47795871
_cell_formula_units_Z   2
loop_
 _symmetry_equiv_pos_site_id
 _symmetry_equiv_pos_as_xyz
  1  'x, y, z'
loop_
 _atom_site_type_symbol
 _atom_site_label
 _atom_site_symmetry_multiplicity
 _atom_site_fract_x
 _atom_site_fract_y
 _atom_site_fract_z
 _atom_site_occupancy
  Tb  Tb0  1  0.750002  0.397422  0.602577  1
  Tb  Tb1  1  0.249994  0.602581  0.397423  1
  Nd  Nd2  1  0.623616  0.786809  0.561173  1
  Nd  Nd3  1  0.123608  0.561178  0.786803  1
  Nd  Nd4  1  0.376388  0.213195  0.438826  1
  Nd  Nd5  1  0.876388  0.438824  0.213197  1
  Nd  Nd6  1  0.750004  0.864648  0.135354  1
  Nd  Nd7  1  0.249999  0.135347  0.864648  1
  Ru  Ru8  1  0.059410  0.001581  0.298713  1
  Ru  Ru9  1  0.440598  0.701281  0.998436  1
  Ru  Ru10  1  0.940603  0.998406  0.701292  1
  Ru  Ru11  1  0.559394  0.298710  0.001577  1
  O  O12  1  0.927193  0.571749  0.607266  1
  O  O13  1  0.572804  0.392739  0.428250  1
  O  O14  1  0.072803  0.428252  0.392737  1
  O  O15  1  0.427194  0.607262  0.571752  1
  O  O16  1  0.933549  0.805785  0.336771  1
  O  O17  1  0.566447  0.663226  0.194215  1
  O  O18  1  0.066453  0.194216  0.663228  1
  O  O19  1  0.433548  0.336773  0.805785  1
  O  O20  1  0.369141  0.889820  0.331622  1
  O  O21  1  0.130851  0.668375  0.110182  1
  O  O22  1  0.630860  0.110186  0.668378  1
  O  O23  1  0.869147  0.331620  0.889815  1
  O  O24  1  0.631215  0.287675  0.177008  1
  O  O25  1  0.868788  0.822991  0.712323  1
  O  O26  1  0.368784  0.712324  0.822985  1
  O  O27  1  0.131218  0.177019  0.287676  1
  O  O28  1  0.523943  0.115568  0.041776  1
  O  O29  1  0.976056  0.958227  0.884429  1
  O  O30  1  0.764687  0.025175  0.427093  1
  O  O31  1  0.023944  0.041778  0.115571  1
  O  O32  1  0.264675  0.427096  0.025174  1
  O  O33  1  0.235323  0.974828  0.572906  1
  O  O34  1  0.735323  0.572902  0.974826  1
  O  O35  1  0.476054  0.884428  0.958223  1
