# generated using pymatgen
data_ZrSc6Al13Mo2Os7
_symmetry_space_group_name_H-M   'P 1'
_cell_length_a   8.85673657
_cell_length_b   8.85673688
_cell_length_c   8.88586655
_cell_angle_alpha   59.82594224
_cell_angle_beta   59.82594395
_cell_angle_gamma   59.89365135
_symmetry_Int_Tables_number   1
_chemical_formula_structural   ZrSc6Al13Mo2Os7
_chemical_formula_sum   'Zr1 Sc6 Al13 Mo2 Os7'
_cell_volume   491.17498103
_cell_formula_units_Z   1
loop_
 _symmetry_equiv_pos_site_id
 _symmetry_equiv_pos_as_xyz
  1  'x, y, z'
loop_
 _atom_site_type_symbol
 _atom_site_label
 _atom_site_symmetry_multiplicity
 _atom_site_fract_x
 _atom_site_fract_y
 _atom_site_fract_z
 _atom_site_occupancy
  Zr  Zr0  1  0.878688  0.878688  0.360209  1
  Sc  Sc1  1  0.711901  0.711901  0.278089  1
  Sc  Sc2  1  0.292299  0.710551  0.287721  1
  Sc  Sc3  1  0.710551  0.292299  0.287721  1
  Sc  Sc4  1  0.288233  0.288233  0.713592  1
  Sc  Sc5  1  0.714453  0.277275  0.714706  1
  Sc  Sc6  1  0.277275  0.714453  0.714706  1
  Al  Al7  1  0.880217  0.880217  0.881737  1
  Al  Al8  1  0.121457  0.121457  0.635725  1
  Al  Al9  1  0.121292  0.638069  0.119967  1
  Al  Al10  1  0.638069  0.121292  0.119967  1
  Al  Al11  1  0.122435  0.122435  0.121553  1
  Al  Al12  1  0.666838  0.666838  0.006231  1
  Al  Al13  1  0.664229  0.007993  0.668144  1
  Al  Al14  1  0.007993  0.664229  0.668144  1
  Al  Al15  1  0.658535  0.658535  0.660338  1
  Al  Al16  1  0.336083  0.336083  0.994286  1
  Al  Al17  1  0.336367  0.995654  0.335142  1
  Al  Al18  1  0.995654  0.336367  0.335142  1
  Al  Al19  1  0.335904  0.335904  0.335643  1
  Mo  Mo20  1  0.874349  0.364912  0.877507  1
  Mo  Mo21  1  0.364912  0.874349  0.877507  1
  Os  Os22  1  0.009226  0.009226  0.988544  1
  Os  Os23  1  0.999791  0.999791  0.503653  1
  Os  Os24  1  0.494934  0.998347  0.509210  1
  Os  Os25  1  0.998347  0.494934  0.509210  1
  Os  Os26  1  0.503624  0.503624  0.996933  1
  Os  Os27  1  0.998996  0.497347  0.999337  1
  Os  Os28  1  0.497347  0.998996  0.999337  1
