# generated using pymatgen
data_Tb2Lu2Re3Os5
_symmetry_space_group_name_H-M   'P 1'
_cell_length_a   5.32198968
_cell_length_b   5.32532038
_cell_length_c   8.91044757
_cell_angle_alpha   90.00000021
_cell_angle_beta   89.94163104
_cell_angle_gamma   120.02069102
_symmetry_Int_Tables_number   1
_chemical_formula_structural   Tb2Lu2Re3Os5
_chemical_formula_sum   'Tb2 Lu2 Re3 Os5'
_cell_volume   218.65480877
_cell_formula_units_Z   1
loop_
 _symmetry_equiv_pos_site_id
 _symmetry_equiv_pos_as_xyz
  1  'x, y, z'
loop_
 _atom_site_type_symbol
 _atom_site_label
 _atom_site_symmetry_multiplicity
 _atom_site_fract_x
 _atom_site_fract_y
 _atom_site_fract_z
 _atom_site_occupancy
  Tb  Tb0  1  0.338207  0.669104  0.435217  1
  Tb  Tb1  1  0.669431  0.334715  0.563100  1
  Lu  Lu2  1  0.668903  0.334451  0.937068  1
  Lu  Lu3  1  0.337979  0.668990  0.064082  1
  Re  Re4  1  0.164262  0.337078  0.753349  1
  Re  Re5  1  0.164262  0.827185  0.753349  1
  Re  Re6  1  0.331094  0.165547  0.247728  1
  Os  Os7  1  0.819145  0.648433  0.246314  1
  Os  Os8  1  0.645421  0.822711  0.753769  1
  Os  Os9  1  0.020983  0.010492  0.000831  1
  Os  Os10  1  0.819145  0.170711  0.246314  1
  Os  Os11  1  0.021168  0.010584  0.498878  1
