# generated using pymatgen
data_Tb3Y5Tm2(SiB4)4
_symmetry_space_group_name_H-M   'P 1'
_cell_length_a   7.22823806
_cell_length_b   7.22823806
_cell_length_c   8.07634001
_cell_angle_alpha   89.99690001
_cell_angle_beta   89.99690001
_cell_angle_gamma   90.01401429
_symmetry_Int_Tables_number   1
_chemical_formula_structural   Tb3Y5Tm2(SiB4)4
_chemical_formula_sum   'Tb3 Y5 Tm2 Si4 B16'
_cell_volume   421.96795814
_cell_formula_units_Z   1
loop_
 _symmetry_equiv_pos_site_id
 _symmetry_equiv_pos_as_xyz
  1  'x, y, z'
loop_
 _atom_site_type_symbol
 _atom_site_label
 _atom_site_symmetry_multiplicity
 _atom_site_fract_x
 _atom_site_fract_y
 _atom_site_fract_z
 _atom_site_occupancy
  Tb  Tb0  1  0.680356  0.180356  0.225415  1
  Tb  Tb1  1  0.319608  0.819608  0.774440  1
  Tb  Tb2  1  0.319645  0.819645  0.225514  1
  Y  Y3  1  0.819697  0.680277  0.224823  1
  Y  Y4  1  0.819662  0.680343  0.775179  1
  Y  Y5  1  0.680323  0.180323  0.774914  1
  Y  Y6  1  0.180343  0.319662  0.775179  1
  Y  Y7  1  0.180277  0.319697  0.224823  1
  Tm  Tm8  1  0.999934  0.000019  0.500045  1
  Tm  Tm9  1  0.500019  0.499934  0.500045  1
  Si  Si10  1  0.115376  0.615376  0.500082  1
  Si  Si11  1  0.884464  0.384464  0.500077  1
  Si  Si12  1  0.384504  0.115683  0.500082  1
  Si  Si13  1  0.615683  0.884504  0.500082  1
  B  B14  1  0.172314  0.039048  0.999929  1
  B  B15  1  0.827652  0.960960  0.999965  1
  B  B16  1  0.960836  0.172297  0.999977  1
  B  B17  1  0.327785  0.539089  0.999920  1
  B  B18  1  0.039089  0.827785  0.999920  1
  B  B19  1  0.672297  0.460836  0.999977  1
  B  B20  1  0.539048  0.672314  0.999929  1
  B  B21  1  0.460960  0.327652  0.999965  1
  B  B22  1  0.089853  0.589853  0.999976  1
  B  B23  1  0.910213  0.410213  0.000100  1
  B  B24  1  0.410222  0.089831  0.999964  1
  B  B25  1  0.589831  0.910222  0.999964  1
  B  B26  1  0.999976  0.000051  0.162489  1
  B  B27  1  0.999909  0.000074  0.837368  1
  B  B28  1  0.500074  0.499909  0.837368  1
  B  B29  1  0.500051  0.499976  0.162489  1
