# generated using pymatgen
data_Sc12Cu3Si12Ru
_symmetry_space_group_name_H-M   'P 1'
_cell_length_a   4.00950300
_cell_length_b   10.21744656
_cell_length_c   11.70748272
_cell_angle_alpha   89.79439186
_cell_angle_beta   90.00000000
_cell_angle_gamma   90.00000000
_symmetry_Int_Tables_number   1
_chemical_formula_structural   Sc12Cu3Si12Ru
_chemical_formula_sum   'Sc12 Cu3 Si12 Ru1'
_cell_volume   479.61598223
_cell_formula_units_Z   1
loop_
 _symmetry_equiv_pos_site_id
 _symmetry_equiv_pos_as_xyz
  1  'x, y, z'
loop_
 _atom_site_type_symbol
 _atom_site_label
 _atom_site_symmetry_multiplicity
 _atom_site_fract_x
 _atom_site_fract_y
 _atom_site_fract_z
 _atom_site_occupancy
  Sc  Sc0  1  0.250000  0.877678  0.021709  1
  Sc  Sc1  1  0.250000  0.623144  0.524351  1
  Sc  Sc2  1  0.750000  0.123035  0.974859  1
  Sc  Sc3  1  0.750000  0.374645  0.474902  1
  Sc  Sc4  1  0.250000  0.920184  0.602774  1
  Sc  Sc5  1  0.250000  0.579432  0.099268  1
  Sc  Sc6  1  0.750000  0.077288  0.401478  1
  Sc  Sc7  1  0.750000  0.421946  0.903836  1
  Sc  Sc8  1  0.250000  0.658178  0.801163  1
  Sc  Sc9  1  0.250000  0.838327  0.301378  1
  Sc  Sc10  1  0.750000  0.337313  0.197771  1
  Sc  Sc11  1  0.750000  0.160253  0.700050  1
  Cu  Cu12  1  0.250000  0.385203  0.675549  1
  Cu  Cu13  1  0.250000  0.112897  0.178025  1
  Cu  Cu14  1  0.750000  0.614095  0.321100  1
  Si  Si15  1  0.250000  0.014550  0.824559  1
  Si  Si16  1  0.250000  0.484136  0.325491  1
  Si  Si17  1  0.750000  0.985497  0.177044  1
  Si  Si18  1  0.750000  0.513635  0.672733  1
  Si  Si19  1  0.250000  0.250677  0.843873  1
  Si  Si20  1  0.250000  0.249302  0.343298  1
  Si  Si21  1  0.750000  0.750820  0.156115  1
  Si  Si22  1  0.750000  0.749403  0.659868  1
  Si  Si23  1  0.250000  0.187573  0.541954  1
  Si  Si24  1  0.250000  0.313117  0.040790  1
  Si  Si25  1  0.750000  0.810323  0.459591  1
  Si  Si26  1  0.750000  0.697164  0.954929  1
  Ru  Ru27  1  0.750000  0.890186  0.821542  1
