# generated using pymatgen
data_Mg2P7(Ru5Rh)2
_symmetry_space_group_name_H-M   'P 1'
_cell_length_a   9.37962317
_cell_length_b   9.43955957
_cell_length_c   3.90212900
_cell_angle_alpha   90.00000000
_cell_angle_beta   90.00000000
_cell_angle_gamma   120.34632047
_symmetry_Int_Tables_number   1
_chemical_formula_structural   Mg2P7(Ru5Rh)2
_chemical_formula_sum   'Mg2 P7 Ru10 Rh2'
_cell_volume   298.15575247
_cell_formula_units_Z   1
loop_
 _symmetry_equiv_pos_site_id
 _symmetry_equiv_pos_as_xyz
  1  'x, y, z'
loop_
 _atom_site_type_symbol
 _atom_site_label
 _atom_site_symmetry_multiplicity
 _atom_site_fract_x
 _atom_site_fract_y
 _atom_site_fract_z
 _atom_site_occupancy
  Mg  Mg0  1  0.668357  0.334008  0.500000  1
  Mg  Mg1  1  0.329338  0.665568  0.000000  1
  P  P2  1  0.601326  0.715860  0.500000  1
  P  P3  1  0.997972  0.002184  0.000000  1
  P  P4  1  0.278755  0.880862  0.500000  1
  P  P5  1  0.113860  0.400846  0.500000  1
  P  P6  1  0.884299  0.577238  0.000000  1
  P  P7  1  0.424531  0.301024  0.000000  1
  P  P8  1  0.699269  0.119615  0.000000  1
  Ru  Ru9  1  0.917338  0.122612  0.500000  1
  Ru  Ru10  1  0.213397  0.088062  0.500000  1
  Ru  Ru11  1  0.877017  0.793678  0.500000  1
  Ru  Ru12  1  0.721684  0.886800  0.000000  1
  Ru  Ru13  1  0.109017  0.840464  0.000000  1
  Ru  Ru14  1  0.166272  0.274771  0.000000  1
  Ru  Ru15  1  0.433097  0.066177  0.000000  1
  Ru  Ru16  1  0.935559  0.363643  0.000000  1
  Ru  Ru17  1  0.636725  0.567343  0.000000  1
  Ru  Ru18  1  0.054431  0.609422  0.500000  1
  Rh  Rh19  1  0.547054  0.938749  0.500000  1
  Rh  Rh20  1  0.390704  0.451071  0.500000  1
