# generated using pymatgen
data_Tm3Co9SiGeB4
_symmetry_space_group_name_H-M   'P 1'
_cell_length_a   5.11244503
_cell_length_b   5.11310482
_cell_length_c   9.39727400
_cell_angle_alpha   90.00000000
_cell_angle_beta   90.00000000
_cell_angle_gamma   120.00755708
_symmetry_Int_Tables_number   1
_chemical_formula_structural   Tm3Co9SiGeB4
_chemical_formula_sum   'Tm3 Co9 Si1 Ge1 B4'
_cell_volume   212.72218840
_cell_formula_units_Z   1
loop_
 _symmetry_equiv_pos_site_id
 _symmetry_equiv_pos_as_xyz
  1  'x, y, z'
loop_
 _atom_site_type_symbol
 _atom_site_label
 _atom_site_symmetry_multiplicity
 _atom_site_fract_x
 _atom_site_fract_y
 _atom_site_fract_z
 _atom_site_occupancy
  Tm  Tm0  1  0.000000  0.000007  0.000000  1
  Tm  Tm1  1  0.999993  0.999980  0.660838  1
  Tm  Tm2  1  0.999993  0.999980  0.339162  1
  Co  Co3  1  0.500133  0.499854  0.500000  1
  Co  Co4  1  0.500136  0.000271  0.500000  1
  Co  Co5  1  0.999725  0.499853  0.500000  1
  Co  Co6  1  0.498822  0.501139  0.800223  1
  Co  Co7  1  0.498855  0.997706  0.800256  1
  Co  Co8  1  0.002309  0.501129  0.800251  1
  Co  Co9  1  0.498822  0.501139  0.199777  1
  Co  Co10  1  0.498855  0.997706  0.199744  1
  Co  Co11  1  0.002309  0.501129  0.199749  1
  Si  Si12  1  0.333128  0.666350  0.000000  1
  Ge  Ge13  1  0.666923  0.333757  0.000000  1
  B  B14  1  0.666694  0.333443  0.653728  1
  B  B15  1  0.333305  0.666558  0.652490  1
  B  B16  1  0.333305  0.666558  0.347510  1
  B  B17  1  0.666694  0.333443  0.346272  1
