# generated using pymatgen
data_LaEu4Si3
_symmetry_space_group_name_H-M   'P 1'
_cell_length_a   9.33340479
_cell_length_b   9.33340486
_cell_length_c   9.31822874
_cell_angle_alpha   129.85248842
_cell_angle_beta   129.85248700
_cell_angle_gamma   73.76710355
_symmetry_Int_Tables_number   1
_chemical_formula_structural   LaEu4Si3
_chemical_formula_sum   'La2 Eu8 Si6'
_cell_volume   466.41592922
_cell_formula_units_Z   2
loop_
 _symmetry_equiv_pos_site_id
 _symmetry_equiv_pos_as_xyz
  1  'x, y, z'
loop_
 _atom_site_type_symbol
 _atom_site_label
 _atom_site_symmetry_multiplicity
 _atom_site_fract_x
 _atom_site_fract_y
 _atom_site_fract_z
 _atom_site_occupancy
  La  La0  1  0.539189  0.039189  0.865325  1
  La  La1  1  0.173865  0.673865  0.134675  1
  Eu  Eu2  1  0.033067  0.177632  0.500000  1
  Eu  Eu3  1  0.677632  0.533067  0.500000  1
  Eu  Eu4  1  0.468505  0.968505  0.149427  1
  Eu  Eu5  1  0.819076  0.319076  0.850573  1
  Eu  Eu6  1  0.968049  0.821455  0.500000  1
  Eu  Eu7  1  0.321455  0.468049  0.500000  1
  Eu  Eu8  1  0.504386  0.504386  0.000000  1
  Eu  Eu9  1  0.004386  0.004386  0.000000  1
  Si  Si10  1  0.887652  0.387652  0.278997  1
  Si  Si11  1  0.108655  0.608655  0.721003  1
  Si  Si12  1  0.386281  0.105053  0.500000  1
  Si  Si13  1  0.605053  0.886281  0.500000  1
  Si  Si14  1  0.251374  0.251374  0.000000  1
  Si  Si15  1  0.751374  0.751374  0.000000  1
