# generated using pymatgen
data_Pu2SeF14
_symmetry_space_group_name_H-M   'P 1'
_cell_length_a   18.03694200
_cell_length_b   8.01920666
_cell_length_c   9.27496800
_cell_angle_alpha   76.22093829
_cell_angle_beta   90.00000000
_cell_angle_gamma   90.00000000
_symmetry_Int_Tables_number   1
_chemical_formula_structural   Pu2SeF14
_chemical_formula_sum   'Pu8 Se4 F56'
_cell_volume   1302.94166138
_cell_formula_units_Z   4
loop_
 _symmetry_equiv_pos_site_id
 _symmetry_equiv_pos_as_xyz
  1  'x, y, z'
loop_
 _atom_site_type_symbol
 _atom_site_label
 _atom_site_symmetry_multiplicity
 _atom_site_fract_x
 _atom_site_fract_y
 _atom_site_fract_z
 _atom_site_occupancy
  Pu  Pu0  1  0.816845  0.775418  0.225694  1
  Pu  Pu1  1  0.316845  0.224582  0.274306  1
  Pu  Pu2  1  0.183155  0.224582  0.774306  1
  Pu  Pu3  1  0.683155  0.775418  0.725694  1
  Pu  Pu4  1  0.535665  0.219824  0.674393  1
  Pu  Pu5  1  0.035665  0.780176  0.825607  1
  Pu  Pu6  1  0.464335  0.780176  0.325607  1
  Pu  Pu7  1  0.964335  0.219824  0.174393  1
  Se  Se8  1  0.863807  0.169815  0.629044  1
  Se  Se9  1  0.363807  0.830185  0.870956  1
  Se  Se10  1  0.136193  0.830185  0.370956  1
  Se  Se11  1  0.636193  0.169815  0.129044  1
  F  F12  1  0.666066  0.177490  0.304899  1
  F  F13  1  0.166066  0.822510  0.195101  1
  F  F14  1  0.333934  0.822510  0.695101  1
  F  F15  1  0.833934  0.177490  0.804899  1
  F  F16  1  0.698748  0.322850  0.037835  1
  F  F17  1  0.198748  0.677150  0.462165  1
  F  F18  1  0.301252  0.677150  0.962165  1
  F  F19  1  0.801252  0.322850  0.537835  1
  F  F20  1  0.566715  0.317150  0.132626  1
  F  F21  1  0.066715  0.682850  0.367374  1
  F  F22  1  0.433285  0.682850  0.867374  1
  F  F23  1  0.933285  0.317150  0.632626  1
  F  F24  1  0.762420  0.974860  0.656365  1
  F  F25  1  0.262420  0.025140  0.843635  1
  F  F26  1  0.237580  0.025140  0.343635  1
  F  F27  1  0.737580  0.974860  0.156365  1
  F  F28  1  0.601432  0.602979  0.796631  1
  F  F29  1  0.101432  0.397021  0.703369  1
  F  F30  1  0.398568  0.397021  0.203369  1
  F  F31  1  0.898568  0.602979  0.296631  1
  F  F32  1  0.763350  0.592368  0.770444  1
  F  F33  1  0.263350  0.407632  0.729556  1
  F  F34  1  0.236650  0.407632  0.229556  1
  F  F35  1  0.736650  0.592368  0.270444  1
  F  F36  1  0.683435  0.820780  0.930768  1
  F  F37  1  0.183435  0.179220  0.569232  1
  F  F38  1  0.316565  0.179220  0.069232  1
  F  F39  1  0.816565  0.820780  0.430768  1
  F  F40  1  0.669193  0.752520  0.516241  1
  F  F41  1  0.169193  0.247480  0.983759  1
  F  F42  1  0.330807  0.247480  0.483759  1
  F  F43  1  0.830807  0.752520  0.016241  1
  F  F44  1  0.599627  0.986791  0.670180  1
  F  F45  1  0.099627  0.013209  0.829820  1
  F  F46  1  0.400373  0.013209  0.329820  1
  F  F47  1  0.900373  0.986791  0.170180  1
  F  F48  1  0.447498  0.048192  0.758747  1
  F  F49  1  0.947498  0.951808  0.741253  1
  F  F50  1  0.552502  0.951808  0.241253  1
  F  F51  1  0.052502  0.048192  0.258747  1
  F  F52  1  0.627152  0.357050  0.598802  1
  F  F53  1  0.127152  0.642950  0.901198  1
  F  F54  1  0.372848  0.642950  0.401198  1
  F  F55  1  0.872848  0.357050  0.098802  1
  F  F56  1  0.469754  0.421615  0.682259  1
  F  F57  1  0.969754  0.578385  0.817741  1
  F  F58  1  0.530246  0.578385  0.317741  1
  F  F59  1  0.030246  0.421615  0.182259  1
  F  F60  1  0.577020  0.184545  0.893534  1
  F  F61  1  0.077020  0.815455  0.606466  1
  F  F62  1  0.422980  0.815455  0.106466  1
  F  F63  1  0.922980  0.184545  0.393534  1
  F  F64  1  0.504866  0.218469  0.465506  1
  F  F65  1  0.004866  0.781531  0.034494  1
  F  F66  1  0.495134  0.781531  0.534494  1
  F  F67  1  0.995134  0.218469  0.965506  1
