# generated using pymatgen
data_Pr10Pb6N
_symmetry_space_group_name_H-M   'P 1'
_cell_length_a   9.43192800
_cell_length_b   9.43192865
_cell_length_c   6.92092300
_cell_angle_alpha   90.00000000
_cell_angle_beta   90.00000000
_cell_angle_gamma   119.99999774
_symmetry_Int_Tables_number   1
_chemical_formula_structural   Pr10Pb6N
_chemical_formula_sum   'Pr10 Pb6 N1'
_cell_volume   533.20675472
_cell_formula_units_Z   1
loop_
 _symmetry_equiv_pos_site_id
 _symmetry_equiv_pos_as_xyz
  1  'x, y, z'
loop_
 _atom_site_type_symbol
 _atom_site_label
 _atom_site_symmetry_multiplicity
 _atom_site_fract_x
 _atom_site_fract_y
 _atom_site_fract_z
 _atom_site_occupancy
  Pr  Pr0  1  0.333333  0.666667  0.500000  1
  Pr  Pr1  1  0.666667  0.333333  0.500000  1
  Pr  Pr2  1  0.666667  0.333333  0.000000  1
  Pr  Pr3  1  0.333333  0.666667  0.000000  1
  Pr  Pr4  1  0.000000  0.776248  0.273067  1
  Pr  Pr5  1  0.223752  0.223752  0.273067  1
  Pr  Pr6  1  0.776248  0.000000  0.273067  1
  Pr  Pr7  1  0.000000  0.223752  0.726933  1
  Pr  Pr8  1  0.776248  0.776248  0.726933  1
  Pr  Pr9  1  0.223752  0.000000  0.726933  1
  Pb  Pb10  1  0.000000  0.400640  0.249591  1
  Pb  Pb11  1  0.599360  0.599360  0.249591  1
  Pb  Pb12  1  0.400640  0.000000  0.249591  1
  Pb  Pb13  1  0.000000  0.599360  0.750409  1
  Pb  Pb14  1  0.400640  0.400640  0.750409  1
  Pb  Pb15  1  0.599360  0.000000  0.750409  1
  N  N16  1  0.000000  0.000000  0.500000  1
