# generated using pymatgen
data_Ho16Tm3LuIr12
_symmetry_space_group_name_H-M   'P 1'
_cell_length_a   10.82569400
_cell_length_b   10.82569400
_cell_length_c   6.33173800
_cell_angle_alpha   90.00000000
_cell_angle_beta   90.00000000
_cell_angle_gamma   90.00000000
_symmetry_Int_Tables_number   1
_chemical_formula_structural   Ho16Tm3LuIr12
_chemical_formula_sum   'Ho16 Tm3 Lu1 Ir12'
_cell_volume   742.05215422
_cell_formula_units_Z   1
loop_
 _symmetry_equiv_pos_site_id
 _symmetry_equiv_pos_as_xyz
  1  'x, y, z'
loop_
 _atom_site_type_symbol
 _atom_site_label
 _atom_site_symmetry_multiplicity
 _atom_site_fract_x
 _atom_site_fract_y
 _atom_site_fract_z
 _atom_site_occupancy
  Ho  Ho0  1  0.290701  0.087569  0.377339  1
  Ho  Ho1  1  0.290814  0.912391  0.877282  1
  Ho  Ho2  1  0.709186  0.087609  0.877282  1
  Ho  Ho3  1  0.709299  0.912431  0.377339  1
  Ho  Ho4  1  0.587609  0.790864  0.877311  1
  Ho  Ho5  1  0.587638  0.209131  0.377279  1
  Ho  Ho6  1  0.412362  0.790869  0.377279  1
  Ho  Ho7  1  0.412391  0.209136  0.877311  1
  Ho  Ho8  1  0.209131  0.412362  0.622721  1
  Ho  Ho9  1  0.209136  0.587609  0.122689  1
  Ho  Ho10  1  0.790864  0.412391  0.122689  1
  Ho  Ho11  1  0.790869  0.587638  0.622721  1
  Ho  Ho12  1  0.912391  0.709186  0.122718  1
  Ho  Ho13  1  0.912431  0.290701  0.622661  1
  Ho  Ho14  1  0.087569  0.709299  0.622661  1
  Ho  Ho15  1  0.087609  0.290814  0.122718  1
  Tm  Tm16  1  0.000000  0.000000  0.000000  1
  Tm  Tm17  1  0.500000  0.500000  0.000000  1
  Tm  Tm18  1  0.500000  0.500000  0.500000  1
  Lu  Lu19  1  0.000000  0.000000  0.500000  1
  Ir  Ir20  1  0.847623  0.152385  0.250355  1
  Ir  Ir21  1  0.847615  0.847623  0.749645  1
  Ir  Ir22  1  0.152385  0.152377  0.749645  1
  Ir  Ir23  1  0.152377  0.847615  0.250355  1
  Ir  Ir24  1  0.652621  0.347379  0.750003  1
  Ir  Ir25  1  0.652621  0.652621  0.249997  1
  Ir  Ir26  1  0.347379  0.347379  0.249997  1
  Ir  Ir27  1  0.347379  0.652621  0.750003  1
  Ir  Ir28  1  0.500000  0.000000  0.122247  1
  Ir  Ir29  1  0.500000  0.000000  0.622251  1
  Ir  Ir30  1  0.000000  0.500000  0.877753  1
  Ir  Ir31  1  0.000000  0.500000  0.377749  1
