# generated using pymatgen
data_Dy3Tm9Tc3Rh
_symmetry_space_group_name_H-M   'P 1'
_cell_length_a   6.22372357
_cell_length_b   7.33394016
_cell_length_c   9.02668900
_cell_angle_alpha   90.00000000
_cell_angle_beta   90.00000000
_cell_angle_gamma   89.98052395
_symmetry_Int_Tables_number   1
_chemical_formula_structural   Dy3Tm9Tc3Rh
_chemical_formula_sum   'Dy3 Tm9 Tc3 Rh1'
_cell_volume   412.01792621
_cell_formula_units_Z   1
loop_
 _symmetry_equiv_pos_site_id
 _symmetry_equiv_pos_as_xyz
  1  'x, y, z'
loop_
 _atom_site_type_symbol
 _atom_site_label
 _atom_site_symmetry_multiplicity
 _atom_site_fract_x
 _atom_site_fract_y
 _atom_site_fract_z
 _atom_site_occupancy
  Dy  Dy0  1  0.622980  0.037902  0.250000  1
  Dy  Dy1  1  0.128427  0.458213  0.750000  1
  Dy  Dy2  1  0.374876  0.959929  0.750000  1
  Tm  Tm3  1  0.332087  0.676617  0.065579  1
  Tm  Tm4  1  0.160471  0.176758  0.436883  1
  Tm  Tm5  1  0.661851  0.322469  0.560507  1
  Tm  Tm6  1  0.839591  0.825003  0.939386  1
  Tm  Tm7  1  0.661851  0.322469  0.939493  1
  Tm  Tm8  1  0.839591  0.825003  0.560614  1
  Tm  Tm9  1  0.332087  0.676617  0.434421  1
  Tm  Tm10  1  0.160471  0.176758  0.063117  1
  Tm  Tm11  1  0.874684  0.540250  0.250000  1
  Tc  Tc12  1  0.040193  0.883670  0.250000  1
  Tc  Tc13  1  0.463887  0.386720  0.250000  1
  Tc  Tc14  1  0.959425  0.116601  0.750000  1
  Rh  Rh15  1  0.547527  0.615018  0.750000  1
