# generated using pymatgen
data_Tb2TcPtF14
_symmetry_space_group_name_H-M   'P 1'
_cell_length_a   5.58636906
_cell_length_b   8.95183439
_cell_length_c   12.06205781
_cell_angle_alpha   62.32702129
_cell_angle_beta   90.05071055
_cell_angle_gamma   90.09884863
_symmetry_Int_Tables_number   1
_chemical_formula_structural   Tb2TcPtF14
_chemical_formula_sum   'Tb4 Tc2 Pt2 F28'
_cell_volume   534.20294906
_cell_formula_units_Z   2
loop_
 _symmetry_equiv_pos_site_id
 _symmetry_equiv_pos_as_xyz
  1  'x, y, z'
loop_
 _atom_site_type_symbol
 _atom_site_label
 _atom_site_symmetry_multiplicity
 _atom_site_fract_x
 _atom_site_fract_y
 _atom_site_fract_z
 _atom_site_occupancy
  Tb  Tb0  1  0.258254  0.813106  0.265164  1
  Tb  Tb1  1  0.741746  0.186894  0.734836  1
  Tb  Tb2  1  0.759390  0.185528  0.236764  1
  Tb  Tb3  1  0.240610  0.814472  0.763236  1
  Tc  Tc4  1  0.757798  0.726662  0.042624  1
  Tc  Tc5  1  0.242202  0.273338  0.957376  1
  Pt  Pt6  1  0.258947  0.273276  0.456937  1
  Pt  Pt7  1  0.741053  0.726724  0.543063  1
  F  F8  1  0.934600  0.704490  0.415361  1
  F  F9  1  0.065400  0.295510  0.584639  1
  F  F10  1  0.445261  0.291374  0.082973  1
  F  F11  1  0.554739  0.708626  0.917027  1
  F  F12  1  0.475095  0.729764  0.138108  1
  F  F13  1  0.524905  0.270236  0.861892  1
  F  F14  1  0.967851  0.273767  0.364775  1
  F  F15  1  0.032149  0.726233  0.635225  1
  F  F16  1  0.955086  0.745170  0.171123  1
  F  F17  1  0.044914  0.254830  0.828877  1
  F  F18  1  0.448893  0.257529  0.325093  1
  F  F19  1  0.551107  0.742471  0.674907  1
  F  F20  1  0.771829  0.479914  0.140218  1
  F  F21  1  0.228171  0.520086  0.859782  1
  F  F22  1  0.269404  0.520577  0.358471  1
  F  F23  1  0.730596  0.479423  0.641529  1
  F  F24  1  0.948327  0.278032  0.046640  1
  F  F25  1  0.051673  0.721968  0.953360  1
  F  F26  1  0.443463  0.719566  0.457391  1
  F  F27  1  0.556537  0.280434  0.542609  1
  F  F28  1  0.741465  0.974186  0.449864  1
  F  F29  1  0.258535  0.025814  0.550136  1
  F  F30  1  0.240775  0.027313  0.053955  1
  F  F31  1  0.759225  0.972687  0.946045  1
  F  F32  1  0.585457  0.968615  0.232476  1
  F  F33  1  0.414543  0.031385  0.767524  1
  F  F34  1  0.084752  0.029672  0.269646  1
  F  F35  1  0.915248  0.970328  0.730354  1
