# generated using pymatgen
data_Cs4Ba(TaS4)2
_symmetry_space_group_name_H-M   'P 1'
_cell_length_a   12.39757270
_cell_length_b   12.39757309
_cell_length_c   12.39757274
_cell_angle_alpha   133.02572676
_cell_angle_beta   128.96769597
_cell_angle_gamma   71.86790624
_symmetry_Int_Tables_number   1
_chemical_formula_structural   Cs4Ba(TaS4)2
_chemical_formula_sum   'Cs8 Ba2 Ta4 S16'
_cell_volume   1059.51531222
_cell_formula_units_Z   2
loop_
 _symmetry_equiv_pos_site_id
 _symmetry_equiv_pos_as_xyz
  1  'x, y, z'
loop_
 _atom_site_type_symbol
 _atom_site_label
 _atom_site_symmetry_multiplicity
 _atom_site_fract_x
 _atom_site_fract_y
 _atom_site_fract_z
 _atom_site_occupancy
  Cs  Cs0  1  0.503034  0.253034  0.250000  1
  Cs  Cs1  1  0.996966  0.746966  0.250000  1
  Cs  Cs2  1  0.577962  0.705659  0.127698  1
  Cs  Cs3  1  0.422038  0.294341  0.872302  1
  Cs  Cs4  1  0.496966  0.746966  0.750000  1
  Cs  Cs5  1  0.077962  0.450264  0.372302  1
  Cs  Cs6  1  0.922038  0.549736  0.627698  1
  Cs  Cs7  1  0.003034  0.253034  0.750000  1
  Ba  Ba8  1  0.250000  0.000000  0.250000  1
  Ba  Ba9  1  0.750000  0.000000  0.750000  1
  Ta  Ta10  1  0.126985  0.928394  0.801409  1
  Ta  Ta11  1  0.873015  0.071606  0.198591  1
  Ta  Ta12  1  0.373015  0.674425  0.301409  1
  Ta  Ta13  1  0.626985  0.325575  0.698591  1
  S  S14  1  0.593925  0.626785  0.381910  1
  S  S15  1  0.760788  0.994799  0.234012  1
  S  S16  1  0.898895  0.871165  0.972269  1
  S  S17  1  0.755124  0.373215  0.967139  1
  S  S18  1  0.744876  0.212015  0.118090  1
  S  S19  1  0.739212  0.473224  0.734012  1
  S  S20  1  0.239212  0.005201  0.765988  1
  S  S21  1  0.244876  0.626785  0.032861  1
  S  S22  1  0.260788  0.526776  0.265988  1
  S  S23  1  0.255124  0.787985  0.881910  1
  S  S24  1  0.101105  0.128835  0.027731  1
  S  S25  1  0.906075  0.787985  0.532861  1
  S  S26  1  0.093925  0.212015  0.467139  1
  S  S27  1  0.601105  0.073374  0.472269  1
  S  S28  1  0.406075  0.373215  0.618090  1
  S  S29  1  0.398895  0.926626  0.527731  1
