# generated using pymatgen
data_Tb3Yb3Mn3WC12
_symmetry_space_group_name_H-M   'P 1'
_cell_length_a   8.13802737
_cell_length_b   8.14279810
_cell_length_c   5.07368831
_cell_angle_alpha   90.03399212
_cell_angle_beta   90.00168877
_cell_angle_gamma   120.05967942
_symmetry_Int_Tables_number   1
_chemical_formula_structural   Tb3Yb3Mn3WC12
_chemical_formula_sum   'Tb3 Yb3 Mn3 W1 C12'
_cell_volume   290.99507286
_cell_formula_units_Z   1
loop_
 _symmetry_equiv_pos_site_id
 _symmetry_equiv_pos_as_xyz
  1  'x, y, z'
loop_
 _atom_site_type_symbol
 _atom_site_label
 _atom_site_symmetry_multiplicity
 _atom_site_fract_x
 _atom_site_fract_y
 _atom_site_fract_z
 _atom_site_occupancy
  Tb  Tb0  1  0.317655  0.935267  0.750576  1
  Tb  Tb1  1  0.064987  0.385449  0.747904  1
  Tb  Tb2  1  0.385716  0.319986  0.248832  1
  Yb  Yb3  1  0.612505  0.682245  0.745815  1
  Yb  Yb4  1  0.929028  0.612344  0.252309  1
  Yb  Yb5  1  0.679649  0.069167  0.254089  1
  Mn  Mn6  1  0.993944  0.995564  0.001823  1
  Mn  Mn7  1  0.667607  0.331670  0.755836  1
  Mn  Mn8  1  0.332600  0.664150  0.243903  1
  W  W9  1  0.999433  0.999488  0.501238  1
  C  C10  1  0.958166  0.766585  0.749223  1
  C  C11  1  0.198943  0.963007  0.250516  1
  C  C12  1  0.768021  0.812315  0.248973  1
  C  C13  1  0.233982  0.197259  0.748880  1
  C  C14  1  0.814020  0.043251  0.751241  1
  C  C15  1  0.040135  0.229675  0.248908  1
  C  C16  1  0.859485  0.573560  0.757842  1
  C  C17  1  0.284637  0.855852  0.244988  1
  C  C18  1  0.576059  0.715799  0.240782  1
  C  C19  1  0.428340  0.286549  0.754358  1
  C  C20  1  0.139334  0.422796  0.242426  1
  C  C21  1  0.715753  0.138023  0.759538  1
