# generated using pymatgen
data_Sc12InNi4Ir
_symmetry_space_group_name_H-M   'P 1'
_cell_length_a   7.76975310
_cell_length_b   7.76975268
_cell_length_c   7.76975252
_cell_angle_alpha   110.90390690
_cell_angle_beta   111.32124977
_cell_angle_gamma   106.23642444
_symmetry_Int_Tables_number   1
_chemical_formula_structural   Sc12InNi4Ir
_chemical_formula_sum   'Sc12 In1 Ni4 Ir1'
_cell_volume   360.21486020
_cell_formula_units_Z   1
loop_
 _symmetry_equiv_pos_site_id
 _symmetry_equiv_pos_as_xyz
  1  'x, y, z'
loop_
 _atom_site_type_symbol
 _atom_site_label
 _atom_site_symmetry_multiplicity
 _atom_site_fract_x
 _atom_site_fract_y
 _atom_site_fract_z
 _atom_site_occupancy
  Sc  Sc0  1  0.422781  0.226708  0.196072  1
  Sc  Sc1  1  0.577219  0.773292  0.803928  1
  Sc  Sc2  1  0.030637  0.226708  0.803928  1
  Sc  Sc3  1  0.969363  0.773292  0.196072  1
  Sc  Sc4  1  0.321585  0.621320  0.299733  1
  Sc  Sc5  1  0.678415  0.378680  0.700267  1
  Sc  Sc6  1  0.321585  0.021851  0.700267  1
  Sc  Sc7  1  0.678415  0.978149  0.299733  1
  Sc  Sc8  1  0.182236  0.278059  0.460295  1
  Sc  Sc9  1  0.817764  0.721940  0.539705  1
  Sc  Sc10  1  0.182236  0.721940  0.904178  1
  Sc  Sc11  1  0.817764  0.278059  0.095822  1
  In  In12  1  0.500000  0.500000  0.000000  1
  Ni  Ni13  1  0.354800  0.000000  0.354800  1
  Ni  Ni14  1  0.645200  0.000000  0.645200  1
  Ni  Ni15  1  0.125162  0.625162  0.500000  1
  Ni  Ni16  1  0.874838  0.374838  0.500000  1
  Ir  Ir17  1  0.000000  0.000000  0.000000  1
