# generated using pymatgen
data_RbEuNp2O8
_symmetry_space_group_name_H-M   'P 1'
_cell_length_a   8.11839331
_cell_length_b   8.11839324
_cell_length_c   7.88811500
_cell_angle_alpha   62.67653994
_cell_angle_beta   62.67654019
_cell_angle_gamma   89.09404698
_symmetry_Int_Tables_number   1
_chemical_formula_structural   RbEuNp2O8
_chemical_formula_sum   'Rb2 Eu2 Np4 O16'
_cell_volume   397.65003549
_cell_formula_units_Z   2
loop_
 _symmetry_equiv_pos_site_id
 _symmetry_equiv_pos_as_xyz
  1  'x, y, z'
loop_
 _atom_site_type_symbol
 _atom_site_label
 _atom_site_symmetry_multiplicity
 _atom_site_fract_x
 _atom_site_fract_y
 _atom_site_fract_z
 _atom_site_occupancy
  Rb  Rb0  1  0.206996  0.793004  0.750000  1
  Rb  Rb1  1  0.793004  0.206996  0.250000  1
  Eu  Eu2  1  0.786636  0.213364  0.750000  1
  Eu  Eu3  1  0.213364  0.786636  0.250000  1
  Np  Np4  1  0.699880  0.681618  0.801877  1
  Np  Np5  1  0.300120  0.318382  0.198123  1
  Np  Np6  1  0.318382  0.300120  0.698123  1
  Np  Np7  1  0.681618  0.699880  0.301877  1
  O  O8  1  0.622112  0.758013  0.556119  1
  O  O9  1  0.377888  0.241987  0.443881  1
  O  O10  1  0.241987  0.377888  0.943881  1
  O  O11  1  0.758013  0.622112  0.056119  1
  O  O12  1  0.344704  0.049229  0.880598  1
  O  O13  1  0.655296  0.950771  0.119402  1
  O  O14  1  0.950771  0.655296  0.619402  1
  O  O15  1  0.049229  0.344704  0.380598  1
  O  O16  1  0.597723  0.379580  0.953796  1
  O  O17  1  0.402277  0.620420  0.046204  1
  O  O18  1  0.620420  0.402277  0.546204  1
  O  O19  1  0.379580  0.597723  0.453796  1
  O  O20  1  0.770015  0.953067  0.689370  1
  O  O21  1  0.229985  0.046933  0.310630  1
  O  O22  1  0.046933  0.229985  0.810630  1
  O  O23  1  0.953067  0.770015  0.189370  1
