# generated using pymatgen
data_Gd3Y9In8(GaO4)12
_symmetry_space_group_name_H-M   'P 1'
_cell_length_a   11.04132391
_cell_length_b   11.04260069
_cell_length_c   11.04240401
_cell_angle_alpha   109.47290026
_cell_angle_beta   109.46821133
_cell_angle_gamma   109.47092617
_symmetry_Int_Tables_number   1
_chemical_formula_structural   Gd3Y9In8(GaO4)12
_chemical_formula_sum   'Gd3 Y9 In8 Ga12 O48'
_cell_volume   1036.43713370
_cell_formula_units_Z   1
loop_
 _symmetry_equiv_pos_site_id
 _symmetry_equiv_pos_as_xyz
  1  'x, y, z'
loop_
 _atom_site_type_symbol
 _atom_site_label
 _atom_site_symmetry_multiplicity
 _atom_site_fract_x
 _atom_site_fract_y
 _atom_site_fract_z
 _atom_site_occupancy
  Gd  Gd0  1  0.375129  0.750442  0.124985  1
  Gd  Gd1  1  0.249855  0.374541  0.124984  1
  Gd  Gd2  1  0.875048  0.625048  0.250094  1
  Y  Y3  1  0.375078  0.125078  0.250156  1
  Y  Y4  1  0.124956  0.249966  0.375283  1
  Y  Y5  1  0.750329  0.125317  0.375285  1
  Y  Y6  1  0.874993  0.750022  0.625313  1
  Y  Y7  1  0.250320  0.875291  0.625313  1
  Y  Y8  1  0.124622  0.374622  0.749242  1
  Y  Y9  1  0.625050  0.875050  0.750099  1
  Y  Y10  1  0.624709  0.249567  0.874584  1
  Y  Y11  1  0.749874  0.625016  0.874584  1
  In  In12  1  0.999888  0.999522  0.999840  1
  In  In13  1  0.499952  0.000318  0.999840  1
  In  In14  1  0.999374  0.499726  0.999127  1
  In  In15  1  0.499754  0.499402  0.999127  1
  In  In16  1  0.000456  0.000563  0.500573  1
  In  In17  1  0.500274  0.499913  0.500551  1
  In  In18  1  0.500277  0.000638  0.500552  1
  In  In19  1  0.000117  0.500010  0.500574  1
  Ga  Ga20  1  0.750486  0.875698  0.124789  1
  Ga  Ga21  1  0.874305  0.249091  0.124790  1
  Ga  Ga22  1  0.624932  0.374274  0.250232  1
  Ga  Ga23  1  0.125302  0.875960  0.250232  1
  Ga  Ga24  1  0.625829  0.750913  0.376303  1
  Ga  Ga25  1  0.250474  0.625391  0.376304  1
  Ga  Ga26  1  0.750021  0.375036  0.624979  1
  Ga  Ga27  1  0.374959  0.249941  0.624980  1
  Ga  Ga28  1  0.374820  0.624634  0.749233  1
  Ga  Ga29  1  0.874412  0.124598  0.749233  1
  Ga  Ga30  1  0.124436  0.750054  0.874460  1
  Ga  Ga31  1  0.250023  0.124406  0.874461  1
  O  O32  1  0.218201  0.128207  0.032107  1
  O  O33  1  0.313907  0.903901  0.032109  1
  O  O34  1  0.717068  0.685204  0.086724  1
  O  O35  1  0.869655  0.401521  0.086724  1
  O  O36  1  0.967870  0.686355  0.095842  1
  O  O37  1  0.627973  0.409486  0.095842  1
  O  O38  1  0.031971  0.216804  0.130335  1
  O  O39  1  0.598363  0.913530  0.130336  1
  O  O40  1  0.217094  0.589080  0.186188  1
  O  O41  1  0.469095  0.597108  0.186189  1
  O  O42  1  0.130004  0.033380  0.218024  1
  O  O43  1  0.588019  0.184643  0.218025  1
  O  O44  1  0.315422  0.913822  0.283194  1
  O  O45  1  0.467772  0.369371  0.283194  1
  O  O46  1  0.911860  0.282112  0.315009  1
  O  O47  1  0.903149  0.032898  0.315009  1
  O  O48  1  0.281902  0.467627  0.372247  1
  O  O49  1  0.590345  0.904620  0.372247  1
  O  O50  1  0.813993  0.532252  0.404219  1
  O  O51  1  0.090225  0.871967  0.404219  1
  O  O52  1  0.098087  0.630472  0.413618  1
  O  O53  1  0.815532  0.783147  0.413619  1
  O  O54  1  0.597277  0.185268  0.467122  1
  O  O55  1  0.369846  0.281855  0.467122  1
  O  O56  1  0.403407  0.815360  0.533287  1
  O  O57  1  0.629881  0.717928  0.533288  1
  O  O58  1  0.185108  0.218126  0.587701  1
  O  O59  1  0.902593  0.369574  0.587701  1
  O  O60  1  0.912195  0.130189  0.597021  1
  O  O61  1  0.184828  0.466833  0.597022  1
  O  O62  1  0.412316  0.097432  0.630463  1
  O  O63  1  0.718146  0.533032  0.630463  1
  O  O64  1  0.097028  0.966747  0.684934  1
  O  O65  1  0.087906  0.718188  0.684935  1
  O  O66  1  0.685009  0.087926  0.718180  1
  O  O67  1  0.533171  0.630254  0.718179  1
  O  O68  1  0.411984  0.814728  0.781948  1
  O  O69  1  0.869962  0.967220  0.781947  1
  O  O70  1  0.533166  0.402794  0.814634  1
  O  O71  1  0.781468  0.411839  0.814634  1
  O  O72  1  0.402853  0.087614  0.869449  1
  O  O73  1  0.966597  0.781835  0.869449  1
  O  O74  1  0.031968  0.314816  0.901513  1
  O  O75  1  0.369545  0.586697  0.901513  1
  O  O76  1  0.281432  0.313656  0.909516  1
  O  O77  1  0.128085  0.595861  0.909517  1
  O  O78  1  0.684727  0.096698  0.966676  1
  O  O79  1  0.781948  0.869978  0.966676  1
