# generated using pymatgen
data_Sr4Cd4In3Hg
_symmetry_space_group_name_H-M   'P 1'
_cell_length_a   8.08933578
_cell_length_b   5.07420000
_cell_length_c   8.79748117
_cell_angle_alpha   90.00000000
_cell_angle_beta   90.78178232
_cell_angle_gamma   90.00000000
_symmetry_Int_Tables_number   1
_chemical_formula_structural   Sr4Cd4In3Hg
_chemical_formula_sum   'Sr4 Cd4 In3 Hg1'
_cell_volume   361.07578202
_cell_formula_units_Z   1
loop_
 _symmetry_equiv_pos_site_id
 _symmetry_equiv_pos_as_xyz
  1  'x, y, z'
loop_
 _atom_site_type_symbol
 _atom_site_label
 _atom_site_symmetry_multiplicity
 _atom_site_fract_x
 _atom_site_fract_y
 _atom_site_fract_z
 _atom_site_occupancy
  Sr  Sr0  1  0.002732  0.750000  0.210396  1
  Sr  Sr1  1  0.497450  0.750000  0.285361  1
  Sr  Sr2  1  0.499769  0.249999  0.711303  1
  Sr  Sr3  1  0.000298  0.249999  0.791258  1
  Cd  Cd4  1  0.702827  0.249999  0.084420  1
  Cd  Cd5  1  0.197160  0.249999  0.416208  1
  Cd  Cd6  1  0.800633  0.750000  0.586362  1
  Cd  Cd7  1  0.304138  0.750000  0.915532  1
  In  In8  1  0.801212  0.249999  0.413471  1
  In  In9  1  0.197235  0.750000  0.586327  1
  In  In10  1  0.699608  0.750000  0.913885  1
  Hg  Hg11  1  0.296939  0.249999  0.085480  1
