# generated using pymatgen
data_DyRhBr18
_symmetry_space_group_name_H-M   'P 1'
_cell_length_a   9.24105427
_cell_length_b   9.24535208
_cell_length_c   9.24515941
_cell_angle_alpha   87.33436206
_cell_angle_beta   87.38203763
_cell_angle_gamma   87.41806045
_symmetry_Int_Tables_number   1
_chemical_formula_structural   DyRhBr18
_chemical_formula_sum   'Dy1 Rh1 Br18'
_cell_volume   787.46910305
_cell_formula_units_Z   1
loop_
 _symmetry_equiv_pos_site_id
 _symmetry_equiv_pos_as_xyz
  1  'x, y, z'
loop_
 _atom_site_type_symbol
 _atom_site_label
 _atom_site_symmetry_multiplicity
 _atom_site_fract_x
 _atom_site_fract_y
 _atom_site_fract_z
 _atom_site_occupancy
  Dy  Dy0  1  0.000000  0.000000  0.000000  1
  Rh  Rh1  1  0.500000  0.500000  0.500000  1
  Br  Br2  1  0.770227  0.462901  0.508156  1
  Br  Br3  1  0.509005  0.770053  0.462637  1
  Br  Br4  1  0.464300  0.509252  0.770143  1
  Br  Br5  1  0.229773  0.537099  0.491844  1
  Br  Br6  1  0.490995  0.229947  0.537363  1
  Br  Br7  1  0.535700  0.490748  0.229857  1
  Br  Br8  1  0.881029  0.382157  0.747936  1
  Br  Br9  1  0.748802  0.880993  0.382234  1
  Br  Br10  1  0.382924  0.748805  0.880477  1
  Br  Br11  1  0.118971  0.617843  0.252064  1
  Br  Br12  1  0.251198  0.119007  0.617766  1
  Br  Br13  1  0.617076  0.251195  0.119523  1
  Br  Br14  1  0.027682  0.968131  0.697498  1
  Br  Br15  1  0.697161  0.027795  0.969468  1
  Br  Br16  1  0.968626  0.697325  0.028408  1
  Br  Br17  1  0.972318  0.031869  0.302502  1
  Br  Br18  1  0.302839  0.972205  0.030532  1
  Br  Br19  1  0.031374  0.302675  0.971592  1
