# generated using pymatgen
data_Nd3Tm2P12Ru9Rh10
_symmetry_space_group_name_H-M   'P 1'
_cell_length_a   12.65792200
_cell_length_b   12.65792162
_cell_length_c   3.96065700
_cell_angle_alpha   90.00000000
_cell_angle_beta   90.00000000
_cell_angle_gamma   120.00000621
_symmetry_Int_Tables_number   1
_chemical_formula_structural   Nd3Tm2P12Ru9Rh10
_chemical_formula_sum   'Nd3 Tm2 P12 Ru9 Rh10'
_cell_volume   549.56954183
_cell_formula_units_Z   1
loop_
 _symmetry_equiv_pos_site_id
 _symmetry_equiv_pos_as_xyz
  1  'x, y, z'
loop_
 _atom_site_type_symbol
 _atom_site_label
 _atom_site_symmetry_multiplicity
 _atom_site_fract_x
 _atom_site_fract_y
 _atom_site_fract_z
 _atom_site_occupancy
  Nd  Nd0  1  0.000000  0.186204  0.500000  1
  Nd  Nd1  1  0.813796  0.813796  0.500000  1
  Nd  Nd2  1  0.186204  0.000000  0.500000  1
  Tm  Tm3  1  0.666667  0.333333  0.000000  1
  Tm  Tm4  1  0.333333  0.666667  0.000000  1
  P  P5  1  0.000000  0.814429  0.000000  1
  P  P6  1  0.185571  0.185571  0.000000  1
  P  P7  1  0.814429  0.000000  0.000000  1
  P  P8  1  0.689855  0.174444  0.500000  1
  P  P9  1  0.825556  0.515411  0.500000  1
  P  P10  1  0.484589  0.310145  0.500000  1
  P  P11  1  0.174444  0.689855  0.500000  1
  P  P12  1  0.515411  0.825556  0.500000  1
  P  P13  1  0.310145  0.484589  0.500000  1
  P  P14  1  0.000000  0.371933  0.000000  1
  P  P15  1  0.628067  0.628067  0.000000  1
  P  P16  1  0.371933  0.000000  0.000000  1
  Ru  Ru17  1  0.000000  0.711395  0.500000  1
  Ru  Ru18  1  0.288605  0.288605  0.500000  1
  Ru  Ru19  1  0.711395  0.000000  0.500000  1
  Ru  Ru20  1  0.872463  0.362881  0.500000  1
  Ru  Ru21  1  0.637119  0.509582  0.500000  1
  Ru  Ru22  1  0.490418  0.127537  0.500000  1
  Ru  Ru23  1  0.362881  0.872463  0.500000  1
  Ru  Ru24  1  0.509582  0.637119  0.500000  1
  Ru  Ru25  1  0.127537  0.490418  0.500000  1
  Rh  Rh26  1  0.000000  0.550877  0.000000  1
  Rh  Rh27  1  0.449123  0.449123  0.000000  1
  Rh  Rh28  1  0.550877  0.000000  0.000000  1
  Rh  Rh29  1  0.803990  0.183176  0.000000  1
  Rh  Rh30  1  0.816824  0.620814  0.000000  1
  Rh  Rh31  1  0.379186  0.196010  0.000000  1
  Rh  Rh32  1  0.183176  0.803990  0.000000  1
  Rh  Rh33  1  0.620814  0.816824  0.000000  1
  Rh  Rh34  1  0.196010  0.379186  0.000000  1
  Rh  Rh35  1  0.000000  0.000000  0.000000  1
