# generated using pymatgen
data_Zr4TaTi(NbP2)2
_symmetry_space_group_name_H-M   'P 1'
_cell_length_a   3.56324900
_cell_length_b   6.88612995
_cell_length_c   8.33398003
_cell_angle_alpha   90.16404029
_cell_angle_beta   90.00000000
_cell_angle_gamma   90.00000000
_symmetry_Int_Tables_number   1
_chemical_formula_structural   Zr4TaTi(NbP2)2
_chemical_formula_sum   'Zr4 Ta1 Ti1 Nb2 P4'
_cell_volume   204.48999386
_cell_formula_units_Z   1
loop_
 _symmetry_equiv_pos_site_id
 _symmetry_equiv_pos_as_xyz
  1  'x, y, z'
loop_
 _atom_site_type_symbol
 _atom_site_label
 _atom_site_symmetry_multiplicity
 _atom_site_fract_x
 _atom_site_fract_y
 _atom_site_fract_z
 _atom_site_occupancy
  Zr  Zr0  1  0.250000  0.534428  0.832500  1
  Zr  Zr1  1  0.750000  0.966167  0.329751  1
  Zr  Zr2  1  0.250000  0.035116  0.669209  1
  Zr  Zr3  1  0.750000  0.465816  0.168365  1
  Ta  Ta4  1  0.250000  0.638690  0.439476  1
  Ti  Ti5  1  0.250000  0.135908  0.060070  1
  Nb  Nb6  1  0.750000  0.862920  0.940879  1
  Nb  Nb7  1  0.750000  0.360332  0.559437  1
  P  P8  1  0.750000  0.738514  0.641499  1
  P  P9  1  0.250000  0.762533  0.141033  1
  P  P10  1  0.750000  0.238080  0.864277  1
  P  P11  1  0.250000  0.261499  0.353503  1
