# generated using pymatgen
data_La13ThIr5Au
_symmetry_space_group_name_H-M   'P 1'
_cell_length_a   6.55915803
_cell_length_b   10.28828538
_cell_length_c   10.28828506
_cell_angle_alpha   120.11099203
_cell_angle_beta   90.03160795
_cell_angle_gamma   89.96838360
_symmetry_Int_Tables_number   1
_chemical_formula_structural   La13ThIr5Au
_chemical_formula_sum   'La13 Th1 Ir5 Au1'
_cell_volume   600.58960918
_cell_formula_units_Z   1
loop_
 _symmetry_equiv_pos_site_id
 _symmetry_equiv_pos_as_xyz
  1  'x, y, z'
loop_
 _atom_site_type_symbol
 _atom_site_label
 _atom_site_symmetry_multiplicity
 _atom_site_fract_x
 _atom_site_fract_y
 _atom_site_fract_z
 _atom_site_occupancy
  La  La0  1  0.967549  0.661361  0.338639  1
  La  La1  1  0.248576  0.126404  0.873596  1
  La  La2  1  0.248829  0.740380  0.857905  1
  La  La3  1  0.248829  0.142095  0.259620  1
  La  La4  1  0.729922  0.875359  0.124641  1
  La  La5  1  0.747247  0.251090  0.126482  1
  La  La6  1  0.747247  0.873518  0.748910  1
  La  La7  1  0.438663  0.539783  0.460217  1
  La  La8  1  0.443949  0.931714  0.476626  1
  La  La9  1  0.443949  0.523374  0.068286  1
  La  La10  1  0.935593  0.460305  0.539695  1
  La  La11  1  0.941235  0.078495  0.541257  1
  La  La12  1  0.941235  0.458743  0.921505  1
  Th  Th13  1  0.483120  0.333952  0.666048  1
  Ir  Ir14  1  0.192898  0.377533  0.186871  1
  Ir  Ir15  1  0.192898  0.813129  0.622467  1
  Ir  Ir16  1  0.683758  0.192386  0.807614  1
  Ir  Ir17  1  0.687315  0.617513  0.809877  1
  Ir  Ir18  1  0.687315  0.190123  0.382487  1
  Au  Au19  1  0.191873  0.812743  0.187257  1
