# generated using pymatgen
data_BaNpF7
_symmetry_space_group_name_H-M   'P 1'
_cell_length_a   9.99923200
_cell_length_b   5.93657242
_cell_length_c   10.41550736
_cell_angle_alpha   87.83635569
_cell_angle_beta   90.00000000
_cell_angle_gamma   90.00000000
_symmetry_Int_Tables_number   1
_chemical_formula_structural   BaNpF7
_chemical_formula_sum   'Ba4 Np4 F28'
_cell_volume   617.83586467
_cell_formula_units_Z   4
loop_
 _symmetry_equiv_pos_site_id
 _symmetry_equiv_pos_as_xyz
  1  'x, y, z'
loop_
 _atom_site_type_symbol
 _atom_site_label
 _atom_site_symmetry_multiplicity
 _atom_site_fract_x
 _atom_site_fract_y
 _atom_site_fract_z
 _atom_site_occupancy
  Ba  Ba0  1  0.310328  0.275362  0.510412  1
  Ba  Ba1  1  0.810328  0.724638  0.989588  1
  Ba  Ba2  1  0.689672  0.724638  0.489588  1
  Ba  Ba3  1  0.189672  0.275362  0.010412  1
  Np  Np4  1  0.610979  0.225238  0.213748  1
  Np  Np5  1  0.389021  0.774762  0.786252  1
  Np  Np6  1  0.889021  0.225238  0.713748  1
  Np  Np7  1  0.110979  0.774762  0.286252  1
  F  F8  1  0.405704  0.073631  0.888458  1
  F  F9  1  0.054449  0.352669  0.618126  1
  F  F10  1  0.718459  0.545521  0.231618  1
  F  F11  1  0.281541  0.454479  0.768382  1
  F  F12  1  0.491413  0.002205  0.646817  1
  F  F13  1  0.770773  0.285494  0.542982  1
  F  F14  1  0.771844  0.066718  0.303133  1
  F  F15  1  0.991413  0.997795  0.853183  1
  F  F16  1  0.445551  0.352669  0.118126  1
  F  F17  1  0.218459  0.454479  0.268382  1
  F  F18  1  0.094296  0.073631  0.388458  1
  F  F19  1  0.594296  0.926369  0.111542  1
  F  F20  1  0.271844  0.933282  0.196867  1
  F  F21  1  0.030075  0.583268  0.121775  1
  F  F22  1  0.508587  0.997795  0.353183  1
  F  F23  1  0.008587  0.002205  0.146817  1
  F  F24  1  0.228156  0.933282  0.696867  1
  F  F25  1  0.905704  0.926369  0.611542  1
  F  F26  1  0.530075  0.416732  0.378225  1
  F  F27  1  0.945551  0.647331  0.381874  1
  F  F28  1  0.969925  0.416732  0.878225  1
  F  F29  1  0.728156  0.066718  0.803133  1
  F  F30  1  0.469925  0.583268  0.621775  1
  F  F31  1  0.270773  0.714506  0.957018  1
  F  F32  1  0.229227  0.714506  0.457018  1
  F  F33  1  0.729227  0.285494  0.042982  1
  F  F34  1  0.554449  0.647331  0.881874  1
  F  F35  1  0.781541  0.545521  0.731618  1
