# generated using pymatgen
data_TbYb3(In2Pd3)4
_symmetry_space_group_name_H-M   'P 1'
_cell_length_a   4.60278000
_cell_length_b   9.79534111
_cell_length_c   10.45700551
_cell_angle_alpha   90.13769690
_cell_angle_beta   90.00000000
_cell_angle_gamma   90.00000000
_symmetry_Int_Tables_number   1
_chemical_formula_structural   TbYb3(In2Pd3)4
_chemical_formula_sum   'Tb1 Yb3 In8 Pd12'
_cell_volume   471.46109908
_cell_formula_units_Z   1
loop_
 _symmetry_equiv_pos_site_id
 _symmetry_equiv_pos_as_xyz
  1  'x, y, z'
loop_
 _atom_site_type_symbol
 _atom_site_label
 _atom_site_symmetry_multiplicity
 _atom_site_fract_x
 _atom_site_fract_y
 _atom_site_fract_z
 _atom_site_occupancy
  Tb  Tb0  1  0.250000  0.446804  0.724665  1
  Yb  Yb1  1  0.250000  0.053732  0.223988  1
  Yb  Yb2  1  0.750000  0.553796  0.275562  1
  Yb  Yb3  1  0.750000  0.946494  0.775826  1
  In  In4  1  0.250000  0.890197  0.515150  1
  In  In5  1  0.250000  0.609847  0.017221  1
  In  In6  1  0.750000  0.109548  0.483295  1
  In  In7  1  0.750000  0.390430  0.984523  1
  In  In8  1  0.250000  0.159521  0.890744  1
  In  In9  1  0.250000  0.339356  0.389291  1
  In  In10  1  0.750000  0.839053  0.109920  1
  In  In11  1  0.750000  0.661006  0.609687  1
  Pd  Pd12  1  0.250000  0.154852  0.618665  1
  Pd  Pd13  1  0.250000  0.344632  0.117285  1
  Pd  Pd14  1  0.750000  0.844318  0.381975  1
  Pd  Pd15  1  0.750000  0.654540  0.880939  1
  Pd  Pd16  1  0.250000  0.742663  0.740069  1
  Pd  Pd17  1  0.250000  0.758729  0.240853  1
  Pd  Pd18  1  0.750000  0.258262  0.259574  1
  Pd  Pd19  1  0.750000  0.243607  0.758979  1
  Pd  Pd20  1  0.250000  0.893313  0.974346  1
  Pd  Pd21  1  0.250000  0.606057  0.474986  1
  Pd  Pd22  1  0.750000  0.105776  0.025475  1
  Pd  Pd23  1  0.750000  0.393468  0.526984  1
