# generated using pymatgen
data_Mn7Nb8Si14Ir
_symmetry_space_group_name_H-M   'P 1'
_cell_length_a   9.42101899
_cell_length_b   9.43802074
_cell_length_c   9.40470290
_cell_angle_alpha   94.15526634
_cell_angle_beta   94.05883350
_cell_angle_gamma   148.99661919
_symmetry_Int_Tables_number   1
_chemical_formula_structural   Mn7Nb8Si14Ir
_chemical_formula_sum   'Mn7 Nb8 Si14 Ir1'
_cell_volume   414.97727120
_cell_formula_units_Z   1
loop_
 _symmetry_equiv_pos_site_id
 _symmetry_equiv_pos_as_xyz
  1  'x, y, z'
loop_
 _atom_site_type_symbol
 _atom_site_label
 _atom_site_symmetry_multiplicity
 _atom_site_fract_x
 _atom_site_fract_y
 _atom_site_fract_z
 _atom_site_occupancy
  Mn  Mn0  1  0.102525  0.602525  0.205051  1
  Mn  Mn1  1  0.101709  0.900758  0.500453  1
  Mn  Mn2  1  0.398745  0.599697  0.500453  1
  Mn  Mn3  1  0.598399  0.400819  0.497182  1
  Mn  Mn4  1  0.898783  0.096362  0.497182  1
  Mn  Mn5  1  0.899126  0.399126  0.798251  1
  Mn  Mn6  1  0.600513  0.100513  0.201027  1
  Nb  Nb7  1  0.135381  0.135381  0.270762  1
  Nb  Nb8  1  0.864481  0.864481  0.728961  1
  Nb  Nb9  1  0.865592  0.133910  0.001526  1
  Nb  Nb10  1  0.135933  0.867615  0.001526  1
  Nb  Nb11  1  0.498947  0.309222  0.808960  1
  Nb  Nb12  1  0.499972  0.689552  0.191966  1
  Nb  Nb13  1  0.691994  0.502414  0.191966  1
  Nb  Nb14  1  0.310013  0.499738  0.808960  1
  Si  Si15  1  0.510355  0.107803  0.586329  1
  Si  Si16  1  0.502046  0.906863  0.408747  1
  Si  Si17  1  0.906701  0.501884  0.408747  1
  Si  Si18  1  0.075975  0.478526  0.586329  1
  Si  Si19  1  0.750870  0.750782  0.000168  1
  Si  Si20  1  0.249299  0.249385  0.000168  1
  Si  Si21  1  0.293609  0.293609  0.587219  1
  Si  Si22  1  0.706154  0.706154  0.412306  1
  Si  Si23  1  0.719508  0.310180  0.005079  1
  Si  Si24  1  0.285571  0.694900  0.005079  1
  Si  Si25  1  0.999162  0.290837  0.292321  1
  Si  Si26  1  0.988707  0.701791  0.706137  1
  Si  Si27  1  0.717429  0.004345  0.706137  1
  Si  Si28  1  0.293159  0.001484  0.292321  1
  Ir  Ir29  1  0.399343  0.899343  0.798685  1
