# generated using pymatgen
data_Pr3NbSe2(O2F)2
_symmetry_space_group_name_H-M   'P 1'
_cell_length_a   4.00024800
_cell_length_b   11.34771800
_cell_length_c   18.09781400
_cell_angle_alpha   90.00000000
_cell_angle_beta   90.00000000
_cell_angle_gamma   90.00000000
_symmetry_Int_Tables_number   1
_chemical_formula_structural   Pr3NbSe2(O2F)2
_chemical_formula_sum   'Pr12 Nb4 Se8 O16 F8'
_cell_volume   821.52649024
_cell_formula_units_Z   4
loop_
 _symmetry_equiv_pos_site_id
 _symmetry_equiv_pos_as_xyz
  1  'x, y, z'
loop_
 _atom_site_type_symbol
 _atom_site_label
 _atom_site_symmetry_multiplicity
 _atom_site_fract_x
 _atom_site_fract_y
 _atom_site_fract_z
 _atom_site_occupancy
  Pr  Pr0  1  0.750000  0.706684  0.531616  1
  Pr  Pr1  1  0.750000  0.496530  0.106323  1
  Pr  Pr2  1  0.250000  0.793316  0.031616  1
  Pr  Pr3  1  0.250000  0.065068  0.198532  1
  Pr  Pr4  1  0.750000  0.434932  0.698532  1
  Pr  Pr5  1  0.750000  0.996530  0.393677  1
  Pr  Pr6  1  0.250000  0.293316  0.468384  1
  Pr  Pr7  1  0.250000  0.503470  0.893677  1
  Pr  Pr8  1  0.750000  0.934932  0.801468  1
  Pr  Pr9  1  0.250000  0.565068  0.301468  1
  Pr  Pr10  1  0.750000  0.206684  0.968384  1
  Pr  Pr11  1  0.250000  0.003470  0.606323  1
  Nb  Nb12  1  0.250000  0.692752  0.695358  1
  Nb  Nb13  1  0.750000  0.307248  0.304642  1
  Nb  Nb14  1  0.250000  0.192752  0.804642  1
  Nb  Nb15  1  0.750000  0.807248  0.195358  1
  Se  Se16  1  0.250000  0.783917  0.408041  1
  Se  Se17  1  0.750000  0.994333  0.078902  1
  Se  Se18  1  0.750000  0.494333  0.421098  1
  Se  Se19  1  0.750000  0.216083  0.591959  1
  Se  Se20  1  0.750000  0.716083  0.908041  1
  Se  Se21  1  0.250000  0.505667  0.578902  1
  Se  Se22  1  0.250000  0.283917  0.091959  1
  Se  Se23  1  0.250000  0.005667  0.921098  1
  O  O24  1  0.250000  0.830908  0.178436  1
  O  O25  1  0.750000  0.948372  0.255713  1
  O  O26  1  0.250000  0.051628  0.744287  1
  O  O27  1  0.250000  0.330908  0.321564  1
  O  O28  1  0.750000  0.185385  0.237439  1
  O  O29  1  0.250000  0.814615  0.762561  1
  O  O30  1  0.750000  0.216481  0.401660  1
  O  O31  1  0.750000  0.716481  0.098340  1
  O  O32  1  0.250000  0.314615  0.737439  1
  O  O33  1  0.250000  0.283519  0.901660  1
  O  O34  1  0.750000  0.685385  0.262561  1
  O  O35  1  0.750000  0.169092  0.821564  1
  O  O36  1  0.750000  0.448372  0.244287  1
  O  O37  1  0.250000  0.783519  0.598340  1
  O  O38  1  0.750000  0.669092  0.678436  1
  O  O39  1  0.250000  0.551628  0.755713  1
  F  F40  1  0.750000  0.431094  0.973886  1
  F  F41  1  0.250000  0.568906  0.026114  1
  F  F42  1  0.250000  0.068906  0.473886  1
  F  F43  1  0.750000  0.931094  0.526114  1
  F  F44  1  0.250000  0.061284  0.331304  1
  F  F45  1  0.750000  0.438716  0.831304  1
  F  F46  1  0.750000  0.938716  0.668696  1
  F  F47  1  0.250000  0.561284  0.168696  1
