# generated using pymatgen
data_HoLu2Co9(SiB2)2
_symmetry_space_group_name_H-M   'P 1'
_cell_length_a   5.08164900
_cell_length_b   5.08144383
_cell_length_c   9.33254700
_cell_angle_alpha   89.99986576
_cell_angle_beta   90.00013318
_cell_angle_gamma   119.99112434
_symmetry_Int_Tables_number   1
_chemical_formula_structural   HoLu2Co9(SiB2)2
_chemical_formula_sum   'Ho1 Lu2 Co9 Si2 B4'
_cell_volume   208.71874092
_cell_formula_units_Z   1
loop_
 _symmetry_equiv_pos_site_id
 _symmetry_equiv_pos_as_xyz
  1  'x, y, z'
loop_
 _atom_site_type_symbol
 _atom_site_label
 _atom_site_symmetry_multiplicity
 _atom_site_fract_x
 _atom_site_fract_y
 _atom_site_fract_z
 _atom_site_occupancy
  Ho  Ho0  1  0.999987  0.000005  0.000001  1
  Lu  Lu1  1  0.999995  0.000000  0.338711  1
  Lu  Lu2  1  0.000003  0.000002  0.661228  1
  Co  Co3  1  0.499999  0.999997  0.499977  1
  Co  Co4  1  0.499999  0.500001  0.499972  1
  Co  Co5  1  0.999997  0.499998  0.499985  1
  Co  Co6  1  0.499991  0.000000  0.197137  1
  Co  Co7  1  0.499986  0.499998  0.197103  1
  Co  Co8  1  0.999990  0.500004  0.197108  1
  Co  Co9  1  0.500000  0.999999  0.802891  1
  Co  Co10  1  0.499995  0.500001  0.802924  1
  Co  Co11  1  0.999999  0.499997  0.802917  1
  Si  Si12  1  0.333366  0.666728  0.000040  1
  Si  Si13  1  0.666608  0.333272  0.000041  1
  B  B14  1  0.333323  0.666627  0.346103  1
  B  B15  1  0.666664  0.333370  0.346103  1
  B  B16  1  0.666669  0.333368  0.653880  1
  B  B17  1  0.333328  0.666634  0.653881  1
