# generated using pymatgen
data_ZrFe3P3Ru2
_symmetry_space_group_name_H-M   'P 1'
_cell_length_a   3.71948100
_cell_length_b   10.28923700
_cell_length_c   11.87518200
_cell_angle_alpha   90.00000000
_cell_angle_beta   90.00000000
_cell_angle_gamma   90.00000000
_symmetry_Int_Tables_number   1
_chemical_formula_structural   ZrFe3P3Ru2
_chemical_formula_sum   'Zr4 Fe12 P12 Ru8'
_cell_volume   454.47059587
_cell_formula_units_Z   4
loop_
 _symmetry_equiv_pos_site_id
 _symmetry_equiv_pos_as_xyz
  1  'x, y, z'
loop_
 _atom_site_type_symbol
 _atom_site_label
 _atom_site_symmetry_multiplicity
 _atom_site_fract_x
 _atom_site_fract_y
 _atom_site_fract_z
 _atom_site_occupancy
  Zr  Zr0  1  0.250000  0.581319  0.710292  1
  Zr  Zr1  1  0.250000  0.918681  0.210292  1
  Zr  Zr2  1  0.750000  0.418681  0.289708  1
  Zr  Zr3  1  0.750000  0.081319  0.789708  1
  Fe  Fe4  1  0.250000  0.226937  0.174811  1
  Fe  Fe5  1  0.250000  0.273063  0.674811  1
  Fe  Fe6  1  0.750000  0.773063  0.825189  1
  Fe  Fe7  1  0.750000  0.726937  0.325189  1
  Fe  Fe8  1  0.250000  0.881395  0.699876  1
  Fe  Fe9  1  0.250000  0.618605  0.199876  1
  Fe  Fe10  1  0.750000  0.118605  0.300124  1
  Fe  Fe11  1  0.750000  0.381395  0.800124  1
  Fe  Fe12  1  0.250000  0.461752  0.933678  1
  Fe  Fe13  1  0.250000  0.038248  0.433678  1
  Fe  Fe14  1  0.750000  0.538248  0.066322  1
  Fe  Fe15  1  0.750000  0.961752  0.566322  1
  P  P16  1  0.250000  0.426183  0.115092  1
  P  P17  1  0.250000  0.073817  0.615092  1
  P  P18  1  0.750000  0.573817  0.884908  1
  P  P19  1  0.750000  0.926183  0.384908  1
  P  P20  1  0.250000  0.270240  0.858725  1
  P  P21  1  0.250000  0.229760  0.358725  1
  P  P22  1  0.750000  0.729760  0.141275  1
  P  P23  1  0.750000  0.770240  0.641275  1
  P  P24  1  0.250000  0.603361  0.383259  1
  P  P25  1  0.250000  0.896639  0.883259  1
  P  P26  1  0.750000  0.396639  0.616741  1
  P  P27  1  0.750000  0.103361  0.116741  1
  Ru  Ru28  1  0.250000  0.704150  0.985475  1
  Ru  Ru29  1  0.250000  0.795850  0.485475  1
  Ru  Ru30  1  0.750000  0.295850  0.014525  1
  Ru  Ru31  1  0.750000  0.204150  0.514525  1
  Ru  Ru32  1  0.250000  0.403528  0.481201  1
  Ru  Ru33  1  0.250000  0.096472  0.981201  1
  Ru  Ru34  1  0.750000  0.596472  0.518799  1
  Ru  Ru35  1  0.750000  0.903528  0.018799  1
