# generated using pymatgen
data_PuIr3F24
_symmetry_space_group_name_H-M   'P 1'
_cell_length_a   5.22152107
_cell_length_b   9.02213900
_cell_length_c   9.93934312
_cell_angle_alpha   90.00000000
_cell_angle_beta   90.07416271
_cell_angle_gamma   90.00000000
_symmetry_Int_Tables_number   1
_chemical_formula_structural   PuIr3F24
_chemical_formula_sum   'Pu1 Ir3 F24'
_cell_volume   468.23499444
_cell_formula_units_Z   1
loop_
 _symmetry_equiv_pos_site_id
 _symmetry_equiv_pos_as_xyz
  1  'x, y, z'
loop_
 _atom_site_type_symbol
 _atom_site_label
 _atom_site_symmetry_multiplicity
 _atom_site_fract_x
 _atom_site_fract_y
 _atom_site_fract_z
 _atom_site_occupancy
  Pu  Pu0  1  0.593982  0.250000  0.873213  1
  Ir  Ir1  1  0.906115  0.250000  0.373036  1
  Ir  Ir2  1  0.405970  0.750000  0.127117  1
  Ir  Ir3  1  0.094123  0.750000  0.626794  1
  F  F4  1  0.246939  0.602844  0.520282  1
  F  F5  1  0.253242  0.897259  0.020303  1
  F  F6  1  0.941522  0.896973  0.733736  1
  F  F7  1  0.193236  0.250000  0.486673  1
  F  F8  1  0.755961  0.093233  0.986109  1
  F  F9  1  0.558312  0.897126  0.233823  1
  F  F10  1  0.287905  0.250000  0.994221  1
  F  F11  1  0.246939  0.897156  0.520282  1
  F  F12  1  0.752908  0.397123  0.479666  1
  F  F13  1  0.432828  0.406468  0.759807  1
  F  F14  1  0.755961  0.406767  0.986109  1
  F  F15  1  0.806898  0.750000  0.513264  1
  F  F16  1  0.692752  0.750000  0.013288  1
  F  F17  1  0.253242  0.602741  0.020303  1
  F  F18  1  0.432828  0.093532  0.759807  1
  F  F19  1  0.058394  0.397069  0.266270  1
  F  F20  1  0.618184  0.250000  0.259549  1
  F  F21  1  0.558312  0.602874  0.233823  1
  F  F22  1  0.900774  0.250000  0.752406  1
  F  F23  1  0.117980  0.750000  0.240215  1
  F  F24  1  0.058394  0.102931  0.266270  1
  F  F25  1  0.941522  0.603027  0.733736  1
  F  F26  1  0.381870  0.750000  0.740232  1
  F  F27  1  0.752908  0.102877  0.479666  1
