# generated using pymatgen
data_Dy8Ho4Ga2TcNi3
_symmetry_space_group_name_H-M   'P 1'
_cell_length_a   8.32791126
_cell_length_b   8.32450319
_cell_length_c   8.32791139
_cell_angle_alpha   112.90281994
_cell_angle_beta   109.76628094
_cell_angle_gamma   105.83794054
_symmetry_Int_Tables_number   1
_chemical_formula_structural   Dy8Ho4Ga2TcNi3
_chemical_formula_sum   'Dy8 Ho4 Ga2 Tc1 Ni3'
_cell_volume   442.65602992
_cell_formula_units_Z   1
loop_
 _symmetry_equiv_pos_site_id
 _symmetry_equiv_pos_as_xyz
  1  'x, y, z'
loop_
 _atom_site_type_symbol
 _atom_site_label
 _atom_site_symmetry_multiplicity
 _atom_site_fract_x
 _atom_site_fract_y
 _atom_site_fract_z
 _atom_site_occupancy
  Dy  Dy0  1  0.443172  0.249088  0.194164  1
  Dy  Dy1  1  0.574213  0.768619  0.805532  1
  Dy  Dy2  1  0.036912  0.231381  0.805594  1
  Dy  Dy3  1  0.945077  0.750912  0.194084  1
  Dy  Dy4  1  0.186309  0.280123  0.466537  1
  Dy  Dy5  1  0.825718  0.721791  0.547413  1
  Dy  Dy6  1  0.186415  0.719877  0.906186  1
  Dy  Dy7  1  0.825621  0.278209  0.103927  1
  Ho  Ho8  1  0.325432  0.638602  0.307814  1
  Ho  Ho9  1  0.669211  0.361398  0.686828  1
  Ho  Ho10  1  0.325226  0.017330  0.686717  1
  Ho  Ho11  1  0.669386  0.982670  0.307896  1
  Ga  Ga12  1  0.492801  0.500000  0.992801  1
  Ga  Ga13  1  0.018288  0.000000  0.018288  1
  Tc  Tc14  1  0.325689  0.000000  0.325689  1
  Ni  Ni15  1  0.651747  0.000000  0.651747  1
  Ni  Ni16  1  0.117322  0.618117  0.499579  1
  Ni  Ni17  1  0.881460  0.381883  0.499205  1
