# generated using pymatgen
data_Ca2HoNi7B2
_symmetry_space_group_name_H-M   'P 1'
_cell_length_a   7.76995953
_cell_length_b   7.76995906
_cell_length_c   7.76995867
_cell_angle_alpha   38.30878762
_cell_angle_beta   38.30879165
_cell_angle_gamma   38.30878614
_symmetry_Int_Tables_number   1
_chemical_formula_structural   Ca2HoNi7B2
_chemical_formula_sum   'Ca2 Ho1 Ni7 B2'
_cell_volume   161.90141851
_cell_formula_units_Z   1
loop_
 _symmetry_equiv_pos_site_id
 _symmetry_equiv_pos_as_xyz
  1  'x, y, z'
loop_
 _atom_site_type_symbol
 _atom_site_label
 _atom_site_symmetry_multiplicity
 _atom_site_fract_x
 _atom_site_fract_y
 _atom_site_fract_z
 _atom_site_occupancy
  Ca  Ca0  1  0.645886  0.645886  0.645886  1
  Ca  Ca1  1  0.354114  0.354114  0.354114  1
  Ho  Ho2  1  0.500000  0.500000  0.500000  1
  Ni  Ni3  1  0.571751  0.061707  0.061707  1
  Ni  Ni4  1  0.061707  0.061707  0.571751  1
  Ni  Ni5  1  0.061707  0.571751  0.061707  1
  Ni  Ni6  1  0.938293  0.428249  0.938293  1
  Ni  Ni7  1  0.938293  0.938293  0.428249  1
  Ni  Ni8  1  0.428249  0.938293  0.938293  1
  Ni  Ni9  1  0.000000  0.000000  0.000000  1
  B  B10  1  0.831061  0.831061  0.831061  1
  B  B11  1  0.168939  0.168939  0.168939  1
