# generated using pymatgen
data_Er5Tm5(Zn2Sb)2
_symmetry_space_group_name_H-M   'P 1'
_cell_length_a   8.47774442
_cell_length_b   8.47756023
_cell_length_c   8.47681104
_cell_angle_alpha   123.73003986
_cell_angle_beta   123.73070429
_cell_angle_gamma   83.65813430
_symmetry_Int_Tables_number   1
_chemical_formula_structural   Er5Tm5(Zn2Sb)2
_chemical_formula_sum   'Er5 Tm5 Zn4 Sb2'
_cell_volume   403.76780949
_cell_formula_units_Z   1
loop_
 _symmetry_equiv_pos_site_id
 _symmetry_equiv_pos_as_xyz
  1  'x, y, z'
loop_
 _atom_site_type_symbol
 _atom_site_label
 _atom_site_symmetry_multiplicity
 _atom_site_fract_x
 _atom_site_fract_y
 _atom_site_fract_z
 _atom_site_occupancy
  Er  Er0  1  0.200930  0.010826  0.500000  1
  Er  Er1  1  0.989214  0.489145  0.189894  1
  Er  Er2  1  0.299320  0.799252  0.810106  1
  Er  Er3  1  0.489262  0.299348  0.500000  1
  Er  Er4  1  0.799159  0.989248  0.500000  1
  Tm  Tm5  1  0.999727  0.999808  0.999857  1
  Tm  Tm6  1  0.499870  0.499950  0.000143  1
  Tm  Tm7  1  0.010870  0.510861  0.809627  1
  Tm  Tm8  1  0.701244  0.201235  0.190373  1
  Tm  Tm9  1  0.510959  0.701132  0.500000  1
  Zn  Zn10  1  0.636227  0.136061  0.772590  1
  Zn  Zn11  1  0.363636  0.863470  0.227410  1
  Zn  Zn12  1  0.135932  0.363705  0.500000  1
  Zn  Zn13  1  0.863596  0.635958  0.500000  1
  Sb  Sb14  1  0.749963  0.749936  0.999873  1
  Sb  Sb15  1  0.250090  0.250064  0.000127  1
