# generated using pymatgen
data_Yb12Tm7LuSn16
_symmetry_space_group_name_H-M   'P 1'
_cell_length_a   7.78577845
_cell_length_b   8.37836732
_cell_length_c   15.90891500
_cell_angle_alpha   90.01577970
_cell_angle_beta   90.03441220
_cell_angle_gamma   90.14769656
_symmetry_Int_Tables_number   1
_chemical_formula_structural   Yb12Tm7LuSn16
_chemical_formula_sum   'Yb12 Tm7 Lu1 Sn16'
_cell_volume   1037.76844580
_cell_formula_units_Z   1
loop_
 _symmetry_equiv_pos_site_id
 _symmetry_equiv_pos_as_xyz
  1  'x, y, z'
loop_
 _atom_site_type_symbol
 _atom_site_label
 _atom_site_symmetry_multiplicity
 _atom_site_fract_x
 _atom_site_fract_y
 _atom_site_fract_z
 _atom_site_occupancy
  Yb  Yb0  1  0.177060  0.334179  0.620563  1
  Yb  Yb1  1  0.501232  0.686670  0.593301  1
  Yb  Yb2  1  0.001590  0.814373  0.909092  1
  Yb  Yb3  1  0.495531  0.312516  0.092163  1
  Yb  Yb4  1  0.998479  0.188253  0.407008  1
  Yb  Yb5  1  0.496326  0.312827  0.407897  1
  Yb  Yb6  1  0.997402  0.187031  0.092326  1
  Yb  Yb7  1  0.501365  0.686789  0.907609  1
  Yb  Yb8  1  0.003177  0.813340  0.591588  1
  Yb  Yb9  1  0.333721  0.991244  0.749522  1
  Yb  Yb10  1  0.164883  0.488968  0.249304  1
  Yb  Yb11  1  0.666340  0.010289  0.250503  1
  Tm  Tm12  1  0.672814  0.163885  0.622479  1
  Tm  Tm13  1  0.173359  0.334021  0.878788  1
  Tm  Tm14  1  0.326687  0.834291  0.121658  1
  Tm  Tm15  1  0.827931  0.664221  0.377579  1
  Tm  Tm16  1  0.326640  0.834821  0.377253  1
  Tm  Tm17  1  0.826816  0.664643  0.121220  1
  Tm  Tm18  1  0.672230  0.163472  0.879192  1
  Lu  Lu19  1  0.838361  0.508109  0.748668  1
  Sn  Sn20  1  0.675421  0.961741  0.459617  1
  Sn  Sn21  1  0.170765  0.536888  0.040208  1
  Sn  Sn22  1  0.327871  0.036815  0.959528  1
  Sn  Sn23  1  0.823759  0.466428  0.542932  1
  Sn  Sn24  1  0.335876  0.034099  0.540196  1
  Sn  Sn25  1  0.827488  0.465438  0.955719  1
  Sn  Sn26  1  0.671603  0.962549  0.041104  1
  Sn  Sn27  1  0.167986  0.538881  0.456859  1
  Sn  Sn28  1  0.477358  0.380688  0.753999  1
  Sn  Sn29  1  0.967302  0.129005  0.751253  1
  Sn  Sn30  1  0.529364  0.629685  0.249486  1
  Sn  Sn31  1  0.029291  0.870346  0.248322  1
  Sn  Sn32  1  0.719404  0.865244  0.751478  1
  Sn  Sn33  1  0.210252  0.628228  0.753378  1
  Sn  Sn34  1  0.283266  0.126359  0.249199  1
  Sn  Sn35  1  0.781048  0.373667  0.249005  1
