# generated using pymatgen
data_Sm3HoGa18(Ir2Pt)2
_symmetry_space_group_name_H-M   'P 1'
_cell_length_a   7.66258638
_cell_length_b   7.66287560
_cell_length_c   9.53625800
_cell_angle_alpha   90.00000000
_cell_angle_beta   90.00000000
_cell_angle_gamma   119.81030461
_symmetry_Int_Tables_number   1
_chemical_formula_structural   Sm3HoGa18(Ir2Pt)2
_chemical_formula_sum   'Sm3 Ho1 Ga18 Ir4 Pt2'
_cell_volume   485.85062415
_cell_formula_units_Z   1
loop_
 _symmetry_equiv_pos_site_id
 _symmetry_equiv_pos_as_xyz
  1  'x, y, z'
loop_
 _atom_site_type_symbol
 _atom_site_label
 _atom_site_symmetry_multiplicity
 _atom_site_fract_x
 _atom_site_fract_y
 _atom_site_fract_z
 _atom_site_occupancy
  Sm  Sm0  1  0.996695  0.671531  0.250000  1
  Sm  Sm1  1  0.003385  0.328317  0.750000  1
  Sm  Sm2  1  0.671274  0.996588  0.250000  1
  Ho  Ho3  1  0.328351  0.003407  0.750000  1
  Ga  Ga4  1  0.134764  0.134547  0.250000  1
  Ga  Ga5  1  0.866338  0.865722  0.750000  1
  Ga  Ga6  1  0.999651  0.338368  0.080003  1
  Ga  Ga7  1  0.001921  0.662984  0.918163  1
  Ga  Ga8  1  0.001921  0.662984  0.581837  1
  Ga  Ga9  1  0.338296  0.999599  0.420992  1
  Ga  Ga10  1  0.999651  0.338368  0.419997  1
  Ga  Ga11  1  0.660230  0.000619  0.581889  1
  Ga  Ga12  1  0.660230  0.000619  0.918111  1
  Ga  Ga13  1  0.338296  0.999599  0.079008  1
  Ga  Ga14  1  0.336766  0.335589  0.567973  1
  Ga  Ga15  1  0.663122  0.663152  0.433946  1
  Ga  Ga16  1  0.663122  0.663152  0.066054  1
  Ga  Ga17  1  0.336766  0.335589  0.932027  1
  Ga  Ga18  1  0.336711  0.546413  0.250000  1
  Ga  Ga19  1  0.662206  0.452043  0.750000  1
  Ga  Ga20  1  0.546286  0.336540  0.250000  1
  Ga  Ga21  1  0.453039  0.663582  0.750000  1
  Ir  Ir22  1  0.670950  0.329027  0.999582  1
  Ir  Ir23  1  0.329153  0.671183  0.999571  1
  Ir  Ir24  1  0.329153  0.671183  0.500429  1
  Ir  Ir25  1  0.670950  0.329027  0.500418  1
  Pt  Pt26  1  0.000385  0.000133  0.999650  1
  Pt  Pt27  1  0.000385  0.000133  0.500350  1
