# generated using pymatgen
data_TbHo3(Fe2O7)2
_symmetry_space_group_name_H-M   'P 1'
_cell_length_a   7.13434305
_cell_length_b   7.13317551
_cell_length_c   7.14285839
_cell_angle_alpha   60.02870256
_cell_angle_beta   60.00912568
_cell_angle_gamma   59.99594268
_symmetry_Int_Tables_number   1
_chemical_formula_structural   TbHo3(Fe2O7)2
_chemical_formula_sum   'Tb1 Ho3 Fe4 O14'
_cell_volume   257.10154648
_cell_formula_units_Z   1
loop_
 _symmetry_equiv_pos_site_id
 _symmetry_equiv_pos_as_xyz
  1  'x, y, z'
loop_
 _atom_site_type_symbol
 _atom_site_label
 _atom_site_symmetry_multiplicity
 _atom_site_fract_x
 _atom_site_fract_y
 _atom_site_fract_z
 _atom_site_occupancy
  Tb  Tb0  1  0.500005  0.500004  0.999998  1
  Ho  Ho1  1  0.500007  0.000003  0.499996  1
  Ho  Ho2  1  0.000000  0.499987  0.500009  1
  Ho  Ho3  1  0.499989  0.500010  0.500002  1
  Fe  Fe4  1  0.000008  0.500000  0.999998  1
  Fe  Fe5  1  0.500001  0.999996  0.999995  1
  Fe  Fe6  1  0.000002  0.000002  0.500000  1
  Fe  Fe7  1  0.999992  0.000004  0.000005  1
  O  O8  1  0.626002  0.625991  0.621959  1
  O  O9  1  0.374004  0.374008  0.378038  1
  O  O10  1  0.333205  0.917844  0.915640  1
  O  O11  1  0.083515  0.666824  0.666105  1
  O  O12  1  0.917788  0.333395  0.915449  1
  O  O13  1  0.916560  0.916507  0.333807  1
  O  O14  1  0.333225  0.333249  0.915690  1
  O  O15  1  0.333334  0.916398  0.333995  1
  O  O16  1  0.916468  0.333172  0.333899  1
  O  O17  1  0.666775  0.666749  0.084318  1
  O  O18  1  0.083457  0.083474  0.666198  1
  O  O19  1  0.666782  0.082161  0.084357  1
  O  O20  1  0.666668  0.083615  0.666002  1
  O  O21  1  0.082218  0.666610  0.084541  1
