# generated using pymatgen
data_Er4ScCu2Sb
_symmetry_space_group_name_H-M   'P 1'
_cell_length_a   8.33069707
_cell_length_b   8.33069588
_cell_length_c   8.33069707
_cell_angle_alpha   124.21754909
_cell_angle_beta   124.21753920
_cell_angle_gamma   82.83811548
_symmetry_Int_Tables_number   1
_chemical_formula_structural   Er4ScCu2Sb
_chemical_formula_sum   'Er8 Sc2 Cu4 Sb2'
_cell_volume   379.50050854
_cell_formula_units_Z   2
loop_
 _symmetry_equiv_pos_site_id
 _symmetry_equiv_pos_as_xyz
  1  'x, y, z'
loop_
 _atom_site_type_symbol
 _atom_site_label
 _atom_site_symmetry_multiplicity
 _atom_site_fract_x
 _atom_site_fract_y
 _atom_site_fract_z
 _atom_site_occupancy
  Er  Er0  1  0.796478  0.296478  0.815077  1
  Er  Er1  1  0.203522  0.703522  0.184923  1
  Er  Er2  1  0.481400  0.981400  0.184923  1
  Er  Er3  1  0.296478  0.481400  0.500000  1
  Er  Er4  1  0.018600  0.203522  0.500000  1
  Er  Er5  1  0.518600  0.018600  0.815077  1
  Er  Er6  1  0.703522  0.518600  0.500000  1
  Er  Er7  1  0.981400  0.796478  0.500000  1
  Sc  Sc8  1  0.000000  0.000000  0.000000  1
  Sc  Sc9  1  0.500000  0.500000  0.000000  1
  Cu  Cu10  1  0.132561  0.632561  0.765121  1
  Cu  Cu11  1  0.867439  0.367439  0.234879  1
  Cu  Cu12  1  0.632561  0.867439  0.500000  1
  Cu  Cu13  1  0.367439  0.132561  0.500000  1
  Sb  Sb14  1  0.250000  0.250000  0.000000  1
  Sb  Sb15  1  0.750000  0.750000  0.000000  1
