# generated using pymatgen
data_Er8Ti11Si16Tc
_symmetry_space_group_name_H-M   'P 1'
_cell_length_a   6.99833426
_cell_length_b   6.99833394
_cell_length_c   12.84552568
_cell_angle_alpha   90.00225410
_cell_angle_beta   89.99774840
_cell_angle_gamma   89.93639888
_symmetry_Int_Tables_number   1
_chemical_formula_structural   Er8Ti11Si16Tc
_chemical_formula_sum   'Er8 Ti11 Si16 Tc1'
_cell_volume   629.13081452
_cell_formula_units_Z   1
loop_
 _symmetry_equiv_pos_site_id
 _symmetry_equiv_pos_as_xyz
  1  'x, y, z'
loop_
 _atom_site_type_symbol
 _atom_site_label
 _atom_site_symmetry_multiplicity
 _atom_site_fract_x
 _atom_site_fract_y
 _atom_site_fract_z
 _atom_site_occupancy
  Er  Er0  1  0.340961  0.003774  0.467315  1
  Er  Er1  1  0.497137  0.840698  0.718153  1
  Er  Er2  1  0.499881  0.159388  0.214885  1
  Er  Er3  1  0.840698  0.497137  0.281847  1
  Er  Er4  1  0.159388  0.499881  0.785115  1
  Er  Er5  1  0.657831  0.998968  0.968404  1
  Er  Er6  1  0.003774  0.340961  0.532685  1
  Er  Er7  1  0.998968  0.657831  0.031596  1
  Ti  Ti8  1  0.174112  0.827399  0.248602  1
  Ti  Ti9  1  0.827399  0.174112  0.751398  1
  Ti  Ti10  1  0.673774  0.673774  0.500000  1
  Ti  Ti11  1  0.151909  0.004655  0.875353  1
  Ti  Ti12  1  0.491866  0.654198  0.124537  1
  Ti  Ti13  1  0.506854  0.349031  0.627646  1
  Ti  Ti14  1  0.654198  0.491866  0.875463  1
  Ti  Ti15  1  0.349031  0.506854  0.372354  1
  Ti  Ti16  1  0.848864  0.993830  0.375310  1
  Ti  Ti17  1  0.004655  0.151909  0.124647  1
  Ti  Ti18  1  0.993830  0.848864  0.624690  1
  Si  Si19  1  0.203101  0.131858  0.684320  1
  Si  Si20  1  0.371529  0.700329  0.933279  1
  Si  Si21  1  0.631555  0.297170  0.433963  1
  Si  Si22  1  0.700329  0.371529  0.066721  1
  Si  Si23  1  0.297170  0.631555  0.566037  1
  Si  Si24  1  0.796298  0.867948  0.183444  1
  Si  Si25  1  0.131858  0.203101  0.315680  1
  Si  Si26  1  0.867948  0.796298  0.816556  1
  Si  Si27  1  0.288420  0.954837  0.064285  1
  Si  Si28  1  0.546715  0.792613  0.315274  1
  Si  Si29  1  0.451258  0.208381  0.817841  1
  Si  Si30  1  0.792613  0.546715  0.684726  1
  Si  Si31  1  0.208381  0.451258  0.182159  1
  Si  Si32  1  0.708105  0.047938  0.565684  1
  Si  Si33  1  0.954837  0.288420  0.935715  1
  Si  Si34  1  0.047938  0.708105  0.434316  1
  Tc  Tc35  1  0.326819  0.326819  0.000000  1
