# generated using pymatgen
data_Pr7Nd3(Bi3C)2
_symmetry_space_group_name_H-M   'P 1'
_cell_length_a   9.50307800
_cell_length_b   9.50307840
_cell_length_c   6.77025300
_cell_angle_alpha   90.00000000
_cell_angle_beta   90.00000000
_cell_angle_gamma   119.99999165
_symmetry_Int_Tables_number   1
_chemical_formula_structural   Pr7Nd3(Bi3C)2
_chemical_formula_sum   'Pr7 Nd3 Bi6 C2'
_cell_volume   529.49781533
_cell_formula_units_Z   1
loop_
 _symmetry_equiv_pos_site_id
 _symmetry_equiv_pos_as_xyz
  1  'x, y, z'
loop_
 _atom_site_type_symbol
 _atom_site_label
 _atom_site_symmetry_multiplicity
 _atom_site_fract_x
 _atom_site_fract_y
 _atom_site_fract_z
 _atom_site_occupancy
  Pr  Pr0  1  0.666667  0.333333  0.999964  1
  Pr  Pr1  1  0.333333  0.666667  0.999964  1
  Pr  Pr2  1  0.333333  0.666667  0.500036  1
  Pr  Pr3  1  0.666667  0.333333  0.500036  1
  Pr  Pr4  1  0.787566  0.787566  0.750000  1
  Pr  Pr5  1  0.212434  0.000000  0.750000  1
  Pr  Pr6  1  0.000000  0.212434  0.750000  1
  Nd  Nd7  1  0.210537  0.210537  0.250000  1
  Nd  Nd8  1  0.789463  0.000000  0.250000  1
  Nd  Nd9  1  0.000000  0.789463  0.250000  1
  Bi  Bi10  1  0.401711  0.401711  0.750000  1
  Bi  Bi11  1  0.598289  0.000000  0.750000  1
  Bi  Bi12  1  0.000000  0.598289  0.750000  1
  Bi  Bi13  1  0.598746  0.598746  0.250000  1
  Bi  Bi14  1  0.401254  0.000000  0.250000  1
  Bi  Bi15  1  0.000000  0.401254  0.250000  1
  C  C16  1  0.000000  0.000000  0.001888  1
  C  C17  1  0.000000  0.000000  0.498112  1
