# generated using pymatgen
data_Dy2Y2OsRu7
_symmetry_space_group_name_H-M   'P 1'
_cell_length_a   5.33792802
_cell_length_b   5.21684612
_cell_length_c   8.97068402
_cell_angle_alpha   89.99974656
_cell_angle_beta   89.99322319
_cell_angle_gamma   120.32276484
_symmetry_Int_Tables_number   1
_chemical_formula_structural   Dy2Y2OsRu7
_chemical_formula_sum   'Dy2 Y2 Os1 Ru7'
_cell_volume   215.63299914
_cell_formula_units_Z   1
loop_
 _symmetry_equiv_pos_site_id
 _symmetry_equiv_pos_as_xyz
  1  'x, y, z'
loop_
 _atom_site_type_symbol
 _atom_site_label
 _atom_site_symmetry_multiplicity
 _atom_site_fract_x
 _atom_site_fract_y
 _atom_site_fract_z
 _atom_site_occupancy
  Dy  Dy0  1  0.332725  0.666560  0.067091  1
  Dy  Dy1  1  0.669097  0.336430  0.933581  1
  Y  Y2  1  0.669059  0.336420  0.566664  1
  Y  Y3  1  0.332756  0.666554  0.432674  1
  Os  Os4  1  0.164110  0.328208  0.750289  1
  Ru  Ru5  1  0.004759  0.008399  0.499976  1
  Ru  Ru6  1  0.004860  0.008592  0.000085  1
  Ru  Ru7  1  0.168777  0.822280  0.750290  1
  Ru  Ru8  1  0.649922  0.820321  0.750328  1
  Ru  Ru9  1  0.831541  0.662648  0.249712  1
  Ru  Ru10  1  0.828147  0.170491  0.249669  1
  Ru  Ru11  1  0.344246  0.173098  0.249639  1
