# generated using pymatgen
data_Lu2(Al3Co)3
_symmetry_space_group_name_H-M   'P 1'
_cell_length_a   7.34098267
_cell_length_b   7.34098337
_cell_length_c   9.22609000
_cell_angle_alpha   90.00000000
_cell_angle_beta   90.00000000
_cell_angle_gamma   119.13679483
_symmetry_Int_Tables_number   1
_chemical_formula_structural   Lu2(Al3Co)3
_chemical_formula_sum   'Lu4 Al18 Co6'
_cell_volume   434.27918043
_cell_formula_units_Z   2
loop_
 _symmetry_equiv_pos_site_id
 _symmetry_equiv_pos_as_xyz
  1  'x, y, z'
loop_
 _atom_site_type_symbol
 _atom_site_label
 _atom_site_symmetry_multiplicity
 _atom_site_fract_x
 _atom_site_fract_y
 _atom_site_fract_z
 _atom_site_occupancy
  Lu  Lu0  1  0.992849  0.675000  0.250000  1
  Lu  Lu1  1  0.007151  0.325000  0.750000  1
  Lu  Lu2  1  0.675000  0.992849  0.250000  1
  Lu  Lu3  1  0.325000  0.007151  0.750000  1
  Al  Al4  1  0.997011  0.335972  0.072198  1
  Al  Al5  1  0.002989  0.664028  0.927802  1
  Al  Al6  1  0.002989  0.664028  0.572198  1
  Al  Al7  1  0.335972  0.997011  0.427802  1
  Al  Al8  1  0.997011  0.335972  0.427802  1
  Al  Al9  1  0.664028  0.002989  0.572198  1
  Al  Al10  1  0.664028  0.002989  0.927802  1
  Al  Al11  1  0.335972  0.997011  0.072198  1
  Al  Al12  1  0.339555  0.556942  0.250000  1
  Al  Al13  1  0.660445  0.443058  0.750000  1
  Al  Al14  1  0.556942  0.339555  0.250000  1
  Al  Al15  1  0.443058  0.660445  0.750000  1
  Al  Al16  1  0.331503  0.331503  0.542708  1
  Al  Al17  1  0.668497  0.668497  0.457292  1
  Al  Al18  1  0.668497  0.668497  0.042708  1
  Al  Al19  1  0.331503  0.331503  0.957292  1
  Al  Al20  1  0.126059  0.126059  0.250000  1
  Al  Al21  1  0.873941  0.873941  0.750000  1
  Co  Co22  1  0.671647  0.328353  0.000000  1
  Co  Co23  1  0.328353  0.671647  0.000000  1
  Co  Co24  1  0.328353  0.671647  0.500000  1
  Co  Co25  1  0.671647  0.328353  0.500000  1
  Co  Co26  1  0.000000  0.000000  0.000000  1
  Co  Co27  1  0.000000  0.000000  0.500000  1
