# generated using pymatgen
data_Y3Er7Tl7InNi4
_symmetry_space_group_name_H-M   'P 1'
_cell_length_a   3.57460800
_cell_length_b   8.08526263
_cell_length_c   18.00151250
_cell_angle_alpha   90.00758688
_cell_angle_beta   90.00000000
_cell_angle_gamma   90.00000000
_symmetry_Int_Tables_number   1
_chemical_formula_structural   Y3Er7Tl7InNi4
_chemical_formula_sum   'Y3 Er7 Tl7 In1 Ni4'
_cell_volume   520.27330998
_cell_formula_units_Z   1
loop_
 _symmetry_equiv_pos_site_id
 _symmetry_equiv_pos_as_xyz
  1  'x, y, z'
loop_
 _atom_site_type_symbol
 _atom_site_label
 _atom_site_symmetry_multiplicity
 _atom_site_fract_x
 _atom_site_fract_y
 _atom_site_fract_z
 _atom_site_occupancy
  Y  Y0  1  0.000000  0.500957  0.500144  1
  Y  Y1  1  0.000000  0.001353  0.998750  1
  Y  Y2  1  0.000000  0.744221  0.281691  1
  Er  Er3  1  0.000000  0.254266  0.719173  1
  Er  Er4  1  0.000000  0.755414  0.781114  1
  Er  Er5  1  0.000000  0.244187  0.218709  1
  Er  Er6  1  0.000000  0.616679  0.090544  1
  Er  Er7  1  0.000000  0.383208  0.908454  1
  Er  Er8  1  0.000000  0.884006  0.591851  1
  Er  Er9  1  0.000000  0.118128  0.409615  1
  Tl  Tl10  1  0.500000  0.702751  0.933331  1
  Tl  Tl11  1  0.500000  0.299463  0.065637  1
  Tl  Tl12  1  0.500000  0.802001  0.435717  1
  Tl  Tl13  1  0.500000  0.200939  0.566098  1
  Tl  Tl14  1  0.500000  0.578626  0.653380  1
  Tl  Tl15  1  0.500000  0.419983  0.346865  1
  Tl  Tl16  1  0.500000  0.921655  0.152678  1
  In  In17  1  0.500000  0.079318  0.845866  1
  Ni  Ni18  1  0.500000  0.522726  0.195580  1
  Ni  Ni19  1  0.500000  0.467228  0.802293  1
  Ni  Ni20  1  0.500000  0.971723  0.699022  1
  Ni  Ni21  1  0.500000  0.031167  0.303490  1
