# generated using pymatgen
data_Y6TiAl23Os8
_symmetry_space_group_name_H-M   'P 1'
_cell_length_a   8.85974500
_cell_length_b   8.85974541
_cell_length_c   9.55902600
_cell_angle_alpha   90.00000000
_cell_angle_beta   90.00000000
_cell_angle_gamma   119.99999475
_symmetry_Int_Tables_number   1
_chemical_formula_structural   Y6TiAl23Os8
_chemical_formula_sum   'Y6 Ti1 Al23 Os8'
_cell_volume   649.81055596
_cell_formula_units_Z   1
loop_
 _symmetry_equiv_pos_site_id
 _symmetry_equiv_pos_as_xyz
  1  'x, y, z'
loop_
 _atom_site_type_symbol
 _atom_site_label
 _atom_site_symmetry_multiplicity
 _atom_site_fract_x
 _atom_site_fract_y
 _atom_site_fract_z
 _atom_site_occupancy
  Y  Y0  1  0.193432  0.386864  0.251316  1
  Y  Y1  1  0.807201  0.614401  0.748150  1
  Y  Y2  1  0.613136  0.806568  0.251316  1
  Y  Y3  1  0.385599  0.192799  0.748150  1
  Y  Y4  1  0.193432  0.806568  0.251316  1
  Y  Y5  1  0.807201  0.192799  0.748150  1
  Ti  Ti6  1  0.333333  0.666667  0.991217  1
  Al  Al7  1  0.666667  0.333333  0.982468  1
  Al  Al8  1  0.666667  0.333333  0.516158  1
  Al  Al9  1  0.333333  0.666667  0.482360  1
  Al  Al10  1  0.162506  0.325012  0.574982  1
  Al  Al11  1  0.836988  0.673976  0.424857  1
  Al  Al12  1  0.674988  0.837494  0.574982  1
  Al  Al13  1  0.836930  0.673860  0.076066  1
  Al  Al14  1  0.326024  0.163012  0.424857  1
  Al  Al15  1  0.159707  0.319413  0.926593  1
  Al  Al16  1  0.162506  0.837494  0.574982  1
  Al  Al17  1  0.326140  0.163070  0.076066  1
  Al  Al18  1  0.836988  0.163012  0.424857  1
  Al  Al19  1  0.680587  0.840293  0.926593  1
  Al  Al20  1  0.836930  0.163070  0.076066  1
  Al  Al21  1  0.159707  0.840293  0.926593  1
  Al  Al22  1  0.561599  0.123198  0.252814  1
  Al  Al23  1  0.441049  0.882098  0.749871  1
  Al  Al24  1  0.876802  0.438401  0.252814  1
  Al  Al25  1  0.117902  0.558951  0.749871  1
  Al  Al26  1  0.561599  0.438401  0.252814  1
  Al  Al27  1  0.441049  0.558951  0.749871  1
  Al  Al28  1  0.000000  0.000000  0.249698  1
  Al  Al29  1  0.000000  0.000000  0.749214  1
  Os  Os30  1  0.498940  0.997880  0.002542  1
  Os  Os31  1  0.002120  0.501060  0.002542  1
  Os  Os32  1  0.499427  0.998854  0.502695  1
  Os  Os33  1  0.498940  0.501060  0.002542  1
  Os  Os34  1  0.001146  0.500573  0.502695  1
  Os  Os35  1  0.499427  0.500573  0.502695  1
  Os  Os36  1  0.000000  0.000000  0.999772  1
  Os  Os37  1  0.000000  0.000000  0.499456  1
