# generated using pymatgen
data_Ho3Lu3(AuO7)2
_symmetry_space_group_name_H-M   'P 1'
_cell_length_a   6.40613608
_cell_length_b   6.41169195
_cell_length_c   7.35539800
_cell_angle_alpha   89.99954881
_cell_angle_beta   89.99883284
_cell_angle_gamma   108.69363774
_symmetry_Int_Tables_number   1
_chemical_formula_structural   Ho3Lu3(AuO7)2
_chemical_formula_sum   'Ho3 Lu3 Au2 O14'
_cell_volume   286.17896427
_cell_formula_units_Z   1
loop_
 _symmetry_equiv_pos_site_id
 _symmetry_equiv_pos_as_xyz
  1  'x, y, z'
loop_
 _atom_site_type_symbol
 _atom_site_label
 _atom_site_symmetry_multiplicity
 _atom_site_fract_x
 _atom_site_fract_y
 _atom_site_fract_z
 _atom_site_occupancy
  Ho  Ho0  1  0.471356  0.002309  0.250030  1
  Ho  Ho1  1  0.501793  0.501799  0.500809  1
  Ho  Ho2  1  0.501661  0.501673  0.999336  1
  Lu  Lu3  1  0.002195  0.471376  0.749986  1
  Lu  Lu4  1  0.999052  0.528328  0.250023  1
  Lu  Lu5  1  0.527863  0.998964  0.749978  1
  Au  Au6  1  0.999856  0.999820  0.500724  1
  Au  Au7  1  0.999370  0.999404  0.998993  1
  O  O8  1  0.643137  0.358444  0.750047  1
  O  O9  1  0.357786  0.636559  0.250044  1
  O  O10  1  0.917346  0.084671  0.749923  1
  O  O11  1  0.079340  0.914429  0.249905  1
  O  O12  1  0.921492  0.665999  0.525466  1
  O  O13  1  0.077939  0.333135  0.024522  1
  O  O14  1  0.333073  0.085277  0.972371  1
  O  O15  1  0.665767  0.913725  0.479015  1
  O  O16  1  0.364029  0.636136  0.750068  1
  O  O17  1  0.638642  0.369762  0.250079  1
  O  O18  1  0.920891  0.666007  0.974651  1
  O  O19  1  0.078548  0.333138  0.475601  1
  O  O20  1  0.333714  0.085603  0.527541  1
  O  O21  1  0.665149  0.913443  0.020889  1
