# generated using pymatgen
data_Zr3Mn2Nb(B2Ru5)2
_symmetry_space_group_name_H-M   'P 1'
_cell_length_a   9.35203929
_cell_length_b   9.35203947
_cell_length_c   3.05971900
_cell_angle_alpha   90.00000000
_cell_angle_beta   90.00000000
_cell_angle_gamma   90.11144207
_symmetry_Int_Tables_number   1
_chemical_formula_structural   Zr3Mn2Nb(B2Ru5)2
_chemical_formula_sum   'Zr3 Mn2 Nb1 B4 Ru10'
_cell_volume   267.60447751
_cell_formula_units_Z   1
loop_
 _symmetry_equiv_pos_site_id
 _symmetry_equiv_pos_as_xyz
  1  'x, y, z'
loop_
 _atom_site_type_symbol
 _atom_site_label
 _atom_site_symmetry_multiplicity
 _atom_site_fract_x
 _atom_site_fract_y
 _atom_site_fract_z
 _atom_site_occupancy
  Zr  Zr0  1  0.823260  0.677529  0.000000  1
  Zr  Zr1  1  0.177529  0.323260  0.000000  1
  Zr  Zr2  1  0.323293  0.823293  0.000000  1
  Mn  Mn3  1  0.499578  0.500576  0.000000  1
  Mn  Mn4  1  0.000576  0.999578  0.000000  1
  Nb  Nb5  1  0.677607  0.177607  0.000000  1
  B  B6  1  0.623493  0.876928  0.000000  1
  B  B7  1  0.376928  0.123493  0.000000  1
  B  B8  1  0.122828  0.622828  0.000000  1
  B  B9  1  0.875620  0.375620  0.000000  1
  Ru  Ru10  1  0.570395  0.715002  0.500000  1
  Ru  Ru11  1  0.435060  0.284869  0.500000  1
  Ru  Ru12  1  0.069089  0.785475  0.500000  1
  Ru  Ru13  1  0.924699  0.212080  0.500000  1
  Ru  Ru14  1  0.285475  0.569089  0.500000  1
  Ru  Ru15  1  0.712080  0.424699  0.500000  1
  Ru  Ru16  1  0.215002  0.070395  0.500000  1
  Ru  Ru17  1  0.784869  0.935060  0.500000  1
  Ru  Ru18  1  0.503835  0.003835  0.500000  1
  Ru  Ru19  1  0.998783  0.498783  0.500000  1
