# generated using pymatgen
data_Ho7Er9(In3Rh)2
_symmetry_space_group_name_H-M   'P 1'
_cell_length_a   10.37280300
_cell_length_b   10.37264299
_cell_length_c   6.98335500
_cell_angle_alpha   89.99647579
_cell_angle_beta   90.00000000
_cell_angle_gamma   120.00050073
_symmetry_Int_Tables_number   1
_chemical_formula_structural   Ho7Er9(In3Rh)2
_chemical_formula_sum   'Ho7 Er9 In6 Rh2'
_cell_volume   650.69597411
_cell_formula_units_Z   1
loop_
 _symmetry_equiv_pos_site_id
 _symmetry_equiv_pos_as_xyz
  1  'x, y, z'
loop_
 _atom_site_type_symbol
 _atom_site_label
 _atom_site_symmetry_multiplicity
 _atom_site_fract_x
 _atom_site_fract_y
 _atom_site_fract_z
 _atom_site_occupancy
  Ho  Ho0  1  0.532547  0.065095  0.793971  1
  Ho  Ho1  1  0.934943  0.467377  0.794084  1
  Ho  Ho2  1  0.532434  0.467377  0.794084  1
  Ho  Ho3  1  0.467473  0.934946  0.293943  1
  Ho  Ho4  1  0.065160  0.532502  0.293876  1
  Ho  Ho5  1  0.467342  0.532502  0.293876  1
  Ho  Ho6  1  0.823708  0.647416  0.499569  1
  Er  Er7  1  0.352792  0.176406  0.499587  1
  Er  Er8  1  0.823613  0.176406  0.499587  1
  Er  Er9  1  0.176387  0.352774  0.999541  1
  Er  Er10  1  0.647198  0.823600  0.999591  1
  Er  Er11  1  0.176402  0.823600  0.999591  1
  Er  Er12  1  0.666613  0.333225  0.174072  1
  Er  Er13  1  0.333334  0.666670  0.674263  1
  Er  Er14  1  0.000046  0.000092  0.779120  1
  Er  Er15  1  0.000017  0.000034  0.278809  1
  In  In16  1  0.837291  0.674583  0.038472  1
  In  In17  1  0.325426  0.162705  0.038700  1
  In  In18  1  0.837279  0.162705  0.038700  1
  In  In19  1  0.162734  0.325468  0.538763  1
  In  In20  1  0.674421  0.837408  0.538751  1
  In  In21  1  0.162988  0.837408  0.538751  1
  Rh  Rh22  1  0.666517  0.333033  0.568127  1
  Rh  Rh23  1  0.333334  0.666668  0.068081  1
