# generated using pymatgen
data_La4Sc4Re(B8Ru)3
_symmetry_space_group_name_H-M   'P 1'
_cell_length_a   3.66693500
_cell_length_b   9.12039501
_cell_length_c   11.59784529
_cell_angle_alpha   90.05404794
_cell_angle_beta   90.00000000
_cell_angle_gamma   90.00000000
_symmetry_Int_Tables_number   1
_chemical_formula_structural   La4Sc4Re(B8Ru)3
_chemical_formula_sum   'La4 Sc4 Re1 B24 Ru3'
_cell_volume   387.87695556
_cell_formula_units_Z   1
loop_
 _symmetry_equiv_pos_site_id
 _symmetry_equiv_pos_as_xyz
  1  'x, y, z'
loop_
 _atom_site_type_symbol
 _atom_site_label
 _atom_site_symmetry_multiplicity
 _atom_site_fract_x
 _atom_site_fract_y
 _atom_site_fract_z
 _atom_site_occupancy
  La  La0  1  0.000000  0.323161  0.416360  1
  La  La1  1  0.000000  0.678228  0.585539  1
  La  La2  1  0.000000  0.822510  0.083465  1
  La  La3  1  0.000000  0.176959  0.914544  1
  Sc  Sc4  1  0.000000  0.945744  0.372491  1
  Sc  Sc5  1  0.000000  0.052457  0.627980  1
  Sc  Sc6  1  0.000000  0.445164  0.126997  1
  Sc  Sc7  1  0.000000  0.555976  0.873076  1
  Re  Re8  1  0.000000  0.857129  0.815754  1
  B  B9  1  0.500000  0.559686  0.426847  1
  B  B10  1  0.500000  0.440320  0.573382  1
  B  B11  1  0.500000  0.059317  0.073319  1
  B  B12  1  0.500000  0.941687  0.926862  1
  B  B13  1  0.500000  0.754511  0.414358  1
  B  B14  1  0.500000  0.245450  0.585348  1
  B  B15  1  0.500000  0.254597  0.085745  1
  B  B16  1  0.500000  0.745311  0.914535  1
  B  B17  1  0.500000  0.793433  0.265476  1
  B  B18  1  0.500000  0.206280  0.733821  1
  B  B19  1  0.500000  0.293738  0.234459  1
  B  B20  1  0.500000  0.705340  0.765588  1
  B  B21  1  0.500000  0.628298  0.183161  1
  B  B22  1  0.500000  0.371406  0.816504  1
  B  B23  1  0.500000  0.129041  0.317029  1
  B  B24  1  0.500000  0.870912  0.683347  1
  B  B25  1  0.500000  0.985775  0.216431  1
  B  B26  1  0.500000  0.015681  0.783383  1
  B  B27  1  0.500000  0.485673  0.284035  1
  B  B28  1  0.500000  0.514342  0.716294  1
  B  B29  1  0.500000  0.595178  0.025750  1
  B  B30  1  0.500000  0.403775  0.975101  1
  B  B31  1  0.500000  0.095764  0.474499  1
  B  B32  1  0.500000  0.904231  0.524369  1
  Ru  Ru33  1  0.000000  0.642774  0.315500  1
  Ru  Ru34  1  0.000000  0.357248  0.683940  1
  Ru  Ru35  1  0.000000  0.142904  0.184710  1
