# generated using pymatgen
data_Tb3HoAl3ZnPt4
_symmetry_space_group_name_H-M   'P 1'
_cell_length_a   4.43682700
_cell_length_b   6.84100922
_cell_length_c   7.83588136
_cell_angle_alpha   89.62556939
_cell_angle_beta   90.00000000
_cell_angle_gamma   90.00000000
_symmetry_Int_Tables_number   1
_chemical_formula_structural   Tb3HoAl3ZnPt4
_chemical_formula_sum   'Tb3 Ho1 Al3 Zn1 Pt4'
_cell_volume   237.83252637
_cell_formula_units_Z   1
loop_
 _symmetry_equiv_pos_site_id
 _symmetry_equiv_pos_as_xyz
  1  'x, y, z'
loop_
 _atom_site_type_symbol
 _atom_site_label
 _atom_site_symmetry_multiplicity
 _atom_site_fract_x
 _atom_site_fract_y
 _atom_site_fract_z
 _atom_site_occupancy
  Tb  Tb0  1  0.250000  0.029669  0.685962  1
  Tb  Tb1  1  0.750000  0.969590  0.317415  1
  Tb  Tb2  1  0.750000  0.465981  0.177848  1
  Ho  Ho3  1  0.250000  0.529277  0.818500  1
  Al  Al4  1  0.250000  0.647249  0.438318  1
  Al  Al5  1  0.750000  0.855152  0.937333  1
  Al  Al6  1  0.750000  0.357416  0.560130  1
  Zn  Zn7  1  0.250000  0.149614  0.065503  1
  Pt  Pt8  1  0.250000  0.274663  0.390459  1
  Pt  Pt9  1  0.250000  0.763180  0.116101  1
  Pt  Pt10  1  0.750000  0.727312  0.618807  1
  Pt  Pt11  1  0.750000  0.230895  0.873621  1
