# generated using pymatgen
data_CeDy7CdHgIr2
_symmetry_space_group_name_H-M   'P 1'
_cell_length_a   9.62449283
_cell_length_b   9.62449395
_cell_length_c   9.66156100
_cell_angle_alpha   59.87251377
_cell_angle_beta   59.87250991
_cell_angle_gamma   59.83364261
_symmetry_Int_Tables_number   1
_chemical_formula_structural   CeDy7CdHgIr2
_chemical_formula_sum   'Ce2 Dy14 Cd2 Hg2 Ir4'
_cell_volume   630.81440942
_cell_formula_units_Z   2
loop_
 _symmetry_equiv_pos_site_id
 _symmetry_equiv_pos_as_xyz
  1  'x, y, z'
loop_
 _atom_site_type_symbol
 _atom_site_label
 _atom_site_symmetry_multiplicity
 _atom_site_fract_x
 _atom_site_fract_y
 _atom_site_fract_z
 _atom_site_occupancy
  Ce  Ce0  1  0.596504  0.596504  0.598666  1
  Ce  Ce1  1  0.596504  0.596504  0.208324  1
  Dy  Dy2  1  0.603197  0.194928  0.600937  1
  Dy  Dy3  1  0.194928  0.603197  0.600937  1
  Dy  Dy4  1  0.061372  0.438678  0.440363  1
  Dy  Dy5  1  0.438678  0.061372  0.059588  1
  Dy  Dy6  1  0.438678  0.061372  0.440363  1
  Dy  Dy7  1  0.061372  0.438678  0.059588  1
  Dy  Dy8  1  0.437762  0.437762  0.062238  1
  Dy  Dy9  1  0.060647  0.060647  0.439353  1
  Dy  Dy10  1  0.188171  0.812157  0.813040  1
  Dy  Dy11  1  0.812157  0.188171  0.186633  1
  Dy  Dy12  1  0.812157  0.188171  0.813040  1
  Dy  Dy13  1  0.188171  0.812157  0.186633  1
  Dy  Dy14  1  0.812390  0.812390  0.187610  1
  Dy  Dy15  1  0.188983  0.188983  0.811017  1
  Cd  Cd16  1  0.829508  0.505694  0.832400  1
  Cd  Cd17  1  0.505694  0.829508  0.832400  1
  Hg  Hg18  1  0.833470  0.833470  0.835446  1
  Hg  Hg19  1  0.833470  0.833470  0.497613  1
  Ir  Ir20  1  0.393640  0.393640  0.390927  1
  Ir  Ir21  1  0.393640  0.393640  0.821794  1
  Ir  Ir22  1  0.396607  0.822299  0.390547  1
  Ir  Ir23  1  0.822299  0.396607  0.390547  1
