# generated using pymatgen
data_YTmCo9Tc3As7
_symmetry_space_group_name_H-M   'P 1'
_cell_length_a   3.82403300
_cell_length_b   9.35324854
_cell_length_c   9.35325000
_cell_angle_alpha   119.99999809
_cell_angle_beta   90.00000000
_cell_angle_gamma   90.00000000
_symmetry_Int_Tables_number   1
_chemical_formula_structural   YTmCo9Tc3As7
_chemical_formula_sum   'Y1 Tm1 Co9 Tc3 As7'
_cell_volume   289.71920776
_cell_formula_units_Z   1
loop_
 _symmetry_equiv_pos_site_id
 _symmetry_equiv_pos_as_xyz
  1  'x, y, z'
loop_
 _atom_site_type_symbol
 _atom_site_label
 _atom_site_symmetry_multiplicity
 _atom_site_fract_x
 _atom_site_fract_y
 _atom_site_fract_z
 _atom_site_occupancy
  Y  Y0  1  0.500000  0.333333  0.666667  1
  Tm  Tm1  1  0.000000  0.666667  0.333333  1
  Co  Co2  1  0.000000  0.569016  0.941113  1
  Co  Co3  1  0.000000  0.372096  0.430984  1
  Co  Co4  1  0.000000  0.058887  0.627904  1
  Co  Co5  1  0.000000  0.875224  0.157560  1
  Co  Co6  1  0.000000  0.282335  0.124776  1
  Co  Co7  1  0.000000  0.842440  0.717665  1
  Co  Co8  1  0.500000  0.945829  0.380645  1
  Co  Co9  1  0.500000  0.434815  0.054171  1
  Co  Co10  1  0.500000  0.619355  0.565185  1
  Tc  Tc11  1  0.500000  0.782689  0.900506  1
  Tc  Tc12  1  0.500000  0.117818  0.217311  1
  Tc  Tc13  1  0.500000  0.099494  0.882182  1
  As  As14  1  0.000000  0.000000  0.000000  1
  As  As15  1  0.500000  0.706451  0.117419  1
  As  As16  1  0.500000  0.410969  0.293549  1
  As  As17  1  0.500000  0.882581  0.589031  1
  As  As18  1  0.000000  0.587797  0.701737  1
  As  As19  1  0.000000  0.113940  0.412203  1
  As  As20  1  0.000000  0.298263  0.886060  1
