# generated using pymatgen
data_Tm4Co19Si12Ni
_symmetry_space_group_name_H-M   'P 1'
_cell_length_a   3.69042200
_cell_length_b   6.84724609
_cell_length_c   18.07613917
_cell_angle_alpha   89.95344928
_cell_angle_beta   90.00000000
_cell_angle_gamma   90.00000000
_symmetry_Int_Tables_number   1
_chemical_formula_structural   Tm4Co19Si12Ni
_chemical_formula_sum   'Tm4 Co19 Si12 Ni1'
_cell_volume   456.76992455
_cell_formula_units_Z   1
loop_
 _symmetry_equiv_pos_site_id
 _symmetry_equiv_pos_as_xyz
  1  'x, y, z'
loop_
 _atom_site_type_symbol
 _atom_site_label
 _atom_site_symmetry_multiplicity
 _atom_site_fract_x
 _atom_site_fract_y
 _atom_site_fract_z
 _atom_site_occupancy
  Tm  Tm0  1  0.250000  0.875059  0.358992  1
  Tm  Tm1  1  0.750000  0.122350  0.641664  1
  Tm  Tm2  1  0.750000  0.377557  0.140264  1
  Tm  Tm3  1  0.250000  0.623041  0.859357  1
  Co  Co4  1  0.250000  0.057789  0.205000  1
  Co  Co5  1  0.750000  0.942316  0.794901  1
  Co  Co6  1  0.750000  0.557928  0.295040  1
  Co  Co7  1  0.250000  0.442042  0.705513  1
  Co  Co8  1  0.250000  0.620739  0.490870  1
  Co  Co9  1  0.750000  0.374235  0.509399  1
  Co  Co10  1  0.750000  0.121317  0.008842  1
  Co  Co11  1  0.250000  0.879089  0.991068  1
  Co  Co12  1  0.250000  0.679898  0.201943  1
  Co  Co13  1  0.750000  0.320100  0.798239  1
  Co  Co14  1  0.750000  0.180475  0.297174  1
  Co  Co15  1  0.250000  0.820237  0.701762  1
  Co  Co16  1  0.250000  0.363679  0.389273  1
  Co  Co17  1  0.750000  0.636183  0.610329  1
  Co  Co18  1  0.750000  0.864703  0.110085  1
  Co  Co19  1  0.250000  0.136079  0.890164  1
  Co  Co20  1  0.250000  0.371280  0.005978  1
  Co  Co21  1  0.750000  0.629393  0.994304  1
  Co  Co22  1  0.750000  0.873825  0.494113  1
  Si  Si23  1  0.250000  0.095758  0.082131  1
  Si  Si24  1  0.750000  0.904339  0.917827  1
  Si  Si25  1  0.750000  0.595073  0.418651  1
  Si  Si26  1  0.250000  0.407674  0.582792  1
  Si  Si27  1  0.250000  0.647490  0.075305  1
  Si  Si28  1  0.750000  0.353697  0.924865  1
  Si  Si29  1  0.750000  0.148057  0.422735  1
  Si  Si30  1  0.250000  0.849572  0.575534  1
  Si  Si31  1  0.250000  0.368880  0.262176  1
  Si  Si32  1  0.750000  0.631529  0.737723  1
  Si  Si33  1  0.750000  0.868496  0.237111  1
  Si  Si34  1  0.250000  0.131336  0.763131  1
  Ni  Ni35  1  0.250000  0.128781  0.505747  1
