# generated using pymatgen
data_Nd20Sn10(BiSb)3
_symmetry_space_group_name_H-M   'P 1'
_cell_length_a   8.42528444
_cell_length_b   8.43824310
_cell_length_c   16.03919474
_cell_angle_alpha   89.97150290
_cell_angle_beta   90.08280737
_cell_angle_gamma   90.22656885
_symmetry_Int_Tables_number   1
_chemical_formula_structural   Nd20Sn10(BiSb)3
_chemical_formula_sum   'Nd20 Sn10 Bi3 Sb3'
_cell_volume   1140.28986215
_cell_formula_units_Z   1
loop_
 _symmetry_equiv_pos_site_id
 _symmetry_equiv_pos_as_xyz
  1  'x, y, z'
loop_
 _atom_site_type_symbol
 _atom_site_label
 _atom_site_symmetry_multiplicity
 _atom_site_fract_x
 _atom_site_fract_y
 _atom_site_fract_z
 _atom_site_occupancy
  Nd  Nd0  1  0.050619  0.171199  0.393820  1
  Nd  Nd1  1  0.394924  0.836787  0.120165  1
  Nd  Nd2  1  0.109985  0.336397  0.617568  1
  Nd  Nd3  1  0.454035  0.677353  0.890977  1
  Nd  Nd4  1  0.888186  0.667453  0.121177  1
  Nd  Nd5  1  0.108589  0.336441  0.878771  1
  Nd  Nd6  1  0.219479  0.496464  0.251771  1
  Nd  Nd7  1  0.719460  0.001466  0.249166  1
  Nd  Nd8  1  0.451138  0.674661  0.606850  1
  Nd  Nd9  1  0.280690  0.998568  0.746012  1
  Nd  Nd10  1  0.607915  0.163433  0.616599  1
  Nd  Nd11  1  0.780405  0.503502  0.747372  1
  Nd  Nd12  1  0.892845  0.663595  0.383028  1
  Nd  Nd13  1  0.044279  0.171241  0.108433  1
  Nd  Nd14  1  0.946892  0.829516  0.892171  1
  Nd  Nd15  1  0.611794  0.161621  0.881149  1
  Nd  Nd16  1  0.549659  0.321808  0.109833  1
  Nd  Nd17  1  0.390919  0.836331  0.383327  1
  Nd  Nd18  1  0.951286  0.828237  0.605729  1
  Nd  Nd19  1  0.546023  0.323143  0.394665  1
  Sn  Sn20  1  0.649915  0.863827  0.749046  1
  Sn  Sn21  1  0.850031  0.362273  0.251708  1
  Sn  Sn22  1  0.589372  0.622347  0.252083  1
  Sn  Sn23  1  0.411180  0.376386  0.750413  1
  Sn  Sn24  1  0.149472  0.639131  0.750162  1
  Sn  Sn25  1  0.910303  0.124204  0.749140  1
  Sn  Sn26  1  0.268959  0.021768  0.545100  1
  Sn  Sn27  1  0.730554  0.978182  0.045595  1
  Sn  Sn28  1  0.349505  0.136050  0.250925  1
  Sn  Sn29  1  0.090726  0.875600  0.251112  1
  Bi  Bi30  1  0.269453  0.021440  0.954508  1
  Bi  Bi31  1  0.769663  0.479971  0.954706  1
  Bi  Bi32  1  0.230878  0.520008  0.045003  1
  Sb  Sb33  1  0.767570  0.481142  0.545841  1
  Sb  Sb34  1  0.731614  0.979850  0.452800  1
  Sb  Sb35  1  0.231682  0.518603  0.453278  1
