# generated using pymatgen
data_Ca10PdPt3
_symmetry_space_group_name_H-M   'P 1'
_cell_length_a   8.82704791
_cell_length_b   8.83009856
_cell_length_c   7.67019277
_cell_angle_alpha   83.20933673
_cell_angle_beta   83.07364188
_cell_angle_gamma   44.67891365
_symmetry_Int_Tables_number   1
_chemical_formula_structural   Ca10PdPt3
_chemical_formula_sum   'Ca10 Pd1 Pt3'
_cell_volume   416.84311800
_cell_formula_units_Z   1
loop_
 _symmetry_equiv_pos_site_id
 _symmetry_equiv_pos_as_xyz
  1  'x, y, z'
loop_
 _atom_site_type_symbol
 _atom_site_label
 _atom_site_symmetry_multiplicity
 _atom_site_fract_x
 _atom_site_fract_y
 _atom_site_fract_z
 _atom_site_occupancy
  Ca  Ca0  1  0.017492  0.802827  0.921106  1
  Ca  Ca1  1  0.198120  0.983656  0.581001  1
  Ca  Ca2  1  0.982308  0.197926  0.081097  1
  Ca  Ca3  1  0.798968  0.021222  0.418251  1
  Ca  Ca4  1  0.365656  0.198651  0.823445  1
  Ca  Ca5  1  0.795473  0.636364  0.678961  1
  Ca  Ca6  1  0.636346  0.797950  0.178545  1
  Ca  Ca7  1  0.201715  0.362708  0.319814  1
  Ca  Ca8  1  0.577162  0.423983  0.751344  1
  Ca  Ca9  1  0.426771  0.574954  0.247616  1
  Pd  Pd10  1  0.179356  0.598427  0.583608  1
  Pt  Pt11  1  0.400522  0.821797  0.914996  1
  Pt  Pt12  1  0.821790  0.400720  0.415443  1
  Pt  Pt13  1  0.598321  0.178816  0.084773  1
