# generated using pymatgen
data_Er5(SnPb)2
_symmetry_space_group_name_H-M   'P 1'
_cell_length_a   8.08999300
_cell_length_b   8.15620000
_cell_length_c   15.47178000
_cell_angle_alpha   90.00000000
_cell_angle_beta   90.00000000
_cell_angle_gamma   90.00000000
_symmetry_Int_Tables_number   1
_chemical_formula_structural   Er5(SnPb)2
_chemical_formula_sum   'Er20 Sn8 Pb8'
_cell_volume   1020.88375683
_cell_formula_units_Z   4
loop_
 _symmetry_equiv_pos_site_id
 _symmetry_equiv_pos_as_xyz
  1  'x, y, z'
loop_
 _atom_site_type_symbol
 _atom_site_label
 _atom_site_symmetry_multiplicity
 _atom_site_fract_x
 _atom_site_fract_y
 _atom_site_fract_z
 _atom_site_occupancy
  Er  Er0  1  0.377990  0.839961  0.877057  1
  Er  Er1  1  0.877990  0.660039  0.622943  1
  Er  Er2  1  0.622010  0.160039  0.377057  1
  Er  Er3  1  0.122010  0.339961  0.122943  1
  Er  Er4  1  0.622010  0.160039  0.122943  1
  Er  Er5  1  0.122010  0.339961  0.377057  1
  Er  Er6  1  0.377990  0.839961  0.622943  1
  Er  Er7  1  0.877990  0.660039  0.877057  1
  Er  Er8  1  0.535066  0.323318  0.897633  1
  Er  Er9  1  0.035066  0.176682  0.602367  1
  Er  Er10  1  0.464934  0.676682  0.397633  1
  Er  Er11  1  0.964934  0.823318  0.102367  1
  Er  Er12  1  0.464934  0.676682  0.102367  1
  Er  Er13  1  0.964934  0.823318  0.397633  1
  Er  Er14  1  0.535066  0.323318  0.602367  1
  Er  Er15  1  0.035066  0.176682  0.897633  1
  Er  Er16  1  0.209136  0.503897  0.750000  1
  Er  Er17  1  0.709136  0.996103  0.750000  1
  Er  Er18  1  0.790864  0.496103  0.250000  1
  Er  Er19  1  0.290864  0.003897  0.250000  1
  Sn  Sn20  1  0.574204  0.623543  0.750000  1
  Sn  Sn21  1  0.074204  0.876457  0.750000  1
  Sn  Sn22  1  0.425796  0.376457  0.250000  1
  Sn  Sn23  1  0.925796  0.123543  0.250000  1
  Sn  Sn24  1  0.343742  0.149487  0.750000  1
  Sn  Sn25  1  0.843742  0.350513  0.750000  1
  Sn  Sn26  1  0.656258  0.850513  0.250000  1
  Sn  Sn27  1  0.156258  0.649487  0.250000  1
  Pb  Pb28  1  0.281674  0.033252  0.041857  1
  Pb  Pb29  1  0.781674  0.466748  0.458143  1
  Pb  Pb30  1  0.718326  0.966748  0.541857  1
  Pb  Pb31  1  0.218326  0.533252  0.958143  1
  Pb  Pb32  1  0.718326  0.966748  0.958143  1
  Pb  Pb33  1  0.218326  0.533252  0.541857  1
  Pb  Pb34  1  0.281674  0.033252  0.458143  1
  Pb  Pb35  1  0.781674  0.466748  0.041857  1
