# generated using pymatgen
data_Nd4Er4Re(B8Os)3
_symmetry_space_group_name_H-M   'P 1'
_cell_length_a   3.69965400
_cell_length_b   9.22136747
_cell_length_c   11.66187101
_cell_angle_alpha   90.08041862
_cell_angle_beta   90.00000000
_cell_angle_gamma   90.00000000
_symmetry_Int_Tables_number   1
_chemical_formula_structural   Nd4Er4Re(B8Os)3
_chemical_formula_sum   'Nd4 Er4 Re1 B24 Os3'
_cell_volume   397.85447230
_cell_formula_units_Z   1
loop_
 _symmetry_equiv_pos_site_id
 _symmetry_equiv_pos_as_xyz
  1  'x, y, z'
loop_
 _atom_site_type_symbol
 _atom_site_label
 _atom_site_symmetry_multiplicity
 _atom_site_fract_x
 _atom_site_fract_y
 _atom_site_fract_z
 _atom_site_occupancy
  Nd  Nd0  1  0.000000  0.322941  0.414972  1
  Nd  Nd1  1  0.000000  0.679198  0.587230  1
  Nd  Nd2  1  0.000000  0.822564  0.084149  1
  Nd  Nd3  1  0.000000  0.176620  0.913202  1
  Er  Er4  1  0.000000  0.943603  0.371275  1
  Er  Er5  1  0.000000  0.055488  0.628373  1
  Er  Er6  1  0.000000  0.443115  0.128225  1
  Er  Er7  1  0.000000  0.556508  0.872319  1
  Re  Re8  1  0.000000  0.860928  0.819542  1
  B  B9  1  0.500000  0.556088  0.430718  1
  B  B10  1  0.500000  0.444011  0.569703  1
  B  B11  1  0.500000  0.055691  0.069821  1
  B  B12  1  0.500000  0.945190  0.930418  1
  B  B13  1  0.500000  0.749530  0.417070  1
  B  B14  1  0.500000  0.250544  0.582724  1
  B  B15  1  0.500000  0.249535  0.083216  1
  B  B16  1  0.500000  0.750325  0.916809  1
  B  B17  1  0.500000  0.790029  0.266629  1
  B  B18  1  0.500000  0.209450  0.732525  1
  B  B19  1  0.500000  0.290489  0.233357  1
  B  B20  1  0.500000  0.708932  0.766775  1
  B  B21  1  0.500000  0.629773  0.185763  1
  B  B22  1  0.500000  0.369710  0.813865  1
  B  B23  1  0.500000  0.130443  0.314434  1
  B  B24  1  0.500000  0.869827  0.686005  1
  B  B25  1  0.500000  0.985204  0.214014  1
  B  B26  1  0.500000  0.015893  0.785861  1
  B  B27  1  0.500000  0.485069  0.286499  1
  B  B28  1  0.500000  0.515065  0.714176  1
  B  B29  1  0.500000  0.600531  0.028323  1
  B  B30  1  0.500000  0.397946  0.972523  1
  B  B31  1  0.500000  0.101627  0.471699  1
  B  B32  1  0.500000  0.898799  0.527161  1
  Os  Os33  1  0.000000  0.639222  0.319208  1
  Os  Os34  1  0.000000  0.360912  0.680335  1
  Os  Os35  1  0.000000  0.139199  0.181080  1
