# generated using pymatgen
data_Ac2Bi4O9
_symmetry_space_group_name_H-M   'P 1'
_cell_length_a   4.15560641
_cell_length_b   7.11200584
_cell_length_c   9.45143000
_cell_angle_alpha   97.37314770
_cell_angle_beta   102.43779172
_cell_angle_gamma   90.02308610
_symmetry_Int_Tables_number   1
_chemical_formula_structural   Ac2Bi4O9
_chemical_formula_sum   'Ac2 Bi4 O9'
_cell_volume   270.40937209
_cell_formula_units_Z   1
loop_
 _symmetry_equiv_pos_site_id
 _symmetry_equiv_pos_as_xyz
  1  'x, y, z'
loop_
 _atom_site_type_symbol
 _atom_site_label
 _atom_site_symmetry_multiplicity
 _atom_site_fract_x
 _atom_site_fract_y
 _atom_site_fract_z
 _atom_site_occupancy
  Ac  Ac0  1  0.494977  0.495344  0.015195  1
  Ac  Ac1  1  0.980175  0.992750  0.986821  1
  Bi  Bi2  1  0.813651  0.588462  0.666792  1
  Bi  Bi3  1  0.642144  0.900870  0.333870  1
  Bi  Bi4  1  0.347168  0.119465  0.650512  1
  Bi  Bi5  1  0.195182  0.366075  0.349372  1
  O  O6  1  0.580416  0.566746  0.309519  1
  O  O7  1  0.538683  0.856475  0.098519  1
  O  O8  1  0.943929  0.631313  0.900940  1
  O  O9  1  0.771004  0.916277  0.689456  1
  O  O10  1  0.660593  0.236547  0.494964  1
  O  O11  1  0.133554  0.030643  0.292705  1
  O  O12  1  0.434889  0.154000  0.888171  1
  O  O13  1  0.044548  0.334328  0.111809  1
  O  O14  1  0.348037  0.453715  0.703214  1
