# generated using pymatgen
data_TeAuF34
_symmetry_space_group_name_H-M   'P 1'
_cell_length_a   8.87326799
_cell_length_b   8.52785953
_cell_length_c   10.18084884
_cell_angle_alpha   81.11988795
_cell_angle_beta   88.41209368
_cell_angle_gamma   66.33084873
_symmetry_Int_Tables_number   1
_chemical_formula_structural   TeAuF34
_chemical_formula_sum   'Te1 Au1 F34'
_cell_volume   696.62177745
_cell_formula_units_Z   1
loop_
 _symmetry_equiv_pos_site_id
 _symmetry_equiv_pos_as_xyz
  1  'x, y, z'
loop_
 _atom_site_type_symbol
 _atom_site_label
 _atom_site_symmetry_multiplicity
 _atom_site_fract_x
 _atom_site_fract_y
 _atom_site_fract_z
 _atom_site_occupancy
  Te  Te0  1  0.864462  0.250045  0.761276  1
  Au  Au1  1  0.134571  0.748447  0.247825  1
  F  F2  1  0.605867  0.205358  0.478935  1
  F  F3  1  0.398295  0.794749  0.510735  1
  F  F4  1  0.829275  0.718109  0.720713  1
  F  F5  1  0.173080  0.311763  0.278423  1
  F  F6  1  0.102939  0.740157  0.869509  1
  F  F7  1  0.917303  0.232853  0.143463  1
  F  F8  1  0.559823  0.141342  0.371965  1
  F  F9  1  0.436544  0.857218  0.622759  1
  F  F10  1  0.647722  0.328802  0.695637  1
  F  F11  1  0.359091  0.668178  0.317516  1
  F  F12  1  0.931011  0.071768  0.659174  1
  F  F13  1  0.063312  0.933761  0.353201  1
  F  F14  1  0.906769  0.391498  0.619616  1
  F  F15  1  0.089668  0.602703  0.394471  1
  F  F16  1  0.865791  0.796028  0.597190  1
  F  F17  1  0.158398  0.184864  0.380414  1
  F  F18  1  0.800058  0.429883  0.862236  1
  F  F19  1  0.203186  0.560622  0.144044  1
  F  F20  1  0.211934  0.690131  0.764090  1
  F  F21  1  0.784274  0.313448  0.224733  1
  F  F22  1  0.911705  0.828106  0.176099  1
  F  F23  1  0.079517  0.172545  0.829414  1
  F  F24  1  0.819477  0.107694  0.900846  1
  F  F25  1  0.180144  0.894932  0.101967  1
  F  F26  1  0.480074  0.591827  0.991223  1
  F  F27  1  0.512185  0.412319  0.009846  1
  F  F28  1  0.449401  0.093729  0.866218  1
  F  F29  1  0.531643  0.917104  0.133471  1
  F  F30  1  0.286431  0.255557  0.602998  1
  F  F31  1  0.713945  0.742697  0.384755  1
  F  F32  1  0.258353  0.397776  0.671402  1
  F  F33  1  0.739433  0.596538  0.322335  1
  F  F34  1  0.550197  0.926807  0.834927  1
  F  F35  1  0.444119  0.090641  0.156573  1
