# generated using pymatgen
data_ThTe2IBr
_symmetry_space_group_name_H-M   'P 1'
_cell_length_a   8.09972663
_cell_length_b   8.09972588
_cell_length_c   8.13790599
_cell_angle_alpha   83.94348635
_cell_angle_beta   83.94348575
_cell_angle_gamma   123.45851763
_symmetry_Int_Tables_number   1
_chemical_formula_structural   ThTe2IBr
_chemical_formula_sum   'Th2 Te4 I2 Br2'
_cell_volume   434.22590029
_cell_formula_units_Z   2
loop_
 _symmetry_equiv_pos_site_id
 _symmetry_equiv_pos_as_xyz
  1  'x, y, z'
loop_
 _atom_site_type_symbol
 _atom_site_label
 _atom_site_symmetry_multiplicity
 _atom_site_fract_x
 _atom_site_fract_y
 _atom_site_fract_z
 _atom_site_occupancy
  Th  Th0  1  0.853545  0.146455  0.500000  1
  Th  Th1  1  0.146906  0.853094  0.500000  1
  Te  Te2  1  0.088534  0.088467  0.188227  1
  Te  Te3  1  0.911533  0.911466  0.811773  1
  Te  Te4  1  0.675943  0.675137  0.598276  1
  Te  Te5  1  0.324863  0.324057  0.401724  1
  I  I6  1  0.976317  0.542688  0.246305  1
  I  I7  1  0.457312  0.023683  0.753695  1
  Br  Br8  1  0.032702  0.467656  0.708359  1
  Br  Br9  1  0.532344  0.967298  0.291641  1
