# generated using pymatgen
data_Pr19Tm(Ga2Sn)4
_symmetry_space_group_name_H-M   'P 1'
_cell_length_a   8.07912100
_cell_length_b   8.07912100
_cell_length_c   14.76609900
_cell_angle_alpha   90.00000000
_cell_angle_beta   90.00000000
_cell_angle_gamma   90.00000000
_symmetry_Int_Tables_number   1
_chemical_formula_structural   Pr19Tm(Ga2Sn)4
_chemical_formula_sum   'Pr19 Tm1 Ga8 Sn4'
_cell_volume   963.81571004
_cell_formula_units_Z   1
loop_
 _symmetry_equiv_pos_site_id
 _symmetry_equiv_pos_as_xyz
  1  'x, y, z'
loop_
 _atom_site_type_symbol
 _atom_site_label
 _atom_site_symmetry_multiplicity
 _atom_site_fract_x
 _atom_site_fract_y
 _atom_site_fract_z
 _atom_site_occupancy
  Pr  Pr0  1  0.824678  0.838142  0.607161  1
  Pr  Pr1  1  0.177900  0.839750  0.106227  1
  Pr  Pr2  1  0.159650  0.821102  0.393558  1
  Pr  Pr3  1  0.840350  0.178898  0.393558  1
  Pr  Pr4  1  0.678898  0.659650  0.393558  1
  Pr  Pr5  1  0.661858  0.324678  0.607161  1
  Pr  Pr6  1  0.338142  0.675322  0.607161  1
  Pr  Pr7  1  0.000000  0.500000  0.222182  1
  Pr  Pr8  1  0.660250  0.677900  0.106227  1
  Pr  Pr9  1  0.675129  0.339197  0.892403  1
  Pr  Pr10  1  0.839197  0.824871  0.892403  1
  Pr  Pr11  1  0.321102  0.340350  0.393558  1
  Pr  Pr12  1  0.175322  0.161858  0.607161  1
  Pr  Pr13  1  0.822100  0.160250  0.106227  1
  Pr  Pr14  1  0.324871  0.660803  0.892403  1
  Pr  Pr15  1  0.339750  0.322100  0.106227  1
  Pr  Pr16  1  0.500000  0.000000  0.274867  1
  Pr  Pr17  1  0.160803  0.175129  0.892403  1
  Pr  Pr18  1  0.500000  0.000000  0.773347  1
  Tm  Tm19  1  0.000000  0.500000  0.734841  1
  Ga  Ga20  1  0.621945  0.378186  0.250208  1
  Ga  Ga21  1  0.120789  0.871090  0.748279  1
  Ga  Ga22  1  0.371090  0.379211  0.748279  1
  Ga  Ga23  1  0.378055  0.621814  0.250208  1
  Ga  Ga24  1  0.878186  0.878055  0.250208  1
  Ga  Ga25  1  0.628910  0.620789  0.748279  1
  Ga  Ga26  1  0.879211  0.128910  0.748279  1
  Ga  Ga27  1  0.121814  0.121945  0.250208  1
  Sn  Sn28  1  0.000000  0.500000  0.511384  1
  Sn  Sn29  1  0.500000  0.000000  0.496648  1
  Sn  Sn30  1  0.500000  0.000000  0.996006  1
  Sn  Sn31  1  0.000000  0.500000  0.999375  1
