# generated using pymatgen
data_CeTm4ZnRu4
_symmetry_space_group_name_H-M   'P 1'
_cell_length_a   3.39987600
_cell_length_b   3.39987600
_cell_length_c   17.29578900
_cell_angle_alpha   90.00000000
_cell_angle_beta   90.00000000
_cell_angle_gamma   90.00000000
_symmetry_Int_Tables_number   1
_chemical_formula_structural   CeTm4ZnRu4
_chemical_formula_sum   'Ce1 Tm4 Zn1 Ru4'
_cell_volume   199.92473730
_cell_formula_units_Z   1
loop_
 _symmetry_equiv_pos_site_id
 _symmetry_equiv_pos_as_xyz
  1  'x, y, z'
loop_
 _atom_site_type_symbol
 _atom_site_label
 _atom_site_symmetry_multiplicity
 _atom_site_fract_x
 _atom_site_fract_y
 _atom_site_fract_z
 _atom_site_occupancy
  Ce  Ce0  1  0.000000  0.000000  0.000000  1
  Tm  Tm1  1  0.000000  0.000000  0.198707  1
  Tm  Tm2  1  0.000000  0.000000  0.387110  1
  Tm  Tm3  1  0.000000  0.000000  0.612890  1
  Tm  Tm4  1  0.000000  0.000000  0.801293  1
  Zn  Zn5  1  0.500000  0.500000  0.500000  1
  Ru  Ru6  1  0.500000  0.500000  0.091447  1
  Ru  Ru7  1  0.500000  0.500000  0.296107  1
  Ru  Ru8  1  0.500000  0.500000  0.703893  1
  Ru  Ru9  1  0.500000  0.500000  0.908553  1
