# generated using pymatgen
data_La4CdPb11
_symmetry_space_group_name_H-M   'P 1'
_cell_length_a   9.94380100
_cell_length_b   6.97124841
_cell_length_c   6.98253725
_cell_angle_alpha   90.00029671
_cell_angle_beta   90.00000000
_cell_angle_gamma   90.00000000
_symmetry_Int_Tables_number   1
_chemical_formula_structural   La4CdPb11
_chemical_formula_sum   'La4 Cd1 Pb11'
_cell_volume   484.03441820
_cell_formula_units_Z   1
loop_
 _symmetry_equiv_pos_site_id
 _symmetry_equiv_pos_as_xyz
  1  'x, y, z'
loop_
 _atom_site_type_symbol
 _atom_site_label
 _atom_site_symmetry_multiplicity
 _atom_site_fract_x
 _atom_site_fract_y
 _atom_site_fract_z
 _atom_site_occupancy
  La  La0  1  0.250000  0.000964  0.000320  1
  La  La1  1  0.250000  0.499479  0.500997  1
  La  La2  1  0.750000  0.999461  0.999396  1
  La  La3  1  0.750000  0.500272  0.499874  1
  Cd  Cd4  1  0.750000  0.499265  0.999525  1
  Pb  Pb5  1  0.995681  0.251364  0.751339  1
  Pb  Pb6  1  0.504682  0.253489  0.246666  1
  Pb  Pb7  1  0.503882  0.748543  0.248490  1
  Pb  Pb8  1  0.995673  0.746405  0.753256  1
  Pb  Pb9  1  0.996118  0.748543  0.248490  1
  Pb  Pb10  1  0.504327  0.746405  0.753256  1
  Pb  Pb11  1  0.504319  0.251364  0.751339  1
  Pb  Pb12  1  0.995318  0.253489  0.246666  1
  Pb  Pb13  1  0.250000  0.999622  0.499979  1
  Pb  Pb14  1  0.250000  0.500806  0.000922  1
  Pb  Pb15  1  0.750000  0.000530  0.499487  1
