# generated using pymatgen
data_Th4Sc6Ge7Sb
_symmetry_space_group_name_H-M   'P 1'
_cell_length_a   7.54768564
_cell_length_b   7.61282126
_cell_length_c   14.30511125
_cell_angle_alpha   89.98258555
_cell_angle_beta   89.79023796
_cell_angle_gamma   90.39747435
_symmetry_Int_Tables_number   1
_chemical_formula_structural   Th4Sc6Ge7Sb
_chemical_formula_sum   'Th8 Sc12 Ge14 Sb2'
_cell_volume   821.93465515
_cell_formula_units_Z   2
loop_
 _symmetry_equiv_pos_site_id
 _symmetry_equiv_pos_as_xyz
  1  'x, y, z'
loop_
 _atom_site_type_symbol
 _atom_site_label
 _atom_site_symmetry_multiplicity
 _atom_site_fract_x
 _atom_site_fract_y
 _atom_site_fract_z
 _atom_site_occupancy
  Th  Th0  1  0.993385  0.176640  0.095156  1
  Th  Th1  1  0.007369  0.817573  0.907544  1
  Th  Th2  1  0.507263  0.676908  0.907268  1
  Th  Th3  1  0.007232  0.823885  0.594171  1
  Th  Th4  1  0.492115  0.323605  0.095899  1
  Th  Th5  1  0.988806  0.171477  0.401075  1
  Th  Th6  1  0.495705  0.321355  0.401199  1
  Th  Th7  1  0.516745  0.681512  0.595585  1
  Sc  Sc8  1  0.176986  0.508365  0.754730  1
  Sc  Sc9  1  0.824332  0.499853  0.249393  1
  Sc  Sc10  1  0.323083  0.000686  0.248903  1
  Sc  Sc11  1  0.671827  0.994802  0.752093  1
  Sc  Sc12  1  0.363159  0.152080  0.625949  1
  Sc  Sc13  1  0.652201  0.836948  0.373021  1
  Sc  Sc14  1  0.153715  0.667599  0.370296  1
  Sc  Sc15  1  0.654836  0.836878  0.125220  1
  Sc  Sc16  1  0.825185  0.343751  0.622287  1
  Sc  Sc17  1  0.354518  0.163865  0.877670  1
  Sc  Sc18  1  0.833483  0.345542  0.879720  1
  Sc  Sc19  1  0.156264  0.662641  0.125274  1
  Ge  Ge20  1  0.808143  0.546852  0.452458  1
  Ge  Ge21  1  0.311085  0.955212  0.454942  1
  Ge  Ge22  1  0.812504  0.545079  0.046747  1
  Ge  Ge23  1  0.692050  0.045401  0.543269  1
  Ge  Ge24  1  0.186809  0.453324  0.956360  1
  Ge  Ge25  1  0.690225  0.044560  0.956069  1
  Ge  Ge26  1  0.312861  0.955655  0.045139  1
  Ge  Ge27  1  0.958055  0.867771  0.248069  1
  Ge  Ge28  1  0.458840  0.631677  0.249302  1
  Ge  Ge29  1  0.538634  0.371086  0.750695  1
  Ge  Ge30  1  0.321133  0.855077  0.751337  1
  Ge  Ge31  1  0.686171  0.135526  0.248082  1
  Ge  Ge32  1  0.185156  0.363775  0.249412  1
  Ge  Ge33  1  0.814125  0.638680  0.750987  1
  Sb  Sb34  1  0.184604  0.448658  0.544380  1
  Sb  Sb35  1  0.041396  0.135702  0.750298  1
