# generated using pymatgen
data_Ho2Pu2B3C4
_symmetry_space_group_name_H-M   'P 1'
_cell_length_a   3.47733258
_cell_length_b   3.64978413
_cell_length_c   11.46926943
_cell_angle_alpha   90.38155619
_cell_angle_beta   98.22503629
_cell_angle_gamma   90.02474335
_symmetry_Int_Tables_number   1
_chemical_formula_structural   Ho2Pu2B3C4
_chemical_formula_sum   'Ho2 Pu2 B3 C4'
_cell_volume   144.06176771
_cell_formula_units_Z   1
loop_
 _symmetry_equiv_pos_site_id
 _symmetry_equiv_pos_as_xyz
  1  'x, y, z'
loop_
 _atom_site_type_symbol
 _atom_site_label
 _atom_site_symmetry_multiplicity
 _atom_site_fract_x
 _atom_site_fract_y
 _atom_site_fract_z
 _atom_site_occupancy
  Ho  Ho0  1  0.817980  0.005870  0.648853  1
  Ho  Ho1  1  0.182020  0.994130  0.351147  1
  Pu  Pu2  1  0.422815  0.510074  0.869257  1
  Pu  Pu3  1  0.577185  0.489926  0.130743  1
  B  B4  1  0.000000  0.000000  0.000000  1
  B  B5  1  0.266489  0.502203  0.540307  1
  B  B6  1  0.733511  0.497797  0.459693  1
  C  C7  1  0.925064  0.009877  0.868871  1
  C  C8  1  0.074936  0.990123  0.131129  1
  C  C9  1  0.329508  0.507102  0.674916  1
  C  C10  1  0.670492  0.492898  0.325084  1
