# generated using pymatgen
data_Zr6Be14AlNi8
_symmetry_space_group_name_H-M   'P 1'
_cell_length_a   7.86129956
_cell_length_b   7.86129958
_cell_length_c   7.86130000
_cell_angle_alpha   59.99999824
_cell_angle_beta   59.99999815
_cell_angle_gamma   59.99999642
_symmetry_Int_Tables_number   1
_chemical_formula_structural   Zr6Be14AlNi8
_chemical_formula_sum   'Zr6 Be14 Al1 Ni8'
_cell_volume   343.53266705
_cell_formula_units_Z   1
loop_
 _symmetry_equiv_pos_site_id
 _symmetry_equiv_pos_as_xyz
  1  'x, y, z'
loop_
 _atom_site_type_symbol
 _atom_site_label
 _atom_site_symmetry_multiplicity
 _atom_site_fract_x
 _atom_site_fract_y
 _atom_site_fract_z
 _atom_site_occupancy
  Zr  Zr0  1  0.711135  0.288865  0.288865  1
  Zr  Zr1  1  0.288865  0.711135  0.711135  1
  Zr  Zr2  1  0.288865  0.711135  0.288865  1
  Zr  Zr3  1  0.711135  0.288865  0.711135  1
  Zr  Zr4  1  0.288865  0.288865  0.711135  1
  Zr  Zr5  1  0.711135  0.711135  0.288865  1
  Be  Be6  1  0.323009  0.323009  0.323009  1
  Be  Be7  1  0.676991  0.676991  0.676991  1
  Be  Be8  1  0.323009  0.323009  0.030972  1
  Be  Be9  1  0.323009  0.030972  0.323009  1
  Be  Be10  1  0.676991  0.676991  0.969028  1
  Be  Be11  1  0.676991  0.969028  0.676991  1
  Be  Be12  1  0.030972  0.323009  0.323009  1
  Be  Be13  1  0.969028  0.676991  0.676991  1
  Be  Be14  1  0.500000  0.000000  0.000000  1
  Be  Be15  1  0.000000  0.500000  0.500000  1
  Be  Be16  1  0.000000  0.500000  0.000000  1
  Be  Be17  1  0.500000  0.000000  0.500000  1
  Be  Be18  1  0.000000  0.000000  0.500000  1
  Be  Be19  1  0.500000  0.500000  0.000000  1
  Al  Al20  1  0.000000  0.000000  0.000000  1
  Ni  Ni21  1  0.127936  0.127936  0.127936  1
  Ni  Ni22  1  0.872064  0.872064  0.872064  1
  Ni  Ni23  1  0.127936  0.127936  0.616193  1
  Ni  Ni24  1  0.127936  0.616193  0.127936  1
  Ni  Ni25  1  0.872064  0.872064  0.383807  1
  Ni  Ni26  1  0.872064  0.383807  0.872064  1
  Ni  Ni27  1  0.616193  0.127936  0.127936  1
  Ni  Ni28  1  0.383807  0.872064  0.872064  1
