# generated using pymatgen
data_YLu2Ga3(Ni3Sn)3
_symmetry_space_group_name_H-M   'P 1'
_cell_length_a   9.13618900
_cell_length_b   9.13618845
_cell_length_c   4.06534700
_cell_angle_alpha   90.00000000
_cell_angle_beta   90.00000000
_cell_angle_gamma   119.99999113
_symmetry_Int_Tables_number   1
_chemical_formula_structural   YLu2Ga3(Ni3Sn)3
_chemical_formula_sum   'Y1 Lu2 Ga3 Ni9 Sn3'
_cell_volume   293.87214021
_cell_formula_units_Z   1
loop_
 _symmetry_equiv_pos_site_id
 _symmetry_equiv_pos_as_xyz
  1  'x, y, z'
loop_
 _atom_site_type_symbol
 _atom_site_label
 _atom_site_symmetry_multiplicity
 _atom_site_fract_x
 _atom_site_fract_y
 _atom_site_fract_z
 _atom_site_occupancy
  Y  Y0  1  0.666667  0.333333  0.500000  1
  Lu  Lu1  1  0.333333  0.666667  0.500000  1
  Lu  Lu2  1  0.000000  0.000000  0.000000  1
  Ga  Ga3  1  0.744701  0.744724  0.500000  1
  Ga  Ga4  1  0.255276  0.999977  0.500000  1
  Ga  Ga5  1  0.000023  0.255299  0.500000  1
  Ni  Ni6  1  0.839220  0.201996  0.000000  1
  Ni  Ni7  1  0.798004  0.637224  0.000000  1
  Ni  Ni8  1  0.362776  0.160780  0.000000  1
  Ni  Ni9  1  0.203743  0.837998  0.000000  1
  Ni  Ni10  1  0.634254  0.796257  0.000000  1
  Ni  Ni11  1  0.162002  0.365746  0.000000  1
  Ni  Ni12  1  0.280392  0.281336  0.500000  1
  Ni  Ni13  1  0.718664  0.999056  0.500000  1
  Ni  Ni14  1  0.000944  0.719608  0.500000  1
  Sn  Sn15  1  0.472840  0.472967  0.000000  1
  Sn  Sn16  1  0.527033  0.999873  0.000000  1
  Sn  Sn17  1  0.000127  0.527160  0.000000  1
