# generated using pymatgen
data_Tb2DyAl2Co9B4
_symmetry_space_group_name_H-M   'P 1'
_cell_length_a   5.15329500
_cell_length_b   5.15402523
_cell_length_c   9.55374800
_cell_angle_alpha   89.99983325
_cell_angle_beta   89.99988882
_cell_angle_gamma   120.00639771
_symmetry_Int_Tables_number   1
_chemical_formula_structural   Tb2DyAl2Co9B4
_chemical_formula_sum   'Tb2 Dy1 Al2 Co9 B4'
_cell_volume   219.73941109
_cell_formula_units_Z   1
loop_
 _symmetry_equiv_pos_site_id
 _symmetry_equiv_pos_as_xyz
  1  'x, y, z'
loop_
 _atom_site_type_symbol
 _atom_site_label
 _atom_site_symmetry_multiplicity
 _atom_site_fract_x
 _atom_site_fract_y
 _atom_site_fract_z
 _atom_site_occupancy
  Tb  Tb0  1  0.999985  0.999994  0.999985  1
  Tb  Tb1  1  0.999991  0.999991  0.660139  1
  Dy  Dy2  1  0.000007  0.000013  0.340190  1
  Al  Al3  1  0.333497  0.666590  0.999657  1
  Al  Al4  1  0.666478  0.333398  0.999658  1
  Co  Co5  1  0.499999  0.000003  0.500197  1
  Co  Co6  1  0.499998  0.500002  0.500161  1
  Co  Co7  1  0.999996  0.500001  0.500143  1
  Co  Co8  1  0.500001  0.000007  0.206829  1
  Co  Co9  1  0.500004  0.500012  0.206937  1
  Co  Co10  1  0.999998  0.500009  0.206806  1
  Co  Co11  1  0.499990  0.999993  0.792967  1
  Co  Co12  1  0.499988  0.499993  0.792901  1
  Co  Co13  1  0.999990  0.499990  0.793083  1
  B  B14  1  0.333262  0.666731  0.349075  1
  B  B15  1  0.666734  0.333279  0.349074  1
  B  B16  1  0.666847  0.333415  0.651100  1
  B  B17  1  0.333136  0.666577  0.651100  1
