# generated using pymatgen
data_Tb2DyBi3(SbO7)2
_symmetry_space_group_name_H-M   'P 1'
_cell_length_a   6.49500923
_cell_length_b   6.70702251
_cell_length_c   7.64873146
_cell_angle_alpha   106.53595231
_cell_angle_beta   89.67342506
_cell_angle_gamma   98.39689676
_symmetry_Int_Tables_number   1
_chemical_formula_structural   Tb2DyBi3(SbO7)2
_chemical_formula_sum   'Tb2 Dy1 Bi3 Sb2 O14'
_cell_volume   315.76478404
_cell_formula_units_Z   1
loop_
 _symmetry_equiv_pos_site_id
 _symmetry_equiv_pos_as_xyz
  1  'x, y, z'
loop_
 _atom_site_type_symbol
 _atom_site_label
 _atom_site_symmetry_multiplicity
 _atom_site_fract_x
 _atom_site_fract_y
 _atom_site_fract_z
 _atom_site_occupancy
  Tb  Tb0  1  0.544062  0.996436  0.752501  1
  Tb  Tb1  1  0.458569  0.001785  0.251477  1
  Dy  Dy2  1  0.256087  0.531164  0.882433  1
  Bi  Bi3  1  0.742391  0.483848  0.117290  1
  Bi  Bi4  1  0.727605  0.464461  0.614065  1
  Bi  Bi5  1  0.261208  0.528171  0.388239  1
  Sb  Sb6  1  0.002632  0.006767  0.502071  1
  Sb  Sb7  1  0.004364  0.001198  0.999459  1
  O  O8  1  0.444069  0.648610  0.164797  1
  O  O9  1  0.543817  0.347772  0.825857  1
  O  O10  1  0.292652  0.929756  0.953177  1
  O  O11  1  0.710132  0.042336  0.046170  1
  O  O12  1  0.288776  0.930156  0.514800  1
  O  O13  1  0.712961  0.076944  0.488886  1
  O  O14  1  0.531092  0.354239  0.347849  1
  O  O15  1  0.453764  0.643824  0.659202  1
  O  O16  1  0.936492  0.681962  0.954963  1
  O  O17  1  0.087077  0.309750  0.033948  1
  O  O18  1  0.094408  0.315075  0.620015  1
  O  O19  1  0.903833  0.699566  0.382018  1
  O  O20  1  0.901798  0.945516  0.736054  1
  O  O21  1  0.102211  0.060666  0.264731  1
