# generated using pymatgen
data_Cs2Dy5LuTe10
_symmetry_space_group_name_H-M   'P 1'
_cell_length_a   4.40968900
_cell_length_b   13.40564697
_cell_length_c   23.68216398
_cell_angle_alpha   89.89073887
_cell_angle_beta   90.00000000
_cell_angle_gamma   90.00000000
_symmetry_Int_Tables_number   1
_chemical_formula_structural   Cs2Dy5LuTe10
_chemical_formula_sum   'Cs4 Dy10 Lu2 Te20'
_cell_volume   1399.96227863
_cell_formula_units_Z   2
loop_
 _symmetry_equiv_pos_site_id
 _symmetry_equiv_pos_as_xyz
  1  'x, y, z'
loop_
 _atom_site_type_symbol
 _atom_site_label
 _atom_site_symmetry_multiplicity
 _atom_site_fract_x
 _atom_site_fract_y
 _atom_site_fract_z
 _atom_site_occupancy
  Cs  Cs0  1  0.250000  0.352787  0.089223  1
  Cs  Cs1  1  0.750000  0.647213  0.910777  1
  Cs  Cs2  1  0.750000  0.854093  0.410283  1
  Cs  Cs3  1  0.250000  0.145907  0.589717  1
  Dy  Dy4  1  0.250000  0.454660  0.698386  1
  Dy  Dy5  1  0.750000  0.545340  0.301614  1
  Dy  Dy6  1  0.750000  0.954819  0.802484  1
  Dy  Dy7  1  0.250000  0.045181  0.197516  1
  Dy  Dy8  1  0.250000  0.796383  0.674670  1
  Dy  Dy9  1  0.750000  0.203617  0.325330  1
  Dy  Dy10  1  0.750000  0.295799  0.826030  1
  Dy  Dy11  1  0.250000  0.704201  0.173970  1
  Dy  Dy12  1  0.250000  0.392527  0.444363  1
  Dy  Dy13  1  0.750000  0.607473  0.555637  1
  Lu  Lu14  1  0.750000  0.893836  0.055431  1
  Lu  Lu15  1  0.250000  0.106164  0.944569  1
  Te  Te16  1  0.250000  0.444854  0.569194  1
  Te  Te17  1  0.750000  0.555146  0.430806  1
  Te  Te18  1  0.750000  0.947622  0.932117  1
  Te  Te19  1  0.250000  0.052378  0.067883  1
  Te  Te20  1  0.250000  0.767478  0.545954  1
  Te  Te21  1  0.750000  0.232522  0.454046  1
  Te  Te22  1  0.750000  0.261771  0.954476  1
  Te  Te23  1  0.250000  0.738229  0.045524  1
  Te  Te24  1  0.250000  0.800134  0.803855  1
  Te  Te25  1  0.750000  0.199866  0.196145  1
  Te  Te26  1  0.750000  0.299844  0.696844  1
  Te  Te27  1  0.250000  0.700156  0.303156  1
  Te  Te28  1  0.250000  0.452333  0.827952  1
  Te  Te29  1  0.750000  0.547667  0.172048  1
  Te  Te30  1  0.750000  0.952757  0.672950  1
  Te  Te31  1  0.250000  0.047243  0.327050  1
  Te  Te32  1  0.250000  0.374780  0.312624  1
  Te  Te33  1  0.750000  0.625220  0.687376  1
  Te  Te34  1  0.750000  0.875157  0.185285  1
  Te  Te35  1  0.250000  0.124843  0.814715  1
