# generated using pymatgen
data_Pr4TlZn8Cd3
_symmetry_space_group_name_H-M   'P 1'
_cell_length_a   4.60362900
_cell_length_b   7.48330095
_cell_length_c   10.14171200
_cell_angle_alpha   90.02883432
_cell_angle_beta   90.00000000
_cell_angle_gamma   90.00000000
_symmetry_Int_Tables_number   1
_chemical_formula_structural   Pr4TlZn8Cd3
_chemical_formula_sum   'Pr4 Tl1 Zn8 Cd3'
_cell_volume   349.38539510
_cell_formula_units_Z   1
loop_
 _symmetry_equiv_pos_site_id
 _symmetry_equiv_pos_as_xyz
  1  'x, y, z'
loop_
 _atom_site_type_symbol
 _atom_site_label
 _atom_site_symmetry_multiplicity
 _atom_site_fract_x
 _atom_site_fract_y
 _atom_site_fract_z
 _atom_site_occupancy
  Pr  Pr0  1  0.250000  0.312983  0.673821  1
  Pr  Pr1  1  0.250000  0.812934  0.826918  1
  Pr  Pr2  1  0.750000  0.686739  0.324516  1
  Pr  Pr3  1  0.750000  0.186606  0.173211  1
  Tl  Tl4  1  0.750000  0.979557  0.597269  1
  Zn  Zn5  1  0.250000  0.898014  0.144674  1
  Zn  Zn6  1  0.250000  0.399601  0.352609  1
  Zn  Zn7  1  0.750000  0.102403  0.861296  1
  Zn  Zn8  1  0.750000  0.594716  0.646694  1
  Zn  Zn9  1  0.250000  0.184786  0.965267  1
  Zn  Zn10  1  0.250000  0.677495  0.533501  1
  Zn  Zn11  1  0.750000  0.815312  0.035155  1
  Zn  Zn12  1  0.750000  0.322076  0.463289  1
  Cd  Cd13  1  0.250000  0.524270  0.095270  1
  Cd  Cd14  1  0.250000  0.024863  0.401135  1
  Cd  Cd15  1  0.750000  0.477648  0.905377  1
