# generated using pymatgen
data_Lu12InGaCo4
_symmetry_space_group_name_H-M   'P 1'
_cell_length_a   8.15020642
_cell_length_b   8.15020637
_cell_length_c   8.15020714
_cell_angle_alpha   111.52654923
_cell_angle_beta   110.46107956
_cell_angle_gamma   106.46900551
_symmetry_Int_Tables_number   1
_chemical_formula_structural   Lu12InGaCo4
_chemical_formula_sum   'Lu12 In1 Ga1 Co4'
_cell_volume   415.86750788
_cell_formula_units_Z   1
loop_
 _symmetry_equiv_pos_site_id
 _symmetry_equiv_pos_as_xyz
  1  'x, y, z'
loop_
 _atom_site_type_symbol
 _atom_site_label
 _atom_site_symmetry_multiplicity
 _atom_site_fract_x
 _atom_site_fract_y
 _atom_site_fract_z
 _atom_site_occupancy
  Lu  Lu0  1  0.435833  0.229826  0.206007  1
  Lu  Lu1  1  0.564167  0.770174  0.793993  1
  Lu  Lu2  1  0.023819  0.229826  0.793993  1
  Lu  Lu3  1  0.976181  0.770174  0.206007  1
  Lu  Lu4  1  0.184163  0.283608  0.467771  1
  Lu  Lu5  1  0.815837  0.716392  0.532229  1
  Lu  Lu6  1  0.184163  0.716392  0.900556  1
  Lu  Lu7  1  0.815837  0.283608  0.099444  1
  Lu  Lu8  1  0.316407  0.620139  0.303731  1
  Lu  Lu9  1  0.683593  0.379861  0.696269  1
  Lu  Lu10  1  0.316407  0.012676  0.696269  1
  Lu  Lu11  1  0.683593  0.987324  0.303731  1
  In  In12  1  0.500000  0.500000  0.000000  1
  Ga  Ga13  1  0.000000  0.000000  0.000000  1
  Co  Co14  1  0.373707  0.000000  0.373707  1
  Co  Co15  1  0.626293  0.000000  0.626293  1
  Co  Co16  1  0.114356  0.614356  0.500000  1
  Co  Co17  1  0.885644  0.385644  0.500000  1
