# generated using pymatgen
data_TbYb9(Sn3H)2
_symmetry_space_group_name_H-M   'P 1'
_cell_length_a   9.33683094
_cell_length_b   9.33683095
_cell_length_c   9.35406137
_cell_angle_alpha   128.41573857
_cell_angle_beta   128.41573454
_cell_angle_gamma   75.92891116
_symmetry_Int_Tables_number   1
_chemical_formula_structural   TbYb9(Sn3H)2
_chemical_formula_sum   'Tb1 Yb9 Sn6 H2'
_cell_volume   486.84942065
_cell_formula_units_Z   1
loop_
 _symmetry_equiv_pos_site_id
 _symmetry_equiv_pos_as_xyz
  1  'x, y, z'
loop_
 _atom_site_type_symbol
 _atom_site_label
 _atom_site_symmetry_multiplicity
 _atom_site_fract_x
 _atom_site_fract_y
 _atom_site_fract_z
 _atom_site_occupancy
  Tb  Tb0  1  0.513467  0.013467  0.824818  1
  Yb  Yb1  1  0.499345  0.502747  0.001421  1
  Yb  Yb2  1  0.002747  0.999345  0.001421  1
  Yb  Yb3  1  0.185412  0.685412  0.174668  1
  Yb  Yb4  1  0.008433  0.184793  0.498572  1
  Yb  Yb5  1  0.684793  0.508433  0.498572  1
  Yb  Yb6  1  0.490729  0.990729  0.180596  1
  Yb  Yb7  1  0.812086  0.312086  0.822235  1
  Yb  Yb8  1  0.987830  0.812762  0.497765  1
  Yb  Yb9  1  0.312762  0.487830  0.497765  1
  Sn  Sn10  1  0.254061  0.244397  0.994262  1
  Sn  Sn11  1  0.744397  0.754061  0.994262  1
  Sn  Sn12  1  0.869307  0.369307  0.239576  1
  Sn  Sn13  1  0.125813  0.625813  0.752230  1
  Sn  Sn14  1  0.371141  0.128261  0.504644  1
  Sn  Sn15  1  0.628261  0.871141  0.504644  1
  H  H16  1  0.259355  0.759355  0.510632  1
  H  H17  1  0.750062  0.250062  0.501917  1
