# generated using pymatgen
data_Yb3Cd(B2O5)2
_symmetry_space_group_name_H-M   'P 1'
_cell_length_a   3.54868036
_cell_length_b   6.30999730
_cell_length_c   10.15040784
_cell_angle_alpha   106.92540240
_cell_angle_beta   91.43371639
_cell_angle_gamma   91.89992348
_symmetry_Int_Tables_number   1
_chemical_formula_structural   Yb3Cd(B2O5)2
_chemical_formula_sum   'Yb3 Cd1 B4 O10'
_cell_volume   217.18198337
_cell_formula_units_Z   1
loop_
 _symmetry_equiv_pos_site_id
 _symmetry_equiv_pos_as_xyz
  1  'x, y, z'
loop_
 _atom_site_type_symbol
 _atom_site_label
 _atom_site_symmetry_multiplicity
 _atom_site_fract_x
 _atom_site_fract_y
 _atom_site_fract_z
 _atom_site_occupancy
  Yb  Yb0  1  0.745734  0.252222  0.878547  1
  Yb  Yb1  1  0.255295  0.746808  0.122136  1
  Yb  Yb2  1  0.778600  0.651255  0.414259  1
  Cd  Cd3  1  0.221379  0.343036  0.584431  1
  B  B4  1  0.667183  0.109670  0.308011  1
  B  B5  1  0.337157  0.889065  0.690573  1
  B  B6  1  0.677181  0.670939  0.837108  1
  B  B7  1  0.317538  0.329868  0.163665  1
  O  O8  1  0.460633  0.138272  0.191471  1
  O  O9  1  0.533285  0.861627  0.809645  1
  O  O10  1  0.291720  0.724491  0.569236  1
  O  O11  1  0.723410  0.283207  0.426911  1
  O  O12  1  0.217297  0.100875  0.714490  1
  O  O13  1  0.782264  0.899403  0.287566  1
  O  O14  1  0.254296  0.324385  0.029758  1
  O  O15  1  0.748583  0.677174  0.970806  1
  O  O16  1  0.260778  0.519132  0.267489  1
  O  O17  1  0.727665  0.478573  0.733898  1
