# generated using pymatgen
data_Nd3Sm4Gd(Se3N2)2
_symmetry_space_group_name_H-M   'P 1'
_cell_length_a   8.27062543
_cell_length_b   8.26722578
_cell_length_c   6.40694469
_cell_angle_alpha   89.90890860
_cell_angle_beta   90.07634692
_cell_angle_gamma   75.40199616
_symmetry_Int_Tables_number   1
_chemical_formula_structural   Nd3Sm4Gd(Se3N2)2
_chemical_formula_sum   'Nd3 Sm4 Gd1 Se6 N4'
_cell_volume   423.93246630
_cell_formula_units_Z   1
loop_
 _symmetry_equiv_pos_site_id
 _symmetry_equiv_pos_as_xyz
  1  'x, y, z'
loop_
 _atom_site_type_symbol
 _atom_site_label
 _atom_site_symmetry_multiplicity
 _atom_site_fract_x
 _atom_site_fract_y
 _atom_site_fract_z
 _atom_site_occupancy
  Nd  Nd0  1  0.557834  0.190888  0.966597  1
  Nd  Nd1  1  0.190761  0.557024  0.471052  1
  Nd  Nd2  1  0.441385  0.810496  0.028458  1
  Sm  Sm3  1  0.913937  0.755899  0.928494  1
  Sm  Sm4  1  0.754552  0.913628  0.428259  1
  Sm  Sm5  1  0.085975  0.243513  0.072205  1
  Sm  Sm6  1  0.813314  0.442572  0.529556  1
  Gd  Gd7  1  0.243238  0.087486  0.572302  1
  Se  Se8  1  0.748575  0.483188  0.036180  1
  Se  Se9  1  0.094509  0.906746  0.252007  1
  Se  Se10  1  0.516367  0.252306  0.465519  1
  Se  Se11  1  0.252398  0.516537  0.968000  1
  Se  Se12  1  0.906752  0.094336  0.748375  1
  Se  Se13  1  0.483157  0.748175  0.535707  1
  N  N14  1  0.083086  0.325431  0.417474  1
  N  N15  1  0.326044  0.084444  0.909075  1
  N  N16  1  0.915702  0.670525  0.585781  1
  N  N17  1  0.672414  0.916807  0.084960  1
