# generated using pymatgen
data_Ce3MgSc13Zn3Co4
_symmetry_space_group_name_H-M   'P 1'
_cell_length_a   8.88918550
_cell_length_b   8.92562844
_cell_length_c   8.92562900
_cell_angle_alpha   60.00000165
_cell_angle_beta   59.86429195
_cell_angle_gamma   59.86429141
_symmetry_Int_Tables_number   1
_chemical_formula_structural   Ce3MgSc13Zn3Co4
_chemical_formula_sum   'Ce3 Mg1 Sc13 Zn3 Co4'
_cell_volume   499.72459174
_cell_formula_units_Z   1
loop_
 _symmetry_equiv_pos_site_id
 _symmetry_equiv_pos_as_xyz
  1  'x, y, z'
loop_
 _atom_site_type_symbol
 _atom_site_label
 _atom_site_symmetry_multiplicity
 _atom_site_fract_x
 _atom_site_fract_y
 _atom_site_fract_z
 _atom_site_occupancy
  Ce  Ce0  1  0.595607  0.598879  0.598879  1
  Ce  Ce1  1  0.595607  0.598879  0.206634  1
  Ce  Ce2  1  0.595607  0.206634  0.598879  1
  Mg  Mg3  1  0.522380  0.825873  0.825873  1
  Sc  Sc4  1  0.183788  0.605404  0.605404  1
  Sc  Sc5  1  0.063319  0.438799  0.438799  1
  Sc  Sc6  1  0.435507  0.065289  0.065289  1
  Sc  Sc7  1  0.435507  0.065289  0.433915  1
  Sc  Sc8  1  0.063319  0.438799  0.059081  1
  Sc  Sc9  1  0.435507  0.433915  0.065289  1
  Sc  Sc10  1  0.063319  0.059081  0.438799  1
  Sc  Sc11  1  0.178680  0.815782  0.815782  1
  Sc  Sc12  1  0.813992  0.184159  0.184159  1
  Sc  Sc13  1  0.813992  0.184159  0.817692  1
  Sc  Sc14  1  0.178680  0.815782  0.189759  1
  Sc  Sc15  1  0.813992  0.817692  0.184159  1
  Sc  Sc16  1  0.178680  0.189759  0.815782  1
  Zn  Zn17  1  0.839346  0.830185  0.830185  1
  Zn  Zn18  1  0.839346  0.830185  0.500282  1
  Zn  Zn19  1  0.839346  0.500282  0.830185  1
  Co  Co20  1  0.397067  0.390927  0.390927  1
  Co  Co21  1  0.397067  0.390927  0.821080  1
  Co  Co22  1  0.397067  0.821080  0.390927  1
  Co  Co23  1  0.823273  0.392242  0.392242  1
