# generated using pymatgen
data_TbYbDy2(Ga2Ag)4
_symmetry_space_group_name_H-M   'P 1'
_cell_length_a   4.36805200
_cell_length_b   6.98549669
_cell_length_c   10.28385222
_cell_angle_alpha   90.33731040
_cell_angle_beta   90.00000000
_cell_angle_gamma   90.00000000
_symmetry_Int_Tables_number   1
_chemical_formula_structural   TbYbDy2(Ga2Ag)4
_chemical_formula_sum   'Tb1 Yb1 Dy2 Ga8 Ag4'
_cell_volume   313.78587640
_cell_formula_units_Z   1
loop_
 _symmetry_equiv_pos_site_id
 _symmetry_equiv_pos_as_xyz
  1  'x, y, z'
loop_
 _atom_site_type_symbol
 _atom_site_label
 _atom_site_symmetry_multiplicity
 _atom_site_fract_x
 _atom_site_fract_y
 _atom_site_fract_z
 _atom_site_occupancy
  Tb  Tb0  1  0.250000  0.780244  0.827112  1
  Yb  Yb1  1  0.250000  0.276295  0.671260  1
  Dy  Dy2  1  0.750000  0.222537  0.172095  1
  Dy  Dy3  1  0.750000  0.720708  0.328665  1
  Ga  Ga4  1  0.250000  0.704259  0.536229  1
  Ga  Ga5  1  0.750000  0.297286  0.464074  1
  Ga  Ga6  1  0.750000  0.793562  0.037720  1
  Ga  Ga7  1  0.250000  0.202439  0.963752  1
  Ga  Ga8  1  0.250000  0.926601  0.154339  1
  Ga  Ga9  1  0.750000  0.072612  0.849118  1
  Ga  Ga10  1  0.750000  0.571877  0.650717  1
  Ga  Ga11  1  0.250000  0.427749  0.345242  1
  Ag  Ag12  1  0.250000  0.543079  0.097613  1
  Ag  Ag13  1  0.750000  0.456705  0.901372  1
  Ag  Ag14  1  0.750000  0.959590  0.598214  1
  Ag  Ag15  1  0.250000  0.044456  0.402480  1
