# generated using pymatgen
data_TbYb2PrRu8
_symmetry_space_group_name_H-M   'P 1'
_cell_length_a   5.27000500
_cell_length_b   5.27000507
_cell_length_c   9.00851200
_cell_angle_alpha   90.00000000
_cell_angle_beta   90.00000000
_cell_angle_gamma   120.00000584
_symmetry_Int_Tables_number   1
_chemical_formula_structural   TbYb2PrRu8
_chemical_formula_sum   'Tb1 Yb2 Pr1 Ru8'
_cell_volume   216.67346464
_cell_formula_units_Z   1
loop_
 _symmetry_equiv_pos_site_id
 _symmetry_equiv_pos_as_xyz
  1  'x, y, z'
loop_
 _atom_site_type_symbol
 _atom_site_label
 _atom_site_symmetry_multiplicity
 _atom_site_fract_x
 _atom_site_fract_y
 _atom_site_fract_z
 _atom_site_occupancy
  Tb  Tb0  1  0.333333  0.666667  0.062831  1
  Yb  Yb1  1  0.666667  0.333333  0.570897  1
  Yb  Yb2  1  0.666667  0.333333  0.929690  1
  Pr  Pr3  1  0.333333  0.666667  0.438880  1
  Ru  Ru4  1  0.000000  0.000000  0.499521  1
  Ru  Ru5  1  0.000000  0.000000  0.000467  1
  Ru  Ru6  1  0.828038  0.171962  0.246477  1
  Ru  Ru7  1  0.828038  0.656077  0.246477  1
  Ru  Ru8  1  0.343923  0.171962  0.246477  1
  Ru  Ru9  1  0.170305  0.829695  0.752761  1
  Ru  Ru10  1  0.170305  0.340610  0.752761  1
  Ru  Ru11  1  0.659390  0.829695  0.752761  1
