# generated using pymatgen
data_LuU(SnRu)2
_symmetry_space_group_name_H-M   'P 1'
_cell_length_a   6.03548425
_cell_length_b   6.03548456
_cell_length_c   10.17645930
_cell_angle_alpha   79.06296675
_cell_angle_beta   79.06298669
_cell_angle_gamma   46.74025114
_symmetry_Int_Tables_number   1
_chemical_formula_structural   LuU(SnRu)2
_chemical_formula_sum   'Lu2 U2 Sn4 Ru4'
_cell_volume   264.13366148
_cell_formula_units_Z   2
loop_
 _symmetry_equiv_pos_site_id
 _symmetry_equiv_pos_as_xyz
  1  'x, y, z'
loop_
 _atom_site_type_symbol
 _atom_site_label
 _atom_site_symmetry_multiplicity
 _atom_site_fract_x
 _atom_site_fract_y
 _atom_site_fract_z
 _atom_site_occupancy
  Lu  Lu0  1  0.110897  0.110897  0.604061  1
  Lu  Lu1  1  0.889103  0.889103  0.395939  1
  U  U2  1  0.854042  0.854042  0.907595  1
  U  U3  1  0.145958  0.145958  0.092405  1
  Sn  Sn4  1  0.438959  0.438959  0.162906  1
  Sn  Sn5  1  0.400404  0.400404  0.622671  1
  Sn  Sn6  1  0.561041  0.561041  0.837094  1
  Sn  Sn7  1  0.599596  0.599596  0.377329  1
  Ru  Ru8  1  0.819934  0.819934  0.136029  1
  Ru  Ru9  1  0.195171  0.195171  0.305429  1
  Ru  Ru10  1  0.180066  0.180066  0.863971  1
  Ru  Ru11  1  0.804829  0.804829  0.694571  1
