# generated using pymatgen
data_Tb16Sc4Ir7Pt5
_symmetry_space_group_name_H-M   'P 1'
_cell_length_a   10.93476289
_cell_length_b   10.93476289
_cell_length_c   6.29606057
_cell_angle_alpha   90.03460601
_cell_angle_beta   90.03460601
_cell_angle_gamma   89.84984351
_symmetry_Int_Tables_number   1
_chemical_formula_structural   Tb16Sc4Ir7Pt5
_chemical_formula_sum   'Tb16 Sc4 Ir7 Pt5'
_cell_volume   752.81105533
_cell_formula_units_Z   1
loop_
 _symmetry_equiv_pos_site_id
 _symmetry_equiv_pos_as_xyz
  1  'x, y, z'
loop_
 _atom_site_type_symbol
 _atom_site_label
 _atom_site_symmetry_multiplicity
 _atom_site_fract_x
 _atom_site_fract_y
 _atom_site_fract_z
 _atom_site_occupancy
  Tb  Tb0  1  0.291405  0.087667  0.375970  1
  Tb  Tb1  1  0.291588  0.911872  0.875459  1
  Tb  Tb2  1  0.708878  0.085102  0.875701  1
  Tb  Tb3  1  0.708420  0.911769  0.375844  1
  Tb  Tb4  1  0.584066  0.786497  0.879616  1
  Tb  Tb5  1  0.582848  0.210988  0.376061  1
  Tb  Tb6  1  0.415723  0.787481  0.379184  1
  Tb  Tb7  1  0.413121  0.211531  0.880864  1
  Tb  Tb8  1  0.213503  0.415934  0.620384  1
  Tb  Tb9  1  0.212519  0.584277  0.120816  1
  Tb  Tb10  1  0.789012  0.417152  0.123939  1
  Tb  Tb11  1  0.788469  0.586879  0.619136  1
  Tb  Tb12  1  0.912333  0.708595  0.124030  1
  Tb  Tb13  1  0.914898  0.291122  0.624299  1
  Tb  Tb14  1  0.088128  0.708412  0.624541  1
  Tb  Tb15  1  0.088231  0.291580  0.124156  1
  Sc  Sc16  1  0.000012  0.999900  0.499774  1
  Sc  Sc17  1  0.000100  0.999988  0.000226  1
  Sc  Sc18  1  0.497984  0.501629  0.001909  1
  Sc  Sc19  1  0.498371  0.502016  0.498091  1
  Ir  Ir20  1  0.647009  0.646265  0.249914  1
  Ir  Ir21  1  0.353735  0.352991  0.250086  1
  Ir  Ir22  1  0.352958  0.647042  0.750000  1
  Ir  Ir23  1  0.500225  0.000372  0.121354  1
  Ir  Ir24  1  0.500144  0.000602  0.622456  1
  Ir  Ir25  1  0.999398  0.499856  0.877544  1
  Ir  Ir26  1  0.999628  0.499775  0.378646  1
  Pt  Pt27  1  0.853568  0.146432  0.250000  1
  Pt  Pt28  1  0.853914  0.853888  0.749849  1
  Pt  Pt29  1  0.146112  0.146086  0.750151  1
  Pt  Pt30  1  0.146156  0.853844  0.250000  1
  Pt  Pt31  1  0.647548  0.352452  0.750000  1
