# generated using pymatgen
data_Tb3Ag5Ir
_symmetry_space_group_name_H-M   'P 1'
_cell_length_a   7.74789800
_cell_length_b   7.74789894
_cell_length_c   3.81752400
_cell_angle_alpha   90.00000000
_cell_angle_beta   90.00000000
_cell_angle_gamma   120.00000453
_symmetry_Int_Tables_number   1
_chemical_formula_structural   Tb3Ag5Ir
_chemical_formula_sum   'Tb3 Ag5 Ir1'
_cell_volume   198.46330978
_cell_formula_units_Z   1
loop_
 _symmetry_equiv_pos_site_id
 _symmetry_equiv_pos_as_xyz
  1  'x, y, z'
loop_
 _atom_site_type_symbol
 _atom_site_label
 _atom_site_symmetry_multiplicity
 _atom_site_fract_x
 _atom_site_fract_y
 _atom_site_fract_z
 _atom_site_occupancy
  Tb  Tb0  1  0.418980  0.386563  0.000000  1
  Tb  Tb1  1  0.613437  0.032416  0.000000  1
  Tb  Tb2  1  0.967584  0.581020  0.000000  1
  Ag  Ag3  1  0.007478  0.268812  0.500000  1
  Ag  Ag4  1  0.731188  0.738666  0.500000  1
  Ag  Ag5  1  0.261334  0.992522  0.500000  1
  Ag  Ag6  1  0.000000  0.000000  0.000000  1
  Ag  Ag7  1  0.333333  0.666667  0.500000  1
  Ir  Ir8  1  0.666667  0.333333  0.500000  1
