# generated using pymatgen
data_Rb7(BPt)12
_symmetry_space_group_name_H-M   'P 1'
_cell_length_a   9.51048685
_cell_length_b   9.51048592
_cell_length_c   9.51048627
_cell_angle_alpha   112.03142180
_cell_angle_beta   112.03142600
_cell_angle_gamma   112.03142687
_symmetry_Int_Tables_number   1
_chemical_formula_structural   Rb7(BPt)12
_chemical_formula_sum   'Rb7 B12 Pt12'
_cell_volume   591.17660573
_cell_formula_units_Z   1
loop_
 _symmetry_equiv_pos_site_id
 _symmetry_equiv_pos_as_xyz
  1  'x, y, z'
loop_
 _atom_site_type_symbol
 _atom_site_label
 _atom_site_symmetry_multiplicity
 _atom_site_fract_x
 _atom_site_fract_y
 _atom_site_fract_z
 _atom_site_occupancy
  Rb  Rb0  1  0.006270  0.724954  0.724954  1
  Rb  Rb1  1  0.724954  0.724954  0.006270  1
  Rb  Rb2  1  0.724954  0.006270  0.724954  1
  Rb  Rb3  1  0.275046  0.993730  0.275046  1
  Rb  Rb4  1  0.993730  0.275046  0.275046  1
  Rb  Rb5  1  0.275046  0.275046  0.993730  1
  Rb  Rb6  1  0.500000  0.500000  0.500000  1
  B  B7  1  0.276978  0.723022  0.500000  1
  B  B8  1  0.723022  0.500000  0.276978  1
  B  B9  1  0.500000  0.276978  0.723022  1
  B  B10  1  0.723022  0.276978  0.500000  1
  B  B11  1  0.276978  0.500000  0.723022  1
  B  B12  1  0.500000  0.723022  0.276978  1
  B  B13  1  0.056130  0.943870  0.500000  1
  B  B14  1  0.943870  0.500000  0.056130  1
  B  B15  1  0.500000  0.056130  0.943870  1
  B  B16  1  0.943870  0.056130  0.500000  1
  B  B17  1  0.056130  0.500000  0.943870  1
  B  B18  1  0.500000  0.943870  0.056130  1
  Pt  Pt19  1  0.671642  0.328358  0.000000  1
  Pt  Pt20  1  0.328358  0.000000  0.671642  1
  Pt  Pt21  1  0.000000  0.671642  0.328358  1
  Pt  Pt22  1  0.328358  0.671642  0.000000  1
  Pt  Pt23  1  0.671642  0.000000  0.328358  1
  Pt  Pt24  1  0.000000  0.328358  0.671642  1
  Pt  Pt25  1  0.629031  0.250321  0.250321  1
  Pt  Pt26  1  0.250321  0.250321  0.629031  1
  Pt  Pt27  1  0.250321  0.629031  0.250321  1
  Pt  Pt28  1  0.749679  0.370969  0.749679  1
  Pt  Pt29  1  0.370969  0.749679  0.749679  1
  Pt  Pt30  1  0.749679  0.749679  0.370969  1
