# generated using pymatgen
data_HoPa2Zn11
_symmetry_space_group_name_H-M   'P 1'
_cell_length_a   8.07876327
_cell_length_b   8.07876416
_cell_length_c   8.07876351
_cell_angle_alpha   148.26511979
_cell_angle_beta   112.80610579
_cell_angle_gamma   76.22528130
_symmetry_Int_Tables_number   1
_chemical_formula_structural   HoPa2Zn11
_chemical_formula_sum   'Ho1 Pa2 Zn11'
_cell_volume   251.05837009
_cell_formula_units_Z   1
loop_
 _symmetry_equiv_pos_site_id
 _symmetry_equiv_pos_as_xyz
  1  'x, y, z'
loop_
 _atom_site_type_symbol
 _atom_site_label
 _atom_site_symmetry_multiplicity
 _atom_site_fract_x
 _atom_site_fract_y
 _atom_site_fract_z
 _atom_site_occupancy
  Ho  Ho0  1  0.000000  0.000000  0.000000  1
  Pa  Pa1  1  0.292575  0.292575  0.000000  1
  Pa  Pa2  1  0.707425  0.707425  0.000000  1
  Zn  Zn3  1  0.500000  0.000000  0.500000  1
  Zn  Zn4  1  0.682248  0.500000  0.182248  1
  Zn  Zn5  1  0.317752  0.500000  0.817752  1
  Zn  Zn6  1  0.705231  0.343977  0.361253  1
  Zn  Zn7  1  0.294769  0.656023  0.638747  1
  Zn  Zn8  1  0.982723  0.343977  0.638747  1
  Zn  Zn9  1  0.017277  0.656023  0.361253  1
  Zn  Zn10  1  0.425924  0.142602  0.283322  1
  Zn  Zn11  1  0.574076  0.857398  0.716678  1
  Zn  Zn12  1  0.859280  0.142602  0.716678  1
  Zn  Zn13  1  0.140720  0.857398  0.283322  1
