# generated using pymatgen
data_TlWS2O9
_symmetry_space_group_name_H-M   'P 1'
_cell_length_a   5.23853300
_cell_length_b   8.80262710
_cell_length_c   9.45839200
_cell_angle_alpha   76.50948832
_cell_angle_beta   90.00000000
_cell_angle_gamma   90.00000000
_symmetry_Int_Tables_number   1
_chemical_formula_structural   TlWS2O9
_chemical_formula_sum   'Tl2 W2 S4 O18'
_cell_volume   424.11933715
_cell_formula_units_Z   2
loop_
 _symmetry_equiv_pos_site_id
 _symmetry_equiv_pos_as_xyz
  1  'x, y, z'
loop_
 _atom_site_type_symbol
 _atom_site_label
 _atom_site_symmetry_multiplicity
 _atom_site_fract_x
 _atom_site_fract_y
 _atom_site_fract_z
 _atom_site_occupancy
  Tl  Tl0  1  0.250000  0.421135  0.233584  1
  Tl  Tl1  1  0.750000  0.578865  0.766416  1
  W  W2  1  0.250000  0.913862  0.255382  1
  W  W3  1  0.750000  0.086138  0.744618  1
  S  S4  1  0.250000  0.324436  0.655328  1
  S  S5  1  0.750000  0.675564  0.344672  1
  S  S6  1  0.250000  0.851200  0.894988  1
  S  S7  1  0.750000  0.148800  0.105012  1
  O  O8  1  0.250000  0.272854  0.521039  1
  O  O9  1  0.750000  0.727146  0.478961  1
  O  O10  1  0.250000  0.491662  0.645706  1
  O  O11  1  0.750000  0.508338  0.354294  1
  O  O12  1  0.017799  0.256580  0.750047  1
  O  O13  1  0.517799  0.743420  0.249953  1
  O  O14  1  0.982201  0.743420  0.249953  1
  O  O15  1  0.482201  0.256580  0.750047  1
  O  O16  1  0.250000  0.930056  0.017314  1
  O  O17  1  0.750000  0.069944  0.982686  1
  O  O18  1  0.250000  0.682490  0.937332  1
  O  O19  1  0.750000  0.317510  0.062668  1
  O  O20  1  0.017169  0.904866  0.801974  1
  O  O21  1  0.517169  0.095134  0.198026  1
  O  O22  1  0.982831  0.095134  0.198026  1
  O  O23  1  0.482831  0.904866  0.801974  1
  O  O24  1  0.250000  0.899255  0.440033  1
  O  O25  1  0.750000  0.100745  0.559967  1
