# generated using pymatgen
data_SbSeF9
_symmetry_space_group_name_H-M   'P 1'
_cell_length_a   8.91278715
_cell_length_b   8.91278641
_cell_length_c   8.91278700
_cell_angle_alpha   93.27253811
_cell_angle_beta   93.27253784
_cell_angle_gamma   93.27253760
_symmetry_Int_Tables_number   1
_chemical_formula_structural   SbSeF9
_chemical_formula_sum   'Sb4 Se4 F36'
_cell_volume   704.41017980
_cell_formula_units_Z   4
loop_
 _symmetry_equiv_pos_site_id
 _symmetry_equiv_pos_as_xyz
  1  'x, y, z'
loop_
 _atom_site_type_symbol
 _atom_site_label
 _atom_site_symmetry_multiplicity
 _atom_site_fract_x
 _atom_site_fract_y
 _atom_site_fract_z
 _atom_site_occupancy
  Sb  Sb0  1  0.000217  0.783086  0.332983  1
  Sb  Sb1  1  0.332983  0.000217  0.783086  1
  Sb  Sb2  1  0.783086  0.332983  0.000217  1
  Sb  Sb3  1  0.397903  0.397903  0.397903  1
  Se  Se4  1  0.457959  0.933415  0.250815  1
  Se  Se5  1  0.250815  0.457959  0.933415  1
  Se  Se6  1  0.933415  0.250815  0.457959  1
  Se  Se7  1  0.871211  0.871211  0.871211  1
  F  F8  1  0.901723  0.433847  0.513360  1
  F  F9  1  0.433847  0.513360  0.901723  1
  F  F10  1  0.513360  0.901723  0.433847  1
  F  F11  1  0.827817  0.124589  0.948551  1
  F  F12  1  0.124589  0.948551  0.827817  1
  F  F13  1  0.948551  0.827817  0.124589  1
  F  F14  1  0.848095  0.289699  0.205081  1
  F  F15  1  0.289699  0.205081  0.848095  1
  F  F16  1  0.451561  0.353504  0.598077  1
  F  F17  1  0.598077  0.451561  0.353504  1
  F  F18  1  0.353504  0.598077  0.451561  1
  F  F19  1  0.424435  0.188867  0.330209  1
  F  F20  1  0.330209  0.424435  0.188867  1
  F  F21  1  0.188867  0.330209  0.424435  1
  F  F22  1  0.794429  0.740453  0.363683  1
  F  F23  1  0.363683  0.794429  0.740453  1
  F  F24  1  0.740453  0.363683  0.794429  1
  F  F25  1  0.037492  0.583381  0.267609  1
  F  F26  1  0.267609  0.037492  0.583381  1
  F  F27  1  0.583381  0.267609  0.037492  1
  F  F28  1  0.480874  0.751177  0.183958  1
  F  F29  1  0.183958  0.480874  0.751177  1
  F  F30  1  0.751177  0.183958  0.480874  1
  F  F31  1  0.636425  0.996201  0.206974  1
  F  F32  1  0.206974  0.636425  0.996201  1
  F  F33  1  0.996201  0.206974  0.636425  1
  F  F34  1  0.060929  0.756375  0.535984  1
  F  F35  1  0.535984  0.060929  0.756375  1
  F  F36  1  0.756375  0.535984  0.060929  1
  F  F37  1  0.973417  0.996735  0.380148  1
  F  F38  1  0.380148  0.973417  0.996735  1
  F  F39  1  0.996735  0.380148  0.973417  1
  F  F40  1  0.914164  0.690055  0.818629  1
  F  F41  1  0.818629  0.914164  0.690055  1
  F  F42  1  0.690055  0.818629  0.914164  1
  F  F43  1  0.205081  0.848095  0.289699  1
