# generated using pymatgen
data_Yb12DyEr7Sn16
_symmetry_space_group_name_H-M   'P 1'
_cell_length_a   7.81330307
_cell_length_b   8.39868206
_cell_length_c   15.98546411
_cell_angle_alpha   89.99225005
_cell_angle_beta   89.98935321
_cell_angle_gamma   89.98939029
_symmetry_Int_Tables_number   1
_chemical_formula_structural   Yb12DyEr7Sn16
_chemical_formula_sum   'Yb12 Dy1 Er7 Sn16'
_cell_volume   1048.98926007
_cell_formula_units_Z   1
loop_
 _symmetry_equiv_pos_site_id
 _symmetry_equiv_pos_as_xyz
  1  'x, y, z'
loop_
 _atom_site_type_symbol
 _atom_site_label
 _atom_site_symmetry_multiplicity
 _atom_site_fract_x
 _atom_site_fract_y
 _atom_site_fract_z
 _atom_site_occupancy
  Yb  Yb0  1  0.499380  0.686786  0.593285  1
  Yb  Yb1  1  0.999437  0.813157  0.906717  1
  Yb  Yb2  1  0.500577  0.313179  0.093287  1
  Yb  Yb3  1  0.000590  0.186835  0.406699  1
  Yb  Yb4  1  0.500521  0.313200  0.406654  1
  Yb  Yb5  1  0.000565  0.186826  0.093288  1
  Yb  Yb6  1  0.499417  0.686826  0.906716  1
  Yb  Yb7  1  0.999494  0.813128  0.593267  1
  Yb  Yb8  1  0.827906  0.511221  0.750045  1
  Yb  Yb9  1  0.327797  0.988813  0.750036  1
  Yb  Yb10  1  0.172135  0.488859  0.250004  1
  Yb  Yb11  1  0.672126  0.011126  0.249988  1
  Dy  Dy12  1  0.666947  0.167483  0.622067  1
  Er  Er13  1  0.166983  0.332660  0.877996  1
  Er  Er14  1  0.333032  0.832613  0.122064  1
  Er  Er15  1  0.833027  0.667365  0.377892  1
  Er  Er16  1  0.332996  0.832617  0.377923  1
  Er  Er17  1  0.833019  0.667349  0.122058  1
  Er  Er18  1  0.667019  0.167396  0.878022  1
  Er  Er19  1  0.167000  0.332727  0.622029  1
  Sn  Sn20  1  0.673764  0.964131  0.459859  1
  Sn  Sn21  1  0.173833  0.535628  0.039904  1
  Sn  Sn22  1  0.326182  0.035595  0.960078  1
  Sn  Sn23  1  0.826536  0.464658  0.539813  1
  Sn  Sn24  1  0.325785  0.035450  0.539829  1
  Sn  Sn25  1  0.826143  0.464355  0.960091  1
  Sn  Sn26  1  0.673831  0.964382  0.039909  1
  Sn  Sn27  1  0.173845  0.535658  0.460076  1
  Sn  Sn28  1  0.463505  0.374063  0.750112  1
  Sn  Sn29  1  0.963976  0.126108  0.750173  1
  Sn  Sn30  1  0.536266  0.626178  0.249990  1
  Sn  Sn31  1  0.036274  0.873816  0.249994  1
  Sn  Sn32  1  0.708813  0.873927  0.750120  1
  Sn  Sn33  1  0.208692  0.625898  0.750023  1
  Sn  Sn34  1  0.291296  0.125879  0.249998  1
  Sn  Sn35  1  0.791290  0.374109  0.249994  1
