# generated using pymatgen
data_La5CoSn2
_symmetry_space_group_name_H-M   'P 1'
_cell_length_a   8.32705000
_cell_length_b   9.39856200
_cell_length_c   12.79948100
_cell_angle_alpha   90.00000000
_cell_angle_beta   90.00000000
_cell_angle_gamma   90.00000000
_symmetry_Int_Tables_number   1
_chemical_formula_structural   La5CoSn2
_chemical_formula_sum   'La20 Co4 Sn8'
_cell_volume   1001.71676686
_cell_formula_units_Z   4
loop_
 _symmetry_equiv_pos_site_id
 _symmetry_equiv_pos_as_xyz
  1  'x, y, z'
loop_
 _atom_site_type_symbol
 _atom_site_label
 _atom_site_symmetry_multiplicity
 _atom_site_fract_x
 _atom_site_fract_y
 _atom_site_fract_z
 _atom_site_occupancy
  La  La0  1  0.349023  0.750000  0.700498  1
  La  La1  1  0.650977  0.250000  0.299502  1
  La  La2  1  0.849023  0.250000  0.799502  1
  La  La3  1  0.150977  0.750000  0.200498  1
  La  La4  1  0.879818  0.750000  0.807077  1
  La  La5  1  0.120182  0.250000  0.192923  1
  La  La6  1  0.379818  0.250000  0.692923  1
  La  La7  1  0.620182  0.750000  0.307077  1
  La  La8  1  0.684779  0.530851  0.570889  1
  La  La9  1  0.315221  0.469149  0.429111  1
  La  La10  1  0.184779  0.469149  0.929111  1
  La  La11  1  0.315221  0.030851  0.429111  1
  La  La12  1  0.815221  0.530851  0.070889  1
  La  La13  1  0.684779  0.969149  0.570889  1
  La  La14  1  0.815221  0.969149  0.070889  1
  La  La15  1  0.184779  0.030851  0.929111  1
  La  La16  1  0.063169  0.750000  0.497639  1
  La  La17  1  0.936831  0.250000  0.502361  1
  La  La18  1  0.563169  0.250000  0.002361  1
  La  La19  1  0.436831  0.750000  0.997639  1
  Co  Co20  1  0.079617  0.750000  0.991372  1
  Co  Co21  1  0.920383  0.250000  0.008628  1
  Co  Co22  1  0.579617  0.250000  0.508628  1
  Co  Co23  1  0.420383  0.750000  0.491372  1
  Sn  Sn24  1  0.571951  0.506705  0.828121  1
  Sn  Sn25  1  0.428049  0.493295  0.171879  1
  Sn  Sn26  1  0.071951  0.493295  0.671879  1
  Sn  Sn27  1  0.428049  0.006705  0.171879  1
  Sn  Sn28  1  0.928049  0.506705  0.328121  1
  Sn  Sn29  1  0.571951  0.993295  0.828121  1
  Sn  Sn30  1  0.928049  0.993295  0.328121  1
  Sn  Sn31  1  0.071951  0.006705  0.671879  1
