# generated using pymatgen
data_Ac(Rh2Pb3)2
_symmetry_space_group_name_H-M   'P 1'
_cell_length_a   7.24455732
_cell_length_b   7.24455778
_cell_length_c   7.24455704
_cell_angle_alpha   119.59437810
_cell_angle_beta   119.59437264
_cell_angle_gamma   90.70400849
_symmetry_Int_Tables_number   1
_chemical_formula_structural   Ac(Rh2Pb3)2
_chemical_formula_sum   'Ac1 Rh4 Pb6'
_cell_volume   270.48277869
_cell_formula_units_Z   1
loop_
 _symmetry_equiv_pos_site_id
 _symmetry_equiv_pos_as_xyz
  1  'x, y, z'
loop_
 _atom_site_type_symbol
 _atom_site_label
 _atom_site_symmetry_multiplicity
 _atom_site_fract_x
 _atom_site_fract_y
 _atom_site_fract_z
 _atom_site_occupancy
  Ac  Ac0  1  0.000000  0.000000  0.000000  1
  Rh  Rh1  1  0.752744  0.391643  0.000000  1
  Rh  Rh2  1  0.391643  0.752744  0.000000  1
  Rh  Rh3  1  0.608356  0.608356  0.361101  1
  Rh  Rh4  1  0.247255  0.247255  0.638899  1
  Pb  Pb5  1  0.464318  0.127009  0.000000  1
  Pb  Pb6  1  0.127009  0.464318  0.000000  1
  Pb  Pb7  1  0.872991  0.872991  0.337309  1
  Pb  Pb8  1  0.500000  0.000000  0.500000  1
  Pb  Pb9  1  0.000000  0.500000  0.500000  1
  Pb  Pb10  1  0.535681  0.535681  0.662690  1
