# generated using pymatgen
data_Nd4Eu2AgIrO14
_symmetry_space_group_name_H-M   'P 1'
_cell_length_a   6.56539630
_cell_length_b   6.63388326
_cell_length_c   7.74506099
_cell_angle_alpha   90.92954498
_cell_angle_beta   90.97542275
_cell_angle_gamma   111.16409190
_symmetry_Int_Tables_number   1
_chemical_formula_structural   Nd4Eu2AgIrO14
_chemical_formula_sum   'Nd4 Eu2 Ag1 Ir1 O14'
_cell_volume   314.44008518
_cell_formula_units_Z   1
loop_
 _symmetry_equiv_pos_site_id
 _symmetry_equiv_pos_as_xyz
  1  'x, y, z'
loop_
 _atom_site_type_symbol
 _atom_site_label
 _atom_site_symmetry_multiplicity
 _atom_site_fract_x
 _atom_site_fract_y
 _atom_site_fract_z
 _atom_site_occupancy
  Nd  Nd0  1  0.000000  0.000000  0.000000  1
  Nd  Nd1  1  0.000000  0.000000  0.500000  1
  Nd  Nd2  1  0.921813  0.475273  0.750171  1
  Nd  Nd3  1  0.078187  0.524727  0.249829  1
  Eu  Eu4  1  0.478758  0.935114  0.752921  1
  Eu  Eu5  1  0.521242  0.064886  0.247079  1
  Ag  Ag6  1  0.500000  0.500000  0.000000  1
  Ir  Ir7  1  0.500000  0.500000  0.500000  1
  O  O8  1  0.595390  0.599342  0.731838  1
  O  O9  1  0.404610  0.400658  0.268162  1
  O  O10  1  0.840077  0.100115  0.745072  1
  O  O11  1  0.159923  0.899885  0.254928  1
  O  O12  1  0.116432  0.844893  0.743994  1
  O  O13  1  0.883568  0.155107  0.256006  1
  O  O14  1  0.431697  0.168761  0.969750  1
  O  O15  1  0.538672  0.801321  0.454443  1
  O  O16  1  0.163185  0.419513  0.970769  1
  O  O17  1  0.816141  0.573839  0.457048  1
  O  O18  1  0.461328  0.198679  0.545557  1
  O  O19  1  0.568303  0.831239  0.030250  1
  O  O20  1  0.836815  0.580487  0.029231  1
  O  O21  1  0.183859  0.426161  0.542952  1
