# generated using pymatgen
data_Nd4Ga16Co2Pt
_symmetry_space_group_name_H-M   'P 1'
_cell_length_a   6.17276600
_cell_length_b   6.17276600
_cell_length_c   11.36749800
_cell_angle_alpha   90.00000000
_cell_angle_beta   90.00000000
_cell_angle_gamma   90.00000000
_symmetry_Int_Tables_number   1
_chemical_formula_structural   Nd4Ga16Co2Pt
_chemical_formula_sum   'Nd4 Ga16 Co2 Pt1'
_cell_volume   433.13623203
_cell_formula_units_Z   1
loop_
 _symmetry_equiv_pos_site_id
 _symmetry_equiv_pos_as_xyz
  1  'x, y, z'
loop_
 _atom_site_type_symbol
 _atom_site_label
 _atom_site_symmetry_multiplicity
 _atom_site_fract_x
 _atom_site_fract_y
 _atom_site_fract_z
 _atom_site_occupancy
  Nd  Nd0  1  0.500000  0.000000  0.802686  1
  Nd  Nd1  1  0.000000  0.500000  0.197314  1
  Nd  Nd2  1  0.000000  0.500000  0.802686  1
  Nd  Nd3  1  0.500000  0.000000  0.197314  1
  Ga  Ga4  1  0.000000  0.000000  0.769068  1
  Ga  Ga5  1  0.290488  0.290488  0.000000  1
  Ga  Ga6  1  0.500000  0.500000  0.803906  1
  Ga  Ga7  1  0.709512  0.290488  0.000000  1
  Ga  Ga8  1  0.500000  0.500000  0.196094  1
  Ga  Ga9  1  0.709512  0.709512  0.000000  1
  Ga  Ga10  1  0.000000  0.000000  0.230932  1
  Ga  Ga11  1  0.749065  0.749065  0.611823  1
  Ga  Ga12  1  0.749065  0.250935  0.388177  1
  Ga  Ga13  1  0.250935  0.250935  0.611823  1
  Ga  Ga14  1  0.250935  0.749065  0.388177  1
  Ga  Ga15  1  0.290488  0.709512  0.000000  1
  Ga  Ga16  1  0.749065  0.749065  0.388177  1
  Ga  Ga17  1  0.749065  0.250935  0.611823  1
  Ga  Ga18  1  0.250935  0.250935  0.388177  1
  Ga  Ga19  1  0.250935  0.749065  0.611823  1
  Co  Co20  1  0.000000  0.500000  0.500000  1
  Co  Co21  1  0.500000  0.000000  0.500000  1
  Pt  Pt22  1  0.000000  0.000000  0.000000  1
