# generated using pymatgen
data_Dy6Al6PtAu5
_symmetry_space_group_name_H-M   'P 1'
_cell_length_a   7.39291800
_cell_length_b   7.39291904
_cell_length_c   7.96016000
_cell_angle_alpha   90.00000000
_cell_angle_beta   90.00000000
_cell_angle_gamma   119.99999533
_symmetry_Int_Tables_number   1
_chemical_formula_structural   Dy6Al6PtAu5
_chemical_formula_sum   'Dy6 Al6 Pt1 Au5'
_cell_volume   376.77691762
_cell_formula_units_Z   1
loop_
 _symmetry_equiv_pos_site_id
 _symmetry_equiv_pos_as_xyz
  1  'x, y, z'
loop_
 _atom_site_type_symbol
 _atom_site_label
 _atom_site_symmetry_multiplicity
 _atom_site_fract_x
 _atom_site_fract_y
 _atom_site_fract_z
 _atom_site_occupancy
  Dy  Dy0  1  0.581562  0.996256  0.750000  1
  Dy  Dy1  1  0.003744  0.585307  0.750000  1
  Dy  Dy2  1  0.414693  0.418438  0.750000  1
  Dy  Dy3  1  0.995852  0.588816  0.250000  1
  Dy  Dy4  1  0.592963  0.004148  0.250000  1
  Dy  Dy5  1  0.411184  0.407037  0.250000  1
  Al  Al6  1  0.759231  0.759987  0.005762  1
  Al  Al7  1  0.240013  0.999244  0.005762  1
  Al  Al8  1  0.000756  0.240769  0.005762  1
  Al  Al9  1  0.759231  0.759987  0.494238  1
  Al  Al10  1  0.240013  0.999244  0.494238  1
  Al  Al11  1  0.000756  0.240769  0.494238  1
  Pt  Pt12  1  0.000000  0.000000  0.250000  1
  Au  Au13  1  0.000000  0.000000  0.750000  1
  Au  Au14  1  0.666667  0.333333  0.996488  1
  Au  Au15  1  0.666667  0.333333  0.503512  1
  Au  Au16  1  0.333333  0.666667  0.494328  1
  Au  Au17  1  0.333333  0.666667  0.005672  1
