# generated using pymatgen
data_Dy2YGa6Ni8Ir
_symmetry_space_group_name_H-M   'P 1'
_cell_length_a   4.11262300
_cell_length_b   8.88579227
_cell_length_c   8.87431301
_cell_angle_alpha   58.40768273
_cell_angle_beta   90.00000000
_cell_angle_gamma   90.00000000
_symmetry_Int_Tables_number   1
_chemical_formula_structural   Dy2YGa6Ni8Ir
_chemical_formula_sum   'Dy2 Y1 Ga6 Ni8 Ir1'
_cell_volume   276.23964071
_cell_formula_units_Z   1
loop_
 _symmetry_equiv_pos_site_id
 _symmetry_equiv_pos_as_xyz
  1  'x, y, z'
loop_
 _atom_site_type_symbol
 _atom_site_label
 _atom_site_symmetry_multiplicity
 _atom_site_fract_x
 _atom_site_fract_y
 _atom_site_fract_z
 _atom_site_occupancy
  Dy  Dy0  1  0.500000  0.665867  0.665639  1
  Dy  Dy1  1  0.000000  0.985724  0.014342  1
  Y  Y2  1  0.500000  0.334282  0.333919  1
  Ga  Ga3  1  0.000000  0.525212  0.474730  1
  Ga  Ga4  1  0.000000  0.480169  0.988861  1
  Ga  Ga5  1  0.000000  0.011122  0.519763  1
  Ga  Ga6  1  0.500000  0.266392  0.733664  1
  Ga  Ga7  1  0.500000  0.725036  0.993924  1
  Ga  Ga8  1  0.500000  0.006089  0.274892  1
  Ni  Ni9  1  0.000000  0.176278  0.197268  1
  Ni  Ni10  1  0.000000  0.199615  0.633045  1
  Ni  Ni11  1  0.000000  0.611691  0.165808  1
  Ni  Ni12  1  0.000000  0.802728  0.823511  1
  Ni  Ni13  1  0.000000  0.367417  0.800239  1
  Ni  Ni14  1  0.000000  0.833522  0.389180  1
  Ni  Ni15  1  0.500000  0.292656  0.995918  1
  Ni  Ni16  1  0.500000  0.003830  0.707418  1
  Ir  Ir17  1  0.500000  0.712271  0.287982  1
