# generated using pymatgen
data_Mn7NbCrOs3
_symmetry_space_group_name_H-M   'P 1'
_cell_length_a   4.70172900
_cell_length_b   4.68115112
_cell_length_c   7.71255860
_cell_angle_alpha   89.96086963
_cell_angle_beta   90.00000000
_cell_angle_gamma   120.14551506
_symmetry_Int_Tables_number   1
_chemical_formula_structural   Mn7NbCrOs3
_chemical_formula_sum   'Mn7 Nb1 Cr1 Os3'
_cell_volume   146.79137870
_cell_formula_units_Z   1
loop_
 _symmetry_equiv_pos_site_id
 _symmetry_equiv_pos_as_xyz
  1  'x, y, z'
loop_
 _atom_site_type_symbol
 _atom_site_label
 _atom_site_symmetry_multiplicity
 _atom_site_fract_x
 _atom_site_fract_y
 _atom_site_fract_z
 _atom_site_occupancy
  Mn  Mn0  1  0.825767  0.175152  0.255148  1
  Mn  Mn1  1  0.349387  0.175152  0.255148  1
  Mn  Mn2  1  0.655125  0.828025  0.747769  1
  Mn  Mn3  1  0.998470  0.996939  0.004157  1
  Mn  Mn4  1  0.998769  0.997538  0.496676  1
  Mn  Mn5  1  0.826118  0.652235  0.253729  1
  Mn  Mn6  1  0.172901  0.828025  0.747769  1
  Nb  Nb7  1  0.333922  0.667845  0.063923  1
  Cr  Cr8  1  0.172372  0.344744  0.746342  1
  Os  Os9  1  0.333454  0.666908  0.433985  1
  Os  Os10  1  0.667342  0.334682  0.927256  1
  Os  Os11  1  0.666376  0.332752  0.568096  1
