# generated using pymatgen
data_HoEr11Co4SnRu
_symmetry_space_group_name_H-M   'P 1'
_cell_length_a   8.21402924
_cell_length_b   8.21278104
_cell_length_c   8.21402876
_cell_angle_alpha   111.39415099
_cell_angle_beta   110.80939022
_cell_angle_gamma   106.26355530
_symmetry_Int_Tables_number   1
_chemical_formula_structural   HoEr11Co4SnRu
_chemical_formula_sum   'Ho1 Er11 Co4 Sn1 Ru1'
_cell_volume   425.52076496
_cell_formula_units_Z   1
loop_
 _symmetry_equiv_pos_site_id
 _symmetry_equiv_pos_as_xyz
  1  'x, y, z'
loop_
 _atom_site_type_symbol
 _atom_site_label
 _atom_site_symmetry_multiplicity
 _atom_site_fract_x
 _atom_site_fract_y
 _atom_site_fract_z
 _atom_site_occupancy
  Ho  Ho0  1  0.687100  0.993106  0.306006  1
  Er  Er1  1  0.410216  0.216308  0.194182  1
  Er  Er2  1  0.590402  0.784253  0.805885  1
  Er  Er3  1  0.022127  0.216308  0.806093  1
  Er  Er4  1  0.978368  0.784253  0.193851  1
  Er  Er5  1  0.185175  0.285809  0.470324  1
  Er  Er6  1  0.815396  0.714251  0.529762  1
  Er  Er7  1  0.184489  0.714251  0.898855  1
  Er  Er8  1  0.815486  0.285809  0.100634  1
  Er  Er9  1  0.312494  0.618838  0.306345  1
  Er  Er10  1  0.687175  0.381068  0.693892  1
  Er  Er11  1  0.312478  0.006298  0.693819  1
  Co  Co12  1  0.376422  0.000052  0.377171  1
  Co  Co13  1  0.622881  0.000052  0.623630  1
  Co  Co14  1  0.111544  0.611380  0.499835  1
  Co  Co15  1  0.888081  0.388047  0.499966  1
  Sn  Sn16  1  0.499309  0.499774  0.000465  1
  Ru  Ru17  1  0.000857  0.000144  0.999287  1
