# generated using pymatgen
data_Ca3Fe(PO3)8
_symmetry_space_group_name_H-M   'P 1'
_cell_length_a   7.66545388
_cell_length_b   7.72112980
_cell_length_c   10.50327663
_cell_angle_alpha   66.85668725
_cell_angle_beta   66.27532565
_cell_angle_gamma   70.22165414
_symmetry_Int_Tables_number   1
_chemical_formula_structural   Ca3Fe(PO3)8
_chemical_formula_sum   'Ca3 Fe1 P8 O24'
_cell_volume   511.17455142
_cell_formula_units_Z   1
loop_
 _symmetry_equiv_pos_site_id
 _symmetry_equiv_pos_as_xyz
  1  'x, y, z'
loop_
 _atom_site_type_symbol
 _atom_site_label
 _atom_site_symmetry_multiplicity
 _atom_site_fract_x
 _atom_site_fract_y
 _atom_site_fract_z
 _atom_site_occupancy
  Ca  Ca0  1  0.000000  0.500000  0.500000  1
  Ca  Ca1  1  0.536039  0.453667  0.755286  1
  Ca  Ca2  1  0.463961  0.546333  0.244714  1
  Fe  Fe3  1  0.500000  0.000000  0.000000  1
  P  P4  1  0.800727  0.823188  0.694807  1
  P  P5  1  0.187145  0.189652  0.812969  1
  P  P6  1  0.199273  0.176812  0.305193  1
  P  P7  1  0.812855  0.810348  0.187031  1
  P  P8  1  0.766762  0.214582  0.475488  1
  P  P9  1  0.778124  0.229206  0.023430  1
  P  P10  1  0.233238  0.785418  0.524512  1
  P  P11  1  0.221876  0.770794  0.976570  1
  O  O12  1  0.030382  0.811963  0.655524  1
  O  O13  1  0.199236  0.965229  0.842982  1
  O  O14  1  0.969618  0.188037  0.344476  1
  O  O15  1  0.800764  0.034771  0.157018  1
  O  O16  1  0.741772  0.995247  0.559415  1
  O  O17  1  0.000978  0.250015  0.942333  1
  O  O18  1  0.258228  0.004753  0.440585  1
  O  O19  1  0.999022  0.749985  0.057667  1
  O  O20  1  0.695609  0.871322  0.834609  1
  O  O21  1  0.156239  0.298641  0.669056  1
  O  O22  1  0.304391  0.128678  0.165391  1
  O  O23  1  0.843761  0.701359  0.330944  1
  O  O24  1  0.777485  0.643238  0.683156  1
  O  O25  1  0.360885  0.207732  0.838523  1
  O  O26  1  0.222515  0.356762  0.316844  1
  O  O27  1  0.639115  0.792268  0.161477  1
  O  O28  1  0.790801  0.296041  0.576165  1
  O  O29  1  0.696289  0.197450  0.926337  1
  O  O30  1  0.209199  0.703959  0.423835  1
  O  O31  1  0.303711  0.802550  0.073663  1
  O  O32  1  0.393116  0.681052  0.590043  1
  O  O33  1  0.325356  0.605117  0.917279  1
  O  O34  1  0.606884  0.318948  0.409957  1
  O  O35  1  0.674644  0.394883  0.082721  1
