# generated using pymatgen
data_NdPa3(Al3Ir)6
_symmetry_space_group_name_H-M   'P 1'
_cell_length_a   7.63074515
_cell_length_b   7.62023524
_cell_length_c   9.42991000
_cell_angle_alpha   90.00000000
_cell_angle_beta   90.00000000
_cell_angle_gamma   119.62812211
_symmetry_Int_Tables_number   1
_chemical_formula_structural   NdPa3(Al3Ir)6
_chemical_formula_sum   'Nd1 Pa3 Al18 Ir6'
_cell_volume   476.63811401
_cell_formula_units_Z   1
loop_
 _symmetry_equiv_pos_site_id
 _symmetry_equiv_pos_as_xyz
  1  'x, y, z'
loop_
 _atom_site_type_symbol
 _atom_site_label
 _atom_site_symmetry_multiplicity
 _atom_site_fract_x
 _atom_site_fract_y
 _atom_site_fract_z
 _atom_site_occupancy
  Nd  Nd0  1  0.329934  0.005385  0.750000  1
  Pa  Pa1  1  0.994607  0.669289  0.250000  1
  Pa  Pa2  1  0.002593  0.329099  0.750000  1
  Pa  Pa3  1  0.673450  0.997259  0.250000  1
  Al  Al4  1  0.130549  0.130295  0.250000  1
  Al  Al5  1  0.870590  0.872226  0.750000  1
  Al  Al6  1  0.003341  0.335646  0.074453  1
  Al  Al7  1  0.998361  0.665763  0.925972  1
  Al  Al8  1  0.998361  0.665763  0.574028  1
  Al  Al9  1  0.335152  0.002745  0.425149  1
  Al  Al10  1  0.003341  0.335646  0.425547  1
  Al  Al11  1  0.663906  0.997073  0.574395  1
  Al  Al12  1  0.663906  0.997073  0.925605  1
  Al  Al13  1  0.335152  0.002745  0.074851  1
  Al  Al14  1  0.334714  0.334108  0.552270  1
  Al  Al15  1  0.664317  0.664268  0.447961  1
  Al  Al16  1  0.664317  0.664268  0.052039  1
  Al  Al17  1  0.334714  0.334108  0.947730  1
  Al  Al18  1  0.340491  0.547368  0.250000  1
  Al  Al19  1  0.662083  0.453517  0.750000  1
  Al  Al20  1  0.546225  0.340560  0.250000  1
  Al  Al21  1  0.451081  0.657365  0.750000  1
  Ir  Ir22  1  0.674137  0.328557  0.002046  1
  Ir  Ir23  1  0.327676  0.671704  0.002059  1
  Ir  Ir24  1  0.327676  0.671704  0.497941  1
  Ir  Ir25  1  0.674137  0.328557  0.497954  1
  Ir  Ir26  1  0.997593  0.998955  0.002545  1
  Ir  Ir27  1  0.997593  0.998955  0.497455  1
