# generated using pymatgen
data_Er2Tm2B3C4
_symmetry_space_group_name_H-M   'P 1'
_cell_length_a   3.46396158
_cell_length_b   3.56210968
_cell_length_c   11.77526386
_cell_angle_alpha   92.81974019
_cell_angle_beta   96.29102083
_cell_angle_gamma   90.19255870
_symmetry_Int_Tables_number   1
_chemical_formula_structural   Er2Tm2B3C4
_chemical_formula_sum   'Er2 Tm2 B3 C4'
_cell_volume   144.23970286
_cell_formula_units_Z   1
loop_
 _symmetry_equiv_pos_site_id
 _symmetry_equiv_pos_as_xyz
  1  'x, y, z'
loop_
 _atom_site_type_symbol
 _atom_site_label
 _atom_site_symmetry_multiplicity
 _atom_site_fract_x
 _atom_site_fract_y
 _atom_site_fract_z
 _atom_site_occupancy
  Er  Er0  1  0.806616  0.024251  0.650793  1
  Er  Er1  1  0.193384  0.975749  0.349207  1
  Tm  Tm2  1  0.387968  0.554196  0.860613  1
  Tm  Tm3  1  0.612032  0.445804  0.139387  1
  B  B4  1  0.000000  0.000000  0.000000  1
  B  B5  1  0.266068  0.506296  0.540584  1
  B  B6  1  0.733932  0.493704  0.459416  1
  C  C7  1  0.889482  0.063467  0.878420  1
  C  C8  1  0.110518  0.936533  0.121580  1
  C  C9  1  0.313721  0.528019  0.668956  1
  C  C10  1  0.686279  0.471981  0.331044  1
