# generated using pymatgen
data_Tb10Er2CoTc3
_symmetry_space_group_name_H-M   'P 1'
_cell_length_a   6.31525817
_cell_length_b   7.32323572
_cell_length_c   9.19715638
_cell_angle_alpha   89.98855217
_cell_angle_beta   89.80567558
_cell_angle_gamma   90.06434387
_symmetry_Int_Tables_number   1
_chemical_formula_structural   Tb10Er2CoTc3
_chemical_formula_sum   'Tb10 Er2 Co1 Tc3'
_cell_volume   425.34850728
_cell_formula_units_Z   1
loop_
 _symmetry_equiv_pos_site_id
 _symmetry_equiv_pos_as_xyz
  1  'x, y, z'
loop_
 _atom_site_type_symbol
 _atom_site_label
 _atom_site_symmetry_multiplicity
 _atom_site_fract_x
 _atom_site_fract_y
 _atom_site_fract_z
 _atom_site_occupancy
  Tb  Tb0  1  0.665284  0.325256  0.565062  1
  Tb  Tb1  1  0.832007  0.821427  0.936254  1
  Tb  Tb2  1  0.664529  0.326733  0.935218  1
  Tb  Tb3  1  0.832743  0.822099  0.563504  1
  Tb  Tb4  1  0.330426  0.678170  0.434459  1
  Tb  Tb5  1  0.163449  0.176337  0.062897  1
  Tb  Tb6  1  0.872482  0.541882  0.249863  1
  Tb  Tb7  1  0.625533  0.041901  0.250242  1
  Tb  Tb8  1  0.142261  0.457140  0.750369  1
  Tb  Tb9  1  0.373311  0.950548  0.749949  1
  Er  Er10  1  0.331314  0.677886  0.065227  1
  Er  Er11  1  0.162807  0.175747  0.437704  1
  Co  Co12  1  0.538818  0.615043  0.751730  1
  Tc  Tc13  1  0.039102  0.887362  0.249205  1
  Tc  Tc14  1  0.459602  0.389557  0.250400  1
  Tc  Tc15  1  0.966333  0.112910  0.747915  1
