# generated using pymatgen
data_RbPmO2
_symmetry_space_group_name_H-M   'P 1'
_cell_length_a   3.91157400
_cell_length_b   6.45841400
_cell_length_c   7.70720700
_cell_angle_alpha   90.00000000
_cell_angle_beta   89.99998535
_cell_angle_gamma   90.00000000
_symmetry_Int_Tables_number   1
_chemical_formula_structural   RbPmO2
_chemical_formula_sum   'Rb2 Pm2 O4'
_cell_volume   194.70381228
_cell_formula_units_Z   2
loop_
 _symmetry_equiv_pos_site_id
 _symmetry_equiv_pos_as_xyz
  1  'x, y, z'
loop_
 _atom_site_type_symbol
 _atom_site_label
 _atom_site_symmetry_multiplicity
 _atom_site_fract_x
 _atom_site_fract_y
 _atom_site_fract_z
 _atom_site_occupancy
  Rb  Rb0  1  0.000000  0.485610  0.339219  1
  Rb  Rb1  1  0.000000  0.985611  0.660781  1
  Pm  Pm2  1  0.500002  0.999534  0.149208  1
  Pm  Pm3  1  0.500002  0.499534  0.850793  1
  O  O4  1  0.000000  0.929491  0.286940  1
  O  O5  1  0.000000  0.429491  0.713060  1
  O  O6  1  0.500000  0.339362  0.106202  1
  O  O7  1  0.499999  0.839362  0.893797  1
