# generated using pymatgen
data_Y12Co4SnOs
_symmetry_space_group_name_H-M   'P 1'
_cell_length_a   8.33474310
_cell_length_b   8.33474313
_cell_length_c   8.33474275
_cell_angle_alpha   106.45465771
_cell_angle_beta   110.41037246
_cell_angle_gamma   111.59243548
_symmetry_Int_Tables_number   1
_chemical_formula_structural   Y12Co4SnOs
_chemical_formula_sum   'Y12 Co4 Sn1 Os1'
_cell_volume   444.74193042
_cell_formula_units_Z   1
loop_
 _symmetry_equiv_pos_site_id
 _symmetry_equiv_pos_as_xyz
  1  'x, y, z'
loop_
 _atom_site_type_symbol
 _atom_site_label
 _atom_site_symmetry_multiplicity
 _atom_site_fract_x
 _atom_site_fract_y
 _atom_site_fract_z
 _atom_site_occupancy
  Y  Y0  1  0.468183  0.285306  0.182876  1
  Y  Y1  1  0.102430  0.285306  0.817124  1
  Y  Y2  1  0.897570  0.714694  0.182876  1
  Y  Y3  1  0.531817  0.714694  0.817124  1
  Y  Y4  1  0.305656  0.619243  0.313587  1
  Y  Y5  1  0.305656  0.992069  0.686413  1
  Y  Y6  1  0.694344  0.380757  0.686413  1
  Y  Y7  1  0.694344  0.007931  0.313587  1
  Y  Y8  1  0.194162  0.215001  0.409162  1
  Y  Y9  1  0.805838  0.784999  0.590838  1
  Y  Y10  1  0.194162  0.784999  0.979160  1
  Y  Y11  1  0.805838  0.215001  0.020840  1
  Co  Co12  1  0.500000  0.610479  0.110479  1
  Co  Co13  1  0.500000  0.389521  0.889521  1
  Co  Co14  1  0.379839  0.000000  0.379839  1
  Co  Co15  1  0.620161  0.000000  0.620161  1
  Sn  Sn16  1  0.000000  0.500000  0.500000  1
  Os  Os17  1  0.000000  0.000000  0.000000  1
