# generated using pymatgen
data_Tb3Ho17(SnPb)8
_symmetry_space_group_name_H-M   'P 1'
_cell_length_a   8.09029038
_cell_length_b   8.20713528
_cell_length_c   15.52478146
_cell_angle_alpha   90.01998289
_cell_angle_beta   90.10233061
_cell_angle_gamma   89.95772182
_symmetry_Int_Tables_number   1
_chemical_formula_structural   Tb3Ho17(SnPb)8
_chemical_formula_sum   'Tb3 Ho17 Sn8 Pb8'
_cell_volume   1030.81412316
_cell_formula_units_Z   1
loop_
 _symmetry_equiv_pos_site_id
 _symmetry_equiv_pos_as_xyz
  1  'x, y, z'
loop_
 _atom_site_type_symbol
 _atom_site_label
 _atom_site_symmetry_multiplicity
 _atom_site_fract_x
 _atom_site_fract_y
 _atom_site_fract_z
 _atom_site_occupancy
  Tb  Tb0  1  0.975527  0.822397  0.399318  1
  Tb  Tb1  1  0.524617  0.322531  0.600524  1
  Tb  Tb2  1  0.024984  0.177488  0.899508  1
  Ho  Ho3  1  0.369985  0.838556  0.875971  1
  Ho  Ho4  1  0.868954  0.661109  0.624035  1
  Ho  Ho5  1  0.631187  0.161057  0.375444  1
  Ho  Ho6  1  0.130605  0.339088  0.123908  1
  Ho  Ho7  1  0.629949  0.161157  0.124174  1
  Ho  Ho8  1  0.130782  0.339070  0.375850  1
  Ho  Ho9  1  0.369453  0.838983  0.624304  1
  Ho  Ho10  1  0.870170  0.660842  0.876244  1
  Ho  Ho11  1  0.527148  0.323133  0.898161  1
  Ho  Ho12  1  0.026017  0.177316  0.601483  1
  Ho  Ho13  1  0.474099  0.677242  0.398496  1
  Ho  Ho14  1  0.973556  0.822420  0.101763  1
  Ho  Ho15  1  0.473586  0.676884  0.101335  1
  Ho  Ho16  1  0.200373  0.503292  0.750180  1
  Ho  Ho17  1  0.700408  0.996827  0.750123  1
  Ho  Ho18  1  0.799710  0.496849  0.249660  1
  Ho  Ho19  1  0.299719  0.003123  0.249811  1
  Sn  Sn20  1  0.565716  0.621052  0.749972  1
  Sn  Sn21  1  0.065201  0.879383  0.750307  1
  Sn  Sn22  1  0.434606  0.379197  0.249963  1
  Sn  Sn23  1  0.934897  0.120376  0.249868  1
  Sn  Sn24  1  0.332976  0.149061  0.750155  1
  Sn  Sn25  1  0.833276  0.351043  0.749509  1
  Sn  Sn26  1  0.665977  0.850321  0.249890  1
  Sn  Sn27  1  0.167289  0.648987  0.249801  1
  Pb  Pb28  1  0.289417  0.035715  0.041456  1
  Pb  Pb29  1  0.788873  0.462727  0.458408  1
  Pb  Pb30  1  0.710415  0.963411  0.541200  1
  Pb  Pb31  1  0.211940  0.536938  0.959072  1
  Pb  Pb32  1  0.709160  0.961868  0.959399  1
  Pb  Pb33  1  0.209434  0.539043  0.540589  1
  Pb  Pb34  1  0.290995  0.038416  0.458897  1
  Pb  Pb35  1  0.789001  0.463103  0.041224  1
