# generated using pymatgen
data_Dy5Tm3As3P9Ir16
_symmetry_space_group_name_H-M   'P 1'
_cell_length_a   13.10171800
_cell_length_b   13.10171969
_cell_length_c   3.99884100
_cell_angle_alpha   90.00000000
_cell_angle_beta   90.00000000
_cell_angle_gamma   120.00000077
_symmetry_Int_Tables_number   1
_chemical_formula_structural   Dy5Tm3As3P9Ir16
_chemical_formula_sum   'Dy5 Tm3 As3 P9 Ir16'
_cell_volume   594.45819123
_cell_formula_units_Z   1
loop_
 _symmetry_equiv_pos_site_id
 _symmetry_equiv_pos_as_xyz
  1  'x, y, z'
loop_
 _atom_site_type_symbol
 _atom_site_label
 _atom_site_symmetry_multiplicity
 _atom_site_fract_x
 _atom_site_fract_y
 _atom_site_fract_z
 _atom_site_occupancy
  Dy  Dy0  1  0.333333  0.666667  0.500000  1
  Dy  Dy1  1  0.666667  0.333333  0.500000  1
  Dy  Dy2  1  0.000000  0.816614  0.000000  1
  Dy  Dy3  1  0.183386  0.183386  0.000000  1
  Dy  Dy4  1  0.816614  0.000000  0.000000  1
  Tm  Tm5  1  0.000000  0.444142  0.500000  1
  Tm  Tm6  1  0.555858  0.555858  0.500000  1
  Tm  Tm7  1  0.444142  0.000000  0.500000  1
  As  As8  1  0.000000  0.651189  0.500000  1
  As  As9  1  0.348811  0.348811  0.500000  1
  As  As10  1  0.651189  0.000000  0.500000  1
  P  P11  1  0.516962  0.689257  0.000000  1
  P  P12  1  0.310743  0.827705  0.000000  1
  P  P13  1  0.172295  0.483038  0.000000  1
  P  P14  1  0.483038  0.172295  0.000000  1
  P  P15  1  0.689257  0.516962  0.000000  1
  P  P16  1  0.827705  0.310743  0.000000  1
  P  P17  1  0.000000  0.176521  0.500000  1
  P  P18  1  0.823479  0.823479  0.500000  1
  P  P19  1  0.176521  0.000000  0.500000  1
  Ir  Ir20  1  0.505040  0.862570  0.000000  1
  Ir  Ir21  1  0.137430  0.642470  0.000000  1
  Ir  Ir22  1  0.357530  0.494960  0.000000  1
  Ir  Ir23  1  0.494960  0.357530  0.000000  1
  Ir  Ir24  1  0.862570  0.505040  0.000000  1
  Ir  Ir25  1  0.642470  0.137430  0.000000  1
  Ir  Ir26  1  0.000000  0.272367  0.000000  1
  Ir  Ir27  1  0.727633  0.727633  0.000000  1
  Ir  Ir28  1  0.272367  0.000000  0.000000  1
  Ir  Ir29  1  0.626902  0.801372  0.500000  1
  Ir  Ir30  1  0.198628  0.825530  0.500000  1
  Ir  Ir31  1  0.174470  0.373098  0.500000  1
  Ir  Ir32  1  0.373098  0.174470  0.500000  1
  Ir  Ir33  1  0.801372  0.626902  0.500000  1
  Ir  Ir34  1  0.825530  0.198628  0.500000  1
  Ir  Ir35  1  0.000000  0.000000  0.500000  1
