# generated using pymatgen
data_Dy8Ti9Si16Mo2W
_symmetry_space_group_name_H-M   'P 1'
_cell_length_a   7.01214735
_cell_length_b   7.01215062
_cell_length_c   12.89722104
_cell_angle_alpha   89.97917959
_cell_angle_beta   90.01321376
_cell_angle_gamma   89.95197498
_symmetry_Int_Tables_number   1
_chemical_formula_structural   Dy8Ti9Si16Mo2W
_chemical_formula_sum   'Dy8 Ti9 Si16 Mo2 W1'
_cell_volume   634.15908697
_cell_formula_units_Z   1
loop_
 _symmetry_equiv_pos_site_id
 _symmetry_equiv_pos_as_xyz
  1  'x, y, z'
loop_
 _atom_site_type_symbol
 _atom_site_label
 _atom_site_symmetry_multiplicity
 _atom_site_fract_x
 _atom_site_fract_y
 _atom_site_fract_z
 _atom_site_occupancy
  Dy  Dy0  1  0.998026  0.660121  0.033288  1
  Dy  Dy1  1  0.000507  0.340470  0.533008  1
  Dy  Dy2  1  0.659849  0.997853  0.966522  1
  Dy  Dy3  1  0.158754  0.501631  0.781774  1
  Dy  Dy4  1  0.841179  0.499715  0.283368  1
  Dy  Dy5  1  0.501275  0.158499  0.218154  1
  Dy  Dy6  1  0.499481  0.840912  0.716739  1
  Dy  Dy7  1  0.340249  0.000456  0.467121  1
  Ti  Ti8  1  0.346823  0.508997  0.374450  1
  Ti  Ti9  1  0.847325  0.991244  0.376459  1
  Ti  Ti10  1  0.008151  0.151944  0.124743  1
  Ti  Ti11  1  0.990987  0.847193  0.623773  1
  Ti  Ti12  1  0.509140  0.346573  0.625726  1
  Ti  Ti13  1  0.152064  0.008429  0.875029  1
  Ti  Ti14  1  0.326902  0.326816  0.999881  1
  Ti  Ti15  1  0.491906  0.653854  0.127479  1
  Ti  Ti16  1  0.654238  0.491821  0.872321  1
  Si  Si17  1  0.047165  0.708423  0.435197  1
  Si  Si18  1  0.951906  0.291926  0.933730  1
  Si  Si19  1  0.708383  0.047197  0.565205  1
  Si  Si20  1  0.209057  0.453315  0.184962  1
  Si  Si21  1  0.791381  0.547024  0.684574  1
  Si  Si22  1  0.453897  0.208917  0.814976  1
  Si  Si23  1  0.547586  0.791184  0.315543  1
  Si  Si24  1  0.291965  0.951864  0.065806  1
  Si  Si25  1  0.798490  0.870657  0.184642  1
  Si  Si26  1  0.299160  0.629824  0.565575  1
  Si  Si27  1  0.701953  0.369992  0.065223  1
  Si  Si28  1  0.629777  0.299169  0.434617  1
  Si  Si29  1  0.369886  0.702055  0.934551  1
  Si  Si30  1  0.129487  0.201075  0.315185  1
  Si  Si31  1  0.200477  0.129584  0.684879  1
  Si  Si32  1  0.870587  0.799079  0.815362  1
  Mo  Mo33  1  0.673082  0.673004  0.500111  1
  Mo  Mo34  1  0.172964  0.826031  0.250750  1
  W  W35  1  0.825937  0.173146  0.749276  1
