# generated using pymatgen
data_Dy8SiAsI12
_symmetry_space_group_name_H-M   'P 1'
_cell_length_a   4.22619600
_cell_length_b   13.96376535
_cell_length_c   14.76405028
_cell_angle_alpha   89.94147193
_cell_angle_beta   90.00000000
_cell_angle_gamma   90.00000000
_symmetry_Int_Tables_number   1
_chemical_formula_structural   Dy8SiAsI12
_chemical_formula_sum   'Dy8 Si1 As1 I12'
_cell_volume   871.27944037
_cell_formula_units_Z   1
loop_
 _symmetry_equiv_pos_site_id
 _symmetry_equiv_pos_as_xyz
  1  'x, y, z'
loop_
 _atom_site_type_symbol
 _atom_site_label
 _atom_site_symmetry_multiplicity
 _atom_site_fract_x
 _atom_site_fract_y
 _atom_site_fract_z
 _atom_site_occupancy
  Dy  Dy0  1  0.500000  0.114901  0.346844  1
  Dy  Dy1  1  0.500000  0.885099  0.653156  1
  Dy  Dy2  1  0.500000  0.614096  0.151754  1
  Dy  Dy3  1  0.500000  0.385904  0.848246  1
  Dy  Dy4  1  0.000000  0.109878  0.573464  1
  Dy  Dy5  1  0.000000  0.890122  0.426536  1
  Dy  Dy6  1  0.000000  0.610833  0.925678  1
  Dy  Dy7  1  0.000000  0.389167  0.074322  1
  Si  Si8  1  0.500000  0.500000  0.000000  1
  As  As9  1  0.500000  0.000000  0.500000  1
  I  I10  1  0.500000  0.244895  0.162410  1
  I  I11  1  0.500000  0.755105  0.837590  1
  I  I12  1  0.500000  0.747149  0.340245  1
  I  I13  1  0.500000  0.252851  0.659755  1
  I  I14  1  0.000000  0.257951  0.414594  1
  I  I15  1  0.000000  0.742049  0.585406  1
  I  I16  1  0.000000  0.758819  0.085530  1
  I  I17  1  0.000000  0.241181  0.914470  1
  I  I18  1  0.000000  0.999397  0.241638  1
  I  I19  1  0.000000  0.000603  0.758362  1
  I  I20  1  0.000000  0.499983  0.259520  1
  I  I21  1  0.000000  0.500017  0.740480  1
