# generated using pymatgen
data_SmSn5SbRu4
_symmetry_space_group_name_H-M   'P 1'
_cell_length_a   6.97510542
_cell_length_b   6.97510498
_cell_length_c   6.97510501
_cell_angle_alpha   120.19003066
_cell_angle_beta   121.04590165
_cell_angle_gamma   88.93457350
_symmetry_Int_Tables_number   1
_chemical_formula_structural   SmSn5SbRu4
_chemical_formula_sum   'Sm1 Sn5 Sb1 Ru4'
_cell_volume   237.65624618
_cell_formula_units_Z   1
loop_
 _symmetry_equiv_pos_site_id
 _symmetry_equiv_pos_as_xyz
  1  'x, y, z'
loop_
 _atom_site_type_symbol
 _atom_site_label
 _atom_site_symmetry_multiplicity
 _atom_site_fract_x
 _atom_site_fract_y
 _atom_site_fract_z
 _atom_site_occupancy
  Sm  Sm0  1  0.000000  0.000000  0.000000  1
  Sn  Sn1  1  0.468627  0.469783  0.351440  1
  Sn  Sn2  1  0.531373  0.882812  0.001155  1
  Sn  Sn3  1  0.881657  0.530217  0.998845  1
  Sn  Sn4  1  0.118343  0.117188  0.648560  1
  Sn  Sn5  1  0.500000  0.000000  0.500000  1
  Sb  Sb6  1  0.000000  0.500000  0.500000  1
  Ru  Ru7  1  0.402211  0.406001  0.653427  1
  Ru  Ru8  1  0.752575  0.748784  0.346573  1
  Ru  Ru9  1  0.247425  0.593999  0.996209  1
  Ru  Ru10  1  0.597789  0.251216  0.003791  1
