# generated using pymatgen
data_Lu2Fe8P6RuW
_symmetry_space_group_name_H-M   'P 1'
_cell_length_a   3.68997100
_cell_length_b   10.36065800
_cell_length_c   11.86077100
_cell_angle_alpha   90.00000000
_cell_angle_beta   90.00000000
_cell_angle_gamma   90.00000000
_symmetry_Int_Tables_number   1
_chemical_formula_structural   Lu2Fe8P6RuW
_chemical_formula_sum   'Lu4 Fe16 P12 Ru2 W2'
_cell_volume   453.44353261
_cell_formula_units_Z   2
loop_
 _symmetry_equiv_pos_site_id
 _symmetry_equiv_pos_as_xyz
  1  'x, y, z'
loop_
 _atom_site_type_symbol
 _atom_site_label
 _atom_site_symmetry_multiplicity
 _atom_site_fract_x
 _atom_site_fract_y
 _atom_site_fract_z
 _atom_site_occupancy
  Lu  Lu0  1  0.250000  0.579181  0.704873  1
  Lu  Lu1  1  0.250000  0.920819  0.204873  1
  Lu  Lu2  1  0.750000  0.416938  0.294967  1
  Lu  Lu3  1  0.750000  0.083062  0.794967  1
  Fe  Fe4  1  0.250000  0.403764  0.490005  1
  Fe  Fe5  1  0.250000  0.096236  0.990005  1
  Fe  Fe6  1  0.750000  0.591746  0.511585  1
  Fe  Fe7  1  0.750000  0.908254  0.011585  1
  Fe  Fe8  1  0.250000  0.221732  0.176031  1
  Fe  Fe9  1  0.250000  0.278268  0.676031  1
  Fe  Fe10  1  0.750000  0.782504  0.823622  1
  Fe  Fe11  1  0.750000  0.717496  0.323622  1
  Fe  Fe12  1  0.250000  0.876430  0.702861  1
  Fe  Fe13  1  0.250000  0.623570  0.202861  1
  Fe  Fe14  1  0.750000  0.121206  0.297296  1
  Fe  Fe15  1  0.750000  0.378794  0.797296  1
  Fe  Fe16  1  0.250000  0.461415  0.933279  1
  Fe  Fe17  1  0.250000  0.038585  0.433279  1
  Fe  Fe18  1  0.750000  0.536178  0.067194  1
  Fe  Fe19  1  0.750000  0.963822  0.567194  1
  P  P20  1  0.250000  0.423662  0.115376  1
  P  P21  1  0.250000  0.076338  0.615376  1
  P  P22  1  0.750000  0.573664  0.883712  1
  P  P23  1  0.750000  0.926336  0.383712  1
  P  P24  1  0.250000  0.264798  0.865710  1
  P  P25  1  0.250000  0.235202  0.365710  1
  P  P26  1  0.750000  0.736451  0.133794  1
  P  P27  1  0.750000  0.763549  0.633794  1
  P  P28  1  0.250000  0.588247  0.392725  1
  P  P29  1  0.250000  0.911753  0.892725  1
  P  P30  1  0.750000  0.401331  0.608053  1
  P  P31  1  0.750000  0.098669  0.108053  1
  Ru  Ru32  1  0.750000  0.292859  0.010952  1
  Ru  Ru33  1  0.750000  0.207141  0.510952  1
  W  W34  1  0.250000  0.705319  0.987966  1
  W  W35  1  0.250000  0.794681  0.487966  1
