# generated using pymatgen
data_Sr2As7Pd12
_symmetry_space_group_name_H-M   'P 1'
_cell_length_a   10.20788900
_cell_length_b   10.20788908
_cell_length_c   4.17989200
_cell_angle_alpha   90.00000000
_cell_angle_beta   90.00000000
_cell_angle_gamma   120.00000297
_symmetry_Int_Tables_number   1
_chemical_formula_structural   Sr2As7Pd12
_chemical_formula_sum   'Sr2 As7 Pd12'
_cell_volume   377.19641869
_cell_formula_units_Z   1
loop_
 _symmetry_equiv_pos_site_id
 _symmetry_equiv_pos_as_xyz
  1  'x, y, z'
loop_
 _atom_site_type_symbol
 _atom_site_label
 _atom_site_symmetry_multiplicity
 _atom_site_fract_x
 _atom_site_fract_y
 _atom_site_fract_z
 _atom_site_occupancy
  Sr  Sr0  1  0.666667  0.333333  0.246403  1
  Sr  Sr1  1  0.000000  0.000000  0.751644  1
  As  As2  1  0.333333  0.666667  0.476966  1
  As  As3  1  0.739186  0.780632  0.251353  1
  As  As4  1  0.041445  0.260814  0.251353  1
  As  As5  1  0.219368  0.958555  0.251353  1
  As  As6  1  0.927228  0.553685  0.745815  1
  As  As7  1  0.626456  0.072772  0.745815  1
  As  As8  1  0.446315  0.373544  0.745815  1
  Pd  Pd9  1  0.768820  0.046660  0.250123  1
  Pd  Pd10  1  0.277840  0.231180  0.250123  1
  Pd  Pd11  1  0.953340  0.722160  0.250123  1
  Pd  Pd12  1  0.899367  0.286608  0.746955  1
  Pd  Pd13  1  0.387240  0.100633  0.746955  1
  Pd  Pd14  1  0.713392  0.612760  0.746955  1
  Pd  Pd15  1  0.478184  0.555329  0.229217  1
  Pd  Pd16  1  0.077144  0.521816  0.229217  1
  Pd  Pd17  1  0.444671  0.922856  0.229217  1
  Pd  Pd18  1  0.191863  0.774129  0.768705  1
  Pd  Pd19  1  0.582267  0.808137  0.768705  1
  Pd  Pd20  1  0.225871  0.417733  0.768705  1
