# generated using pymatgen
data_Zr8Ta9Nb3Si16
_symmetry_space_group_name_H-M   'P 1'
_cell_length_a   6.87599444
_cell_length_b   6.87609812
_cell_length_c   12.76440807
_cell_angle_alpha   89.99184346
_cell_angle_beta   89.98514380
_cell_angle_gamma   89.99720508
_symmetry_Int_Tables_number   1
_chemical_formula_structural   Zr8Ta9Nb3Si16
_chemical_formula_sum   'Zr8 Ta9 Nb3 Si16'
_cell_volume   603.50134507
_cell_formula_units_Z   1
loop_
 _symmetry_equiv_pos_site_id
 _symmetry_equiv_pos_as_xyz
  1  'x, y, z'
loop_
 _atom_site_type_symbol
 _atom_site_label
 _atom_site_symmetry_multiplicity
 _atom_site_fract_x
 _atom_site_fract_y
 _atom_site_fract_z
 _atom_site_occupancy
  Zr  Zr0  1  0.000955  0.338871  0.218713  1
  Zr  Zr1  1  0.999745  0.661270  0.719176  1
  Zr  Zr2  1  0.161385  0.500753  0.469014  1
  Zr  Zr3  1  0.498631  0.838609  0.030707  1
  Zr  Zr4  1  0.838164  0.499486  0.968977  1
  Zr  Zr5  1  0.501065  0.160731  0.531039  1
  Zr  Zr6  1  0.339346  0.000553  0.780957  1
  Zr  Zr7  1  0.660755  0.999022  0.280994  1
  Ta  Ta8  1  0.169352  0.169661  0.999890  1
  Ta  Ta9  1  0.830919  0.830677  0.500182  1
  Ta  Ta10  1  0.330716  0.668825  0.250065  1
  Ta  Ta11  1  0.668784  0.331453  0.750405  1
  Ta  Ta12  1  0.152742  0.994546  0.375637  1
  Ta  Ta13  1  0.847058  0.005382  0.875677  1
  Ta  Ta14  1  0.505270  0.653241  0.625851  1
  Ta  Ta15  1  0.347304  0.495012  0.874312  1
  Ta  Ta16  1  0.494717  0.347344  0.125480  1
  Nb  Nb17  1  0.652951  0.504654  0.374371  1
  Nb  Nb18  1  0.995399  0.153215  0.624473  1
  Nb  Nb19  1  0.004745  0.846789  0.124188  1
  Si  Si20  1  0.299235  0.043636  0.186527  1
  Si  Si21  1  0.700722  0.956594  0.686608  1
  Si  Si22  1  0.456276  0.799270  0.436617  1
  Si  Si23  1  0.199942  0.543553  0.063526  1
  Si  Si24  1  0.543865  0.200336  0.936541  1
  Si  Si25  1  0.799980  0.456607  0.563826  1
  Si  Si26  1  0.043625  0.299946  0.813747  1
  Si  Si27  1  0.956521  0.699851  0.313702  1
  Si  Si28  1  0.366045  0.291234  0.322262  1
  Si  Si29  1  0.634125  0.708917  0.822530  1
  Si  Si30  1  0.208444  0.866126  0.572278  1
  Si  Si31  1  0.133789  0.791621  0.927114  1
  Si  Si32  1  0.791350  0.133980  0.072347  1
  Si  Si33  1  0.866049  0.208039  0.427388  1
  Si  Si34  1  0.291981  0.366088  0.677511  1
  Si  Si35  1  0.708049  0.634103  0.177369  1
