# generated using pymatgen
data_Dy5Hf3(ReB6)4
_symmetry_space_group_name_H-M   'P 1'
_cell_length_a   3.61977100
_cell_length_b   9.04978420
_cell_length_c   11.43567334
_cell_angle_alpha   89.97403011
_cell_angle_beta   90.00000000
_cell_angle_gamma   90.00000000
_symmetry_Int_Tables_number   1
_chemical_formula_structural   Dy5Hf3(ReB6)4
_chemical_formula_sum   'Dy5 Hf3 Re4 B24'
_cell_volume   374.61142295
_cell_formula_units_Z   1
loop_
 _symmetry_equiv_pos_site_id
 _symmetry_equiv_pos_as_xyz
  1  'x, y, z'
loop_
 _atom_site_type_symbol
 _atom_site_label
 _atom_site_symmetry_multiplicity
 _atom_site_fract_x
 _atom_site_fract_y
 _atom_site_fract_z
 _atom_site_occupancy
  Dy  Dy0  1  0.000000  0.321358  0.413021  1
  Dy  Dy1  1  0.000000  0.678060  0.586328  1
  Dy  Dy2  1  0.000000  0.820902  0.086203  1
  Dy  Dy3  1  0.000000  0.179278  0.914219  1
  Dy  Dy4  1  0.000000  0.944013  0.372492  1
  Hf  Hf5  1  0.000000  0.057056  0.630489  1
  Hf  Hf6  1  0.000000  0.444112  0.126329  1
  Hf  Hf7  1  0.000000  0.556050  0.872805  1
  Re  Re8  1  0.000000  0.634552  0.317371  1
  Re  Re9  1  0.000000  0.360776  0.682829  1
  Re  Re10  1  0.000000  0.143690  0.177612  1
  Re  Re11  1  0.000000  0.859888  0.820022  1
  B  B12  1  0.500000  0.551403  0.432775  1
  B  B13  1  0.500000  0.445617  0.567384  1
  B  B14  1  0.500000  0.054868  0.066135  1
  B  B15  1  0.500000  0.946307  0.933084  1
  B  B16  1  0.500000  0.748043  0.417437  1
  B  B17  1  0.500000  0.247651  0.583269  1
  B  B18  1  0.500000  0.253886  0.080891  1
  B  B19  1  0.500000  0.747176  0.918202  1
  B  B20  1  0.500000  0.791036  0.263594  1
  B  B21  1  0.500000  0.206153  0.736348  1
  B  B22  1  0.500000  0.295186  0.233770  1
  B  B23  1  0.500000  0.705696  0.764983  1
  B  B24  1  0.500000  0.628477  0.182604  1
  B  B25  1  0.500000  0.370749  0.817047  1
  B  B26  1  0.500000  0.132780  0.314513  1
  B  B27  1  0.500000  0.870163  0.684229  1
  B  B28  1  0.500000  0.983960  0.211683  1
  B  B29  1  0.500000  0.018100  0.786878  1
  B  B30  1  0.500000  0.480293  0.285320  1
  B  B31  1  0.500000  0.518705  0.713992  1
  B  B32  1  0.500000  0.599358  0.026314  1
  B  B33  1  0.500000  0.401450  0.972583  1
  B  B34  1  0.500000  0.102488  0.476402  1
  B  B35  1  0.500000  0.900720  0.530839  1
