# generated using pymatgen
data_Li4ErUS6
_symmetry_space_group_name_H-M   'P 1'
_cell_length_a   6.64390514
_cell_length_b   6.64370593
_cell_length_c   6.49393669
_cell_angle_alpha   99.79073386
_cell_angle_beta   99.79733359
_cell_angle_gamma   119.99463430
_symmetry_Int_Tables_number   1
_chemical_formula_structural   Li4ErUS6
_chemical_formula_sum   'Li4 Er1 U1 S6'
_cell_volume   233.44751472
_cell_formula_units_Z   1
loop_
 _symmetry_equiv_pos_site_id
 _symmetry_equiv_pos_as_xyz
  1  'x, y, z'
loop_
 _atom_site_type_symbol
 _atom_site_label
 _atom_site_symmetry_multiplicity
 _atom_site_fract_x
 _atom_site_fract_y
 _atom_site_fract_z
 _atom_site_occupancy
  Li  Li0  1  0.500397  0.499666  0.000049  1
  Li  Li1  1  0.002150  0.997831  0.499996  1
  Li  Li2  1  0.662629  0.337365  0.500009  1
  Li  Li3  1  0.336904  0.663085  0.500001  1
  Er  Er4  1  0.833152  0.166851  0.000085  1
  U  U5  1  0.166900  0.833043  0.999990  1
  S  S6  1  0.927042  0.590663  0.244105  1
  S  S7  1  0.573548  0.920020  0.248195  1
  S  S8  1  0.244351  0.236426  0.249950  1
  S  S9  1  0.763570  0.755643  0.750026  1
  S  S10  1  0.079948  0.426386  0.751769  1
  S  S11  1  0.409413  0.073027  0.755826  1
