# generated using pymatgen
data_Tm2Lu2GaSi3
_symmetry_space_group_name_H-M   'P 1'
_cell_length_a   3.81880300
_cell_length_b   4.23344000
_cell_length_c   10.41854600
_cell_angle_alpha   90.00000000
_cell_angle_beta   90.00000000
_cell_angle_gamma   90.00000000
_symmetry_Int_Tables_number   1
_chemical_formula_structural   Tm2Lu2GaSi3
_chemical_formula_sum   'Tm2 Lu2 Ga1 Si3'
_cell_volume   168.43323020
_cell_formula_units_Z   1
loop_
 _symmetry_equiv_pos_site_id
 _symmetry_equiv_pos_as_xyz
  1  'x, y, z'
loop_
 _atom_site_type_symbol
 _atom_site_label
 _atom_site_symmetry_multiplicity
 _atom_site_fract_x
 _atom_site_fract_y
 _atom_site_fract_z
 _atom_site_occupancy
  Tm  Tm0  1  0.000000  0.000000  0.362368  1
  Tm  Tm1  1  0.500000  0.000000  0.639506  1
  Lu  Lu2  1  0.000000  0.500000  0.857473  1
  Lu  Lu3  1  0.500000  0.500000  0.141481  1
  Ga  Ga4  1  0.000000  0.000000  0.078067  1
  Si  Si5  1  0.000000  0.500000  0.577942  1
  Si  Si6  1  0.500000  0.500000  0.423337  1
  Si  Si7  1  0.500000  0.000000  0.919825  1
