# generated using pymatgen
data_Ho7Sn23(IrRu)3
_symmetry_space_group_name_H-M   'P 1'
_cell_length_a   9.87560600
_cell_length_b   9.87560578
_cell_length_c   10.05839300
_cell_angle_alpha   90.00000000
_cell_angle_beta   90.00000000
_cell_angle_gamma   119.99999403
_symmetry_Int_Tables_number   1
_chemical_formula_structural   Ho7Sn23(IrRu)3
_chemical_formula_sum   'Ho7 Sn23 Ir3 Ru3'
_cell_volume   849.54572400
_cell_formula_units_Z   1
loop_
 _symmetry_equiv_pos_site_id
 _symmetry_equiv_pos_as_xyz
  1  'x, y, z'
loop_
 _atom_site_type_symbol
 _atom_site_label
 _atom_site_symmetry_multiplicity
 _atom_site_fract_x
 _atom_site_fract_y
 _atom_site_fract_z
 _atom_site_occupancy
  Ho  Ho0  1  0.000000  0.000000  0.994841  1
  Ho  Ho1  1  0.517425  0.482575  0.696920  1
  Ho  Ho2  1  0.517425  0.034849  0.696920  1
  Ho  Ho3  1  0.965151  0.482575  0.696920  1
  Ho  Ho4  1  0.033887  0.516944  0.305848  1
  Ho  Ho5  1  0.483056  0.966113  0.305848  1
  Ho  Ho6  1  0.483056  0.516944  0.305848  1
  Sn  Sn7  1  0.666667  0.333333  0.180288  1
  Sn  Sn8  1  0.666667  0.333333  0.874875  1
  Sn  Sn9  1  0.333333  0.666667  0.126591  1
  Sn  Sn10  1  0.351814  0.349378  0.001713  1
  Sn  Sn11  1  0.997565  0.648186  0.001713  1
  Sn  Sn12  1  0.650622  0.002435  0.001713  1
  Sn  Sn13  1  0.650622  0.648186  0.001713  1
  Sn  Sn14  1  0.333333  0.666667  0.825186  1
  Sn  Sn15  1  0.446259  0.223129  0.458859  1
  Sn  Sn16  1  0.222418  0.777582  0.540709  1
  Sn  Sn17  1  0.222418  0.444834  0.540709  1
  Sn  Sn18  1  0.555166  0.777582  0.540709  1
  Sn  Sn19  1  0.116519  0.883481  0.276196  1
  Sn  Sn20  1  0.776871  0.553741  0.458859  1
  Sn  Sn21  1  0.776871  0.223129  0.458859  1
  Sn  Sn22  1  0.351814  0.002435  0.001713  1
  Sn  Sn23  1  0.116519  0.233037  0.276196  1
  Sn  Sn24  1  0.766963  0.883481  0.276196  1
  Sn  Sn25  1  0.236114  0.118057  0.714139  1
  Sn  Sn26  1  0.881943  0.763886  0.714139  1
  Sn  Sn27  1  0.881943  0.118057  0.714139  1
  Sn  Sn28  1  0.000000  0.000000  0.500930  1
  Sn  Sn29  1  0.997565  0.349378  0.001713  1
  Ir  Ir30  1  0.169345  0.830655  0.801226  1
  Ir  Ir31  1  0.169345  0.338689  0.801226  1
  Ir  Ir32  1  0.661311  0.830655  0.801226  1
  Ru  Ru33  1  0.338530  0.169266  0.201773  1
  Ru  Ru34  1  0.830734  0.661470  0.201773  1
  Ru  Ru35  1  0.830734  0.169266  0.201773  1
