# generated using pymatgen
data_NaSr2Tm(Si5Pt3)2
_symmetry_space_group_name_H-M   'P 1'
_cell_length_a   8.27822148
_cell_length_b   8.34075444
_cell_length_c   8.34075445
_cell_angle_alpha   137.96990629
_cell_angle_beta   104.56659034
_cell_angle_gamma   90.43801078
_symmetry_Int_Tables_number   1
_chemical_formula_structural   NaSr2Tm(Si5Pt3)2
_chemical_formula_sum   'Na1 Sr2 Tm1 Si10 Pt6'
_cell_volume   355.98342304
_cell_formula_units_Z   1
loop_
 _symmetry_equiv_pos_site_id
 _symmetry_equiv_pos_as_xyz
  1  'x, y, z'
loop_
 _atom_site_type_symbol
 _atom_site_label
 _atom_site_symmetry_multiplicity
 _atom_site_fract_x
 _atom_site_fract_y
 _atom_site_fract_z
 _atom_site_occupancy
  Na  Na0  1  0.862653  0.627603  0.235051  1
  Sr  Sr1  1  0.395297  0.130358  0.264939  1
  Sr  Sr2  1  0.606494  0.871554  0.734940  1
  Tm  Tm3  1  0.138266  0.368414  0.769851  1
  Si  Si4  1  0.498504  0.751039  0.252767  1
  Si  Si5  1  0.498504  0.245735  0.747463  1
  Si  Si6  1  0.228311  0.978096  0.745086  1
  Si  Si7  1  0.771978  0.519256  0.747768  1
  Si  Si8  1  0.771978  0.024211  0.252722  1
  Si  Si9  1  0.228311  0.483223  0.250214  1
  Si  Si10  1  0.033786  0.884672  0.149117  1
  Si  Si11  1  0.968353  0.117544  0.850810  1
  Si  Si12  1  0.741569  0.392172  0.349397  1
  Si  Si13  1  0.257592  0.606951  0.650641  1
  Pt  Pt14  1  0.002205  0.752890  0.755942  1
  Pt  Pt15  1  0.002205  0.246264  0.249315  1
  Pt  Pt16  1  0.242322  0.861655  0.380667  1
  Pt  Pt17  1  0.752953  0.139222  0.613729  1
  Pt  Pt18  1  0.477393  0.366031  0.111362  1
  Pt  Pt19  1  0.521330  0.633110  0.888219  1
