# generated using pymatgen
data_Hf4Al18(FePd)3
_symmetry_space_group_name_H-M   'P 1'
_cell_length_a   7.40819834
_cell_length_b   7.40819792
_cell_length_c   9.14756485
_cell_angle_alpha   89.98665208
_cell_angle_beta   89.98665518
_cell_angle_gamma   119.71296017
_symmetry_Int_Tables_number   1
_chemical_formula_structural   Hf4Al18(FePd)3
_chemical_formula_sum   'Hf4 Al18 Fe3 Pd3'
_cell_volume   436.02376650
_cell_formula_units_Z   1
loop_
 _symmetry_equiv_pos_site_id
 _symmetry_equiv_pos_as_xyz
  1  'x, y, z'
loop_
 _atom_site_type_symbol
 _atom_site_label
 _atom_site_symmetry_multiplicity
 _atom_site_fract_x
 _atom_site_fract_y
 _atom_site_fract_z
 _atom_site_occupancy
  Hf  Hf0  1  0.994845  0.670498  0.248191  1
  Hf  Hf1  1  0.009598  0.332383  0.752367  1
  Hf  Hf2  1  0.667617  0.990402  0.247633  1
  Hf  Hf3  1  0.329502  0.005155  0.751809  1
  Al  Al4  1  0.109037  0.111134  0.248267  1
  Al  Al5  1  0.888866  0.890963  0.751733  1
  Al  Al6  1  0.985148  0.324987  0.075237  1
  Al  Al7  1  0.995396  0.665492  0.926133  1
  Al  Al8  1  0.001665  0.675860  0.578208  1
  Al  Al9  1  0.324140  0.998335  0.421792  1
  Al  Al10  1  0.995824  0.324585  0.422305  1
  Al  Al11  1  0.675415  0.004176  0.577695  1
  Al  Al12  1  0.675013  0.014852  0.924763  1
  Al  Al13  1  0.334508  0.004604  0.073867  1
  Al  Al14  1  0.321002  0.321327  0.560497  1
  Al  Al15  1  0.678673  0.678998  0.439503  1
  Al  Al16  1  0.679149  0.670772  0.050538  1
  Al  Al17  1  0.329228  0.320851  0.949462  1
  Al  Al18  1  0.340089  0.548340  0.249152  1
  Al  Al19  1  0.658307  0.441021  0.759066  1
  Al  Al20  1  0.558979  0.341693  0.240934  1
  Al  Al21  1  0.451660  0.659911  0.750848  1
  Fe  Fe22  1  0.672615  0.327385  0.000000  1
  Fe  Fe23  1  0.000436  0.999564  0.000000  1
  Fe  Fe24  1  0.999198  0.000802  0.500000  1
  Pd  Pd25  1  0.326060  0.673940  0.000000  1
  Pd  Pd26  1  0.325806  0.674194  0.500000  1
  Pd  Pd27  1  0.672225  0.327775  0.500000  1
