# generated using pymatgen
data_Dy3Er5TlSn(HgAu4)2
_symmetry_space_group_name_H-M   'P 1'
_cell_length_a   8.00430703
_cell_length_b   8.00430771
_cell_length_c   7.30653400
_cell_angle_alpha   90.00531132
_cell_angle_beta   90.00531132
_cell_angle_gamma   89.91089522
_symmetry_Int_Tables_number   1
_chemical_formula_structural   Dy3Er5TlSn(HgAu4)2
_chemical_formula_sum   'Dy3 Er5 Tl1 Sn1 Hg2 Au8'
_cell_volume   468.12129306
_cell_formula_units_Z   1
loop_
 _symmetry_equiv_pos_site_id
 _symmetry_equiv_pos_as_xyz
  1  'x, y, z'
loop_
 _atom_site_type_symbol
 _atom_site_label
 _atom_site_symmetry_multiplicity
 _atom_site_fract_x
 _atom_site_fract_y
 _atom_site_fract_z
 _atom_site_occupancy
  Dy  Dy0  1  0.156846  0.837699  0.499733  1
  Dy  Dy1  1  0.338104  0.342660  0.000339  1
  Dy  Dy2  1  0.663076  0.656541  0.000280  1
  Er  Er3  1  0.843369  0.161915  0.499716  1
  Er  Er4  1  0.684952  0.681158  0.499296  1
  Er  Er5  1  0.314898  0.319130  0.499308  1
  Er  Er6  1  0.180746  0.815391  0.000775  1
  Er  Er7  1  0.818706  0.185180  0.000769  1
  Tl  Tl8  1  0.499713  0.000027  0.749956  1
  Sn  Sn9  1  0.999989  0.499745  0.249750  1
  Hg  Hg10  1  0.499581  0.999959  0.250206  1
  Hg  Hg11  1  0.999916  0.500215  0.749635  1
  Au  Au12  1  0.626291  0.370223  0.276266  1
  Au  Au13  1  0.374867  0.628704  0.273985  1
  Au  Au14  1  0.126115  0.127659  0.772909  1
  Au  Au15  1  0.872729  0.873652  0.772853  1
  Au  Au16  1  0.373155  0.626718  0.726790  1
  Au  Au17  1  0.628028  0.372230  0.724594  1
  Au  Au18  1  0.870595  0.875459  0.226331  1
  Au  Au19  1  0.128323  0.125737  0.226507  1
