# generated using pymatgen
data_Ho3Tm17(Cd3Co)2
_symmetry_space_group_name_H-M   'P 1'
_cell_length_a   9.49230402
_cell_length_b   9.49168978
_cell_length_c   9.63290500
_cell_angle_alpha   90.00000000
_cell_angle_beta   90.00000000
_cell_angle_gamma   119.99478442
_symmetry_Int_Tables_number   1
_chemical_formula_structural   Ho3Tm17(Cd3Co)2
_chemical_formula_sum   'Ho3 Tm17 Cd6 Co2'
_cell_volume   751.66773042
_cell_formula_units_Z   1
loop_
 _symmetry_equiv_pos_site_id
 _symmetry_equiv_pos_as_xyz
  1  'x, y, z'
loop_
 _atom_site_type_symbol
 _atom_site_label
 _atom_site_symmetry_multiplicity
 _atom_site_fract_x
 _atom_site_fract_y
 _atom_site_fract_z
 _atom_site_occupancy
  Ho  Ho0  1  0.458127  0.541853  0.750000  1
  Ho  Ho1  1  0.458124  0.916268  0.750000  1
  Ho  Ho2  1  0.083720  0.541846  0.750000  1
  Tm  Tm3  1  0.000010  0.000010  0.500072  1
  Tm  Tm4  1  0.000010  0.000010  0.999928  1
  Tm  Tm5  1  0.542288  0.457695  0.250000  1
  Tm  Tm6  1  0.542308  0.084606  0.250000  1
  Tm  Tm7  1  0.915371  0.457665  0.250000  1
  Tm  Tm8  1  0.212111  0.787893  0.436130  1
  Tm  Tm9  1  0.212098  0.424191  0.436122  1
  Tm  Tm10  1  0.575812  0.787904  0.436137  1
  Tm  Tm11  1  0.787614  0.212375  0.562565  1
  Tm  Tm12  1  0.787629  0.575264  0.562571  1
  Tm  Tm13  1  0.424751  0.212377  0.562567  1
  Tm  Tm14  1  0.787614  0.212375  0.937435  1
  Tm  Tm15  1  0.787629  0.575264  0.937429  1
  Tm  Tm16  1  0.424751  0.212377  0.937433  1
  Tm  Tm17  1  0.212111  0.787893  0.063870  1
  Tm  Tm18  1  0.212098  0.424191  0.063878  1
  Tm  Tm19  1  0.575812  0.787904  0.063863  1
  Cd  Cd20  1  0.884902  0.115352  0.250000  1
  Cd  Cd21  1  0.884757  0.769573  0.250000  1
  Cd  Cd22  1  0.230434  0.115327  0.250000  1
  Cd  Cd23  1  0.114017  0.885841  0.750000  1
  Cd  Cd24  1  0.114061  0.228065  0.750000  1
  Cd  Cd25  1  0.771808  0.885833  0.750000  1
  Co  Co26  1  0.333373  0.666660  0.250000  1
  Co  Co27  1  0.666664  0.333384  0.750000  1
