# generated using pymatgen
data_SrLi4
_symmetry_space_group_name_H-M   'P 1'
_cell_length_a   10.51317300
_cell_length_b   10.51317334
_cell_length_c   8.56296900
_cell_angle_alpha   90.00000000
_cell_angle_beta   90.00000000
_cell_angle_gamma   120.00000207
_symmetry_Int_Tables_number   1
_chemical_formula_structural   SrLi4
_chemical_formula_sum   'Sr6 Li24'
_cell_volume   819.63902995
_cell_formula_units_Z   6
loop_
 _symmetry_equiv_pos_site_id
 _symmetry_equiv_pos_as_xyz
  1  'x, y, z'
loop_
 _atom_site_type_symbol
 _atom_site_label
 _atom_site_symmetry_multiplicity
 _atom_site_fract_x
 _atom_site_fract_y
 _atom_site_fract_z
 _atom_site_occupancy
  Sr  Sr0  1  0.471793  0.528207  0.250000  1
  Sr  Sr1  1  0.471793  0.943585  0.250000  1
  Sr  Sr2  1  0.056415  0.528207  0.250000  1
  Sr  Sr3  1  0.528207  0.471793  0.750000  1
  Sr  Sr4  1  0.528207  0.056415  0.750000  1
  Sr  Sr5  1  0.943585  0.471793  0.750000  1
  Li  Li6  1  0.000000  0.000000  0.500000  1
  Li  Li7  1  0.000000  0.000000  0.000000  1
  Li  Li8  1  0.333333  0.666667  0.916169  1
  Li  Li9  1  0.666667  0.333333  0.083831  1
  Li  Li10  1  0.666667  0.333333  0.416169  1
  Li  Li11  1  0.333333  0.666667  0.583831  1
  Li  Li12  1  0.101910  0.898090  0.250000  1
  Li  Li13  1  0.101910  0.203821  0.250000  1
  Li  Li14  1  0.796179  0.898090  0.250000  1
  Li  Li15  1  0.898090  0.101910  0.750000  1
  Li  Li16  1  0.898090  0.796179  0.750000  1
  Li  Li17  1  0.203821  0.101910  0.750000  1
  Li  Li18  1  0.166188  0.833812  0.932829  1
  Li  Li19  1  0.166188  0.332377  0.932829  1
  Li  Li20  1  0.667623  0.833812  0.932829  1
  Li  Li21  1  0.833812  0.166188  0.067171  1
  Li  Li22  1  0.833812  0.667623  0.067171  1
  Li  Li23  1  0.332377  0.166188  0.067171  1
  Li  Li24  1  0.833812  0.166188  0.432829  1
  Li  Li25  1  0.833812  0.667623  0.432829  1
  Li  Li26  1  0.332377  0.166188  0.432829  1
  Li  Li27  1  0.166188  0.833812  0.567171  1
  Li  Li28  1  0.166188  0.332377  0.567171  1
  Li  Li29  1  0.667623  0.833812  0.567171  1
