# generated using pymatgen
data_PrErTm8(In2Pt)4
_symmetry_space_group_name_H-M   'P 1'
_cell_length_a   3.63024200
_cell_length_b   8.08582763
_cell_length_c   18.17695121
_cell_angle_alpha   89.83299983
_cell_angle_beta   90.00000000
_cell_angle_gamma   90.00000000
_symmetry_Int_Tables_number   1
_chemical_formula_structural   PrErTm8(In2Pt)4
_chemical_formula_sum   'Pr1 Er1 Tm8 In8 Pt4'
_cell_volume   533.55507196
_cell_formula_units_Z   1
loop_
 _symmetry_equiv_pos_site_id
 _symmetry_equiv_pos_as_xyz
  1  'x, y, z'
loop_
 _atom_site_type_symbol
 _atom_site_label
 _atom_site_symmetry_multiplicity
 _atom_site_fract_x
 _atom_site_fract_y
 _atom_site_fract_z
 _atom_site_occupancy
  Pr  Pr0  1  0.000000  0.000000  0.000000  1
  Er  Er1  1  0.000000  0.500000  0.500000  1
  Tm  Tm2  1  0.000000  0.116703  0.414452  1
  Tm  Tm3  1  0.000000  0.883297  0.585548  1
  Tm  Tm4  1  0.000000  0.379646  0.912994  1
  Tm  Tm5  1  0.000000  0.620354  0.087006  1
  Tm  Tm6  1  0.000000  0.243720  0.221723  1
  Tm  Tm7  1  0.000000  0.756280  0.778277  1
  Tm  Tm8  1  0.000000  0.257787  0.719141  1
  Tm  Tm9  1  0.000000  0.742213  0.280859  1
  In  In10  1  0.500000  0.422771  0.351975  1
  In  In11  1  0.500000  0.577229  0.648025  1
  In  In12  1  0.500000  0.078206  0.847293  1
  In  In13  1  0.500000  0.921794  0.152707  1
  In  In14  1  0.500000  0.301530  0.068534  1
  In  In15  1  0.500000  0.698470  0.931466  1
  In  In16  1  0.500000  0.207006  0.566105  1
  In  In17  1  0.500000  0.792994  0.433895  1
  Pt  Pt18  1  0.500000  0.024822  0.305279  1
  Pt  Pt19  1  0.500000  0.975178  0.694721  1
  Pt  Pt20  1  0.500000  0.474509  0.802589  1
  Pt  Pt21  1  0.500000  0.525491  0.197411  1
