# generated using pymatgen
data_Sc6Co2Ir3Rh
_symmetry_space_group_name_H-M   'P 1'
_cell_length_a   4.52455300
_cell_length_b   6.44733100
_cell_length_c   13.56714300
_cell_angle_alpha   90.00005200
_cell_angle_beta   89.99936668
_cell_angle_gamma   90.00012552
_symmetry_Int_Tables_number   1
_chemical_formula_structural   Sc6Co2Ir3Rh
_chemical_formula_sum   'Sc12 Co4 Ir6 Rh2'
_cell_volume   395.77107401
_cell_formula_units_Z   2
loop_
 _symmetry_equiv_pos_site_id
 _symmetry_equiv_pos_as_xyz
  1  'x, y, z'
loop_
 _atom_site_type_symbol
 _atom_site_label
 _atom_site_symmetry_multiplicity
 _atom_site_fract_x
 _atom_site_fract_y
 _atom_site_fract_z
 _atom_site_occupancy
  Sc  Sc0  1  0.500002  0.251440  0.997573  1
  Sc  Sc1  1  0.500002  0.748559  0.997574  1
  Sc  Sc2  1  0.999743  0.248509  0.169099  1
  Sc  Sc3  1  0.999741  0.751490  0.169098  1
  Sc  Sc4  1  0.499745  0.248258  0.336210  1
  Sc  Sc5  1  0.499743  0.751744  0.336209  1
  Sc  Sc6  1  0.999989  0.250035  0.500489  1
  Sc  Sc7  1  0.999991  0.749965  0.500490  1
  Sc  Sc8  1  0.500240  0.249992  0.666120  1
  Sc  Sc9  1  0.500243  0.750009  0.666118  1
  Sc  Sc10  1  0.000250  0.251711  0.830500  1
  Sc  Sc11  1  0.000250  0.748288  0.830501  1
  Co  Co12  1  0.999653  0.999998  0.333437  1
  Co  Co13  1  0.499999  0.500000  0.500151  1
  Co  Co14  1  0.000358  0.000000  0.666496  1
  Co  Co15  1  0.500354  0.499999  0.833230  1
  Ir  Ir16  1  0.999988  0.499999  0.998802  1
  Ir  Ir17  1  0.499727  0.000000  0.167913  1
  Ir  Ir18  1  0.999716  0.500001  0.335250  1
  Ir  Ir19  1  0.500002  0.000004  0.500790  1
  Ir  Ir20  1  0.000286  0.499998  0.665850  1
  Ir  Ir21  1  0.500263  0.000003  0.831374  1
  Rh  Rh22  1  0.000006  0.000000  0.999880  1
  Rh  Rh23  1  0.499705  0.500003  0.166846  1
