# generated using pymatgen
data_Na(CdPd)2
_symmetry_space_group_name_H-M   'P 1'
_cell_length_a   8.04129100
_cell_length_b   8.04129100
_cell_length_c   3.05364500
_cell_angle_alpha   90.00000000
_cell_angle_beta   90.00000000
_cell_angle_gamma   90.00000000
_symmetry_Int_Tables_number   1
_chemical_formula_structural   Na(CdPd)2
_chemical_formula_sum   'Na2 Cd4 Pd4'
_cell_volume   197.45589519
_cell_formula_units_Z   2
loop_
 _symmetry_equiv_pos_site_id
 _symmetry_equiv_pos_as_xyz
  1  'x, y, z'
loop_
 _atom_site_type_symbol
 _atom_site_label
 _atom_site_symmetry_multiplicity
 _atom_site_fract_x
 _atom_site_fract_y
 _atom_site_fract_z
 _atom_site_occupancy
  Na  Na0  1  0.000000  0.000000  0.000000  1
  Na  Na1  1  0.500001  0.500001  0.000000  1
  Cd  Cd2  1  0.337453  0.162548  0.500001  1
  Cd  Cd3  1  0.837452  0.337453  0.500001  1
  Cd  Cd4  1  0.162548  0.662547  0.500001  1
  Cd  Cd5  1  0.662547  0.837452  0.500001  1
  Pd  Pd6  1  0.632393  0.132392  0.000000  1
  Pd  Pd7  1  0.132392  0.367607  0.000000  1
  Pd  Pd8  1  0.867608  0.632393  0.000000  1
  Pd  Pd9  1  0.367607  0.867608  0.000000  1
