# generated using pymatgen
data_Na2SeOF4
_symmetry_space_group_name_H-M   'P 1'
_cell_length_a   7.01298354
_cell_length_b   8.63066261
_cell_length_c   8.63066287
_cell_angle_alpha   74.65771540
_cell_angle_beta   76.12922751
_cell_angle_gamma   76.12922565
_symmetry_Int_Tables_number   1
_chemical_formula_structural   Na2SeOF4
_chemical_formula_sum   'Na8 Se4 O4 F16'
_cell_volume   480.32871954
_cell_formula_units_Z   4
loop_
 _symmetry_equiv_pos_site_id
 _symmetry_equiv_pos_as_xyz
  1  'x, y, z'
loop_
 _atom_site_type_symbol
 _atom_site_label
 _atom_site_symmetry_multiplicity
 _atom_site_fract_x
 _atom_site_fract_y
 _atom_site_fract_z
 _atom_site_occupancy
  Na  Na0  1  0.634482  0.998765  0.791412  1
  Na  Na1  1  0.134482  0.791412  0.998765  1
  Na  Na2  1  0.365518  0.001235  0.208588  1
  Na  Na3  1  0.865518  0.208588  0.001235  1
  Na  Na4  1  0.977862  0.556761  0.760387  1
  Na  Na5  1  0.477862  0.760387  0.556761  1
  Na  Na6  1  0.022138  0.443239  0.239613  1
  Na  Na7  1  0.522138  0.239613  0.443239  1
  Se  Se8  1  0.915569  0.873906  0.393681  1
  Se  Se9  1  0.084431  0.126094  0.606319  1
  Se  Se10  1  0.584431  0.606319  0.126094  1
  Se  Se11  1  0.415569  0.393681  0.873906  1
  O  O12  1  0.044916  0.303185  0.651229  1
  O  O13  1  0.544916  0.651229  0.303185  1
  O  O14  1  0.455084  0.348771  0.696815  1
  O  O15  1  0.955084  0.696815  0.348771  1
  F  F16  1  0.278343  0.633931  0.788873  1
  F  F17  1  0.221657  0.211127  0.366069  1
  F  F18  1  0.721657  0.366069  0.211127  1
  F  F19  1  0.778343  0.788873  0.633931  1
  F  F20  1  0.630224  0.965240  0.343221  1
  F  F21  1  0.869776  0.656779  0.034760  1
  F  F22  1  0.130224  0.343221  0.965240  1
  F  F23  1  0.369776  0.034760  0.656779  1
  F  F24  1  0.957539  0.010809  0.834865  1
  F  F25  1  0.042461  0.989191  0.165135  1
  F  F26  1  0.457539  0.834865  0.010809  1
  F  F27  1  0.542461  0.165135  0.989191  1
  F  F28  1  0.182795  0.849286  0.457457  1
  F  F29  1  0.817205  0.150714  0.542543  1
  F  F30  1  0.682795  0.457457  0.849286  1
  F  F31  1  0.317205  0.542543  0.150714  1
