# generated using pymatgen
data_Tb2ThZnAu5
_symmetry_space_group_name_H-M   'P 1'
_cell_length_a   8.51366701
_cell_length_b   8.51366733
_cell_length_c   13.56574200
_cell_angle_alpha   90.00000000
_cell_angle_beta   90.00000000
_cell_angle_gamma   127.24314908
_symmetry_Int_Tables_number   1
_chemical_formula_structural   Tb2ThZnAu5
_chemical_formula_sum   'Tb8 Th4 Zn4 Au20'
_cell_volume   782.76343850
_cell_formula_units_Z   4
loop_
 _symmetry_equiv_pos_site_id
 _symmetry_equiv_pos_as_xyz
  1  'x, y, z'
loop_
 _atom_site_type_symbol
 _atom_site_label
 _atom_site_symmetry_multiplicity
 _atom_site_fract_x
 _atom_site_fract_y
 _atom_site_fract_z
 _atom_site_occupancy
  Tb  Tb0  1  0.630394  0.369606  0.460740  1
  Tb  Tb1  1  0.369606  0.630394  0.539260  1
  Tb  Tb2  1  0.630394  0.369606  0.039260  1
  Tb  Tb3  1  0.369606  0.630394  0.960740  1
  Tb  Tb4  1  0.882281  0.117719  0.951320  1
  Tb  Tb5  1  0.117719  0.882281  0.048680  1
  Tb  Tb6  1  0.882281  0.117719  0.548680  1
  Tb  Tb7  1  0.117719  0.882281  0.451320  1
  Th  Th8  1  0.930766  0.069234  0.250000  1
  Th  Th9  1  0.069234  0.930766  0.750000  1
  Th  Th10  1  0.319313  0.680687  0.250000  1
  Th  Th11  1  0.680687  0.319313  0.750000  1
  Zn  Zn12  1  0.718652  0.281348  0.250000  1
  Zn  Zn13  1  0.281348  0.718652  0.750000  1
  Zn  Zn14  1  0.534001  0.465999  0.250000  1
  Zn  Zn15  1  0.465999  0.534001  0.750000  1
  Au  Au16  1  0.318366  0.064734  0.250000  1
  Au  Au17  1  0.064734  0.318366  0.750000  1
  Au  Au18  1  0.681634  0.935266  0.750000  1
  Au  Au19  1  0.935266  0.681634  0.250000  1
  Au  Au20  1  0.569768  0.004509  0.398041  1
  Au  Au21  1  0.004509  0.569768  0.601959  1
  Au  Au22  1  0.569768  0.004509  0.101959  1
  Au  Au23  1  0.004509  0.569768  0.898041  1
  Au  Au24  1  0.430232  0.995491  0.601959  1
  Au  Au25  1  0.995491  0.430232  0.398041  1
  Au  Au26  1  0.430232  0.995491  0.898041  1
  Au  Au27  1  0.995491  0.430232  0.101959  1
  Au  Au28  1  0.685021  0.740273  0.396279  1
  Au  Au29  1  0.740273  0.685021  0.603721  1
  Au  Au30  1  0.685021  0.740273  0.103721  1
  Au  Au31  1  0.740273  0.685021  0.896279  1
  Au  Au32  1  0.314979  0.259727  0.603721  1
  Au  Au33  1  0.259727  0.314979  0.396279  1
  Au  Au34  1  0.314979  0.259727  0.896279  1
  Au  Au35  1  0.259727  0.314979  0.103721  1
