# generated using pymatgen
data_Sm4Dy4Re(B8Os)3
_symmetry_space_group_name_H-M   'P 1'
_cell_length_a   3.69556100
_cell_length_b   9.21483171
_cell_length_c   11.62619902
_cell_angle_alpha   90.09086844
_cell_angle_beta   90.00000000
_cell_angle_gamma   90.00000000
_symmetry_Int_Tables_number   1
_chemical_formula_structural   Sm4Dy4Re(B8Os)3
_chemical_formula_sum   'Sm4 Dy4 Re1 B24 Os3'
_cell_volume   395.91776585
_cell_formula_units_Z   1
loop_
 _symmetry_equiv_pos_site_id
 _symmetry_equiv_pos_as_xyz
  1  'x, y, z'
loop_
 _atom_site_type_symbol
 _atom_site_label
 _atom_site_symmetry_multiplicity
 _atom_site_fract_x
 _atom_site_fract_y
 _atom_site_fract_z
 _atom_site_occupancy
  Sm  Sm0  1  0.000000  0.323170  0.414693  1
  Sm  Sm1  1  0.000000  0.679186  0.587814  1
  Sm  Sm2  1  0.000000  0.822926  0.084048  1
  Sm  Sm3  1  0.000000  0.176237  0.913080  1
  Dy  Dy4  1  0.000000  0.943487  0.371566  1
  Dy  Dy5  1  0.000000  0.055733  0.627986  1
  Dy  Dy6  1  0.000000  0.442916  0.128091  1
  Dy  Dy7  1  0.000000  0.556566  0.872541  1
  Re  Re8  1  0.000000  0.861779  0.820603  1
  B  B9  1  0.500000  0.554933  0.431755  1
  B  B10  1  0.500000  0.445257  0.568683  1
  B  B11  1  0.500000  0.054624  0.068669  1
  B  B12  1  0.500000  0.946087  0.931615  1
  B  B13  1  0.500000  0.748530  0.418235  1
  B  B14  1  0.500000  0.251624  0.581526  1
  B  B15  1  0.500000  0.248229  0.082011  1
  B  B16  1  0.500000  0.751529  0.918006  1
  B  B17  1  0.500000  0.789747  0.266718  1
  B  B18  1  0.500000  0.209703  0.732548  1
  B  B19  1  0.500000  0.290273  0.233319  1
  B  B20  1  0.500000  0.709046  0.766683  1
  B  B21  1  0.500000  0.630661  0.185813  1
  B  B22  1  0.500000  0.368788  0.813837  1
  B  B23  1  0.500000  0.131403  0.314421  1
  B  B24  1  0.500000  0.868887  0.685945  1
  B  B25  1  0.500000  0.984851  0.213337  1
  B  B26  1  0.500000  0.016136  0.786551  1
  B  B27  1  0.500000  0.484593  0.287158  1
  B  B28  1  0.500000  0.515525  0.713511  1
  B  B29  1  0.500000  0.603846  0.029464  1
  B  B30  1  0.500000  0.394541  0.971290  1
  B  B31  1  0.500000  0.105388  0.470535  1
  B  B32  1  0.500000  0.895256  0.528361  1
  Os  Os33  1  0.000000  0.638120  0.320488  1
  Os  Os34  1  0.000000  0.361977  0.679075  1
  Os  Os35  1  0.000000  0.138447  0.180020  1
