# generated using pymatgen
data_Ba3Ti2IrO9
_symmetry_space_group_name_H-M   'P 1'
_cell_length_a   5.79159200
_cell_length_b   5.79159217
_cell_length_c   14.23624600
_cell_angle_alpha   90.00000000
_cell_angle_beta   90.00000000
_cell_angle_gamma   119.99999901
_symmetry_Int_Tables_number   1
_chemical_formula_structural   Ba3Ti2IrO9
_chemical_formula_sum   'Ba6 Ti4 Ir2 O18'
_cell_volume   413.54431220
_cell_formula_units_Z   2
loop_
 _symmetry_equiv_pos_site_id
 _symmetry_equiv_pos_as_xyz
  1  'x, y, z'
loop_
 _atom_site_type_symbol
 _atom_site_label
 _atom_site_symmetry_multiplicity
 _atom_site_fract_x
 _atom_site_fract_y
 _atom_site_fract_z
 _atom_site_occupancy
  Ba  Ba0  1  0.333333  0.666667  0.407235  1
  Ba  Ba1  1  0.666667  0.333333  0.907235  1
  Ba  Ba2  1  0.666667  0.333333  0.597488  1
  Ba  Ba3  1  0.333333  0.666667  0.097488  1
  Ba  Ba4  1  0.000000  0.000000  0.752588  1
  Ba  Ba5  1  0.000000  0.000000  0.252588  1
  Ti  Ti6  1  0.666667  0.333333  0.352111  1
  Ti  Ti7  1  0.333333  0.666667  0.852111  1
  Ti  Ti8  1  0.000000  0.000000  0.505353  1
  Ti  Ti9  1  0.000000  0.000000  0.005353  1
  Ir  Ir10  1  0.333333  0.666667  0.657328  1
  Ir  Ir11  1  0.666667  0.333333  0.157328  1
  O  O12  1  0.832747  0.167253  0.417110  1
  O  O13  1  0.832747  0.665493  0.417110  1
  O  O14  1  0.334507  0.167253  0.417110  1
  O  O15  1  0.665493  0.832747  0.917110  1
  O  O16  1  0.163264  0.326529  0.576591  1
  O  O17  1  0.167253  0.832747  0.917110  1
  O  O18  1  0.167253  0.334507  0.917110  1
  O  O19  1  0.836736  0.163264  0.076591  1
  O  O20  1  0.326529  0.163264  0.076591  1
  O  O21  1  0.673471  0.836736  0.576591  1
  O  O22  1  0.163264  0.836736  0.576591  1
  O  O23  1  0.836736  0.673471  0.076591  1
  O  O24  1  0.514877  0.029756  0.248931  1
  O  O25  1  0.485123  0.514877  0.748931  1
  O  O26  1  0.029756  0.514877  0.748931  1
  O  O27  1  0.970244  0.485123  0.248931  1
  O  O28  1  0.514877  0.485123  0.248931  1
  O  O29  1  0.485123  0.970244  0.748931  1
