# generated using pymatgen
data_HfZr7(Co4As3)4
_symmetry_space_group_name_H-M   'P 1'
_cell_length_a   12.55459139
_cell_length_b   12.55459106
_cell_length_c   3.78334700
_cell_angle_alpha   90.00000000
_cell_angle_beta   90.00000000
_cell_angle_gamma   119.97139869
_symmetry_Int_Tables_number   1
_chemical_formula_structural   HfZr7(Co4As3)4
_chemical_formula_sum   'Hf1 Zr7 Co16 As12'
_cell_volume   516.57936602
_cell_formula_units_Z   1
loop_
 _symmetry_equiv_pos_site_id
 _symmetry_equiv_pos_as_xyz
  1  'x, y, z'
loop_
 _atom_site_type_symbol
 _atom_site_label
 _atom_site_symmetry_multiplicity
 _atom_site_fract_x
 _atom_site_fract_y
 _atom_site_fract_z
 _atom_site_occupancy
  Hf  Hf0  1  0.442112  0.442112  0.000000  1
  Zr  Zr1  1  0.824626  0.824626  0.500000  1
  Zr  Zr2  1  0.000193  0.175259  0.500000  1
  Zr  Zr3  1  0.557241  0.999920  0.000000  1
  Zr  Zr4  1  0.333417  0.666627  0.000000  1
  Zr  Zr5  1  0.666627  0.333417  0.000000  1
  Zr  Zr6  1  0.999920  0.557241  0.000000  1
  Zr  Zr7  1  0.175259  0.000193  0.500000  1
  Co  Co8  1  0.626575  0.821384  0.000000  1
  Co  Co9  1  0.373713  0.196182  0.000000  1
  Co  Co10  1  0.999965  0.719652  0.500000  1
  Co  Co11  1  0.281581  0.281581  0.500000  1
  Co  Co12  1  0.876708  0.355860  0.500000  1
  Co  Co13  1  0.719652  0.999965  0.500000  1
  Co  Co14  1  0.821384  0.626575  0.000000  1
  Co  Co15  1  0.178368  0.804954  0.000000  1
  Co  Co16  1  0.355860  0.876708  0.500000  1
  Co  Co17  1  0.123811  0.479045  0.500000  1
  Co  Co18  1  0.642918  0.520137  0.500000  1
  Co  Co19  1  0.999985  0.999985  0.000000  1
  Co  Co20  1  0.520137  0.642918  0.500000  1
  Co  Co21  1  0.479045  0.123811  0.500000  1
  Co  Co22  1  0.196182  0.373713  0.000000  1
  Co  Co23  1  0.804954  0.178368  0.000000  1
  As  As24  1  0.000326  0.345488  0.000000  1
  As  As25  1  0.824835  0.515229  0.500000  1
  As  As26  1  0.689994  0.174934  0.500000  1
  As  As27  1  0.175868  0.175868  0.000000  1
  As  As28  1  0.653423  0.653423  0.000000  1
  As  As29  1  0.823943  0.999894  0.000000  1
  As  As30  1  0.515229  0.824835  0.500000  1
  As  As31  1  0.174934  0.689994  0.500000  1
  As  As32  1  0.345488  0.000326  0.000000  1
  As  As33  1  0.484991  0.310846  0.500000  1
  As  As34  1  0.999894  0.823943  0.000000  1
  As  As35  1  0.310846  0.484991  0.500000  1
