# generated using pymatgen
data_Ba3NdTc2O9
_symmetry_space_group_name_H-M   'P 1'
_cell_length_a   6.04780037
_cell_length_b   6.04780077
_cell_length_c   14.88593610
_cell_angle_alpha   90.43827895
_cell_angle_beta   90.43827988
_cell_angle_gamma   119.95304523
_symmetry_Int_Tables_number   1
_chemical_formula_structural   Ba3NdTc2O9
_chemical_formula_sum   'Ba6 Nd2 Tc4 O18'
_cell_volume   471.68953271
_cell_formula_units_Z   2
loop_
 _symmetry_equiv_pos_site_id
 _symmetry_equiv_pos_as_xyz
  1  'x, y, z'
loop_
 _atom_site_type_symbol
 _atom_site_label
 _atom_site_symmetry_multiplicity
 _atom_site_fract_x
 _atom_site_fract_y
 _atom_site_fract_z
 _atom_site_occupancy
  Ba  Ba0  1  0.335697  0.668582  0.103589  1
  Ba  Ba1  1  0.998430  0.001571  0.250000  1
  Ba  Ba2  1  0.331417  0.664302  0.396411  1
  Ba  Ba3  1  0.668583  0.335698  0.603589  1
  Ba  Ba4  1  0.001570  0.998429  0.750000  1
  Ba  Ba5  1  0.664303  0.331418  0.896411  1
  Nd  Nd6  1  0.000000  0.000000  0.000000  1
  Nd  Nd7  1  0.000000  0.000000  0.500000  1
  Tc  Tc8  1  0.675116  0.341925  0.165930  1
  Tc  Tc9  1  0.658076  0.324885  0.334070  1
  Tc  Tc10  1  0.341924  0.675115  0.665930  1
  Tc  Tc11  1  0.324884  0.658075  0.834070  1
  O  O12  1  0.375889  0.195866  0.085693  1
  O  O13  1  0.842381  0.196252  0.094025  1
  O  O14  1  0.840781  0.661957  0.099168  1
  O  O15  1  0.507480  0.018390  0.244311  1
  O  O16  1  0.508298  0.491703  0.250000  1
  O  O17  1  0.981609  0.492519  0.255689  1
  O  O18  1  0.338044  0.159220  0.400831  1
  O  O19  1  0.803749  0.157620  0.405975  1
  O  O20  1  0.804135  0.624112  0.414307  1
  O  O21  1  0.195865  0.375888  0.585693  1
  O  O22  1  0.196251  0.842380  0.594025  1
  O  O23  1  0.661956  0.840780  0.599169  1
  O  O24  1  0.018391  0.507481  0.744311  1
  O  O25  1  0.491702  0.508297  0.750000  1
  O  O26  1  0.492520  0.981610  0.755689  1
  O  O27  1  0.159219  0.338043  0.900831  1
  O  O28  1  0.157619  0.803748  0.905975  1
  O  O29  1  0.624111  0.804134  0.914307  1
