# generated using pymatgen
data_Dy3Lu5Sc12Si15Au
_symmetry_space_group_name_H-M   'P 1'
_cell_length_a   7.07707295
_cell_length_b   7.33555575
_cell_length_c   14.00431428
_cell_angle_alpha   89.91683127
_cell_angle_beta   89.45525387
_cell_angle_gamma   90.07593816
_symmetry_Int_Tables_number   1
_chemical_formula_structural   Dy3Lu5Sc12Si15Au
_chemical_formula_sum   'Dy3 Lu5 Sc12 Si15 Au1'
_cell_volume   726.98937959
_cell_formula_units_Z   1
loop_
 _symmetry_equiv_pos_site_id
 _symmetry_equiv_pos_as_xyz
  1  'x, y, z'
loop_
 _atom_site_type_symbol
 _atom_site_label
 _atom_site_symmetry_multiplicity
 _atom_site_fract_x
 _atom_site_fract_y
 _atom_site_fract_z
 _atom_site_occupancy
  Dy  Dy0  1  0.008936  0.173294  0.399874  1
  Dy  Dy1  1  0.508835  0.323403  0.401092  1
  Dy  Dy2  1  0.493219  0.677415  0.599966  1
  Lu  Lu3  1  0.011786  0.176026  0.096458  1
  Lu  Lu4  1  0.987899  0.824562  0.904442  1
  Lu  Lu5  1  0.487113  0.678462  0.903213  1
  Lu  Lu6  1  0.990707  0.827854  0.598726  1
  Lu  Lu7  1  0.511384  0.321994  0.095545  1
  Sc  Sc8  1  0.164545  0.502608  0.752483  1
  Sc  Sc9  1  0.835992  0.497914  0.249915  1
  Sc  Sc10  1  0.335696  0.000638  0.247805  1
  Sc  Sc11  1  0.666407  0.994958  0.751563  1
  Sc  Sc12  1  0.341197  0.174816  0.626811  1
  Sc  Sc13  1  0.663468  0.824649  0.372558  1
  Sc  Sc14  1  0.166031  0.673695  0.372055  1
  Sc  Sc15  1  0.668962  0.823960  0.123633  1
  Sc  Sc16  1  0.830240  0.326435  0.626817  1
  Sc  Sc17  1  0.329232  0.175255  0.876633  1
  Sc  Sc18  1  0.831894  0.321901  0.876537  1
  Sc  Sc19  1  0.167910  0.676624  0.124019  1
  Si  Si20  1  0.037076  0.116221  0.751741  1
  Si  Si21  1  0.963930  0.885556  0.247262  1
  Si  Si22  1  0.465506  0.613167  0.246678  1
  Si  Si23  1  0.536089  0.387211  0.754064  1
  Si  Si24  1  0.285476  0.872839  0.752750  1
  Si  Si25  1  0.711665  0.129063  0.246291  1
  Si  Si26  1  0.213534  0.368691  0.245380  1
  Si  Si27  1  0.789767  0.630171  0.754871  1
  Si  Si28  1  0.833362  0.540355  0.460503  1
  Si  Si29  1  0.336190  0.960673  0.461004  1
  Si  Si30  1  0.841864  0.534188  0.038861  1
  Si  Si31  1  0.664041  0.035920  0.538396  1
  Si  Si32  1  0.158006  0.465296  0.961808  1
  Si  Si33  1  0.658570  0.033852  0.960329  1
  Si  Si34  1  0.340464  0.965274  0.039424  1
  Au  Au35  1  0.163010  0.465058  0.540491  1
