# generated using pymatgen
data_Dy2Zn3Ag4
_symmetry_space_group_name_H-M   'P 1'
_cell_length_a   5.31471356
_cell_length_b   5.31471234
_cell_length_c   14.02536200
_cell_angle_alpha   90.00000000
_cell_angle_beta   90.00000000
_cell_angle_gamma   119.78078197
_symmetry_Int_Tables_number   1
_chemical_formula_structural   Dy2Zn3Ag4
_chemical_formula_sum   'Dy4 Zn6 Ag8'
_cell_volume   343.84242080
_cell_formula_units_Z   2
loop_
 _symmetry_equiv_pos_site_id
 _symmetry_equiv_pos_as_xyz
  1  'x, y, z'
loop_
 _atom_site_type_symbol
 _atom_site_label
 _atom_site_symmetry_multiplicity
 _atom_site_fract_x
 _atom_site_fract_y
 _atom_site_fract_z
 _atom_site_occupancy
  Dy  Dy0  1  0.819154  0.819154  0.119153  1
  Dy  Dy1  1  0.180846  0.180846  0.880847  1
  Dy  Dy2  1  0.819154  0.819154  0.380847  1
  Dy  Dy3  1  0.180846  0.180846  0.619153  1
  Zn  Zn4  1  0.172424  0.676537  0.750000  1
  Zn  Zn5  1  0.676537  0.172424  0.750000  1
  Zn  Zn6  1  0.677582  0.677582  0.750000  1
  Zn  Zn7  1  0.323463  0.827576  0.250000  1
  Zn  Zn8  1  0.827576  0.323463  0.250000  1
  Zn  Zn9  1  0.322418  0.322418  0.250000  1
  Ag  Ag10  1  0.161469  0.485069  0.078098  1
  Ag  Ag11  1  0.514931  0.838531  0.921902  1
  Ag  Ag12  1  0.485069  0.161469  0.078098  1
  Ag  Ag13  1  0.838531  0.514931  0.578098  1
  Ag  Ag14  1  0.485069  0.161469  0.421902  1
  Ag  Ag15  1  0.838531  0.514931  0.921902  1
  Ag  Ag16  1  0.514931  0.838531  0.578098  1
  Ag  Ag17  1  0.161469  0.485069  0.421902  1
