# generated using pymatgen
data_LaTb5TmMnBr12
_symmetry_space_group_name_H-M   'P 1'
_cell_length_a   9.36540782
_cell_length_b   9.39379568
_cell_length_c   9.11288460
_cell_angle_alpha   106.45778617
_cell_angle_beta   107.43510447
_cell_angle_gamma   106.88537901
_symmetry_Int_Tables_number   1
_chemical_formula_structural   LaTb5TmMnBr12
_chemical_formula_sum   'La1 Tb5 Tm1 Mn1 Br12'
_cell_volume   668.98525704
_cell_formula_units_Z   1
loop_
 _symmetry_equiv_pos_site_id
 _symmetry_equiv_pos_as_xyz
  1  'x, y, z'
loop_
 _atom_site_type_symbol
 _atom_site_label
 _atom_site_symmetry_multiplicity
 _atom_site_fract_x
 _atom_site_fract_y
 _atom_site_fract_z
 _atom_site_occupancy
  La  La0  1  0.594675  0.521178  0.790910  1
  Tb  Tb1  1  0.520798  0.805628  0.599924  1
  Tb  Tb2  1  0.809620  0.600857  0.524785  1
  Tb  Tb3  1  0.403233  0.477057  0.209931  1
  Tb  Tb4  1  0.478662  0.191191  0.398620  1
  Tb  Tb5  1  0.189727  0.398408  0.480707  1
  Tm  Tm6  1  0.000636  0.003326  0.996401  1
  Mn  Mn7  1  0.508181  0.499914  0.526268  1
  Br  Br8  1  0.567331  0.164652  0.713728  1
  Br  Br9  1  0.177868  0.717133  0.564183  1
  Br  Br10  1  0.714265  0.566233  0.180711  1
  Br  Br11  1  0.425954  0.809736  0.271946  1
  Br  Br12  1  0.818211  0.280209  0.424851  1
  Br  Br13  1  0.261319  0.423900  0.818326  1
  Br  Br14  1  0.680828  0.903227  0.968264  1
  Br  Br15  1  0.884330  0.961409  0.663205  1
  Br  Br16  1  0.979637  0.687583  0.890845  1
  Br  Br17  1  0.327610  0.120880  0.035434  1
  Br  Br18  1  0.115447  0.038354  0.328017  1
  Br  Br19  1  0.041667  0.329124  0.112942  1
