# generated using pymatgen
data_Ho4Er4Re(B8Os)3
_symmetry_space_group_name_H-M   'P 1'
_cell_length_a   3.64564900
_cell_length_b   9.11724759
_cell_length_c   11.49914100
_cell_angle_alpha   90.08255590
_cell_angle_beta   90.00000000
_cell_angle_gamma   90.00000000
_symmetry_Int_Tables_number   1
_chemical_formula_structural   Ho4Er4Re(B8Os)3
_chemical_formula_sum   'Ho4 Er4 Re1 B24 Os3'
_cell_volume   382.21132402
_cell_formula_units_Z   1
loop_
 _symmetry_equiv_pos_site_id
 _symmetry_equiv_pos_as_xyz
  1  'x, y, z'
loop_
 _atom_site_type_symbol
 _atom_site_label
 _atom_site_symmetry_multiplicity
 _atom_site_fract_x
 _atom_site_fract_y
 _atom_site_fract_z
 _atom_site_occupancy
  Ho  Ho0  1  0.000000  0.322125  0.414931  1
  Ho  Ho1  1  0.000000  0.680215  0.588063  1
  Ho  Ho2  1  0.000000  0.822395  0.083675  1
  Ho  Ho3  1  0.000000  0.176614  0.913230  1
  Er  Er4  1  0.000000  0.943457  0.371975  1
  Er  Er5  1  0.000000  0.055736  0.627694  1
  Er  Er6  1  0.000000  0.443113  0.127738  1
  Er  Er7  1  0.000000  0.556435  0.872789  1
  Re  Re8  1  0.000000  0.862317  0.821280  1
  B  B9  1  0.500000  0.553830  0.433319  1
  B  B10  1  0.500000  0.446240  0.566914  1
  B  B11  1  0.500000  0.053710  0.067190  1
  B  B12  1  0.500000  0.947096  0.933294  1
  B  B13  1  0.500000  0.748744  0.419546  1
  B  B14  1  0.500000  0.251309  0.580321  1
  B  B15  1  0.500000  0.248498  0.080593  1
  B  B16  1  0.500000  0.751156  0.919398  1
  B  B17  1  0.500000  0.790796  0.265943  1
  B  B18  1  0.500000  0.208832  0.733345  1
  B  B19  1  0.500000  0.291241  0.234067  1
  B  B20  1  0.500000  0.708164  0.765930  1
  B  B21  1  0.500000  0.630927  0.185214  1
  B  B22  1  0.500000  0.368674  0.814380  1
  B  B23  1  0.500000  0.131508  0.314915  1
  B  B24  1  0.500000  0.868840  0.685402  1
  B  B25  1  0.500000  0.983029  0.212743  1
  B  B26  1  0.500000  0.018019  0.787202  1
  B  B27  1  0.500000  0.482776  0.287657  1
  B  B28  1  0.500000  0.517181  0.712753  1
  B  B29  1  0.500000  0.605025  0.029745  1
  B  B30  1  0.500000  0.393543  0.970860  1
  B  B31  1  0.500000  0.106336  0.470244  1
  B  B32  1  0.500000  0.894175  0.528772  1
  Os  Os33  1  0.000000  0.637464  0.321342  1
  Os  Os34  1  0.000000  0.362518  0.678186  1
  Os  Os35  1  0.000000  0.137959  0.179347  1
