# generated using pymatgen
data_TbZr7(Si4W3)4
_symmetry_space_group_name_H-M   'P 1'
_cell_length_a   6.64172365
_cell_length_b   6.79370372
_cell_length_c   12.73442792
_cell_angle_alpha   89.90428602
_cell_angle_beta   90.03048982
_cell_angle_gamma   90.00311310
_symmetry_Int_Tables_number   1
_chemical_formula_structural   TbZr7(Si4W3)4
_chemical_formula_sum   'Tb1 Zr7 Si16 W12'
_cell_volume   574.60073341
_cell_formula_units_Z   1
loop_
 _symmetry_equiv_pos_site_id
 _symmetry_equiv_pos_as_xyz
  1  'x, y, z'
loop_
 _atom_site_type_symbol
 _atom_site_label
 _atom_site_symmetry_multiplicity
 _atom_site_fract_x
 _atom_site_fract_y
 _atom_site_fract_z
 _atom_site_occupancy
  Tb  Tb0  1  0.996837  0.831692  0.591127  1
  Zr  Zr1  1  0.496445  0.670248  0.591446  1
  Zr  Zr2  1  0.995143  0.828068  0.907798  1
  Zr  Zr3  1  0.505769  0.327547  0.092339  1
  Zr  Zr4  1  0.005735  0.174319  0.404264  1
  Zr  Zr5  1  0.506723  0.329087  0.406245  1
  Zr  Zr6  1  0.005692  0.171170  0.093000  1
  Zr  Zr7  1  0.494053  0.671129  0.910011  1
  Si  Si8  1  0.665983  0.959859  0.455326  1
  Si  Si9  1  0.166691  0.541421  0.043690  1
  Si  Si10  1  0.331836  0.041858  0.958205  1
  Si  Si11  1  0.832450  0.455150  0.542316  1
  Si  Si12  1  0.337727  0.044356  0.541729  1
  Si  Si13  1  0.833151  0.458329  0.957915  1
  Si  Si14  1  0.667172  0.958343  0.043062  1
  Si  Si15  1  0.167846  0.538838  0.454960  1
  Si  Si16  1  0.465786  0.380212  0.750720  1
  Si  Si17  1  0.964501  0.124312  0.752008  1
  Si  Si18  1  0.533022  0.618794  0.248830  1
  Si  Si19  1  0.034063  0.878349  0.250536  1
  Si  Si20  1  0.695893  0.858022  0.751592  1
  Si  Si21  1  0.202068  0.640057  0.751806  1
  Si  Si22  1  0.300797  0.139585  0.249234  1
  Si  Si23  1  0.798895  0.359742  0.248784  1
  W  W24  1  0.664320  0.165169  0.625383  1
  W  W25  1  0.169056  0.337901  0.876854  1
  W  W26  1  0.331814  0.836051  0.124241  1
  W  W27  1  0.829869  0.661686  0.374127  1
  W  W28  1  0.335489  0.835328  0.374872  1
  W  W29  1  0.831846  0.664090  0.124132  1
  W  W30  1  0.664940  0.164440  0.876868  1
  W  W31  1  0.167815  0.336882  0.624773  1
  W  W32  1  0.834171  0.505159  0.751896  1
  W  W33  1  0.334189  0.994893  0.751714  1
  W  W34  1  0.165822  0.490007  0.249612  1
  W  W35  1  0.666392  0.007903  0.248583  1
