# generated using pymatgen
data_Sc22CoIr6Ru
_symmetry_space_group_name_H-M   'P 1'
_cell_length_a   9.45044436
_cell_length_b   9.45044459
_cell_length_c   9.45044500
_cell_angle_alpha   60.00000205
_cell_angle_beta   60.00000127
_cell_angle_gamma   60.00000365
_symmetry_Int_Tables_number   1
_chemical_formula_structural   Sc22CoIr6Ru
_chemical_formula_sum   'Sc22 Co1 Ir6 Ru1'
_cell_volume   596.81778088
_cell_formula_units_Z   1
loop_
 _symmetry_equiv_pos_site_id
 _symmetry_equiv_pos_as_xyz
  1  'x, y, z'
loop_
 _atom_site_type_symbol
 _atom_site_label
 _atom_site_symmetry_multiplicity
 _atom_site_fract_x
 _atom_site_fract_y
 _atom_site_fract_z
 _atom_site_occupancy
  Sc  Sc0  1  0.803116  0.803116  0.196884  1
  Sc  Sc1  1  0.196884  0.803116  0.196884  1
  Sc  Sc2  1  0.803116  0.196884  0.196884  1
  Sc  Sc3  1  0.196884  0.196884  0.803116  1
  Sc  Sc4  1  0.803116  0.196884  0.803116  1
  Sc  Sc5  1  0.196884  0.803116  0.803116  1
  Sc  Sc6  1  0.615527  0.615527  0.153418  1
  Sc  Sc7  1  0.615527  0.153418  0.615527  1
  Sc  Sc8  1  0.153418  0.615527  0.615527  1
  Sc  Sc9  1  0.615527  0.615527  0.615527  1
  Sc  Sc10  1  0.384473  0.384473  0.846582  1
  Sc  Sc11  1  0.384473  0.846582  0.384473  1
  Sc  Sc12  1  0.846582  0.384473  0.384473  1
  Sc  Sc13  1  0.384473  0.384473  0.384473  1
  Sc  Sc14  1  0.842801  0.842801  0.471597  1
  Sc  Sc15  1  0.842801  0.471597  0.842801  1
  Sc  Sc16  1  0.471597  0.842801  0.842801  1
  Sc  Sc17  1  0.842801  0.842801  0.842801  1
  Sc  Sc18  1  0.157199  0.157199  0.528403  1
  Sc  Sc19  1  0.157199  0.528403  0.157199  1
  Sc  Sc20  1  0.528403  0.157199  0.157199  1
  Sc  Sc21  1  0.157199  0.157199  0.157199  1
  Co  Co22  1  0.500000  0.500000  0.500000  1
  Ir  Ir23  1  0.000000  0.000000  0.500000  1
  Ir  Ir24  1  0.500000  0.000000  0.500000  1
  Ir  Ir25  1  0.000000  0.500000  0.500000  1
  Ir  Ir26  1  0.500000  0.500000  0.000000  1
  Ir  Ir27  1  0.000000  0.500000  0.000000  1
  Ir  Ir28  1  0.500000  0.000000  0.000000  1
  Ru  Ru29  1  0.000000  0.000000  0.000000  1
