# generated using pymatgen
data_Tm12Cd2Fe3
_symmetry_space_group_name_H-M   'P 1'
_cell_length_a   8.18277926
_cell_length_b   8.18277906
_cell_length_c   8.18277906
_cell_angle_alpha   108.29212148
_cell_angle_beta   108.29212687
_cell_angle_gamma   111.85606180
_symmetry_Int_Tables_number   1
_chemical_formula_structural   Tm12Cd2Fe3
_chemical_formula_sum   'Tm12 Cd2 Fe3'
_cell_volume   421.22419265
_cell_formula_units_Z   1
loop_
 _symmetry_equiv_pos_site_id
 _symmetry_equiv_pos_as_xyz
  1  'x, y, z'
loop_
 _atom_site_type_symbol
 _atom_site_label
 _atom_site_symmetry_multiplicity
 _atom_site_fract_x
 _atom_site_fract_y
 _atom_site_fract_z
 _atom_site_occupancy
  Tm  Tm0  1  0.190458  0.427226  0.236768  1
  Tm  Tm1  1  0.809542  0.572774  0.763232  1
  Tm  Tm2  1  0.190458  0.953691  0.763232  1
  Tm  Tm3  1  0.953691  0.190458  0.763232  1
  Tm  Tm4  1  0.809542  0.046309  0.236768  1
  Tm  Tm5  1  0.046309  0.809542  0.236768  1
  Tm  Tm6  1  0.427226  0.190458  0.236768  1
  Tm  Tm7  1  0.572774  0.809542  0.763232  1
  Tm  Tm8  1  0.307912  0.307912  0.615823  1
  Tm  Tm9  1  0.692088  0.692088  0.384177  1
  Tm  Tm10  1  0.692088  0.307912  0.000000  1
  Tm  Tm11  1  0.307912  0.692088  0.000000  1
  Cd  Cd12  1  0.000000  0.500000  0.500000  1
  Cd  Cd13  1  0.500000  0.000000  0.500000  1
  Fe  Fe14  1  0.382833  0.382833  0.000000  1
  Fe  Fe15  1  0.617167  0.617167  0.000000  1
  Fe  Fe16  1  0.000000  0.000000  0.000000  1
