# generated using pymatgen
data_La2Be2Fe(GeO5)2
_symmetry_space_group_name_H-M   'P 1'
_cell_length_a   10.50017744
_cell_length_b   7.93022700
_cell_length_c   4.97605126
_cell_angle_alpha   90.00000000
_cell_angle_beta   90.33979762
_cell_angle_gamma   90.00000000
_symmetry_Int_Tables_number   1
_chemical_formula_structural   La2Be2Fe(GeO5)2
_chemical_formula_sum   'La4 Be4 Fe2 Ge4 O20'
_cell_volume   414.34248386
_cell_formula_units_Z   2
loop_
 _symmetry_equiv_pos_site_id
 _symmetry_equiv_pos_as_xyz
  1  'x, y, z'
loop_
 _atom_site_type_symbol
 _atom_site_label
 _atom_site_symmetry_multiplicity
 _atom_site_fract_x
 _atom_site_fract_y
 _atom_site_fract_z
 _atom_site_occupancy
  La  La0  1  0.324586  0.110940  0.995411  1
  La  La1  1  0.824586  0.389061  0.995411  1
  La  La2  1  0.175414  0.610939  0.004589  1
  La  La3  1  0.675414  0.889060  0.004589  1
  Be  Be4  1  0.159632  0.915330  0.463102  1
  Be  Be5  1  0.659632  0.584671  0.463102  1
  Be  Be6  1  0.840368  0.084670  0.536898  1
  Be  Be7  1  0.340367  0.415329  0.536900  1
  Fe  Fe8  1  0.000000  0.000000  0.000000  1
  Fe  Fe9  1  0.500000  0.499999  0.000000  1
  Ge  Ge10  1  0.078342  0.277985  0.483415  1
  Ge  Ge11  1  0.578341  0.222014  0.483415  1
  Ge  Ge12  1  0.421658  0.777986  0.516584  1
  Ge  Ge13  1  0.921658  0.722015  0.516585  1
  O  O14  1  0.840780  0.083135  0.215347  1
  O  O15  1  0.340780  0.416864  0.215349  1
  O  O16  1  0.027389  0.420741  0.237131  1
  O  O17  1  0.527389  0.079260  0.237132  1
  O  O18  1  0.293253  0.846903  0.311045  1
  O  O19  1  0.793253  0.653098  0.311045  1
  O  O20  1  0.138861  0.099454  0.305115  1
  O  O21  1  0.638861  0.400547  0.305115  1
  O  O22  1  0.048160  0.796063  0.312323  1
  O  O23  1  0.548160  0.703938  0.312324  1
  O  O24  1  0.451840  0.296062  0.687676  1
  O  O25  1  0.951840  0.203937  0.687676  1
  O  O26  1  0.361139  0.599453  0.694884  1
  O  O27  1  0.861139  0.900546  0.694884  1
  O  O28  1  0.206747  0.346902  0.688954  1
  O  O29  1  0.706747  0.153098  0.688954  1
  O  O30  1  0.472612  0.920740  0.762868  1
  O  O31  1  0.972612  0.579259  0.762868  1
  O  O32  1  0.159219  0.916865  0.784652  1
  O  O33  1  0.659219  0.583136  0.784653  1
