# generated using pymatgen
data_Be8V3Co
_symmetry_space_group_name_H-M   'P 1'
_cell_length_a   4.29182000
_cell_length_b   4.29181959
_cell_length_c   6.99369500
_cell_angle_alpha   89.99981183
_cell_angle_beta   90.00017022
_cell_angle_gamma   119.99942052
_symmetry_Int_Tables_number   1
_chemical_formula_structural   Be8V3Co
_chemical_formula_sum   'Be8 V3 Co1'
_cell_volume   111.56367543
_cell_formula_units_Z   1
loop_
 _symmetry_equiv_pos_site_id
 _symmetry_equiv_pos_as_xyz
  1  'x, y, z'
loop_
 _atom_site_type_symbol
 _atom_site_label
 _atom_site_symmetry_multiplicity
 _atom_site_fract_x
 _atom_site_fract_y
 _atom_site_fract_z
 _atom_site_occupancy
  Be  Be0  1  0.830020  0.660055  0.248492  1
  Be  Be1  1  0.169672  0.339360  0.751272  1
  Be  Be2  1  0.339938  0.169974  0.248492  1
  Be  Be3  1  0.830017  0.169976  0.248493  1
  Be  Be4  1  0.169672  0.830317  0.751272  1
  Be  Be5  1  0.660633  0.830320  0.751272  1
  Be  Be6  1  0.999990  0.999998  0.000086  1
  Be  Be7  1  0.999993  0.000000  0.496196  1
  V  V8  1  0.666660  0.333333  0.567831  1
  V  V9  1  0.666656  0.333332  0.937342  1
  V  V10  1  0.333326  0.666669  0.431727  1
  Co  Co11  1  0.333323  0.666667  0.067525  1
