# generated using pymatgen
data_Nd2Y4RhI10
_symmetry_space_group_name_H-M   'P 1'
_cell_length_a   7.80213168
_cell_length_b   9.78578412
_cell_length_c   9.83726254
_cell_angle_alpha   107.53293837
_cell_angle_beta   97.16710339
_cell_angle_gamma   104.24589024
_symmetry_Int_Tables_number   1
_chemical_formula_structural   Nd2Y4RhI10
_chemical_formula_sum   'Nd2 Y4 Rh1 I10'
_cell_volume   677.89415841
_cell_formula_units_Z   1
loop_
 _symmetry_equiv_pos_site_id
 _symmetry_equiv_pos_as_xyz
  1  'x, y, z'
loop_
 _atom_site_type_symbol
 _atom_site_label
 _atom_site_symmetry_multiplicity
 _atom_site_fract_x
 _atom_site_fract_y
 _atom_site_fract_z
 _atom_site_occupancy
  Nd  Nd0  1  0.531587  0.217985  0.415797  1
  Nd  Nd1  1  0.468413  0.782015  0.584203  1
  Y  Y2  1  0.148120  0.372784  0.331187  1
  Y  Y3  1  0.851880  0.627216  0.668813  1
  Y  Y4  1  0.613029  0.540029  0.256180  1
  Y  Y5  1  0.386971  0.459971  0.743820  1
  Rh  Rh6  1  0.500000  0.500000  0.500000  1
  I  I7  1  0.138393  0.047001  0.224021  1
  I  I8  1  0.861607  0.952999  0.775979  1
  I  I9  1  0.241794  0.412079  0.037718  1
  I  I10  1  0.758206  0.587921  0.962282  1
  I  I11  1  0.723876  0.245074  0.148877  1
  I  I12  1  0.276124  0.754926  0.851123  1
  I  I13  1  0.039613  0.679996  0.406632  1
  I  I14  1  0.960387  0.320004  0.593368  1
  I  I15  1  0.410120  0.132602  0.686283  1
  I  I16  1  0.589880  0.867398  0.313717  1
