# generated using pymatgen
data_LiCl37
_symmetry_space_group_name_H-M   'P 1'
_cell_length_a   12.78763379
_cell_length_b   13.76759013
_cell_length_c   12.98174600
_cell_angle_alpha   103.00376751
_cell_angle_beta   48.80056927
_cell_angle_gamma   81.50743368
_symmetry_Int_Tables_number   1
_chemical_formula_structural   LiCl37
_chemical_formula_sum   'Li1 Cl37'
_cell_volume   1533.02354663
_cell_formula_units_Z   1
loop_
 _symmetry_equiv_pos_site_id
 _symmetry_equiv_pos_as_xyz
  1  'x, y, z'
loop_
 _atom_site_type_symbol
 _atom_site_label
 _atom_site_symmetry_multiplicity
 _atom_site_fract_x
 _atom_site_fract_y
 _atom_site_fract_z
 _atom_site_occupancy
  Li  Li0  1  0.500000  0.000000  0.000000  1
  Cl  Cl1  1  0.776186  0.308455  0.165518  1
  Cl  Cl2  1  0.223814  0.691545  0.834482  1
  Cl  Cl3  1  0.715432  0.076227  0.362569  1
  Cl  Cl4  1  0.284568  0.923773  0.637431  1
  Cl  Cl5  1  0.095354  0.329053  0.156712  1
  Cl  Cl6  1  0.904646  0.670947  0.843288  1
  Cl  Cl7  1  0.864661  0.543580  0.250686  1
  Cl  Cl8  1  0.135339  0.456420  0.749314  1
  Cl  Cl9  1  0.674517  0.288903  0.538668  1
  Cl  Cl10  1  0.325483  0.711097  0.461332  1
  Cl  Cl11  1  0.033653  0.143295  0.521902  1
  Cl  Cl12  1  0.966347  0.856705  0.478098  1
  Cl  Cl13  1  0.982639  0.013475  0.278129  1
  Cl  Cl14  1  0.017361  0.986525  0.721871  1
  Cl  Cl15  1  0.946914  0.357990  0.627215  1
  Cl  Cl16  1  0.053086  0.642010  0.372785  1
  Cl  Cl17  1  0.585471  0.414561  0.242415  1
  Cl  Cl18  1  0.414529  0.585439  0.757585  1
  Cl  Cl19  1  0.162096  0.474349  0.276389  1
  Cl  Cl20  1  0.837904  0.525651  0.723611  1
  Cl  Cl21  1  0.000000  0.500000  0.000000  1
  Cl  Cl22  1  0.549313  0.932570  0.129810  1
  Cl  Cl23  1  0.450687  0.067430  0.870190  1
  Cl  Cl24  1  0.273691  0.046482  0.341789  1
  Cl  Cl25  1  0.726309  0.953518  0.658211  1
  Cl  Cl26  1  0.525627  0.108194  0.403946  1
  Cl  Cl27  1  0.474373  0.891806  0.596054  1
  Cl  Cl28  1  0.075590  0.204064  0.062078  1
  Cl  Cl29  1  0.924410  0.795936  0.937922  1
  Cl  Cl30  1  0.685055  0.697138  0.393944  1
  Cl  Cl31  1  0.314945  0.302862  0.606056  1
  Cl  Cl32  1  0.907724  0.124927  0.908861  1
  Cl  Cl33  1  0.092276  0.875073  0.091139  1
  Cl  Cl34  1  0.449943  0.185696  0.061003  1
  Cl  Cl35  1  0.550057  0.814304  0.938997  1
  Cl  Cl36  1  0.669246  0.423615  0.644631  1
  Cl  Cl37  1  0.330754  0.576385  0.355369  1
