# generated using pymatgen
data_NbTcWI6
_symmetry_space_group_name_H-M   'P 1'
_cell_length_a   10.89434276
_cell_length_b   10.89434379
_cell_length_c   12.86975400
_cell_angle_alpha   90.00000000
_cell_angle_beta   90.00000000
_cell_angle_gamma   108.21742235
_symmetry_Int_Tables_number   1
_chemical_formula_structural   NbTcWI6
_chemical_formula_sum   'Nb4 Tc4 W4 I24'
_cell_volume   1450.90756136
_cell_formula_units_Z   4
loop_
 _symmetry_equiv_pos_site_id
 _symmetry_equiv_pos_as_xyz
  1  'x, y, z'
loop_
 _atom_site_type_symbol
 _atom_site_label
 _atom_site_symmetry_multiplicity
 _atom_site_fract_x
 _atom_site_fract_y
 _atom_site_fract_z
 _atom_site_occupancy
  Nb  Nb0  1  0.431552  0.431552  0.366131  1
  Nb  Nb1  1  0.568448  0.568448  0.633869  1
  Nb  Nb2  1  0.068448  0.068448  0.866131  1
  Nb  Nb3  1  0.931552  0.931552  0.133869  1
  Tc  Tc4  1  0.889011  0.110989  0.000000  1
  Tc  Tc5  1  0.110989  0.889011  0.000000  1
  Tc  Tc6  1  0.610989  0.389011  0.500000  1
  Tc  Tc7  1  0.389011  0.610989  0.500000  1
  W  W8  1  0.132325  0.132325  0.066211  1
  W  W9  1  0.867675  0.867675  0.933789  1
  W  W10  1  0.367675  0.367675  0.566211  1
  W  W11  1  0.632325  0.632325  0.433789  1
  I  I12  1  0.728903  0.271097  0.000000  1
  I  I13  1  0.271097  0.728903  0.000000  1
  I  I14  1  0.771097  0.228903  0.500000  1
  I  I15  1  0.228903  0.771097  0.500000  1
  I  I16  1  0.955460  0.187397  0.202636  1
  I  I17  1  0.044540  0.812603  0.797364  1
  I  I18  1  0.544540  0.312603  0.702636  1
  I  I19  1  0.687397  0.455460  0.297364  1
  I  I20  1  0.455460  0.687397  0.297364  1
  I  I21  1  0.312603  0.544540  0.702636  1
  I  I22  1  0.812603  0.044540  0.797364  1
  I  I23  1  0.187397  0.955460  0.202636  1
  I  I24  1  0.343480  0.343480  0.151325  1
  I  I25  1  0.656520  0.656520  0.848675  1
  I  I26  1  0.156520  0.156520  0.651325  1
  I  I27  1  0.843480  0.843480  0.348675  1
  I  I28  1  0.910726  0.677402  0.063479  1
  I  I29  1  0.089274  0.322598  0.936521  1
  I  I30  1  0.589274  0.822598  0.563479  1
  I  I31  1  0.177402  0.410726  0.436521  1
  I  I32  1  0.410726  0.177402  0.436521  1
  I  I33  1  0.822598  0.589274  0.563479  1
  I  I34  1  0.322598  0.089274  0.936521  1
  I  I35  1  0.677402  0.910726  0.063479  1
