# generated using pymatgen
data_Tm8OsRuI8
_symmetry_space_group_name_H-M   'P 1'
_cell_length_a   11.26113822
_cell_length_b   11.26113951
_cell_length_c   6.11515900
_cell_angle_alpha   89.23450892
_cell_angle_beta   89.23451503
_cell_angle_gamma   88.66098793
_symmetry_Int_Tables_number   1
_chemical_formula_structural   Tm8OsRuI8
_chemical_formula_sum   'Tm8 Os1 Ru1 I8'
_cell_volume   775.13618987
_cell_formula_units_Z   1
loop_
 _symmetry_equiv_pos_site_id
 _symmetry_equiv_pos_as_xyz
  1  'x, y, z'
loop_
 _atom_site_type_symbol
 _atom_site_label
 _atom_site_symmetry_multiplicity
 _atom_site_fract_x
 _atom_site_fract_y
 _atom_site_fract_z
 _atom_site_occupancy
  Tm  Tm0  1  0.195981  0.917387  0.995610  1
  Tm  Tm1  1  0.804002  0.082600  0.004282  1
  Tm  Tm2  1  0.082613  0.804019  0.504390  1
  Tm  Tm3  1  0.917400  0.195998  0.495718  1
  Tm  Tm4  1  0.805738  0.922123  0.507180  1
  Tm  Tm5  1  0.194210  0.077852  0.492930  1
  Tm  Tm6  1  0.077877  0.194262  0.992820  1
  Tm  Tm7  1  0.922148  0.805790  0.007070  1
  Os  Os8  1  0.999754  0.000246  0.750000  1
  Ru  Ru9  1  0.000265  0.999735  0.250000  1
  I  I10  1  0.356987  0.848370  0.512890  1
  I  I11  1  0.643029  0.151632  0.487275  1
  I  I12  1  0.151630  0.643013  0.987110  1
  I  I13  1  0.848368  0.356971  0.012725  1
  I  I14  1  0.351963  0.145180  0.995572  1
  I  I15  1  0.648039  0.854826  0.004284  1
  I  I16  1  0.854820  0.648037  0.504428  1
  I  I17  1  0.145174  0.351961  0.495716  1
