# generated using pymatgen
data_Li4La3Y(Si2Sn)2
_symmetry_space_group_name_H-M   'P 1'
_cell_length_a   9.84768348
_cell_length_b   9.84769077
_cell_length_c   6.87993000
_cell_angle_alpha   90.00000000
_cell_angle_beta   90.00000000
_cell_angle_gamma   152.96287015
_symmetry_Int_Tables_number   1
_chemical_formula_structural   Li4La3Y(Si2Sn)2
_chemical_formula_sum   'Li4 La3 Y1 Si4 Sn2'
_cell_volume   303.28517515
_cell_formula_units_Z   1
loop_
 _symmetry_equiv_pos_site_id
 _symmetry_equiv_pos_as_xyz
  1  'x, y, z'
loop_
 _atom_site_type_symbol
 _atom_site_label
 _atom_site_symmetry_multiplicity
 _atom_site_fract_x
 _atom_site_fract_y
 _atom_site_fract_z
 _atom_site_occupancy
  Li  Li0  1  0.816196  0.183808  0.443308  1
  Li  Li1  1  0.183345  0.816652  0.557856  1
  Li  Li2  1  0.816196  0.183808  0.056692  1
  Li  Li3  1  0.183345  0.816652  0.942144  1
  La  La4  1  0.453327  0.546695  0.250000  1
  La  La5  1  0.348030  0.651961  0.750000  1
  La  La6  1  0.652216  0.347788  0.250000  1
  Y  Y7  1  0.546932  0.453062  0.750000  1
  Si  Si8  1  0.944299  0.055699  0.923878  1
  Si  Si9  1  0.057113  0.942886  0.071754  1
  Si  Si10  1  0.944299  0.055699  0.576122  1
  Si  Si11  1  0.057113  0.942886  0.428246  1
  Sn  Sn12  1  0.716694  0.283304  0.750000  1
  Sn  Sn13  1  0.280895  0.719099  0.250000  1
