# generated using pymatgen
data_La5PrHg10
_symmetry_space_group_name_H-M   'P 1'
_cell_length_a   6.64083408
_cell_length_b   6.64083468
_cell_length_c   10.76266800
_cell_angle_alpha   90.00000000
_cell_angle_beta   90.00000000
_cell_angle_gamma   106.28621452
_symmetry_Int_Tables_number   1
_chemical_formula_structural   La5PrHg10
_chemical_formula_sum   'La5 Pr1 Hg10'
_cell_volume   455.59497349
_cell_formula_units_Z   1
loop_
 _symmetry_equiv_pos_site_id
 _symmetry_equiv_pos_as_xyz
  1  'x, y, z'
loop_
 _atom_site_type_symbol
 _atom_site_label
 _atom_site_symmetry_multiplicity
 _atom_site_fract_x
 _atom_site_fract_y
 _atom_site_fract_z
 _atom_site_occupancy
  La  La0  1  0.593490  0.593490  0.250000  1
  La  La1  1  0.201751  0.798229  0.500060  1
  La  La2  1  0.201751  0.798229  0.999940  1
  La  La3  1  0.798229  0.201751  0.500060  1
  La  La4  1  0.798229  0.201751  0.999940  1
  Pr  Pr5  1  0.405996  0.405996  0.750000  1
  Hg  Hg6  1  0.001992  0.001992  0.250000  1
  Hg  Hg7  1  0.998745  0.998745  0.750000  1
  Hg  Hg8  1  0.304881  0.304881  0.035235  1
  Hg  Hg9  1  0.695267  0.695267  0.963821  1
  Hg  Hg10  1  0.304881  0.304881  0.464765  1
  Hg  Hg11  1  0.695267  0.695267  0.536179  1
  Hg  Hg12  1  0.487083  0.053591  0.250000  1
  Hg  Hg13  1  0.946566  0.512281  0.750000  1
  Hg  Hg14  1  0.512281  0.946566  0.750000  1
  Hg  Hg15  1  0.053591  0.487083  0.250000  1
