# generated using pymatgen
data_Y2Th(SnIr)3
_symmetry_space_group_name_H-M   'P 1'
_cell_length_a   7.55852200
_cell_length_b   7.46145960
_cell_length_c   4.06699100
_cell_angle_alpha   90.00000000
_cell_angle_beta   90.00000000
_cell_angle_gamma   120.43125886
_symmetry_Int_Tables_number   1
_chemical_formula_structural   Y2Th(SnIr)3
_chemical_formula_sum   'Y2 Th1 Sn3 Ir3'
_cell_volume   197.77016386
_cell_formula_units_Z   1
loop_
 _symmetry_equiv_pos_site_id
 _symmetry_equiv_pos_as_xyz
  1  'x, y, z'
loop_
 _atom_site_type_symbol
 _atom_site_label
 _atom_site_symmetry_multiplicity
 _atom_site_fract_x
 _atom_site_fract_y
 _atom_site_fract_z
 _atom_site_occupancy
  Y  Y0  1  0.999584  0.593648  0.500000  1
  Y  Y1  1  0.405936  0.406352  0.500000  1
  Th  Th2  1  0.586103  0.000000  0.500000  1
  Sn  Sn3  1  0.745531  0.733926  0.000000  1
  Sn  Sn4  1  0.011605  0.266074  0.000000  1
  Sn  Sn5  1  0.243824  0.000000  0.000000  1
  Ir  Ir6  1  0.347960  0.681830  0.000000  1
  Ir  Ir7  1  0.993328  0.000000  0.500000  1
  Ir  Ir8  1  0.666131  0.318170  0.000000  1
