# generated using pymatgen
data_Tb5ThH18
_symmetry_space_group_name_H-M   'P 1'
_cell_length_a   6.46000041
_cell_length_b   6.46093531
_cell_length_c   6.64744159
_cell_angle_alpha   89.99994865
_cell_angle_beta   89.95910111
_cell_angle_gamma   120.00470078
_symmetry_Int_Tables_number   1
_chemical_formula_structural   Tb5ThH18
_chemical_formula_sum   'Tb5 Th1 H18'
_cell_volume   240.26603382
_cell_formula_units_Z   1
loop_
 _symmetry_equiv_pos_site_id
 _symmetry_equiv_pos_as_xyz
  1  'x, y, z'
loop_
 _atom_site_type_symbol
 _atom_site_label
 _atom_site_symmetry_multiplicity
 _atom_site_fract_x
 _atom_site_fract_y
 _atom_site_fract_z
 _atom_site_occupancy
  Tb  Tb0  1  0.333634  0.333757  0.250124  1
  Tb  Tb1  1  0.666365  0.000122  0.249876  1
  Tb  Tb2  1  0.662268  0.665823  0.749666  1
  Tb  Tb3  1  0.000000  0.328896  0.750000  1
  Tb  Tb4  1  0.337731  0.003555  0.750334  1
  Th  Th5  1  0.000003  0.667406  0.249999  1
  H  H6  1  0.670354  0.665732  0.093891  1
  H  H7  1  0.331372  0.999455  0.095648  1
  H  H8  1  0.997098  0.334892  0.094455  1
  H  H9  1  0.341948  0.667168  0.242004  1
  H  H10  1  0.000000  0.009087  0.249999  1
  H  H11  1  0.658051  0.325219  0.257996  1
  H  H12  1  0.002901  0.337793  0.405545  1
  H  H13  1  0.668627  0.668083  0.404353  1
  H  H14  1  0.329646  0.995378  0.406108  1
  H  H15  1  0.669897  0.007494  0.591693  1
  H  H16  1  0.337281  0.328927  0.592138  1
  H  H17  1  0.993250  0.663767  0.596982  1
  H  H18  1  0.329790  0.665800  0.730955  1
  H  H19  1  0.000000  0.995878  0.750001  1
  H  H20  1  0.670209  0.336010  0.769045  1
  H  H21  1  0.006750  0.670517  0.903017  1
  H  H22  1  0.662720  0.991647  0.907862  1
  H  H23  1  0.330103  0.337596  0.908307  1
