# generated using pymatgen
data_YPa2(GaPd)3
_symmetry_space_group_name_H-M   'P 1'
_cell_length_a   7.18925311
_cell_length_b   7.18098172
_cell_length_c   4.03297500
_cell_angle_alpha   90.00000000
_cell_angle_beta   90.00000000
_cell_angle_gamma   119.96195164
_symmetry_Int_Tables_number   1
_chemical_formula_structural   YPa2(GaPd)3
_chemical_formula_sum   'Y1 Pa2 Ga3 Pd3'
_cell_volume   180.38072899
_cell_formula_units_Z   1
loop_
 _symmetry_equiv_pos_site_id
 _symmetry_equiv_pos_as_xyz
  1  'x, y, z'
loop_
 _atom_site_type_symbol
 _atom_site_label
 _atom_site_symmetry_multiplicity
 _atom_site_fract_x
 _atom_site_fract_y
 _atom_site_fract_z
 _atom_site_occupancy
  Y  Y0  1  0.000000  0.411376  0.000000  1
  Pa  Pa1  1  0.582843  0.584663  0.000000  1
  Pa  Pa2  1  0.417157  0.001820  0.000000  1
  Ga  Ga3  1  0.241535  0.247699  0.500000  1
  Ga  Ga4  1  0.758465  0.006164  0.500000  1
  Ga  Ga5  1  0.000000  0.748111  0.500000  1
  Pd  Pd6  1  0.000000  0.991183  0.000000  1
  Pd  Pd7  1  0.346982  0.677984  0.500000  1
  Pd  Pd8  1  0.653018  0.331001  0.500000  1
