# generated using pymatgen
data_Dy11(In3Sb2)2
_symmetry_space_group_name_H-M   'P 1'
_cell_length_a   11.75803430
_cell_length_b   11.75803584
_cell_length_c   11.75803400
_cell_angle_alpha   119.84409870
_cell_angle_beta   119.84410301
_cell_angle_gamma   90.27023878
_symmetry_Int_Tables_number   1
_chemical_formula_structural   Dy11(In3Sb2)2
_chemical_formula_sum   'Dy22 In12 Sb8'
_cell_volume   1152.14238976
_cell_formula_units_Z   2
loop_
 _symmetry_equiv_pos_site_id
 _symmetry_equiv_pos_as_xyz
  1  'x, y, z'
loop_
 _atom_site_type_symbol
 _atom_site_label
 _atom_site_symmetry_multiplicity
 _atom_site_fract_x
 _atom_site_fract_y
 _atom_site_fract_z
 _atom_site_occupancy
  Dy  Dy0  1  0.689783  0.941794  0.252011  1
  Dy  Dy1  1  0.689760  0.437823  0.748064  1
  Dy  Dy2  1  0.941719  0.689796  0.252099  1
  Dy  Dy3  1  0.437697  0.689796  0.748078  1
  Dy  Dy4  1  0.310217  0.058206  0.747989  1
  Dy  Dy5  1  0.310240  0.562177  0.251936  1
  Dy  Dy6  1  0.058281  0.310204  0.747901  1
  Dy  Dy7  1  0.562303  0.310204  0.251922  1
  Dy  Dy8  1  0.897671  0.229782  0.332110  1
  Dy  Dy9  1  0.897638  0.565490  0.667853  1
  Dy  Dy10  1  0.229777  0.897607  0.332190  1
  Dy  Dy11  1  0.565416  0.897607  0.667830  1
  Dy  Dy12  1  0.102329  0.770218  0.667890  1
  Dy  Dy13  1  0.102362  0.434510  0.332147  1
  Dy  Dy14  1  0.770223  0.102393  0.667810  1
  Dy  Dy15  1  0.434584  0.102393  0.332170  1
  Dy  Dy16  1  0.324052  0.323998  0.648086  1
  Dy  Dy17  1  0.675948  0.676002  0.351914  1
  Dy  Dy18  1  0.324088  0.676002  0.000053  1
  Dy  Dy19  1  0.675912  0.323998  0.999947  1
  Dy  Dy20  1  0.834685  0.834670  0.999985  1
  Dy  Dy21  1  0.165315  0.165330  0.000015  1
  In  In22  1  0.034493  0.034480  0.412877  1
  In  In23  1  0.621622  0.621622  0.587206  1
  In  In24  1  0.034415  0.621622  0.000000  1
  In  In25  1  0.621603  0.034480  0.999987  1
  In  In26  1  0.965507  0.965520  0.587123  1
  In  In27  1  0.378378  0.378378  0.412794  1
  In  In28  1  0.965585  0.378378  0.000000  1
  In  In29  1  0.378397  0.965520  0.000013  1
  In  In30  1  0.127634  0.127556  0.255187  1
  In  In31  1  0.872366  0.872444  0.744813  1
  In  In32  1  0.127631  0.872444  0.000078  1
  In  In33  1  0.872369  0.127556  0.999922  1
  Sb  Sb34  1  0.146763  0.500000  0.646763  1
  Sb  Sb35  1  0.853237  0.500000  0.353237  1
  Sb  Sb36  1  0.499957  0.853321  0.353364  1
  Sb  Sb37  1  0.500043  0.146679  0.646636  1
  Sb  Sb38  1  0.617941  0.617967  0.000027  1
  Sb  Sb39  1  0.382059  0.382033  0.999973  1
  Sb  Sb40  1  0.750037  0.250032  0.499995  1
  Sb  Sb41  1  0.249963  0.749968  0.500005  1
