# generated using pymatgen
data_YHo5Co14(P3Rh)4
_symmetry_space_group_name_H-M   'P 1'
_cell_length_a   3.72994400
_cell_length_b   10.67829700
_cell_length_c   12.40155500
_cell_angle_alpha   90.00000000
_cell_angle_beta   90.00000000
_cell_angle_gamma   90.00000000
_symmetry_Int_Tables_number   1
_chemical_formula_structural   YHo5Co14(P3Rh)4
_chemical_formula_sum   'Y1 Ho5 Co14 P12 Rh4'
_cell_volume   493.94711263
_cell_formula_units_Z   1
loop_
 _symmetry_equiv_pos_site_id
 _symmetry_equiv_pos_as_xyz
  1  'x, y, z'
loop_
 _atom_site_type_symbol
 _atom_site_label
 _atom_site_symmetry_multiplicity
 _atom_site_fract_x
 _atom_site_fract_y
 _atom_site_fract_z
 _atom_site_occupancy
  Y  Y0  1  0.500000  0.000000  0.479727  1
  Ho  Ho1  1  0.000000  0.500000  0.520424  1
  Ho  Ho2  1  0.500000  0.813917  0.205793  1
  Ho  Ho3  1  0.500000  0.186083  0.205793  1
  Ho  Ho4  1  0.000000  0.685977  0.794132  1
  Ho  Ho5  1  0.000000  0.314023  0.794132  1
  Co  Co6  1  0.000000  0.500000  0.988248  1
  Co  Co7  1  0.500000  0.000000  0.011604  1
  Co  Co8  1  0.500000  0.332256  0.993764  1
  Co  Co9  1  0.500000  0.667744  0.993764  1
  Co  Co10  1  0.000000  0.168007  0.006172  1
  Co  Co11  1  0.000000  0.831993  0.006172  1
  Co  Co12  1  0.500000  0.300536  0.429664  1
  Co  Co13  1  0.500000  0.699464  0.429664  1
  Co  Co14  1  0.000000  0.200192  0.570502  1
  Co  Co15  1  0.000000  0.799808  0.570502  1
  Co  Co16  1  0.500000  0.880169  0.710016  1
  Co  Co17  1  0.500000  0.119831  0.710016  1
  Co  Co18  1  0.000000  0.619642  0.290162  1
  Co  Co19  1  0.000000  0.380358  0.290162  1
  P  P20  1  0.500000  0.500000  0.889887  1
  P  P21  1  0.000000  0.000000  0.109976  1
  P  P22  1  0.500000  0.500000  0.350035  1
  P  P23  1  0.000000  0.000000  0.650624  1
  P  P24  1  0.500000  0.302276  0.613356  1
  P  P25  1  0.500000  0.697724  0.613356  1
  P  P26  1  0.000000  0.198133  0.386445  1
  P  P27  1  0.000000  0.801867  0.386445  1
  P  P28  1  0.500000  0.844388  0.894610  1
  P  P29  1  0.500000  0.155612  0.894610  1
  P  P30  1  0.000000  0.655401  0.105412  1
  P  P31  1  0.000000  0.344599  0.105412  1
  Rh  Rh32  1  0.500000  0.500000  0.160171  1
  Rh  Rh33  1  0.000000  0.000000  0.839990  1
  Rh  Rh34  1  0.500000  0.500000  0.703165  1
  Rh  Rh35  1  0.000000  0.000000  0.296098  1
