# generated using pymatgen
data_CaNbCo4As3
_symmetry_space_group_name_H-M   'P 1'
_cell_length_a   3.78574500
_cell_length_b   10.93394100
_cell_length_c   12.49532000
_cell_angle_alpha   90.00000000
_cell_angle_beta   90.00000000
_cell_angle_gamma   90.00000000
_symmetry_Int_Tables_number   1
_chemical_formula_structural   CaNbCo4As3
_chemical_formula_sum   'Ca4 Nb4 Co16 As12'
_cell_volume   517.22018612
_cell_formula_units_Z   4
loop_
 _symmetry_equiv_pos_site_id
 _symmetry_equiv_pos_as_xyz
  1  'x, y, z'
loop_
 _atom_site_type_symbol
 _atom_site_label
 _atom_site_symmetry_multiplicity
 _atom_site_fract_x
 _atom_site_fract_y
 _atom_site_fract_z
 _atom_site_occupancy
  Ca  Ca0  1  0.250000  0.581267  0.705098  1
  Ca  Ca1  1  0.250000  0.918733  0.205098  1
  Ca  Ca2  1  0.750000  0.418733  0.294902  1
  Ca  Ca3  1  0.750000  0.081267  0.794902  1
  Nb  Nb4  1  0.250000  0.702131  0.990751  1
  Nb  Nb5  1  0.250000  0.797869  0.490751  1
  Nb  Nb6  1  0.750000  0.297869  0.009249  1
  Nb  Nb7  1  0.750000  0.202131  0.509249  1
  Co  Co8  1  0.250000  0.403980  0.489824  1
  Co  Co9  1  0.250000  0.096020  0.989824  1
  Co  Co10  1  0.750000  0.596020  0.510176  1
  Co  Co11  1  0.750000  0.903980  0.010176  1
  Co  Co12  1  0.250000  0.217533  0.173188  1
  Co  Co13  1  0.250000  0.282467  0.673188  1
  Co  Co14  1  0.750000  0.782467  0.826812  1
  Co  Co15  1  0.750000  0.717533  0.326812  1
  Co  Co16  1  0.250000  0.884348  0.698807  1
  Co  Co17  1  0.250000  0.615652  0.198807  1
  Co  Co18  1  0.750000  0.115652  0.301193  1
  Co  Co19  1  0.750000  0.384348  0.801193  1
  Co  Co20  1  0.250000  0.464173  0.935688  1
  Co  Co21  1  0.250000  0.035827  0.435688  1
  Co  Co22  1  0.750000  0.535827  0.064312  1
  Co  Co23  1  0.750000  0.964173  0.564312  1
  As  As24  1  0.250000  0.421136  0.119758  1
  As  As25  1  0.250000  0.078864  0.619758  1
  As  As26  1  0.750000  0.578864  0.880242  1
  As  As27  1  0.750000  0.921136  0.380242  1
  As  As28  1  0.250000  0.266886  0.859397  1
  As  As29  1  0.250000  0.233114  0.359397  1
  As  As30  1  0.750000  0.733114  0.140603  1
  As  As31  1  0.750000  0.766886  0.640603  1
  As  As32  1  0.250000  0.589360  0.389106  1
  As  As33  1  0.250000  0.910640  0.889106  1
  As  As34  1  0.750000  0.410640  0.610894  1
  As  As35  1  0.750000  0.089360  0.110894  1
