# generated using pymatgen
data_TbZr(ZnRh2)2
_symmetry_space_group_name_H-M   'P 1'
_cell_length_a   6.07341600
_cell_length_b   6.07454000
_cell_length_c   7.06511500
_cell_angle_alpha   90.00000000
_cell_angle_beta   90.00013091
_cell_angle_gamma   90.00000000
_symmetry_Int_Tables_number   1
_chemical_formula_structural   TbZr(ZnRh2)2
_chemical_formula_sum   'Tb2 Zr2 Zn4 Rh8'
_cell_volume   260.65476027
_cell_formula_units_Z   2
loop_
 _symmetry_equiv_pos_site_id
 _symmetry_equiv_pos_as_xyz
  1  'x, y, z'
loop_
 _atom_site_type_symbol
 _atom_site_label
 _atom_site_symmetry_multiplicity
 _atom_site_fract_x
 _atom_site_fract_y
 _atom_site_fract_z
 _atom_site_occupancy
  Tb  Tb0  1  0.750091  0.249999  0.999999  1
  Tb  Tb1  1  0.249909  0.750000  0.000001  1
  Zr  Zr2  1  0.250070  0.750000  0.500000  1
  Zr  Zr3  1  0.749930  0.249999  0.499999  1
  Zn  Zn4  1  0.250001  0.249999  0.999996  1
  Zn  Zn5  1  0.749999  0.750000  0.000004  1
  Zn  Zn6  1  0.749994  0.750000  0.499966  1
  Zn  Zn7  1  0.250006  0.249999  0.500033  1
  Rh  Rh8  1  0.499945  0.000030  0.261597  1
  Rh  Rh9  1  0.499945  0.499967  0.261597  1
  Rh  Rh10  1  0.999970  0.999993  0.261691  1
  Rh  Rh11  1  0.999970  0.500006  0.261691  1
  Rh  Rh12  1  0.000031  0.000007  0.738309  1
  Rh  Rh13  1  0.000031  0.499995  0.738309  1
  Rh  Rh14  1  0.500055  0.999970  0.738403  1
  Rh  Rh15  1  0.500055  0.500034  0.738403  1
