# generated using pymatgen
data_Er3Tm7(OsRh)2
_symmetry_space_group_name_H-M   'P 1'
_cell_length_a   6.29863096
_cell_length_b   7.21577860
_cell_length_c   8.38406800
_cell_angle_alpha   96.75925250
_cell_angle_beta   112.05711424
_cell_angle_gamma   89.99762313
_symmetry_Int_Tables_number   1
_chemical_formula_structural   Er3Tm7(OsRh)2
_chemical_formula_sum   'Er3 Tm7 Os2 Rh2'
_cell_volume   350.30416859
_cell_formula_units_Z   1
loop_
 _symmetry_equiv_pos_site_id
 _symmetry_equiv_pos_as_xyz
  1  'x, y, z'
loop_
 _atom_site_type_symbol
 _atom_site_label
 _atom_site_symmetry_multiplicity
 _atom_site_fract_x
 _atom_site_fract_y
 _atom_site_fract_z
 _atom_site_occupancy
  Er  Er0  1  0.790836  0.081875  0.811880  1
  Er  Er1  1  0.978604  0.418039  0.187851  1
  Er  Er2  1  0.209917  0.915711  0.183741  1
  Tm  Tm3  1  0.026308  0.584651  0.816437  1
  Tm  Tm4  1  0.207450  0.183356  0.564554  1
  Tm  Tm5  1  0.643332  0.317381  0.435611  1
  Tm  Tm6  1  0.792562  0.813068  0.438279  1
  Tm  Tm7  1  0.354267  0.686176  0.562124  1
  Tm  Tm8  1  0.419613  0.250141  0.999715  1
  Tm  Tm9  1  0.576574  0.749945  0.999889  1
  Os  Os10  1  0.397710  0.574885  0.219430  1
  Os  Os11  1  0.178185  0.924805  0.779999  1
  Rh  Rh12  1  0.602484  0.424031  0.778929  1
  Rh  Rh13  1  0.822152  0.075935  0.221559  1
