# generated using pymatgen
data_Nd4Zn5Ga13Pt6
_symmetry_space_group_name_H-M   'P 1'
_cell_length_a   7.69237896
_cell_length_b   7.72657449
_cell_length_c   9.61841700
_cell_angle_alpha   89.99647026
_cell_angle_beta   90.02862413
_cell_angle_gamma   119.23880175
_symmetry_Int_Tables_number   1
_chemical_formula_structural   Nd4Zn5Ga13Pt6
_chemical_formula_sum   'Nd4 Zn5 Ga13 Pt6'
_cell_volume   498.84104281
_cell_formula_units_Z   1
loop_
 _symmetry_equiv_pos_site_id
 _symmetry_equiv_pos_as_xyz
  1  'x, y, z'
loop_
 _atom_site_type_symbol
 _atom_site_label
 _atom_site_symmetry_multiplicity
 _atom_site_fract_x
 _atom_site_fract_y
 _atom_site_fract_z
 _atom_site_occupancy
  Nd  Nd0  1  0.997104  0.672751  0.250600  1
  Nd  Nd1  1  0.003776  0.328547  0.749794  1
  Nd  Nd2  1  0.672985  0.998196  0.250552  1
  Nd  Nd3  1  0.326344  0.000729  0.749989  1
  Zn  Zn4  1  0.137883  0.142164  0.247765  1
  Zn  Zn5  1  0.860565  0.858817  0.750207  1
  Zn  Zn6  1  0.010778  0.337937  0.084095  1
  Zn  Zn7  1  0.339326  0.542889  0.247414  1
  Zn  Zn8  1  0.653504  0.453998  0.750427  1
  Ga  Ga9  1  0.990093  0.657445  0.917389  1
  Ga  Ga10  1  0.989182  0.661656  0.585810  1
  Ga  Ga11  1  0.333505  0.004079  0.414392  1
  Ga  Ga12  1  0.011077  0.337569  0.412426  1
  Ga  Ga13  1  0.667528  0.997628  0.584734  1
  Ga  Ga14  1  0.671933  0.002237  0.918444  1
  Ga  Ga15  1  0.334305  0.003265  0.084489  1
  Ga  Ga16  1  0.336774  0.333935  0.561288  1
  Ga  Ga17  1  0.662238  0.665557  0.437328  1
  Ga  Ga18  1  0.663676  0.666016  0.060395  1
  Ga  Ga19  1  0.330693  0.332416  0.943818  1
  Ga  Ga20  1  0.539650  0.344934  0.250021  1
  Ga  Ga21  1  0.462096  0.657176  0.750349  1
  Pt  Pt22  1  0.669935  0.325378  0.002570  1
  Pt  Pt23  1  0.332469  0.681073  0.995531  1
  Pt  Pt24  1  0.326800  0.674900  0.503515  1
  Pt  Pt25  1  0.674840  0.325831  0.496748  1
  Pt  Pt26  1  0.000133  0.993284  0.999835  1
  Pt  Pt27  1  0.000810  0.999593  0.500074  1
