# generated using pymatgen
data_Yb2PuIr2
_symmetry_space_group_name_H-M   'P 1'
_cell_length_a   5.78946981
_cell_length_b   5.78946889
_cell_length_c   5.78946928
_cell_angle_alpha   136.86776477
_cell_angle_beta   118.26981806
_cell_angle_gamma   78.26402361
_symmetry_Int_Tables_number   1
_chemical_formula_structural   Yb2PuIr2
_chemical_formula_sum   'Yb2 Pu1 Ir2'
_cell_volume   113.53901348
_cell_formula_units_Z   1
loop_
 _symmetry_equiv_pos_site_id
 _symmetry_equiv_pos_as_xyz
  1  'x, y, z'
loop_
 _atom_site_type_symbol
 _atom_site_label
 _atom_site_symmetry_multiplicity
 _atom_site_fract_x
 _atom_site_fract_y
 _atom_site_fract_z
 _atom_site_occupancy
  Yb  Yb0  1  0.697885  0.197886  0.499999  1
  Yb  Yb1  1  0.302114  0.802115  0.500001  1
  Pu  Pu2  1  0.000000  0.000000  0.000000  1
  Ir  Ir3  1  0.722480  0.500000  0.222480  1
  Ir  Ir4  1  0.277519  0.500001  0.777520  1
