# generated using pymatgen
data_Zr3Al3Pd2Ru
_symmetry_space_group_name_H-M   'P 1'
_cell_length_a   7.38372300
_cell_length_b   7.38372215
_cell_length_c   6.79021300
_cell_angle_alpha   90.00000000
_cell_angle_beta   90.00000000
_cell_angle_gamma   119.99999933
_symmetry_Int_Tables_number   1
_chemical_formula_structural   Zr3Al3Pd2Ru
_chemical_formula_sum   'Zr6 Al6 Pd4 Ru2'
_cell_volume   320.60092716
_cell_formula_units_Z   2
loop_
 _symmetry_equiv_pos_site_id
 _symmetry_equiv_pos_as_xyz
  1  'x, y, z'
loop_
 _atom_site_type_symbol
 _atom_site_label
 _atom_site_symmetry_multiplicity
 _atom_site_fract_x
 _atom_site_fract_y
 _atom_site_fract_z
 _atom_site_occupancy
  Zr  Zr0  1  0.741669  0.061138  0.000000  1
  Zr  Zr1  1  0.319470  0.258331  0.000000  1
  Zr  Zr2  1  0.938862  0.680530  0.000000  1
  Zr  Zr3  1  0.320456  0.258541  0.500000  1
  Zr  Zr4  1  0.741459  0.061915  0.500000  1
  Zr  Zr5  1  0.938085  0.679544  0.500000  1
  Al  Al6  1  0.597011  0.663365  0.749929  1
  Al  Al7  1  0.066354  0.402989  0.749929  1
  Al  Al8  1  0.336635  0.933646  0.749929  1
  Al  Al9  1  0.597011  0.663365  0.250071  1
  Al  Al10  1  0.066354  0.402989  0.250071  1
  Al  Al11  1  0.336635  0.933646  0.250071  1
  Pd  Pd12  1  0.333333  0.666667  0.000000  1
  Pd  Pd13  1  0.333333  0.666667  0.500000  1
  Pd  Pd14  1  0.666667  0.333333  0.751560  1
  Pd  Pd15  1  0.666667  0.333333  0.248440  1
  Ru  Ru16  1  0.000000  0.000000  0.250574  1
  Ru  Ru17  1  0.000000  0.000000  0.749426  1
