# generated using pymatgen
data_Er10Ga2Bi3Sb
_symmetry_space_group_name_H-M   'P 1'
_cell_length_a   8.76378900
_cell_length_b   8.86035386
_cell_length_c   6.39874800
_cell_angle_alpha   90.00000000
_cell_angle_beta   90.00000000
_cell_angle_gamma   119.88628483
_symmetry_Int_Tables_number   1
_chemical_formula_structural   Er10Ga2Bi3Sb
_chemical_formula_sum   'Er10 Ga2 Bi3 Sb1'
_cell_volume   430.78951383
_cell_formula_units_Z   1
loop_
 _symmetry_equiv_pos_site_id
 _symmetry_equiv_pos_as_xyz
  1  'x, y, z'
loop_
 _atom_site_type_symbol
 _atom_site_label
 _atom_site_symmetry_multiplicity
 _atom_site_fract_x
 _atom_site_fract_y
 _atom_site_fract_z
 _atom_site_occupancy
  Er  Er0  1  0.344122  0.691201  0.999005  1
  Er  Er1  1  0.655948  0.306804  0.501578  1
  Er  Er2  1  0.655948  0.306804  0.998422  1
  Er  Er3  1  0.344122  0.691201  0.500995  1
  Er  Er4  1  0.244784  0.000294  0.250000  1
  Er  Er5  1  0.757813  0.003050  0.750000  1
  Er  Er6  1  0.982367  0.228104  0.250000  1
  Er  Er7  1  0.756632  0.775256  0.250000  1
  Er  Er8  1  0.240911  0.226811  0.750000  1
  Er  Er9  1  0.018074  0.770369  0.750000  1
  Ga  Ga10  1  0.601017  0.999000  0.250000  1
  Ga  Ga11  1  0.397926  0.000780  0.750000  1
  Bi  Bi12  1  0.991515  0.604909  0.250000  1
  Bi  Bi13  1  0.388881  0.395864  0.250000  1
  Bi  Bi14  1  0.612554  0.605048  0.750000  1
  Sb  Sb15  1  0.007388  0.394503  0.750000  1
