# generated using pymatgen
data_Pr3Sc(Cu4P3)2
_symmetry_space_group_name_H-M   'P 1'
_cell_length_a   3.93237800
_cell_length_b   11.29731300
_cell_length_c   13.00373600
_cell_angle_alpha   90.00000000
_cell_angle_beta   90.00000000
_cell_angle_gamma   90.00000000
_symmetry_Int_Tables_number   1
_chemical_formula_structural   Pr3Sc(Cu4P3)2
_chemical_formula_sum   'Pr6 Sc2 Cu16 P12'
_cell_volume   577.69493924
_cell_formula_units_Z   2
loop_
 _symmetry_equiv_pos_site_id
 _symmetry_equiv_pos_as_xyz
  1  'x, y, z'
loop_
 _atom_site_type_symbol
 _atom_site_label
 _atom_site_symmetry_multiplicity
 _atom_site_fract_x
 _atom_site_fract_y
 _atom_site_fract_z
 _atom_site_occupancy
  Pr  Pr0  1  0.000000  0.500000  0.524615  1
  Pr  Pr1  1  0.500000  0.000000  0.475385  1
  Pr  Pr2  1  0.500000  0.820748  0.206768  1
  Pr  Pr3  1  0.500000  0.179252  0.206768  1
  Pr  Pr4  1  0.000000  0.679252  0.793232  1
  Pr  Pr5  1  0.000000  0.320748  0.793232  1
  Sc  Sc6  1  0.500000  0.500000  0.153263  1
  Sc  Sc7  1  0.000000  0.000000  0.846737  1
  Cu  Cu8  1  0.500000  0.500000  0.701698  1
  Cu  Cu9  1  0.000000  0.000000  0.298302  1
  Cu  Cu10  1  0.000000  0.500000  0.983495  1
  Cu  Cu11  1  0.500000  0.000000  0.016505  1
  Cu  Cu12  1  0.500000  0.331277  0.991142  1
  Cu  Cu13  1  0.500000  0.668723  0.991142  1
  Cu  Cu14  1  0.000000  0.168723  0.008858  1
  Cu  Cu15  1  0.000000  0.831277  0.008858  1
  Cu  Cu16  1  0.500000  0.293777  0.430221  1
  Cu  Cu17  1  0.500000  0.706223  0.430221  1
  Cu  Cu18  1  0.000000  0.206223  0.569779  1
  Cu  Cu19  1  0.000000  0.793777  0.569779  1
  Cu  Cu20  1  0.500000  0.879847  0.702413  1
  Cu  Cu21  1  0.500000  0.120153  0.702413  1
  Cu  Cu22  1  0.000000  0.620153  0.297587  1
  Cu  Cu23  1  0.000000  0.379847  0.297587  1
  P  P24  1  0.500000  0.500000  0.879462  1
  P  P25  1  0.000000  0.000000  0.120538  1
  P  P26  1  0.500000  0.500000  0.349535  1
  P  P27  1  0.000000  0.000000  0.650465  1
  P  P28  1  0.500000  0.317005  0.616178  1
  P  P29  1  0.500000  0.682995  0.616178  1
  P  P30  1  0.000000  0.182995  0.383822  1
  P  P31  1  0.000000  0.817005  0.383822  1
  P  P32  1  0.500000  0.843412  0.890057  1
  P  P33  1  0.500000  0.156588  0.890057  1
  P  P34  1  0.000000  0.656588  0.109943  1
  P  P35  1  0.000000  0.343412  0.109943  1
