# generated using pymatgen
data_ErLu2Bi5O14
_symmetry_space_group_name_H-M   'P 1'
_cell_length_a   6.58553377
_cell_length_b   6.70003124
_cell_length_c   7.74317121
_cell_angle_alpha   106.77722739
_cell_angle_beta   89.49287019
_cell_angle_gamma   99.07934747
_symmetry_Int_Tables_number   1
_chemical_formula_structural   ErLu2Bi5O14
_chemical_formula_sum   'Er1 Lu2 Bi5 O14'
_cell_volume   322.76947966
_cell_formula_units_Z   1
loop_
 _symmetry_equiv_pos_site_id
 _symmetry_equiv_pos_as_xyz
  1  'x, y, z'
loop_
 _atom_site_type_symbol
 _atom_site_label
 _atom_site_symmetry_multiplicity
 _atom_site_fract_x
 _atom_site_fract_y
 _atom_site_fract_z
 _atom_site_occupancy
  Er  Er0  1  0.264946  0.539078  0.885434  1
  Lu  Lu1  1  0.463641  0.003290  0.252797  1
  Lu  Lu2  1  0.536961  0.993280  0.751076  1
  Bi  Bi3  1  0.003061  0.007507  0.502816  1
  Bi  Bi4  1  0.004053  0.001380  0.999117  1
  Bi  Bi5  1  0.736442  0.473239  0.114011  1
  Bi  Bi6  1  0.721985  0.463063  0.615152  1
  Bi  Bi7  1  0.267311  0.530261  0.389396  1
  O  O8  1  0.448316  0.658192  0.165064  1
  O  O9  1  0.534215  0.336882  0.823119  1
  O  O10  1  0.307048  0.922488  0.949419  1
  O  O11  1  0.694985  0.052208  0.050982  1
  O  O12  1  0.304394  0.925334  0.516526  1
  O  O13  1  0.697418  0.077666  0.486279  1
  O  O14  1  0.530831  0.350730  0.347270  1
  O  O15  1  0.456915  0.647066  0.662535  1
  O  O16  1  0.938793  0.666129  0.953593  1
  O  O17  1  0.084559  0.328618  0.034377  1
  O  O18  1  0.093078  0.337241  0.627391  1
  O  O19  1  0.908461  0.678927  0.372674  1
  O  O20  1  0.869535  0.929858  0.732272  1
  O  O21  1  0.133052  0.077564  0.268701  1
