# generated using pymatgen
data_TmZr3(Si3Ni5)4
_symmetry_space_group_name_H-M   'P 1'
_cell_length_a   3.72467000
_cell_length_b   6.61980995
_cell_length_c   18.38679216
_cell_angle_alpha   90.11167320
_cell_angle_beta   90.00000000
_cell_angle_gamma   90.00000000
_symmetry_Int_Tables_number   1
_chemical_formula_structural   TmZr3(Si3Ni5)4
_chemical_formula_sum   'Tm1 Zr3 Si12 Ni20'
_cell_volume   453.35505645
_cell_formula_units_Z   1
loop_
 _symmetry_equiv_pos_site_id
 _symmetry_equiv_pos_as_xyz
  1  'x, y, z'
loop_
 _atom_site_type_symbol
 _atom_site_label
 _atom_site_symmetry_multiplicity
 _atom_site_fract_x
 _atom_site_fract_y
 _atom_site_fract_z
 _atom_site_occupancy
  Tm  Tm0  1  0.250000  0.878191  0.142903  1
  Zr  Zr1  1  0.250000  0.621471  0.643109  1
  Zr  Zr2  1  0.750000  0.379514  0.357676  1
  Zr  Zr3  1  0.750000  0.119628  0.856222  1
  Si  Si4  1  0.250000  0.852708  0.922808  1
  Si  Si5  1  0.750000  0.155907  0.075270  1
  Si  Si6  1  0.750000  0.351877  0.577512  1
  Si  Si7  1  0.250000  0.647959  0.424163  1
  Si  Si8  1  0.750000  0.621931  0.760273  1
  Si  Si9  1  0.250000  0.377267  0.240748  1
  Si  Si10  1  0.250000  0.405872  0.911492  1
  Si  Si11  1  0.750000  0.585706  0.084174  1
  Si  Si12  1  0.750000  0.906253  0.586322  1
  Si  Si13  1  0.250000  0.094262  0.415506  1
  Si  Si14  1  0.250000  0.121394  0.739024  1
  Si  Si15  1  0.750000  0.877085  0.262566  1
  Ni  Ni16  1  0.250000  0.133044  0.993861  1
  Ni  Ni17  1  0.750000  0.380308  0.983457  1
  Ni  Ni18  1  0.750000  0.120533  0.487698  1
  Ni  Ni19  1  0.250000  0.616960  0.011364  1
  Ni  Ni20  1  0.250000  0.359790  0.115820  1
  Ni  Ni21  1  0.750000  0.644652  0.884793  1
  Ni  Ni22  1  0.750000  0.857618  0.386626  1
  Ni  Ni23  1  0.250000  0.142257  0.614701  1
  Ni  Ni24  1  0.250000  0.070682  0.294912  1
  Ni  Ni25  1  0.750000  0.928912  0.707030  1
  Ni  Ni26  1  0.750000  0.569009  0.206375  1
  Ni  Ni27  1  0.250000  0.429877  0.791436  1
  Ni  Ni28  1  0.750000  0.629644  0.506102  1
  Ni  Ni29  1  0.250000  0.370688  0.495885  1
  Ni  Ni30  1  0.250000  0.817309  0.798791  1
  Ni  Ni31  1  0.750000  0.183837  0.201401  1
  Ni  Ni32  1  0.750000  0.316768  0.700544  1
  Ni  Ni33  1  0.250000  0.681491  0.300725  1
  Ni  Ni34  1  0.250000  0.879936  0.513788  1
  Ni  Ni35  1  0.750000  0.869658  0.004917  1
