# generated using pymatgen
data_Ba2Ho3Tm(Si3O10)2
_symmetry_space_group_name_H-M   'P 1'
_cell_length_a   12.32781571
_cell_length_b   5.44211661
_cell_length_c   6.88971820
_cell_angle_alpha   73.41046350
_cell_angle_beta   90.02735395
_cell_angle_gamma   90.03418322
_symmetry_Int_Tables_number   1
_chemical_formula_structural   Ba2Ho3Tm(Si3O10)2
_chemical_formula_sum   'Ba2 Ho3 Tm1 Si6 O20'
_cell_volume   442.98670346
_cell_formula_units_Z   1
loop_
 _symmetry_equiv_pos_site_id
 _symmetry_equiv_pos_as_xyz
  1  'x, y, z'
loop_
 _atom_site_type_symbol
 _atom_site_label
 _atom_site_symmetry_multiplicity
 _atom_site_fract_x
 _atom_site_fract_y
 _atom_site_fract_z
 _atom_site_occupancy
  Ba  Ba0  1  0.749903  0.760924  0.983384  1
  Ba  Ba1  1  0.250186  0.239084  0.016471  1
  Ho  Ho2  1  0.599449  0.154932  0.318200  1
  Ho  Ho3  1  0.900221  0.155061  0.317862  1
  Ho  Ho4  1  0.100027  0.844986  0.682086  1
  Tm  Tm5  1  0.400077  0.843655  0.682434  1
  Si  Si6  1  0.059839  0.695349  0.213448  1
  Si  Si7  1  0.250443  0.420895  0.487611  1
  Si  Si8  1  0.749977  0.579010  0.512784  1
  Si  Si9  1  0.440088  0.695945  0.212954  1
  Si  Si10  1  0.559260  0.304653  0.786434  1
  Si  Si11  1  0.940260  0.304564  0.786658  1
  O  O12  1  0.451072  0.895241  0.354458  1
  O  O13  1  0.143404  0.454837  0.337373  1
  O  O14  1  0.856770  0.545223  0.663277  1
  O  O15  1  0.356639  0.455300  0.336101  1
  O  O16  1  0.380747  0.839964  0.998938  1
  O  O17  1  0.880213  0.159889  0.999132  1
  O  O18  1  0.055303  0.439739  0.806212  1
  O  O19  1  0.951805  0.103627  0.647292  1
  O  O20  1  0.546678  0.102129  0.648118  1
  O  O21  1  0.250950  0.631621  0.615148  1
  O  O22  1  0.119797  0.840099  0.000891  1
  O  O23  1  0.555108  0.560601  0.193890  1
  O  O24  1  0.251069  0.124598  0.633281  1
  O  O25  1  0.643295  0.544483  0.663174  1
  O  O26  1  0.749974  0.874739  0.366667  1
  O  O27  1  0.944811  0.560287  0.193662  1
  O  O28  1  0.749955  0.368896  0.385161  1
  O  O29  1  0.444965  0.443214  0.805110  1
  O  O30  1  0.619460  0.160124  0.999011  1
  O  O31  1  0.048254  0.896333  0.352777  1
