# generated using pymatgen
data_Sc8MnCr(B12Rh)2
_symmetry_space_group_name_H-M   'P 1'
_cell_length_a   3.42596500
_cell_length_b   8.87364168
_cell_length_c   11.19141574
_cell_angle_alpha   89.90014553
_cell_angle_beta   90.00000000
_cell_angle_gamma   90.00000000
_symmetry_Int_Tables_number   1
_chemical_formula_structural   Sc8MnCr(B12Rh)2
_chemical_formula_sum   'Sc8 Mn1 Cr1 B24 Rh2'
_cell_volume   340.22731612
_cell_formula_units_Z   1
loop_
 _symmetry_equiv_pos_site_id
 _symmetry_equiv_pos_as_xyz
  1  'x, y, z'
loop_
 _atom_site_type_symbol
 _atom_site_label
 _atom_site_symmetry_multiplicity
 _atom_site_fract_x
 _atom_site_fract_y
 _atom_site_fract_z
 _atom_site_occupancy
  Sc  Sc0  1  0.000000  0.812071  0.090854  1
  Sc  Sc1  1  0.000000  0.187662  0.909858  1
  Sc  Sc2  1  0.000000  0.326485  0.418138  1
  Sc  Sc3  1  0.000000  0.674322  0.580703  1
  Sc  Sc4  1  0.000000  0.447866  0.129796  1
  Sc  Sc5  1  0.000000  0.553234  0.871954  1
  Sc  Sc6  1  0.000000  0.938531  0.373057  1
  Sc  Sc7  1  0.000000  0.058720  0.625804  1
  Mn  Mn8  1  0.000000  0.639978  0.318405  1
  Cr  Cr9  1  0.000000  0.360803  0.680545  1
  B  B10  1  0.500000  0.053673  0.064356  1
  B  B11  1  0.500000  0.946909  0.935894  1
  B  B12  1  0.500000  0.553695  0.432969  1
  B  B13  1  0.500000  0.447557  0.564978  1
  B  B14  1  0.500000  0.253431  0.078006  1
  B  B15  1  0.500000  0.747091  0.922624  1
  B  B16  1  0.500000  0.748557  0.419219  1
  B  B17  1  0.500000  0.249550  0.578960  1
  B  B18  1  0.500000  0.295187  0.237353  1
  B  B19  1  0.500000  0.705277  0.763330  1
  B  B20  1  0.500000  0.792040  0.264787  1
  B  B21  1  0.500000  0.206220  0.735694  1
  B  B22  1  0.500000  0.130186  0.319204  1
  B  B23  1  0.500000  0.869332  0.680879  1
  B  B24  1  0.500000  0.629983  0.184488  1
  B  B25  1  0.500000  0.370213  0.816860  1
  B  B26  1  0.500000  0.482306  0.288471  1
  B  B27  1  0.500000  0.520463  0.711754  1
  B  B28  1  0.500000  0.977927  0.213103  1
  B  B29  1  0.500000  0.021595  0.786885  1
  B  B30  1  0.500000  0.101659  0.471821  1
  B  B31  1  0.500000  0.896599  0.527370  1
  B  B32  1  0.500000  0.602444  0.028564  1
  B  B33  1  0.500000  0.398206  0.972632  1
  Rh  Rh34  1  0.000000  0.138970  0.179860  1
  Rh  Rh35  1  0.000000  0.861261  0.820824  1
