# generated using pymatgen
data_Mg2Fe3Ni7P6
_symmetry_space_group_name_H-M   'P 1'
_cell_length_a   3.61085800
_cell_length_b   10.19972400
_cell_length_c   11.78799100
_cell_angle_alpha   90.00000000
_cell_angle_beta   90.00000000
_cell_angle_gamma   90.00000000
_symmetry_Int_Tables_number   1
_chemical_formula_structural   Mg2Fe3Ni7P6
_chemical_formula_sum   'Mg4 Fe6 Ni14 P12'
_cell_volume   434.14882051
_cell_formula_units_Z   2
loop_
 _symmetry_equiv_pos_site_id
 _symmetry_equiv_pos_as_xyz
  1  'x, y, z'
loop_
 _atom_site_type_symbol
 _atom_site_label
 _atom_site_symmetry_multiplicity
 _atom_site_fract_x
 _atom_site_fract_y
 _atom_site_fract_z
 _atom_site_occupancy
  Mg  Mg0  1  0.250000  0.573366  0.708353  1
  Mg  Mg1  1  0.250000  0.926634  0.208353  1
  Mg  Mg2  1  0.750000  0.417951  0.291811  1
  Mg  Mg3  1  0.750000  0.082049  0.791811  1
  Fe  Fe4  1  0.750000  0.124392  0.296138  1
  Fe  Fe5  1  0.750000  0.375608  0.796138  1
  Fe  Fe6  1  0.250000  0.464704  0.930986  1
  Fe  Fe7  1  0.250000  0.035296  0.430986  1
  Fe  Fe8  1  0.750000  0.539914  0.073284  1
  Fe  Fe9  1  0.750000  0.960086  0.573284  1
  Ni  Ni10  1  0.250000  0.717432  0.998694  1
  Ni  Ni11  1  0.250000  0.782568  0.498694  1
  Ni  Ni12  1  0.750000  0.289143  0.008331  1
  Ni  Ni13  1  0.750000  0.210857  0.508331  1
  Ni  Ni14  1  0.250000  0.405354  0.474909  1
  Ni  Ni15  1  0.250000  0.094646  0.974909  1
  Ni  Ni16  1  0.750000  0.588534  0.519476  1
  Ni  Ni17  1  0.750000  0.911466  0.019476  1
  Ni  Ni18  1  0.250000  0.223846  0.168037  1
  Ni  Ni19  1  0.250000  0.276154  0.668037  1
  Ni  Ni20  1  0.750000  0.776350  0.827261  1
  Ni  Ni21  1  0.750000  0.723650  0.327261  1
  Ni  Ni22  1  0.250000  0.875283  0.705591  1
  Ni  Ni23  1  0.250000  0.624717  0.205591  1
  P  P24  1  0.250000  0.426800  0.112096  1
  P  P25  1  0.250000  0.073200  0.612096  1
  P  P26  1  0.750000  0.571578  0.886085  1
  P  P27  1  0.750000  0.928422  0.386085  1
  P  P28  1  0.250000  0.268808  0.860155  1
  P  P29  1  0.250000  0.231192  0.360155  1
  P  P30  1  0.750000  0.739861  0.135202  1
  P  P31  1  0.750000  0.760139  0.635202  1
  P  P32  1  0.250000  0.601189  0.393275  1
  P  P33  1  0.250000  0.898811  0.893275  1
  P  P34  1  0.750000  0.396923  0.610318  1
  P  P35  1  0.750000  0.103077  0.110318  1
