# generated using pymatgen
data_ErLu2Zr(Co5P3)4
_symmetry_space_group_name_H-M   'P 1'
_cell_length_a   3.62708200
_cell_length_b   10.22394709
_cell_length_c   11.68596869
_cell_angle_alpha   90.04625639
_cell_angle_beta   90.00000000
_cell_angle_gamma   90.00000000
_symmetry_Int_Tables_number   1
_chemical_formula_structural   ErLu2Zr(Co5P3)4
_chemical_formula_sum   'Er1 Lu2 Zr1 Co20 P12'
_cell_volume   433.35173988
_cell_formula_units_Z   1
loop_
 _symmetry_equiv_pos_site_id
 _symmetry_equiv_pos_as_xyz
  1  'x, y, z'
loop_
 _atom_site_type_symbol
 _atom_site_label
 _atom_site_symmetry_multiplicity
 _atom_site_fract_x
 _atom_site_fract_y
 _atom_site_fract_z
 _atom_site_occupancy
  Er  Er0  1  0.750000  0.417487  0.297162  1
  Lu  Lu1  1  0.250000  0.917613  0.202556  1
  Lu  Lu2  1  0.750000  0.082250  0.797158  1
  Zr  Zr3  1  0.250000  0.581758  0.701692  1
  Co  Co4  1  0.250000  0.718146  0.992652  1
  Co  Co5  1  0.250000  0.781786  0.492983  1
  Co  Co6  1  0.750000  0.282416  0.007150  1
  Co  Co7  1  0.750000  0.218191  0.508885  1
  Co  Co8  1  0.250000  0.409418  0.489705  1
  Co  Co9  1  0.250000  0.092500  0.986795  1
  Co  Co10  1  0.750000  0.593144  0.515249  1
  Co  Co11  1  0.750000  0.907384  0.012814  1
  Co  Co12  1  0.250000  0.221060  0.177001  1
  Co  Co13  1  0.250000  0.278525  0.677561  1
  Co  Co14  1  0.750000  0.776570  0.822372  1
  Co  Co15  1  0.750000  0.721306  0.323322  1
  Co  Co16  1  0.250000  0.881814  0.699694  1
  Co  Co17  1  0.250000  0.617602  0.198613  1
  Co  Co18  1  0.750000  0.116457  0.301207  1
  Co  Co19  1  0.750000  0.385128  0.799288  1
  Co  Co20  1  0.250000  0.468724  0.928798  1
  Co  Co21  1  0.250000  0.031734  0.431620  1
  Co  Co22  1  0.750000  0.533149  0.066981  1
  Co  Co23  1  0.750000  0.966529  0.569181  1
  P  P24  1  0.250000  0.418465  0.111154  1
  P  P25  1  0.250000  0.081070  0.613327  1
  P  P26  1  0.750000  0.581338  0.884858  1
  P  P27  1  0.750000  0.918325  0.387164  1
  P  P28  1  0.250000  0.268739  0.869996  1
  P  P29  1  0.250000  0.230436  0.371437  1
  P  P30  1  0.750000  0.731280  0.129907  1
  P  P31  1  0.750000  0.767602  0.631066  1
  P  P32  1  0.250000  0.601330  0.390615  1
  P  P33  1  0.250000  0.899554  0.890416  1
  P  P34  1  0.750000  0.400631  0.610056  1
  P  P35  1  0.750000  0.100539  0.109565  1
