# generated using pymatgen
data_Tb2Pa(Ni3As2)3
_symmetry_space_group_name_H-M   'P 1'
_cell_length_a   3.91018600
_cell_length_b   10.82387500
_cell_length_c   12.71529100
_cell_angle_alpha   90.00000000
_cell_angle_beta   90.00000000
_cell_angle_gamma   90.00000000
_symmetry_Int_Tables_number   1
_chemical_formula_structural   Tb2Pa(Ni3As2)3
_chemical_formula_sum   'Tb4 Pa2 Ni18 As12'
_cell_volume   538.15389560
_cell_formula_units_Z   2
loop_
 _symmetry_equiv_pos_site_id
 _symmetry_equiv_pos_as_xyz
  1  'x, y, z'
loop_
 _atom_site_type_symbol
 _atom_site_label
 _atom_site_symmetry_multiplicity
 _atom_site_fract_x
 _atom_site_fract_y
 _atom_site_fract_z
 _atom_site_occupancy
  Tb  Tb0  1  0.500000  0.814628  0.206854  1
  Tb  Tb1  1  0.500000  0.185372  0.206854  1
  Tb  Tb2  1  0.000000  0.685372  0.793146  1
  Tb  Tb3  1  0.000000  0.314628  0.793146  1
  Pa  Pa4  1  0.000000  0.500000  0.523442  1
  Pa  Pa5  1  0.500000  0.000000  0.476558  1
  Ni  Ni6  1  0.500000  0.500000  0.151303  1
  Ni  Ni7  1  0.000000  0.000000  0.848697  1
  Ni  Ni8  1  0.500000  0.500000  0.693048  1
  Ni  Ni9  1  0.000000  0.000000  0.306952  1
  Ni  Ni10  1  0.000000  0.500000  0.979924  1
  Ni  Ni11  1  0.500000  0.000000  0.020076  1
  Ni  Ni12  1  0.500000  0.333111  0.995562  1
  Ni  Ni13  1  0.500000  0.666889  0.995562  1
  Ni  Ni14  1  0.000000  0.166889  0.004438  1
  Ni  Ni15  1  0.000000  0.833111  0.004438  1
  Ni  Ni16  1  0.500000  0.304304  0.428666  1
  Ni  Ni17  1  0.500000  0.695696  0.428666  1
  Ni  Ni18  1  0.000000  0.195696  0.571334  1
  Ni  Ni19  1  0.000000  0.804304  0.571334  1
  Ni  Ni20  1  0.500000  0.880586  0.707830  1
  Ni  Ni21  1  0.500000  0.119414  0.707830  1
  Ni  Ni22  1  0.000000  0.619414  0.292170  1
  Ni  Ni23  1  0.000000  0.380586  0.292170  1
  As  As24  1  0.500000  0.500000  0.873527  1
  As  As25  1  0.000000  0.000000  0.126473  1
  As  As26  1  0.500000  0.500000  0.340427  1
  As  As27  1  0.000000  0.000000  0.659573  1
  As  As28  1  0.500000  0.309632  0.613684  1
  As  As29  1  0.500000  0.690368  0.613684  1
  As  As30  1  0.000000  0.190368  0.386316  1
  As  As31  1  0.000000  0.809632  0.386316  1
  As  As32  1  0.500000  0.848553  0.891742  1
  As  As33  1  0.500000  0.151447  0.891742  1
  As  As34  1  0.000000  0.651447  0.108258  1
  As  As35  1  0.000000  0.348553  0.108258  1
