# generated using pymatgen
data_Li3Dy3CdGeP
_symmetry_space_group_name_H-M   'P 1'
_cell_length_a   7.18521900
_cell_length_b   7.18521946
_cell_length_c   4.15312000
_cell_angle_alpha   90.00000000
_cell_angle_beta   90.00000000
_cell_angle_gamma   119.99999330
_symmetry_Int_Tables_number   1
_chemical_formula_structural   Li3Dy3CdGeP
_chemical_formula_sum   'Li3 Dy3 Cd1 Ge1 P1'
_cell_volume   185.68857678
_cell_formula_units_Z   1
loop_
 _symmetry_equiv_pos_site_id
 _symmetry_equiv_pos_as_xyz
  1  'x, y, z'
loop_
 _atom_site_type_symbol
 _atom_site_label
 _atom_site_symmetry_multiplicity
 _atom_site_fract_x
 _atom_site_fract_y
 _atom_site_fract_z
 _atom_site_occupancy
  Li  Li0  1  0.743646  0.745571  0.500000  1
  Li  Li1  1  0.254429  0.998074  0.500000  1
  Li  Li2  1  0.001926  0.256354  0.500000  1
  Dy  Dy3  1  0.435345  0.436715  0.000000  1
  Dy  Dy4  1  0.563285  0.998630  0.000000  1
  Dy  Dy5  1  0.001370  0.564655  0.000000  1
  Cd  Cd6  1  0.000000  0.000000  0.000000  1
  Ge  Ge7  1  0.666667  0.333333  0.500000  1
  P  P8  1  0.333333  0.666667  0.500000  1
