# generated using pymatgen
data_Rb6HoTmF12
_symmetry_space_group_name_H-M   'P 1'
_cell_length_a   6.85990598
_cell_length_b   6.61787907
_cell_length_c   11.50017900
_cell_angle_alpha   55.26956120
_cell_angle_beta   89.92437018
_cell_angle_gamma   90.02447731
_symmetry_Int_Tables_number   1
_chemical_formula_structural   Rb6HoTmF12
_chemical_formula_sum   'Rb6 Ho1 Tm1 F12'
_cell_volume   429.07066919
_cell_formula_units_Z   1
loop_
 _symmetry_equiv_pos_site_id
 _symmetry_equiv_pos_as_xyz
  1  'x, y, z'
loop_
 _atom_site_type_symbol
 _atom_site_label
 _atom_site_symmetry_multiplicity
 _atom_site_fract_x
 _atom_site_fract_y
 _atom_site_fract_z
 _atom_site_occupancy
  Rb  Rb0  1  0.500000  0.500000  0.000000  1
  Rb  Rb1  1  0.000000  0.500000  0.500000  1
  Rb  Rb2  1  0.049467  0.735245  0.750518  1
  Rb  Rb3  1  0.950533  0.264755  0.249482  1
  Rb  Rb4  1  0.549173  0.268828  0.744473  1
  Rb  Rb5  1  0.450827  0.731172  0.255527  1
  Ho  Ho6  1  0.000000  0.000000  0.000000  1
  Tm  Tm7  1  0.500000  0.000000  0.500000  1
  F  F8  1  0.758445  0.774462  0.562089  1
  F  F9  1  0.241555  0.225538  0.437911  1
  F  F10  1  0.262961  0.227842  0.933469  1
  F  F11  1  0.737039  0.772158  0.066531  1
  F  F12  1  0.451667  0.886751  0.714362  1
  F  F13  1  0.548333  0.113249  0.285638  1
  F  F14  1  0.948950  0.112042  0.783400  1
  F  F15  1  0.051050  0.887958  0.216600  1
  F  F16  1  0.328236  0.691526  0.543876  1
  F  F17  1  0.671764  0.308474  0.456124  1
  F  F18  1  0.829734  0.316174  0.953285  1
  F  F19  1  0.170266  0.683826  0.046715  1
