# generated using pymatgen
data_Y4Tm4Re3B24Rh
_symmetry_space_group_name_H-M   'P 1'
_cell_length_a   3.65980500
_cell_length_b   9.13133623
_cell_length_c   11.52277610
_cell_angle_alpha   90.14247925
_cell_angle_beta   90.00000000
_cell_angle_gamma   90.00000000
_symmetry_Int_Tables_number   1
_chemical_formula_structural   Y4Tm4Re3B24Rh
_chemical_formula_sum   'Y4 Tm4 Re3 B24 Rh1'
_cell_volume   385.07742634
_cell_formula_units_Z   1
loop_
 _symmetry_equiv_pos_site_id
 _symmetry_equiv_pos_as_xyz
  1  'x, y, z'
loop_
 _atom_site_type_symbol
 _atom_site_label
 _atom_site_symmetry_multiplicity
 _atom_site_fract_x
 _atom_site_fract_y
 _atom_site_fract_z
 _atom_site_occupancy
  Y  Y0  1  0.000000  0.317889  0.415531  1
  Y  Y1  1  0.000000  0.678634  0.590920  1
  Y  Y2  1  0.000000  0.826391  0.081639  1
  Y  Y3  1  0.000000  0.178081  0.912738  1
  Tm  Tm4  1  0.000000  0.943548  0.370231  1
  Tm  Tm5  1  0.000000  0.055785  0.628909  1
  Tm  Tm6  1  0.000000  0.441340  0.128753  1
  Tm  Tm7  1  0.000000  0.556637  0.871597  1
  Re  Re8  1  0.000000  0.361985  0.678471  1
  Re  Re9  1  0.000000  0.138854  0.180684  1
  Re  Re10  1  0.000000  0.861198  0.820157  1
  B  B11  1  0.500000  0.554227  0.433404  1
  B  B12  1  0.500000  0.446361  0.566921  1
  B  B13  1  0.500000  0.053859  0.066924  1
  B  B14  1  0.500000  0.946999  0.932235  1
  B  B15  1  0.500000  0.749915  0.419782  1
  B  B16  1  0.500000  0.249520  0.581311  1
  B  B17  1  0.500000  0.250371  0.081725  1
  B  B18  1  0.500000  0.750780  0.918551  1
  B  B19  1  0.500000  0.791469  0.265193  1
  B  B20  1  0.500000  0.207944  0.733983  1
  B  B21  1  0.500000  0.292276  0.235176  1
  B  B22  1  0.500000  0.707694  0.765958  1
  B  B23  1  0.500000  0.631069  0.183792  1
  B  B24  1  0.500000  0.370072  0.814517  1
  B  B25  1  0.500000  0.129983  0.315261  1
  B  B26  1  0.500000  0.869162  0.685024  1
  B  B27  1  0.500000  0.982539  0.212524  1
  B  B28  1  0.500000  0.017732  0.786361  1
  B  B29  1  0.500000  0.483049  0.287408  1
  B  B30  1  0.500000  0.518389  0.713000  1
  B  B31  1  0.500000  0.602126  0.028864  1
  B  B32  1  0.500000  0.399340  0.972751  1
  B  B33  1  0.500000  0.099571  0.471715  1
  B  B34  1  0.500000  0.896834  0.527574  1
  Rh  Rh35  1  0.000000  0.638378  0.320419  1
