# generated using pymatgen
data_Sc22CoRu5Rh2
_symmetry_space_group_name_H-M   'P 1'
_cell_length_a   9.44829807
_cell_length_b   9.44829692
_cell_length_c   9.44724400
_cell_angle_alpha   60.00368633
_cell_angle_beta   60.00369035
_cell_angle_gamma   59.99262002
_symmetry_Int_Tables_number   1
_chemical_formula_structural   Sc22CoRu5Rh2
_chemical_formula_sum   'Sc22 Co1 Ru5 Rh2'
_cell_volume   596.34451779
_cell_formula_units_Z   1
loop_
 _symmetry_equiv_pos_site_id
 _symmetry_equiv_pos_as_xyz
  1  'x, y, z'
loop_
 _atom_site_type_symbol
 _atom_site_label
 _atom_site_symmetry_multiplicity
 _atom_site_fract_x
 _atom_site_fract_y
 _atom_site_fract_z
 _atom_site_occupancy
  Sc  Sc0  1  0.802973  0.802973  0.197027  1
  Sc  Sc1  1  0.196770  0.803230  0.196770  1
  Sc  Sc2  1  0.803230  0.196770  0.196770  1
  Sc  Sc3  1  0.197027  0.197027  0.802973  1
  Sc  Sc4  1  0.803230  0.196770  0.803230  1
  Sc  Sc5  1  0.196770  0.803230  0.803230  1
  Sc  Sc6  1  0.615803  0.615803  0.154976  1
  Sc  Sc7  1  0.613419  0.154976  0.615803  1
  Sc  Sc8  1  0.154976  0.613419  0.615803  1
  Sc  Sc9  1  0.615803  0.615803  0.613419  1
  Sc  Sc10  1  0.384197  0.384197  0.845024  1
  Sc  Sc11  1  0.386581  0.845024  0.384197  1
  Sc  Sc12  1  0.845024  0.386581  0.384197  1
  Sc  Sc13  1  0.384197  0.384197  0.386581  1
  Sc  Sc14  1  0.842002  0.842002  0.471367  1
  Sc  Sc15  1  0.844627  0.471367  0.842002  1
  Sc  Sc16  1  0.471367  0.844627  0.842002  1
  Sc  Sc17  1  0.842002  0.842002  0.844627  1
  Sc  Sc18  1  0.157998  0.157998  0.528633  1
  Sc  Sc19  1  0.155373  0.528633  0.157998  1
  Sc  Sc20  1  0.528633  0.155373  0.157998  1
  Sc  Sc21  1  0.157998  0.157998  0.155373  1
  Co  Co22  1  0.500000  0.500000  0.500000  1
  Ru  Ru23  1  0.000000  0.000000  0.000000  1
  Ru  Ru24  1  0.500000  0.000000  0.500000  1
  Ru  Ru25  1  0.000000  0.500000  0.500000  1
  Ru  Ru26  1  0.000000  0.500000  0.000000  1
  Ru  Ru27  1  0.500000  0.000000  0.000000  1
  Rh  Rh28  1  0.000000  0.000000  0.500000  1
  Rh  Rh29  1  0.500000  0.500000  0.000000  1
