# generated using pymatgen
data_AcNO4
_symmetry_space_group_name_H-M   'P 1'
_cell_length_a   4.20426800
_cell_length_b   4.89008900
_cell_length_c   8.39645100
_cell_angle_alpha   90.00000000
_cell_angle_beta   90.00000000
_cell_angle_gamma   90.00000000
_symmetry_Int_Tables_number   1
_chemical_formula_structural   AcNO4
_chemical_formula_sum   'Ac2 N2 O8'
_cell_volume   172.62469072
_cell_formula_units_Z   2
loop_
 _symmetry_equiv_pos_site_id
 _symmetry_equiv_pos_as_xyz
  1  'x, y, z'
loop_
 _atom_site_type_symbol
 _atom_site_label
 _atom_site_symmetry_multiplicity
 _atom_site_fract_x
 _atom_site_fract_y
 _atom_site_fract_z
 _atom_site_occupancy
  Ac  Ac0  1  0.750000  0.750000  0.133496  1
  Ac  Ac1  1  0.250000  0.250000  0.866504  1
  N  N2  1  0.750000  0.750000  0.632011  1
  N  N3  1  0.250000  0.250000  0.367989  1
  O  O4  1  0.750000  0.750000  0.484507  1
  O  O5  1  0.250000  0.250000  0.515493  1
  O  O6  1  0.250000  0.750000  0.974563  1
  O  O7  1  0.750000  0.250000  0.025437  1
  O  O8  1  0.250000  0.473466  0.289423  1
  O  O9  1  0.250000  0.026534  0.289423  1
  O  O10  1  0.750000  0.526534  0.710577  1
  O  O11  1  0.750000  0.973466  0.710577  1
