# generated using pymatgen
data_MnCd2P6IN12
_symmetry_space_group_name_H-M   'P 1'
_cell_length_a   7.36622430
_cell_length_b   7.41335400
_cell_length_c   7.41335341
_cell_angle_alpha   110.77778400
_cell_angle_beta   109.39790336
_cell_angle_gamma   109.39788449
_symmetry_Int_Tables_number   1
_chemical_formula_structural   MnCd2P6IN12
_chemical_formula_sum   'Mn1 Cd2 P6 I1 N12'
_cell_volume   307.05296964
_cell_formula_units_Z   1
loop_
 _symmetry_equiv_pos_site_id
 _symmetry_equiv_pos_as_xyz
  1  'x, y, z'
loop_
 _atom_site_type_symbol
 _atom_site_label
 _atom_site_symmetry_multiplicity
 _atom_site_fract_x
 _atom_site_fract_y
 _atom_site_fract_z
 _atom_site_occupancy
  Mn  Mn0  1  0.451625  0.049460  0.049460  1
  Cd  Cd1  1  0.993608  0.340519  0.004519  1
  Cd  Cd2  1  0.993608  0.004519  0.340519  1
  P  P3  1  0.493066  0.262542  0.738817  1
  P  P4  1  0.259855  0.762010  0.517917  1
  P  P5  1  0.744874  0.498883  0.250699  1
  P  P6  1  0.744874  0.250699  0.498883  1
  P  P7  1  0.493066  0.738817  0.262542  1
  P  P8  1  0.259855  0.517917  0.762010  1
  I  I9  1  0.983344  0.940625  0.940625  1
  N  N10  1  0.423522  0.712581  0.436955  1
  N  N11  1  0.640147  0.347959  0.347959  1
  N  N12  1  0.423522  0.436955  0.712581  1
  N  N13  1  0.716650  0.303660  0.714918  1
  N  N14  1  0.000182  0.567132  0.310276  1
  N  N15  1  0.281659  0.567044  0.004607  1
  N  N16  1  0.281659  0.004607  0.567044  1
  N  N17  1  0.000182  0.310276  0.567132  1
  N  N18  1  0.716650  0.714918  0.303660  1
  N  N19  1  0.574006  0.987648  0.286421  1
  N  N20  1  0.310035  0.754801  0.754801  1
  N  N21  1  0.574006  0.286421  0.987648  1
