# generated using pymatgen
data_Mg(TcO4)2
_symmetry_space_group_name_H-M   'P 1'
_cell_length_a   5.80325100
_cell_length_b   5.80328844
_cell_length_c   6.62647200
_cell_angle_alpha   89.99756211
_cell_angle_beta   89.99777985
_cell_angle_gamma   119.99994481
_symmetry_Int_Tables_number   1
_chemical_formula_structural   Mg(TcO4)2
_chemical_formula_sum   'Mg1 Tc2 O8'
_cell_volume   193.26746544
_cell_formula_units_Z   1
loop_
 _symmetry_equiv_pos_site_id
 _symmetry_equiv_pos_as_xyz
  1  'x, y, z'
loop_
 _atom_site_type_symbol
 _atom_site_label
 _atom_site_symmetry_multiplicity
 _atom_site_fract_x
 _atom_site_fract_y
 _atom_site_fract_z
 _atom_site_occupancy
  Mg  Mg0  1  0.999982  0.000000  0.000000  1
  Tc  Tc1  1  0.333274  0.666623  0.269523  1
  Tc  Tc2  1  0.666690  0.333377  0.730477  1
  O  O3  1  0.170478  0.831001  0.181296  1
  O  O4  1  0.168886  0.339444  0.181328  1
  O  O5  1  0.333294  0.666642  0.528690  1
  O  O6  1  0.339523  0.170589  0.818735  1
  O  O7  1  0.660440  0.829407  0.181264  1
  O  O8  1  0.666672  0.333358  0.471310  1
  O  O9  1  0.831074  0.660555  0.818673  1
  O  O10  1  0.829489  0.169003  0.818704  1
