# generated using pymatgen
data_Tb6TcIr
_symmetry_space_group_name_H-M   'P 1'
_cell_length_a   6.37104900
_cell_length_b   7.35860200
_cell_length_c   9.27752500
_cell_angle_alpha   90.00000000
_cell_angle_beta   90.00000000
_cell_angle_gamma   90.00000000
_symmetry_Int_Tables_number   1
_chemical_formula_structural   Tb6TcIr
_chemical_formula_sum   'Tb12 Tc2 Ir2'
_cell_volume   434.94905613
_cell_formula_units_Z   2
loop_
 _symmetry_equiv_pos_site_id
 _symmetry_equiv_pos_as_xyz
  1  'x, y, z'
loop_
 _atom_site_type_symbol
 _atom_site_label
 _atom_site_symmetry_multiplicity
 _atom_site_fract_x
 _atom_site_fract_y
 _atom_site_fract_z
 _atom_site_occupancy
  Tb  Tb0  1  0.328152  0.676969  0.066860  1
  Tb  Tb1  1  0.171848  0.176969  0.433140  1
  Tb  Tb2  1  0.667729  0.323597  0.561199  1
  Tb  Tb3  1  0.832271  0.823597  0.938801  1
  Tb  Tb4  1  0.667729  0.323597  0.938801  1
  Tb  Tb5  1  0.832271  0.823597  0.561199  1
  Tb  Tb6  1  0.328152  0.676969  0.433140  1
  Tb  Tb7  1  0.171848  0.176969  0.066860  1
  Tb  Tb8  1  0.870791  0.538093  0.250000  1
  Tb  Tb9  1  0.629209  0.038093  0.250000  1
  Tb  Tb10  1  0.136801  0.459183  0.750000  1
  Tb  Tb11  1  0.363199  0.959183  0.750000  1
  Tc  Tc12  1  0.036748  0.886058  0.250000  1
  Tc  Tc13  1  0.463252  0.386058  0.250000  1
  Ir  Ir14  1  0.951482  0.115533  0.750000  1
  Ir  Ir15  1  0.548518  0.615533  0.750000  1
