# generated using pymatgen
data_CePrU2(NbN2)4
_symmetry_space_group_name_H-M   'P 1'
_cell_length_a   3.31507600
_cell_length_b   5.76524105
_cell_length_c   11.05076008
_cell_angle_alpha   89.98223181
_cell_angle_beta   90.00000000
_cell_angle_gamma   90.00000000
_symmetry_Int_Tables_number   1
_chemical_formula_structural   CePrU2(NbN2)4
_chemical_formula_sum   'Ce1 Pr1 U2 Nb4 N8'
_cell_volume   211.20446182
_cell_formula_units_Z   1
loop_
 _symmetry_equiv_pos_site_id
 _symmetry_equiv_pos_as_xyz
  1  'x, y, z'
loop_
 _atom_site_type_symbol
 _atom_site_label
 _atom_site_symmetry_multiplicity
 _atom_site_fract_x
 _atom_site_fract_y
 _atom_site_fract_z
 _atom_site_occupancy
  Ce  Ce0  1  0.750000  0.423559  0.141842  1
  Pr  Pr1  1  0.250000  0.579318  0.856100  1
  U  U2  1  0.750000  0.923034  0.359549  1
  U  U3  1  0.250000  0.078819  0.641681  1
  Nb  Nb4  1  0.250000  0.922448  0.102871  1
  Nb  Nb5  1  0.750000  0.075750  0.900737  1
  Nb  Nb6  1  0.750000  0.576523  0.597522  1
  Nb  Nb7  1  0.250000  0.424443  0.400572  1
  N  N8  1  0.250000  0.668305  0.252247  1
  N  N9  1  0.750000  0.323434  0.743017  1
  N  N10  1  0.750000  0.851184  0.736622  1
  N  N11  1  0.250000  0.151731  0.262234  1
  N  N12  1  0.250000  0.765754  0.505230  1
  N  N13  1  0.750000  0.234420  0.493970  1
  N  N14  1  0.750000  0.754675  0.009863  1
  N  N15  1  0.250000  0.246604  0.995945  1
