# generated using pymatgen
data_Y4Al16SiGeIr6
_symmetry_space_group_name_H-M   'P 1'
_cell_length_a   7.55486400
_cell_length_b   7.55486490
_cell_length_c   9.40431300
_cell_angle_alpha   90.00000000
_cell_angle_beta   90.00000000
_cell_angle_gamma   119.65880416
_symmetry_Int_Tables_number   1
_chemical_formula_structural   Y4Al16SiGeIr6
_chemical_formula_sum   'Y4 Al16 Si1 Ge1 Ir6'
_cell_volume   466.43804997
_cell_formula_units_Z   1
loop_
 _symmetry_equiv_pos_site_id
 _symmetry_equiv_pos_as_xyz
  1  'x, y, z'
loop_
 _atom_site_type_symbol
 _atom_site_label
 _atom_site_symmetry_multiplicity
 _atom_site_fract_x
 _atom_site_fract_y
 _atom_site_fract_z
 _atom_site_occupancy
  Y  Y0  1  0.995251  0.675987  0.250000  1
  Y  Y1  1  0.005030  0.324292  0.750000  1
  Y  Y2  1  0.675987  0.995251  0.250000  1
  Y  Y3  1  0.324292  0.005030  0.750000  1
  Al  Al4  1  0.000318  0.337112  0.073675  1
  Al  Al5  1  0.998432  0.662896  0.923364  1
  Al  Al6  1  0.998432  0.662896  0.576636  1
  Al  Al7  1  0.337112  0.000318  0.426325  1
  Al  Al8  1  0.000318  0.337112  0.426325  1
  Al  Al9  1  0.662896  0.998432  0.576636  1
  Al  Al10  1  0.662896  0.998432  0.923364  1
  Al  Al11  1  0.337112  0.000318  0.073675  1
  Al  Al12  1  0.335601  0.335601  0.558227  1
  Al  Al13  1  0.664366  0.664366  0.443812  1
  Al  Al14  1  0.664366  0.664366  0.056188  1
  Al  Al15  1  0.335601  0.335601  0.941773  1
  Al  Al16  1  0.336247  0.553025  0.250000  1
  Al  Al17  1  0.664546  0.451204  0.750000  1
  Al  Al18  1  0.553025  0.336247  0.250000  1
  Al  Al19  1  0.451204  0.664546  0.750000  1
  Si  Si20  1  0.868702  0.868702  0.750000  1
  Ge  Ge21  1  0.132695  0.132695  0.250000  1
  Ir  Ir22  1  0.670799  0.328176  0.999840  1
  Ir  Ir23  1  0.328176  0.670799  0.999840  1
  Ir  Ir24  1  0.328176  0.670799  0.500160  1
  Ir  Ir25  1  0.670799  0.328176  0.500160  1
  Ir  Ir26  1  0.998813  0.998813  0.993668  1
  Ir  Ir27  1  0.998813  0.998813  0.506332  1
