# generated using pymatgen
data_ZrZn3NiPd
_symmetry_space_group_name_H-M   'P 1'
_cell_length_a   5.02644333
_cell_length_b   5.02644229
_cell_length_c   4.96306663
_cell_angle_alpha   59.57667373
_cell_angle_beta   59.57668632
_cell_angle_gamma   60.00000279
_symmetry_Int_Tables_number   1
_chemical_formula_structural   ZrZn3NiPd
_chemical_formula_sum   'Zr1 Zn3 Ni1 Pd1'
_cell_volume   88.09432781
_cell_formula_units_Z   1
loop_
 _symmetry_equiv_pos_site_id
 _symmetry_equiv_pos_as_xyz
  1  'x, y, z'
loop_
 _atom_site_type_symbol
 _atom_site_label
 _atom_site_symmetry_multiplicity
 _atom_site_fract_x
 _atom_site_fract_y
 _atom_site_fract_z
 _atom_site_occupancy
  Zr  Zr0  1  0.752144  0.752144  0.743567  1
  Zn  Zn1  1  0.126372  0.126372  0.126778  1
  Zn  Zn2  1  0.620480  0.126372  0.126778  1
  Zn  Zn3  1  0.126372  0.620480  0.126778  1
  Ni  Ni4  1  0.122688  0.122688  0.631937  1
  Pd  Pd5  1  0.501945  0.501945  0.494165  1
