# generated using pymatgen
data_Tb2Dy13Th(CdPt)4
_symmetry_space_group_name_H-M   'P 1'
_cell_length_a   9.69783710
_cell_length_b   9.69657633
_cell_length_c   9.69657591
_cell_angle_alpha   60.34079902
_cell_angle_beta   60.35182486
_cell_angle_gamma   60.35182607
_symmetry_Int_Tables_number   1
_chemical_formula_structural   Tb2Dy13Th(CdPt)4
_chemical_formula_sum   'Tb2 Dy13 Th1 Cd4 Pt4'
_cell_volume   649.83599918
_cell_formula_units_Z   1
loop_
 _symmetry_equiv_pos_site_id
 _symmetry_equiv_pos_as_xyz
  1  'x, y, z'
loop_
 _atom_site_type_symbol
 _atom_site_label
 _atom_site_symmetry_multiplicity
 _atom_site_fract_x
 _atom_site_fract_y
 _atom_site_fract_z
 _atom_site_occupancy
  Tb  Tb0  1  0.353972  0.354006  0.938507  1
  Tb  Tb1  1  0.353972  0.938507  0.354006  1
  Dy  Dy2  1  0.938931  0.353912  0.353912  1
  Dy  Dy3  1  0.812059  0.189464  0.189464  1
  Dy  Dy4  1  0.191109  0.810755  0.810755  1
  Dy  Dy5  1  0.189413  0.812112  0.189376  1
  Dy  Dy6  1  0.810732  0.191159  0.810593  1
  Dy  Dy7  1  0.189413  0.189376  0.812112  1
  Dy  Dy8  1  0.810732  0.810593  0.191159  1
  Dy  Dy9  1  0.935914  0.567036  0.567036  1
  Dy  Dy10  1  0.564306  0.936765  0.936765  1
  Dy  Dy11  1  0.566991  0.935915  0.567040  1
  Dy  Dy12  1  0.936745  0.564293  0.936823  1
  Dy  Dy13  1  0.566991  0.567040  0.935915  1
  Dy  Dy14  1  0.936745  0.936823  0.564293  1
  Th  Th15  1  0.348653  0.348749  0.348749  1
  Cd  Cd16  1  0.581647  0.581368  0.581368  1
  Cd  Cd17  1  0.582284  0.582048  0.252963  1
  Cd  Cd18  1  0.582284  0.252963  0.582048  1
  Cd  Cd19  1  0.252978  0.582104  0.582104  1
  Pt  Pt20  1  0.143674  0.144167  0.144167  1
  Pt  Pt21  1  0.139774  0.140175  0.570671  1
  Pt  Pt22  1  0.139774  0.570671  0.140175  1
  Pt  Pt23  1  0.570912  0.140000  0.140000  1
