# generated using pymatgen
data_Ce8Ta12Si15Ge
_symmetry_space_group_name_H-M   'P 1'
_cell_length_a   6.97434468
_cell_length_b   7.14144169
_cell_length_c   13.43853900
_cell_angle_alpha   90.00000000
_cell_angle_beta   90.00000000
_cell_angle_gamma   90.05058354
_symmetry_Int_Tables_number   1
_chemical_formula_structural   Ce8Ta12Si15Ge
_chemical_formula_sum   'Ce8 Ta12 Si15 Ge1'
_cell_volume   669.33138334
_cell_formula_units_Z   1
loop_
 _symmetry_equiv_pos_site_id
 _symmetry_equiv_pos_as_xyz
  1  'x, y, z'
loop_
 _atom_site_type_symbol
 _atom_site_label
 _atom_site_symmetry_multiplicity
 _atom_site_fract_x
 _atom_site_fract_y
 _atom_site_fract_z
 _atom_site_occupancy
  Ce  Ce0  1  0.502307  0.668362  0.594724  1
  Ce  Ce1  1  0.002054  0.831574  0.905357  1
  Ce  Ce2  1  0.496071  0.332829  0.093475  1
  Ce  Ce3  1  0.999426  0.164799  0.407747  1
  Ce  Ce4  1  0.496071  0.332829  0.406525  1
  Ce  Ce5  1  0.999426  0.164799  0.092253  1
  Ce  Ce6  1  0.502307  0.668362  0.905276  1
  Ce  Ce7  1  0.002054  0.831574  0.594643  1
  Ta  Ta8  1  0.662310  0.173421  0.625539  1
  Ta  Ta9  1  0.162420  0.327291  0.874567  1
  Ta  Ta10  1  0.336694  0.827739  0.124963  1
  Ta  Ta11  1  0.836885  0.675233  0.375439  1
  Ta  Ta12  1  0.336694  0.827739  0.375037  1
  Ta  Ta13  1  0.836885  0.675233  0.124561  1
  Ta  Ta14  1  0.662310  0.173421  0.874461  1
  Ta  Ta15  1  0.162420  0.327291  0.625433  1
  Ta  Ta16  1  0.836674  0.494217  0.750000  1
  Ta  Ta17  1  0.336578  0.006175  0.750000  1
  Ta  Ta18  1  0.167387  0.507567  0.250000  1
  Ta  Ta19  1  0.663597  0.991544  0.250000  1
  Si  Si20  1  0.660292  0.960312  0.457099  1
  Si  Si21  1  0.159661  0.540719  0.043108  1
  Si  Si22  1  0.339453  0.040073  0.956111  1
  Si  Si23  1  0.839282  0.459726  0.543206  1
  Si  Si24  1  0.339453  0.040073  0.543889  1
  Si  Si25  1  0.839282  0.459726  0.956794  1
  Si  Si26  1  0.660292  0.960312  0.042901  1
  Si  Si27  1  0.159661  0.540719  0.456892  1
  Si  Si28  1  0.458408  0.374760  0.750000  1
  Si  Si29  1  0.958432  0.125612  0.750000  1
  Si  Si30  1  0.540055  0.628455  0.250000  1
  Si  Si31  1  0.041492  0.873658  0.250000  1
  Si  Si32  1  0.701163  0.877182  0.750000  1
  Si  Si33  1  0.201003  0.623315  0.750000  1
  Si  Si34  1  0.299458  0.123175  0.250000  1
  Ge  Ge35  1  0.802039  0.370184  0.250000  1
