# generated using pymatgen
data_Na4DyP12Ir16Rh3
_symmetry_space_group_name_H-M   'P 1'
_cell_length_a   12.62131300
_cell_length_b   12.64195862
_cell_length_c   3.95324600
_cell_angle_alpha   90.00000000
_cell_angle_beta   90.00000000
_cell_angle_gamma   119.94598946
_symmetry_Int_Tables_number   1
_chemical_formula_structural   Na4DyP12Ir16Rh3
_chemical_formula_sum   'Na4 Dy1 P12 Ir16 Rh3'
_cell_volume   546.56205719
_cell_formula_units_Z   1
loop_
 _symmetry_equiv_pos_site_id
 _symmetry_equiv_pos_as_xyz
  1  'x, y, z'
loop_
 _atom_site_type_symbol
 _atom_site_label
 _atom_site_symmetry_multiplicity
 _atom_site_fract_x
 _atom_site_fract_y
 _atom_site_fract_z
 _atom_site_occupancy
  Na  Na0  1  0.333371  0.666966  0.500000  1
  Na  Na1  1  0.666406  0.333034  0.500000  1
  Na  Na2  1  0.000564  0.817438  0.000000  1
  Na  Na3  1  0.183126  0.182562  0.000000  1
  Dy  Dy4  1  0.821764  0.000000  0.000000  1
  P  P5  1  0.000196  0.637502  0.500000  1
  P  P6  1  0.362693  0.362498  0.500000  1
  P  P7  1  0.636665  0.000000  0.500000  1
  P  P8  1  0.512492  0.686195  0.000000  1
  P  P9  1  0.311941  0.826335  0.000000  1
  P  P10  1  0.173727  0.486694  0.000000  1
  P  P11  1  0.485606  0.173665  0.000000  1
  P  P12  1  0.687032  0.513306  0.000000  1
  P  P13  1  0.826298  0.313805  0.000000  1
  P  P14  1  0.004065  0.183259  0.500000  1
  P  P15  1  0.820806  0.816741  0.500000  1
  P  P16  1  0.180395  0.000000  0.500000  1
  Ir  Ir17  1  0.511136  0.870241  0.000000  1
  Ir  Ir18  1  0.128242  0.640083  0.000000  1
  Ir  Ir19  1  0.359111  0.488519  0.000000  1
  Ir  Ir20  1  0.488160  0.359917  0.000000  1
  Ir  Ir21  1  0.870593  0.511481  0.000000  1
  Ir  Ir22  1  0.640896  0.129759  0.000000  1
  Ir  Ir23  1  0.998799  0.287353  0.000000  1
  Ir  Ir24  1  0.711446  0.712647  0.000000  1
  Ir  Ir25  1  0.287861  0.000000  0.000000  1
  Ir  Ir26  1  0.625777  0.806551  0.500000  1
  Ir  Ir27  1  0.195613  0.817846  0.500000  1
  Ir  Ir28  1  0.182269  0.378655  0.500000  1
  Ir  Ir29  1  0.377767  0.182154  0.500000  1
  Ir  Ir30  1  0.803614  0.621345  0.500000  1
  Ir  Ir31  1  0.819226  0.193449  0.500000  1
  Ir  Ir32  1  0.996092  0.000000  0.500000  1
  Rh  Rh33  1  0.997590  0.455582  0.500000  1
  Rh  Rh34  1  0.542008  0.544418  0.500000  1
  Rh  Rh35  1  0.456652  0.000000  0.500000  1
