# generated using pymatgen
data_Zr3Zn2PtC
_symmetry_space_group_name_H-M   'P 1'
_cell_length_a   8.67026683
_cell_length_b   8.67026763
_cell_length_c   8.67026800
_cell_angle_alpha   59.99999859
_cell_angle_beta   59.99999555
_cell_angle_gamma   60.00000227
_symmetry_Int_Tables_number   1
_chemical_formula_structural   Zr3Zn2PtC
_chemical_formula_sum   'Zr12 Zn8 Pt4 C4'
_cell_volume   460.87428719
_cell_formula_units_Z   4
loop_
 _symmetry_equiv_pos_site_id
 _symmetry_equiv_pos_as_xyz
  1  'x, y, z'
loop_
 _atom_site_type_symbol
 _atom_site_label
 _atom_site_symmetry_multiplicity
 _atom_site_fract_x
 _atom_site_fract_y
 _atom_site_fract_z
 _atom_site_occupancy
  Zr  Zr0  1  0.441698  0.441698  0.058302  1
  Zr  Zr1  1  0.058302  0.441698  0.058302  1
  Zr  Zr2  1  0.441698  0.058302  0.058302  1
  Zr  Zr3  1  0.058302  0.058302  0.441698  1
  Zr  Zr4  1  0.441698  0.058302  0.441698  1
  Zr  Zr5  1  0.058302  0.441698  0.441698  1
  Zr  Zr6  1  0.808302  0.808302  0.191698  1
  Zr  Zr7  1  0.191698  0.808302  0.191698  1
  Zr  Zr8  1  0.808302  0.191698  0.191698  1
  Zr  Zr9  1  0.191698  0.191698  0.808302  1
  Zr  Zr10  1  0.808302  0.191698  0.808302  1
  Zr  Zr11  1  0.191698  0.808302  0.808302  1
  Zn  Zn12  1  0.832752  0.832752  0.501744  1
  Zn  Zn13  1  0.832752  0.501744  0.832752  1
  Zn  Zn14  1  0.501744  0.832752  0.832752  1
  Zn  Zn15  1  0.832752  0.832752  0.832752  1
  Zn  Zn16  1  0.417248  0.417248  0.748256  1
  Zn  Zn17  1  0.417248  0.748256  0.417248  1
  Zn  Zn18  1  0.748256  0.417248  0.417248  1
  Zn  Zn19  1  0.417248  0.417248  0.417248  1
  Pt  Pt20  1  0.625000  0.625000  0.125000  1
  Pt  Pt21  1  0.625000  0.125000  0.625000  1
  Pt  Pt22  1  0.125000  0.625000  0.625000  1
  Pt  Pt23  1  0.625000  0.625000  0.625000  1
  C  C24  1  0.125000  0.125000  0.625000  1
  C  C25  1  0.125000  0.625000  0.125000  1
  C  C26  1  0.625000  0.125000  0.125000  1
  C  C27  1  0.125000  0.125000  0.125000  1
