# generated using pymatgen
data_ErU3(NiP)4
_symmetry_space_group_name_H-M   'P 1'
_cell_length_a   3.88033000
_cell_length_b   3.88032969
_cell_length_c   15.19010200
_cell_angle_alpha   90.00000000
_cell_angle_beta   90.00000000
_cell_angle_gamma   120.00000262
_symmetry_Int_Tables_number   1
_chemical_formula_structural   ErU3(NiP)4
_chemical_formula_sum   'Er1 U3 Ni4 P4'
_cell_volume   198.07451391
_cell_formula_units_Z   1
loop_
 _symmetry_equiv_pos_site_id
 _symmetry_equiv_pos_as_xyz
  1  'x, y, z'
loop_
 _atom_site_type_symbol
 _atom_site_label
 _atom_site_symmetry_multiplicity
 _atom_site_fract_x
 _atom_site_fract_y
 _atom_site_fract_z
 _atom_site_occupancy
  Er  Er0  1  0.000000  0.000000  0.750000  1
  U  U1  1  0.000000  0.000000  0.499920  1
  U  U2  1  0.000000  0.000000  0.000080  1
  U  U3  1  0.000000  0.000000  0.250000  1
  Ni  Ni4  1  0.333333  0.666667  0.382602  1
  Ni  Ni5  1  0.666667  0.333333  0.612540  1
  Ni  Ni6  1  0.666667  0.333333  0.887460  1
  Ni  Ni7  1  0.333333  0.666667  0.117398  1
  P  P8  1  0.333333  0.666667  0.873442  1
  P  P9  1  0.666667  0.333333  0.127412  1
  P  P10  1  0.666667  0.333333  0.372588  1
  P  P11  1  0.333333  0.666667  0.626558  1
