# generated using pymatgen
data_Tb4MgNi2Bi
_symmetry_space_group_name_H-M   'P 1'
_cell_length_a   8.74153217
_cell_length_b   8.74153255
_cell_length_c   8.74153229
_cell_angle_alpha   128.87571896
_cell_angle_beta   128.87572512
_cell_angle_gamma   75.21062340
_symmetry_Int_Tables_number   1
_chemical_formula_structural   Tb4MgNi2Bi
_chemical_formula_sum   'Tb8 Mg2 Ni4 Bi2'
_cell_volume   394.10920792
_cell_formula_units_Z   2
loop_
 _symmetry_equiv_pos_site_id
 _symmetry_equiv_pos_as_xyz
  1  'x, y, z'
loop_
 _atom_site_type_symbol
 _atom_site_label
 _atom_site_symmetry_multiplicity
 _atom_site_fract_x
 _atom_site_fract_y
 _atom_site_fract_z
 _atom_site_occupancy
  Tb  Tb0  1  0.791746  0.291746  0.829963  1
  Tb  Tb1  1  0.208254  0.708254  0.170037  1
  Tb  Tb2  1  0.461783  0.961783  0.170037  1
  Tb  Tb3  1  0.291746  0.461783  0.500000  1
  Tb  Tb4  1  0.038217  0.208254  0.500000  1
  Tb  Tb5  1  0.538217  0.038217  0.829963  1
  Tb  Tb6  1  0.708254  0.538217  0.500000  1
  Tb  Tb7  1  0.961783  0.791746  0.500000  1
  Mg  Mg8  1  0.000000  0.000000  0.000000  1
  Mg  Mg9  1  0.500000  0.500000  0.000000  1
  Ni  Ni10  1  0.127021  0.627021  0.754043  1
  Ni  Ni11  1  0.872979  0.372979  0.245957  1
  Ni  Ni12  1  0.627021  0.872979  0.500000  1
  Ni  Ni13  1  0.372979  0.127021  0.500000  1
  Bi  Bi14  1  0.250000  0.250000  0.000000  1
  Bi  Bi15  1  0.750000  0.750000  0.000000  1
