# generated using pymatgen
data_Y4Zr4Pt3Rh
_symmetry_space_group_name_H-M   'P 1'
_cell_length_a   4.70968700
_cell_length_b   7.15200681
_cell_length_c   8.21707561
_cell_angle_alpha   90.22778699
_cell_angle_beta   90.00000000
_cell_angle_gamma   90.00000000
_symmetry_Int_Tables_number   1
_chemical_formula_structural   Y4Zr4Pt3Rh
_chemical_formula_sum   'Y4 Zr4 Pt3 Rh1'
_cell_volume   276.77943316
_cell_formula_units_Z   1
loop_
 _symmetry_equiv_pos_site_id
 _symmetry_equiv_pos_as_xyz
  1  'x, y, z'
loop_
 _atom_site_type_symbol
 _atom_site_label
 _atom_site_symmetry_multiplicity
 _atom_site_fract_x
 _atom_site_fract_y
 _atom_site_fract_z
 _atom_site_occupancy
  Y  Y0  1  0.250000  0.018718  0.675819  1
  Y  Y1  1  0.250000  0.516153  0.820435  1
  Y  Y2  1  0.750000  0.984181  0.322680  1
  Y  Y3  1  0.750000  0.481529  0.178008  1
  Zr  Zr4  1  0.250000  0.147984  0.079144  1
  Zr  Zr5  1  0.250000  0.641305  0.419118  1
  Zr  Zr6  1  0.750000  0.851875  0.920944  1
  Zr  Zr7  1  0.750000  0.354049  0.578467  1
  Pt  Pt8  1  0.250000  0.773939  0.094676  1
  Pt  Pt9  1  0.750000  0.728896  0.593649  1
  Pt  Pt10  1  0.750000  0.226016  0.905535  1
  Rh  Rh11  1  0.250000  0.275357  0.411526  1
