# generated using pymatgen
data_La20Ga4Si7Sb
_symmetry_space_group_name_H-M   'P 1'
_cell_length_a   7.86810603
_cell_length_b   7.86018587
_cell_length_c   14.52088700
_cell_angle_alpha   89.96957418
_cell_angle_beta   90.06475910
_cell_angle_gamma   89.92486646
_symmetry_Int_Tables_number   1
_chemical_formula_structural   La20Ga4Si7Sb
_chemical_formula_sum   'La20 Ga4 Si7 Sb1'
_cell_volume   898.03952825
_cell_formula_units_Z   1
loop_
 _symmetry_equiv_pos_site_id
 _symmetry_equiv_pos_as_xyz
  1  'x, y, z'
loop_
 _atom_site_type_symbol
 _atom_site_label
 _atom_site_symmetry_multiplicity
 _atom_site_fract_x
 _atom_site_fract_y
 _atom_site_fract_z
 _atom_site_occupancy
  La  La0  1  0.812957  0.830645  0.607600  1
  La  La1  1  0.183815  0.830141  0.104676  1
  La  La2  1  0.171707  0.814481  0.391717  1
  La  La3  1  0.999853  0.499122  0.748006  1
  La  La4  1  0.827913  0.182713  0.392302  1
  La  La5  1  0.681775  0.669714  0.391713  1
  La  La6  1  0.667183  0.313112  0.607010  1
  La  La7  1  0.330170  0.685948  0.607310  1
  La  La8  1  0.998137  0.506745  0.214504  1
  La  La9  1  0.667705  0.684335  0.105334  1
  La  La10  1  0.680959  0.327400  0.893416  1
  La  La11  1  0.827672  0.817539  0.893063  1
  La  La12  1  0.322136  0.334648  0.394270  1
  La  La13  1  0.184580  0.167089  0.607079  1
  La  La14  1  0.813720  0.168523  0.105496  1
  La  La15  1  0.317833  0.670107  0.893333  1
  La  La16  1  0.336618  0.319234  0.102781  1
  La  La17  1  0.507258  0.998966  0.274471  1
  La  La18  1  0.170235  0.180881  0.893724  1
  La  La19  1  0.499141  0.999647  0.779287  1
  Ga  Ga20  1  0.498748  0.999331  0.493333  1
  Ga  Ga21  1  0.499328  0.998889  0.997906  1
  Ga  Ga22  1  0.118238  0.120109  0.249739  1
  Ga  Ga23  1  0.999081  0.498730  0.997310  1
  Si  Si24  1  0.614856  0.387332  0.249550  1
  Si  Si25  1  0.112580  0.886496  0.749064  1
  Si  Si26  1  0.386573  0.386101  0.748412  1
  Si  Si27  1  0.386021  0.613637  0.248997  1
  Si  Si28  1  0.886153  0.883866  0.249749  1
  Si  Si29  1  0.612229  0.612829  0.748425  1
  Si  Si30  1  0.885906  0.112451  0.748779  1
  Sb  Sb31  1  0.998918  0.499234  0.511646  1
