# generated using pymatgen
data_Tb3Mn5(P3Ir2)2
_symmetry_space_group_name_H-M   'P 1'
_cell_length_a   3.86162100
_cell_length_b   10.70814200
_cell_length_c   12.74545600
_cell_angle_alpha   90.00000000
_cell_angle_beta   90.00000000
_cell_angle_gamma   90.00000000
_symmetry_Int_Tables_number   1
_chemical_formula_structural   Tb3Mn5(P3Ir2)2
_chemical_formula_sum   'Tb6 Mn10 P12 Ir8'
_cell_volume   527.03462376
_cell_formula_units_Z   2
loop_
 _symmetry_equiv_pos_site_id
 _symmetry_equiv_pos_as_xyz
  1  'x, y, z'
loop_
 _atom_site_type_symbol
 _atom_site_label
 _atom_site_symmetry_multiplicity
 _atom_site_fract_x
 _atom_site_fract_y
 _atom_site_fract_z
 _atom_site_occupancy
  Tb  Tb0  1  0.000000  0.500000  0.524026  1
  Tb  Tb1  1  0.500000  0.000000  0.475974  1
  Tb  Tb2  1  0.500000  0.817115  0.201169  1
  Tb  Tb3  1  0.500000  0.182885  0.201169  1
  Tb  Tb4  1  0.000000  0.682885  0.798831  1
  Tb  Tb5  1  0.000000  0.317115  0.798831  1
  Mn  Mn6  1  0.000000  0.500000  0.992632  1
  Mn  Mn7  1  0.500000  0.000000  0.007368  1
  Mn  Mn8  1  0.500000  0.884063  0.710398  1
  Mn  Mn9  1  0.500000  0.115937  0.710398  1
  Mn  Mn10  1  0.000000  0.615937  0.289602  1
  Mn  Mn11  1  0.000000  0.384063  0.289602  1
  Mn  Mn12  1  0.500000  0.327733  0.996755  1
  Mn  Mn13  1  0.500000  0.672267  0.996755  1
  Mn  Mn14  1  0.000000  0.172267  0.003245  1
  Mn  Mn15  1  0.000000  0.827733  0.003245  1
  P  P16  1  0.500000  0.303553  0.623581  1
  P  P17  1  0.500000  0.696447  0.623581  1
  P  P18  1  0.000000  0.196447  0.376419  1
  P  P19  1  0.000000  0.803553  0.376419  1
  P  P20  1  0.500000  0.500000  0.887937  1
  P  P21  1  0.000000  0.000000  0.112063  1
  P  P22  1  0.500000  0.847025  0.886726  1
  P  P23  1  0.500000  0.152975  0.886726  1
  P  P24  1  0.000000  0.652975  0.113274  1
  P  P25  1  0.000000  0.347025  0.113274  1
  P  P26  1  0.500000  0.500000  0.340569  1
  P  P27  1  0.000000  0.000000  0.659431  1
  Ir  Ir28  1  0.500000  0.299829  0.428758  1
  Ir  Ir29  1  0.500000  0.700171  0.428758  1
  Ir  Ir30  1  0.000000  0.200171  0.571242  1
  Ir  Ir31  1  0.000000  0.799829  0.571242  1
  Ir  Ir32  1  0.500000  0.500000  0.155665  1
  Ir  Ir33  1  0.000000  0.000000  0.844335  1
  Ir  Ir34  1  0.500000  0.500000  0.700555  1
  Ir  Ir35  1  0.000000  0.000000  0.299445  1
