# generated using pymatgen
data_Er2ThPaNi4
_symmetry_space_group_name_H-M   'P 1'
_cell_length_a   4.32994800
_cell_length_b   5.45009399
_cell_length_c   6.71314220
_cell_angle_alpha   87.74190505
_cell_angle_beta   90.00000000
_cell_angle_gamma   90.00000000
_symmetry_Int_Tables_number   1
_chemical_formula_structural   Er2ThPaNi4
_chemical_formula_sum   'Er2 Th1 Pa1 Ni4'
_cell_volume   158.29789856
_cell_formula_units_Z   1
loop_
 _symmetry_equiv_pos_site_id
 _symmetry_equiv_pos_as_xyz
  1  'x, y, z'
loop_
 _atom_site_type_symbol
 _atom_site_label
 _atom_site_symmetry_multiplicity
 _atom_site_fract_x
 _atom_site_fract_y
 _atom_site_fract_z
 _atom_site_occupancy
  Er  Er0  1  0.000000  0.101931  0.684886  1
  Er  Er1  1  0.000000  0.893875  0.180324  1
  Th  Th2  1  0.500000  0.388012  0.313404  1
  Pa  Pa3  1  0.500000  0.604813  0.813383  1
  Ni  Ni4  1  0.000000  0.605002  0.560850  1
  Ni  Ni5  1  0.000000  0.413234  0.022326  1
  Ni  Ni6  1  0.500000  0.874115  0.474232  1
  Ni  Ni7  1  0.500000  0.119018  0.950598  1
