# generated using pymatgen
data_TbPr2Zr(Co4P3)2
_symmetry_space_group_name_H-M   'P 1'
_cell_length_a   3.77076500
_cell_length_b   10.80457300
_cell_length_c   12.59123800
_cell_angle_alpha   90.00000000
_cell_angle_beta   90.00000000
_cell_angle_gamma   90.00000000
_symmetry_Int_Tables_number   1
_chemical_formula_structural   TbPr2Zr(Co4P3)2
_chemical_formula_sum   'Tb2 Pr4 Zr2 Co16 P12'
_cell_volume   512.98599485
_cell_formula_units_Z   2
loop_
 _symmetry_equiv_pos_site_id
 _symmetry_equiv_pos_as_xyz
  1  'x, y, z'
loop_
 _atom_site_type_symbol
 _atom_site_label
 _atom_site_symmetry_multiplicity
 _atom_site_fract_x
 _atom_site_fract_y
 _atom_site_fract_z
 _atom_site_occupancy
  Tb  Tb0  1  0.000000  0.678375  0.795832  1
  Tb  Tb1  1  0.000000  0.321625  0.795832  1
  Pr  Pr2  1  0.000000  0.500000  0.531132  1
  Pr  Pr3  1  0.500000  0.000000  0.470874  1
  Pr  Pr4  1  0.500000  0.820790  0.205147  1
  Pr  Pr5  1  0.500000  0.179210  0.205147  1
  Zr  Zr6  1  0.500000  0.500000  0.155617  1
  Zr  Zr7  1  0.000000  0.000000  0.843397  1
  Co  Co8  1  0.500000  0.500000  0.707434  1
  Co  Co9  1  0.000000  0.000000  0.294647  1
  Co  Co10  1  0.000000  0.500000  0.983487  1
  Co  Co11  1  0.500000  0.000000  0.010422  1
  Co  Co12  1  0.500000  0.332931  0.990620  1
  Co  Co13  1  0.500000  0.667069  0.990620  1
  Co  Co14  1  0.000000  0.169180  0.003295  1
  Co  Co15  1  0.000000  0.830820  0.003295  1
  Co  Co16  1  0.500000  0.296008  0.435450  1
  Co  Co17  1  0.500000  0.703992  0.435450  1
  Co  Co18  1  0.000000  0.205469  0.570062  1
  Co  Co19  1  0.000000  0.794531  0.570062  1
  Co  Co20  1  0.500000  0.878561  0.704129  1
  Co  Co21  1  0.500000  0.121439  0.704129  1
  Co  Co22  1  0.000000  0.619172  0.299909  1
  Co  Co23  1  0.000000  0.380828  0.299909  1
  P  P24  1  0.500000  0.500000  0.883197  1
  P  P25  1  0.000000  0.000000  0.110341  1
  P  P26  1  0.500000  0.500000  0.359070  1
  P  P27  1  0.000000  0.000000  0.641460  1
  P  P28  1  0.500000  0.305640  0.617687  1
  P  P29  1  0.500000  0.694360  0.617687  1
  P  P30  1  0.000000  0.197043  0.388633  1
  P  P31  1  0.000000  0.802957  0.388633  1
  P  P32  1  0.500000  0.838238  0.893637  1
  P  P33  1  0.500000  0.161762  0.893637  1
  P  P34  1  0.000000  0.658932  0.100060  1
  P  P35  1  0.000000  0.341068  0.100060  1
