# generated using pymatgen
data_Tb3NdTm4Hf11Si16Au
_symmetry_space_group_name_H-M   'P 1'
_cell_length_a   7.28830573
_cell_length_b   7.29339016
_cell_length_c   13.24116422
_cell_angle_alpha   89.68701783
_cell_angle_beta   90.16091458
_cell_angle_gamma   89.87252179
_symmetry_Int_Tables_number   1
_chemical_formula_structural   Tb3NdTm4Hf11Si16Au
_chemical_formula_sum   'Tb3 Nd1 Tm4 Hf11 Si16 Au1'
_cell_volume   703.83833687
_cell_formula_units_Z   1
loop_
 _symmetry_equiv_pos_site_id
 _symmetry_equiv_pos_as_xyz
  1  'x, y, z'
loop_
 _atom_site_type_symbol
 _atom_site_label
 _atom_site_symmetry_multiplicity
 _atom_site_fract_x
 _atom_site_fract_y
 _atom_site_fract_z
 _atom_site_occupancy
  Tb  Tb0  1  0.495555  0.154875  0.535966  1
  Tb  Tb1  1  0.346292  0.996337  0.788977  1
  Tb  Tb2  1  0.654035  0.005362  0.283794  1
  Nd  Nd3  1  0.995551  0.345437  0.209424  1
  Tm  Tm4  1  0.004662  0.653240  0.716915  1
  Tm  Tm5  1  0.154841  0.497129  0.465283  1
  Tm  Tm6  1  0.496740  0.847388  0.031367  1
  Tm  Tm7  1  0.848285  0.497544  0.966782  1
  Hf  Hf8  1  0.825425  0.824404  0.500978  1
  Hf  Hf9  1  0.323260  0.678547  0.248643  1
  Hf  Hf10  1  0.678520  0.323215  0.751538  1
  Hf  Hf11  1  0.146927  0.997170  0.374904  1
  Hf  Hf12  1  0.857376  0.002971  0.879169  1
  Hf  Hf13  1  0.504859  0.645681  0.627341  1
  Hf  Hf14  1  0.357016  0.493098  0.876900  1
  Hf  Hf15  1  0.490531  0.357135  0.121618  1
  Hf  Hf16  1  0.646608  0.506050  0.374251  1
  Hf  Hf17  1  0.997915  0.144594  0.626826  1
  Hf  Hf18  1  0.002120  0.856665  0.119565  1
  Si  Si19  1  0.360949  0.296989  0.317989  1
  Si  Si20  1  0.644043  0.702765  0.820874  1
  Si  Si21  1  0.205707  0.857398  0.569770  1
  Si  Si22  1  0.131088  0.773483  0.925307  1
  Si  Si23  1  0.769719  0.128925  0.071564  1
  Si  Si24  1  0.862251  0.208109  0.432674  1
  Si  Si25  1  0.294652  0.360304  0.683443  1
  Si  Si26  1  0.700390  0.644021  0.178981  1
  Si  Si27  1  0.296445  0.050258  0.187756  1
  Si  Si28  1  0.706541  0.948930  0.687450  1
  Si  Si29  1  0.448598  0.794544  0.436400  1
  Si  Si30  1  0.210587  0.569048  0.062509  1
  Si  Si31  1  0.563982  0.209006  0.935626  1
  Si  Si32  1  0.798355  0.451261  0.565040  1
  Si  Si33  1  0.051855  0.296907  0.812073  1
  Si  Si34  1  0.950302  0.707752  0.314181  1
  Au  Au35  1  0.178018  0.173461  0.998121  1
