# generated using pymatgen
data_Tb2LuSiAg3Ge2
_symmetry_space_group_name_H-M   'P 1'
_cell_length_a   7.12752973
_cell_length_b   7.15500642
_cell_length_c   4.19197700
_cell_angle_alpha   90.00000000
_cell_angle_beta   90.00000000
_cell_angle_gamma   120.16384760
_symmetry_Int_Tables_number   1
_chemical_formula_structural   Tb2LuSiAg3Ge2
_chemical_formula_sum   'Tb2 Lu1 Si1 Ag3 Ge2'
_cell_volume   184.83285915
_cell_formula_units_Z   1
loop_
 _symmetry_equiv_pos_site_id
 _symmetry_equiv_pos_as_xyz
  1  'x, y, z'
loop_
 _atom_site_type_symbol
 _atom_site_label
 _atom_site_symmetry_multiplicity
 _atom_site_fract_x
 _atom_site_fract_y
 _atom_site_fract_z
 _atom_site_occupancy
  Tb  Tb0  1  0.416428  0.418730  0.500000  1
  Tb  Tb1  1  0.582262  0.999339  0.500000  1
  Lu  Lu2  1  0.001844  0.584306  0.500000  1
  Si  Si3  1  0.329211  0.665248  0.000000  1
  Ag  Ag4  1  0.743510  0.748399  0.000000  1
  Ag  Ag5  1  0.250561  0.992898  0.000000  1
  Ag  Ag6  1  0.005927  0.258619  0.000000  1
  Ge  Ge7  1  0.670317  0.335646  0.000000  1
  Ge  Ge8  1  0.999940  0.996813  0.500000  1
