# generated using pymatgen
data_Ho4Cu(Sn2Rh)5
_symmetry_space_group_name_H-M   'P 1'
_cell_length_a   13.42080112
_cell_length_b   13.42080143
_cell_length_c   7.27080199
_cell_angle_alpha   89.74244950
_cell_angle_beta   90.25755054
_cell_angle_gamma   160.99985808
_symmetry_Int_Tables_number   1
_chemical_formula_structural   Ho4Cu(Sn2Rh)5
_chemical_formula_sum   'Ho4 Cu1 Sn10 Rh5'
_cell_volume   426.36322668
_cell_formula_units_Z   1
loop_
 _symmetry_equiv_pos_site_id
 _symmetry_equiv_pos_as_xyz
  1  'x, y, z'
loop_
 _atom_site_type_symbol
 _atom_site_label
 _atom_site_symmetry_multiplicity
 _atom_site_fract_x
 _atom_site_fract_y
 _atom_site_fract_z
 _atom_site_occupancy
  Ho  Ho0  1  0.173383  0.826617  0.743047  1
  Ho  Ho1  1  0.827487  0.172513  0.243896  1
  Ho  Ho2  1  0.475589  0.524411  0.758597  1
  Ho  Ho3  1  0.523833  0.476167  0.263112  1
  Cu  Cu4  1  0.049194  0.950806  0.984597  1
  Sn  Sn5  1  0.880021  0.119979  0.769281  1
  Sn  Sn6  1  0.120238  0.879762  0.268909  1
  Sn  Sn7  1  0.704616  0.295384  0.452467  1
  Sn  Sn8  1  0.296092  0.703908  0.951485  1
  Sn  Sn9  1  0.595402  0.404598  0.887986  1
  Sn  Sn10  1  0.403174  0.596826  0.388468  1
  Sn  Sn11  1  0.952485  0.047515  0.104016  1
  Sn  Sn12  1  0.047714  0.952286  0.598202  1
  Sn  Sn13  1  0.290983  0.709017  0.521806  1
  Sn  Sn14  1  0.709315  0.290685  0.021320  1
  Rh  Rh15  1  0.950109  0.049891  0.484986  1
  Rh  Rh16  1  0.776286  0.223714  0.733084  1
  Rh  Rh17  1  0.223011  0.776989  0.234070  1
  Rh  Rh18  1  0.395785  0.604215  0.017556  1
  Rh  Rh19  1  0.605283  0.394717  0.517116  1
