# generated using pymatgen
data_HoPuReC2
_symmetry_space_group_name_H-M   'P 1'
_cell_length_a   5.13170300
_cell_length_b   6.44617500
_cell_length_c   9.88038300
_cell_angle_alpha   90.00000000
_cell_angle_beta   90.00000000
_cell_angle_gamma   90.00000000
_symmetry_Int_Tables_number   1
_chemical_formula_structural   HoPuReC2
_chemical_formula_sum   'Ho4 Pu4 Re4 C8'
_cell_volume   326.84164277
_cell_formula_units_Z   4
loop_
 _symmetry_equiv_pos_site_id
 _symmetry_equiv_pos_as_xyz
  1  'x, y, z'
loop_
 _atom_site_type_symbol
 _atom_site_label
 _atom_site_symmetry_multiplicity
 _atom_site_fract_x
 _atom_site_fract_y
 _atom_site_fract_z
 _atom_site_occupancy
  Ho  Ho0  1  0.250000  0.817863  0.052956  1
  Ho  Ho1  1  0.750000  0.682137  0.552956  1
  Ho  Ho2  1  0.250000  0.317863  0.447044  1
  Ho  Ho3  1  0.750000  0.182137  0.947044  1
  Pu  Pu4  1  0.250000  0.470582  0.779981  1
  Pu  Pu5  1  0.750000  0.029418  0.279981  1
  Pu  Pu6  1  0.250000  0.970582  0.720019  1
  Pu  Pu7  1  0.750000  0.529418  0.220019  1
  Re  Re8  1  0.250000  0.283615  0.132450  1
  Re  Re9  1  0.750000  0.216385  0.632450  1
  Re  Re10  1  0.250000  0.783615  0.367550  1
  Re  Re11  1  0.750000  0.716385  0.867550  1
  C  C12  1  0.250000  0.179866  0.945751  1
  C  C13  1  0.750000  0.820134  0.054249  1
  C  C14  1  0.250000  0.679866  0.554249  1
  C  C15  1  0.750000  0.320134  0.445751  1
  C  C16  1  0.250000  0.049635  0.258783  1
  C  C17  1  0.750000  0.450365  0.758783  1
  C  C18  1  0.250000  0.549635  0.241217  1
  C  C19  1  0.750000  0.950365  0.741217  1
