# generated using pymatgen
data_Y2U2Ga12Rh
_symmetry_space_group_name_H-M   'P 1'
_cell_length_a   7.45433337
_cell_length_b   7.45486298
_cell_length_c   7.49804870
_cell_angle_alpha   109.42835139
_cell_angle_beta   109.43165351
_cell_angle_gamma   109.32839067
_symmetry_Int_Tables_number   1
_chemical_formula_structural   Y2U2Ga12Rh
_chemical_formula_sum   'Y2 U2 Ga12 Rh1'
_cell_volume   321.64442635
_cell_formula_units_Z   1
loop_
 _symmetry_equiv_pos_site_id
 _symmetry_equiv_pos_as_xyz
  1  'x, y, z'
loop_
 _atom_site_type_symbol
 _atom_site_label
 _atom_site_symmetry_multiplicity
 _atom_site_fract_x
 _atom_site_fract_y
 _atom_site_fract_z
 _atom_site_occupancy
  Y  Y0  1  0.500000  0.500000  0.500000  1
  Y  Y1  1  0.000000  0.000000  0.500000  1
  U  U2  1  0.000000  0.500000  0.000000  1
  U  U3  1  0.500000  0.000000  0.000000  1
  Ga  Ga4  1  0.750013  0.250005  0.500055  1
  Ga  Ga5  1  0.002821  0.708878  0.711726  1
  Ga  Ga6  1  0.291107  0.997110  0.288304  1
  Ga  Ga7  1  0.501548  0.250396  0.751885  1
  Ga  Ga8  1  0.749629  0.498536  0.248109  1
  Ga  Ga9  1  0.249987  0.749995  0.499945  1
  Ga  Ga10  1  0.250371  0.501464  0.751891  1
  Ga  Ga11  1  0.708893  0.002890  0.711696  1
  Ga  Ga12  1  0.498452  0.749604  0.248115  1
  Ga  Ga13  1  0.708471  0.708387  0.000028  1
  Ga  Ga14  1  0.291529  0.291613  0.999972  1
  Ga  Ga15  1  0.997179  0.291122  0.288274  1
  Rh  Rh16  1  0.000000  0.000000  0.000000  1
