# generated using pymatgen
data_Pr2Ho2Al13Ga5Ir6
_symmetry_space_group_name_H-M   'P 1'
_cell_length_a   7.56536679
_cell_length_b   7.56641540
_cell_length_c   9.64499300
_cell_angle_alpha   90.00000000
_cell_angle_beta   90.00000000
_cell_angle_gamma   119.50152922
_symmetry_Int_Tables_number   1
_chemical_formula_structural   Pr2Ho2Al13Ga5Ir6
_chemical_formula_sum   'Pr2 Ho2 Al13 Ga5 Ir6'
_cell_volume   480.52092439
_cell_formula_units_Z   1
loop_
 _symmetry_equiv_pos_site_id
 _symmetry_equiv_pos_as_xyz
  1  'x, y, z'
loop_
 _atom_site_type_symbol
 _atom_site_label
 _atom_site_symmetry_multiplicity
 _atom_site_fract_x
 _atom_site_fract_y
 _atom_site_fract_z
 _atom_site_occupancy
  Pr  Pr0  1  0.995228  0.669717  0.250000  1
  Pr  Pr1  1  0.669765  0.996321  0.250000  1
  Ho  Ho2  1  0.000078  0.325506  0.750000  1
  Ho  Ho3  1  0.330255  0.006554  0.750000  1
  Al  Al4  1  0.004560  0.334903  0.066047  1
  Al  Al5  1  0.000077  0.665123  0.923533  1
  Al  Al6  1  0.000077  0.665123  0.576467  1
  Al  Al7  1  0.334853  0.004193  0.434007  1
  Al  Al8  1  0.004560  0.334903  0.433953  1
  Al  Al9  1  0.664084  0.998107  0.576718  1
  Al  Al10  1  0.664084  0.998107  0.923282  1
  Al  Al11  1  0.334853  0.004193  0.065993  1
  Al  Al12  1  0.333389  0.333929  0.560578  1
  Al  Al13  1  0.664894  0.664716  0.455913  1
  Al  Al14  1  0.664894  0.664716  0.044087  1
  Al  Al15  1  0.333389  0.333929  0.939422  1
  Al  Al16  1  0.448600  0.660848  0.750000  1
  Ga  Ga17  1  0.132907  0.132944  0.250000  1
  Ga  Ga18  1  0.870641  0.869972  0.750000  1
  Ga  Ga19  1  0.337868  0.543011  0.250000  1
  Ga  Ga20  1  0.662154  0.453076  0.750000  1
  Ga  Ga21  1  0.542842  0.338530  0.250000  1
  Ir  Ir22  1  0.671707  0.327985  0.997618  1
  Ir  Ir23  1  0.329279  0.671041  0.995241  1
  Ir  Ir24  1  0.329279  0.671041  0.504759  1
  Ir  Ir25  1  0.671707  0.327985  0.502382  1
  Ir  Ir26  1  0.001988  0.001763  0.996628  1
  Ir  Ir27  1  0.001988  0.001763  0.503372  1
