# generated using pymatgen
data_Nd6CuSn2Sb13
_symmetry_space_group_name_H-M   'P 1'
_cell_length_a   12.57152934
_cell_length_b   12.57152769
_cell_length_c   4.27759509
_cell_angle_alpha   80.24823652
_cell_angle_beta   80.24824131
_cell_angle_gamma   102.06969280
_symmetry_Int_Tables_number   1
_chemical_formula_structural   Nd6CuSn2Sb13
_chemical_formula_sum   'Nd6 Cu1 Sn2 Sb13'
_cell_volume   636.66806337
_cell_formula_units_Z   1
loop_
 _symmetry_equiv_pos_site_id
 _symmetry_equiv_pos_as_xyz
  1  'x, y, z'
loop_
 _atom_site_type_symbol
 _atom_site_label
 _atom_site_symmetry_multiplicity
 _atom_site_fract_x
 _atom_site_fract_y
 _atom_site_fract_z
 _atom_site_occupancy
  Nd  Nd0  1  0.323868  0.677694  0.930678  1
  Nd  Nd1  1  0.677694  0.323868  0.930678  1
  Nd  Nd2  1  0.270566  0.004752  0.796525  1
  Nd  Nd3  1  0.725576  0.996758  0.072120  1
  Nd  Nd4  1  0.996758  0.725576  0.072120  1
  Nd  Nd5  1  0.004752  0.270566  0.796525  1
  Cu  Cu6  1  0.264232  0.264232  0.676205  1
  Sn  Sn7  1  0.401745  0.401745  0.029639  1
  Sn  Sn8  1  0.595862  0.595862  0.833709  1
  Sb  Sb9  1  0.469920  0.248775  0.570385  1
  Sb  Sb10  1  0.543827  0.747310  0.285726  1
  Sb  Sb11  1  0.747310  0.543827  0.285726  1
  Sb  Sb12  1  0.248775  0.469920  0.570385  1
  Sb  Sb13  1  0.510881  0.914333  0.716972  1
  Sb  Sb14  1  0.486355  0.079228  0.150078  1
  Sb  Sb15  1  0.079228  0.486355  0.150078  1
  Sb  Sb16  1  0.914333  0.510881  0.716972  1
  Sb  Sb17  1  0.155579  0.155579  0.281373  1
  Sb  Sb18  1  0.851242  0.851242  0.587509  1
  Sb  Sb19  1  0.198331  0.800798  0.433235  1
  Sb  Sb20  1  0.800798  0.198331  0.433235  1
  Sb  Sb21  1  0.992969  0.992969  0.947425  1
