# generated using pymatgen
data_K12Rb8Si4(AsP3)3
_symmetry_space_group_name_H-M   'P 1'
_cell_length_a   5.27011400
_cell_length_b   14.50144434
_cell_length_c   15.60713227
_cell_angle_alpha   90.15521167
_cell_angle_beta   90.00000000
_cell_angle_gamma   90.00000000
_symmetry_Int_Tables_number   1
_chemical_formula_structural   K12Rb8Si4(AsP3)3
_chemical_formula_sum   'K12 Rb8 Si4 As3 P9'
_cell_volume   1192.75923389
_cell_formula_units_Z   1
loop_
 _symmetry_equiv_pos_site_id
 _symmetry_equiv_pos_as_xyz
  1  'x, y, z'
loop_
 _atom_site_type_symbol
 _atom_site_label
 _atom_site_symmetry_multiplicity
 _atom_site_fract_x
 _atom_site_fract_y
 _atom_site_fract_z
 _atom_site_occupancy
  K  K0  1  0.250000  0.427302  0.565070  1
  K  K1  1  0.750000  0.573184  0.435280  1
  K  K2  1  0.750000  0.926635  0.933493  1
  K  K3  1  0.250000  0.072691  0.063915  1
  K  K4  1  0.250000  0.823589  0.084273  1
  K  K5  1  0.750000  0.175816  0.913836  1
  K  K6  1  0.750000  0.323750  0.414435  1
  K  K7  1  0.250000  0.679912  0.587782  1
  K  K8  1  0.250000  0.234203  0.258173  1
  K  K9  1  0.750000  0.766330  0.741830  1
  K  K10  1  0.750000  0.734331  0.242111  1
  K  K11  1  0.250000  0.265483  0.758008  1
  Rb  Rb12  1  0.250000  0.943236  0.302585  1
  Rb  Rb13  1  0.750000  0.054246  0.696343  1
  Rb  Rb14  1  0.750000  0.443490  0.196941  1
  Rb  Rb15  1  0.250000  0.557008  0.802985  1
  Rb  Rb16  1  0.250000  0.130585  0.516640  1
  Rb  Rb17  1  0.750000  0.869210  0.488348  1
  Rb  Rb18  1  0.750000  0.631890  0.983958  1
  Rb  Rb19  1  0.250000  0.368795  0.015099  1
  Si  Si20  1  0.250000  0.585400  0.292842  1
  Si  Si21  1  0.750000  0.415002  0.707460  1
  Si  Si22  1  0.750000  0.084913  0.207862  1
  Si  Si23  1  0.250000  0.914202  0.788800  1
  As  As24  1  0.250000  0.599006  0.143175  1
  As  As25  1  0.750000  0.401583  0.857103  1
  As  As26  1  0.750000  0.098448  0.357847  1
  P  P27  1  0.250000  0.899919  0.647268  1
  P  P28  1  0.250000  0.447305  0.350622  1
  P  P29  1  0.750000  0.552991  0.649047  1
  P  P30  1  0.750000  0.946888  0.149078  1
  P  P31  1  0.250000  0.052369  0.848586  1
  P  P32  1  0.250000  0.709863  0.374770  1
  P  P33  1  0.750000  0.290462  0.625700  1
  P  P34  1  0.750000  0.209062  0.126608  1
  P  P35  1  0.250000  0.790899  0.872126  1
