# generated using pymatgen
data_Tb5Ti3(Co4As3)4
_symmetry_space_group_name_H-M   'P 1'
_cell_length_a   12.61091100
_cell_length_b   12.61091150
_cell_length_c   3.81660800
_cell_angle_alpha   90.00000000
_cell_angle_beta   90.00000000
_cell_angle_gamma   120.00000656
_symmetry_Int_Tables_number   1
_chemical_formula_structural   Tb5Ti3(Co4As3)4
_chemical_formula_sum   'Tb5 Ti3 Co16 As12'
_cell_volume   525.65536081
_cell_formula_units_Z   1
loop_
 _symmetry_equiv_pos_site_id
 _symmetry_equiv_pos_as_xyz
  1  'x, y, z'
loop_
 _atom_site_type_symbol
 _atom_site_label
 _atom_site_symmetry_multiplicity
 _atom_site_fract_x
 _atom_site_fract_y
 _atom_site_fract_z
 _atom_site_occupancy
  Tb  Tb0  1  0.186023  0.186023  0.500000  1
  Tb  Tb1  1  0.813977  0.000000  0.500000  1
  Tb  Tb2  1  0.000000  0.813977  0.500000  1
  Tb  Tb3  1  0.333333  0.666667  0.000000  1
  Tb  Tb4  1  0.666667  0.333333  0.000000  1
  Ti  Ti5  1  0.564197  0.564197  0.000000  1
  Ti  Ti6  1  0.435803  0.000000  0.000000  1
  Ti  Ti7  1  0.000000  0.435803  0.000000  1
  Co  Co8  1  0.716496  0.716496  0.500000  1
  Co  Co9  1  0.283504  0.000000  0.500000  1
  Co  Co10  1  0.000000  0.283504  0.500000  1
  Co  Co11  1  0.177126  0.376054  0.000000  1
  Co  Co12  1  0.623946  0.801072  0.000000  1
  Co  Co13  1  0.198928  0.822874  0.000000  1
  Co  Co14  1  0.801072  0.623946  0.000000  1
  Co  Co15  1  0.822874  0.198928  0.000000  1
  Co  Co16  1  0.376054  0.177126  0.000000  1
  Co  Co17  1  0.356344  0.479905  0.500000  1
  Co  Co18  1  0.520095  0.876439  0.500000  1
  Co  Co19  1  0.123561  0.643656  0.500000  1
  Co  Co20  1  0.876439  0.520095  0.500000  1
  Co  Co21  1  0.643656  0.123561  0.500000  1
  Co  Co22  1  0.479905  0.356344  0.500000  1
  Co  Co23  1  0.000000  0.000000  0.000000  1
  As  As24  1  0.821699  0.821699  0.000000  1
  As  As25  1  0.178301  0.000000  0.000000  1
  As  As26  1  0.000000  0.178301  0.000000  1
  As  As27  1  0.168743  0.482578  0.500000  1
  As  As28  1  0.517422  0.686166  0.500000  1
  As  As29  1  0.313834  0.831257  0.500000  1
  As  As30  1  0.686166  0.517422  0.500000  1
  As  As31  1  0.831257  0.313834  0.500000  1
  As  As32  1  0.482578  0.168743  0.500000  1
  As  As33  1  0.360071  0.360071  0.000000  1
  As  As34  1  0.639929  0.000000  0.000000  1
  As  As35  1  0.000000  0.639929  0.000000  1
