# generated using pymatgen
data_LuZr(SiTc2)4
_symmetry_space_group_name_H-M   'P 1'
_cell_length_a   7.31506621
_cell_length_b   7.31506621
_cell_length_c   4.10623500
_cell_angle_alpha   90.00000000
_cell_angle_beta   90.00000000
_cell_angle_gamma   89.25591614
_symmetry_Int_Tables_number   1
_chemical_formula_structural   LuZr(SiTc2)4
_chemical_formula_sum   'Lu1 Zr1 Si4 Tc8'
_cell_volume   219.70690172
_cell_formula_units_Z   1
loop_
 _symmetry_equiv_pos_site_id
 _symmetry_equiv_pos_as_xyz
  1  'x, y, z'
loop_
 _atom_site_type_symbol
 _atom_site_label
 _atom_site_symmetry_multiplicity
 _atom_site_fract_x
 _atom_site_fract_y
 _atom_site_fract_z
 _atom_site_occupancy
  Lu  Lu0  1  0.500000  0.500000  0.000000  1
  Zr  Zr1  1  0.000000  0.000000  0.500000  1
  Si  Si2  1  0.202890  0.797110  0.000000  1
  Si  Si3  1  0.288337  0.288337  0.500000  1
  Si  Si4  1  0.711663  0.711663  0.500000  1
  Si  Si5  1  0.797110  0.202890  0.000000  1
  Tc  Tc6  1  0.599727  0.153511  0.500000  1
  Tc  Tc7  1  0.400273  0.846489  0.500000  1
  Tc  Tc8  1  0.153511  0.599727  0.500000  1
  Tc  Tc9  1  0.846489  0.400273  0.500000  1
  Tc  Tc10  1  0.089218  0.342453  0.000000  1
  Tc  Tc11  1  0.910782  0.657547  0.000000  1
  Tc  Tc12  1  0.657547  0.910782  0.000000  1
  Tc  Tc13  1  0.342453  0.089218  0.000000  1
