# generated using pymatgen
data_Ca4Sb3Pt4Pb
_symmetry_space_group_name_H-M   'P 1'
_cell_length_a   4.65476600
_cell_length_b   7.40041209
_cell_length_c   8.07076650
_cell_angle_alpha   90.51410024
_cell_angle_beta   90.00000000
_cell_angle_gamma   90.00000000
_symmetry_Int_Tables_number   1
_chemical_formula_structural   Ca4Sb3Pt4Pb
_chemical_formula_sum   'Ca4 Sb3 Pt4 Pb1'
_cell_volume   278.00400799
_cell_formula_units_Z   1
loop_
 _symmetry_equiv_pos_site_id
 _symmetry_equiv_pos_as_xyz
  1  'x, y, z'
loop_
 _atom_site_type_symbol
 _atom_site_label
 _atom_site_symmetry_multiplicity
 _atom_site_fract_x
 _atom_site_fract_y
 _atom_site_fract_z
 _atom_site_occupancy
  Ca  Ca0  1  0.750000  0.510702  0.193105  1
  Ca  Ca1  1  0.750000  0.008415  0.302890  1
  Ca  Ca2  1  0.250000  0.491208  0.804515  1
  Ca  Ca3  1  0.250000  0.987386  0.700477  1
  Sb  Sb4  1  0.750000  0.180678  0.912667  1
  Sb  Sb5  1  0.750000  0.682120  0.585041  1
  Sb  Sb6  1  0.250000  0.814954  0.087905  1
  Pt  Pt7  1  0.750000  0.302923  0.599435  1
  Pt  Pt8  1  0.750000  0.795347  0.910021  1
  Pt  Pt9  1  0.250000  0.714435  0.411434  1
  Pt  Pt10  1  0.250000  0.198034  0.079839  1
  Pb  Pb11  1  0.250000  0.313798  0.412671  1
