# generated using pymatgen
data_Tb5Dy2FeBr12
_symmetry_space_group_name_H-M   'P 1'
_cell_length_a   9.26717809
_cell_length_b   9.27505630
_cell_length_c   9.16888531
_cell_angle_alpha   106.92638906
_cell_angle_beta   106.69362938
_cell_angle_gamma   106.96257093
_symmetry_Int_Tables_number   1
_chemical_formula_structural   Tb5Dy2FeBr12
_chemical_formula_sum   'Tb5 Dy2 Fe1 Br12'
_cell_volume   658.80806529
_cell_formula_units_Z   1
loop_
 _symmetry_equiv_pos_site_id
 _symmetry_equiv_pos_as_xyz
  1  'x, y, z'
loop_
 _atom_site_type_symbol
 _atom_site_label
 _atom_site_symmetry_multiplicity
 _atom_site_fract_x
 _atom_site_fract_y
 _atom_site_fract_z
 _atom_site_occupancy
  Tb  Tb0  1  0.979113  0.905823  0.706518  1
  Tb  Tb1  1  0.694774  0.978689  0.902388  1
  Tb  Tb2  1  0.098086  0.305918  0.020373  1
  Tb  Tb3  1  0.020641  0.093558  0.293279  1
  Tb  Tb4  1  0.305214  0.021551  0.097536  1
  Dy  Dy5  1  0.902383  0.695768  0.979616  1
  Dy  Dy6  1  0.499922  0.499715  0.500187  1
  Fe  Fe7  1  0.000018  0.000137  0.999942  1
  Br  Br8  1  0.615399  0.831212  0.538159  1
  Br  Br9  1  0.538925  0.614216  0.834738  1
  Br  Br10  1  0.832087  0.539815  0.615114  1
  Br  Br11  1  0.384426  0.168207  0.461742  1
  Br  Br12  1  0.462261  0.385918  0.166046  1
  Br  Br13  1  0.167942  0.460005  0.386024  1
  Br  Br14  1  0.681880  0.073129  0.224846  1
  Br  Br15  1  0.221988  0.680071  0.072511  1
  Br  Br16  1  0.070920  0.220782  0.679296  1
  Br  Br17  1  0.317983  0.926447  0.774989  1
  Br  Br18  1  0.777217  0.321157  0.927565  1
  Br  Br19  1  0.928821  0.777882  0.319134  1
