# generated using pymatgen
data_Ce3Zn2FeNi6
_symmetry_space_group_name_H-M   'P 1'
_cell_length_a   5.11206100
_cell_length_b   5.11206152
_cell_length_c   16.20766100
_cell_angle_alpha   90.00000000
_cell_angle_beta   90.00000000
_cell_angle_gamma   120.00000313
_symmetry_Int_Tables_number   1
_chemical_formula_structural   Ce3Zn2FeNi6
_chemical_formula_sum   'Ce6 Zn4 Fe2 Ni12'
_cell_volume   366.81159992
_cell_formula_units_Z   2
loop_
 _symmetry_equiv_pos_site_id
 _symmetry_equiv_pos_as_xyz
  1  'x, y, z'
loop_
 _atom_site_type_symbol
 _atom_site_label
 _atom_site_symmetry_multiplicity
 _atom_site_fract_x
 _atom_site_fract_y
 _atom_site_fract_z
 _atom_site_occupancy
  Ce  Ce0  1  0.333333  0.666667  0.964475  1
  Ce  Ce1  1  0.666667  0.333333  0.035525  1
  Ce  Ce2  1  0.666667  0.333333  0.464475  1
  Ce  Ce3  1  0.333333  0.666667  0.535525  1
  Ce  Ce4  1  0.333333  0.666667  0.750000  1
  Ce  Ce5  1  0.666667  0.333333  0.250000  1
  Zn  Zn6  1  0.333333  0.666667  0.250000  1
  Zn  Zn7  1  0.666667  0.333333  0.750000  1
  Zn  Zn8  1  0.000000  0.000000  0.250000  1
  Zn  Zn9  1  0.000000  0.000000  0.750000  1
  Fe  Fe10  1  0.000000  0.000000  0.500000  1
  Fe  Fe11  1  0.000000  0.000000  0.000000  1
  Ni  Ni12  1  0.165325  0.834675  0.375133  1
  Ni  Ni13  1  0.165325  0.330651  0.375133  1
  Ni  Ni14  1  0.669349  0.834675  0.375133  1
  Ni  Ni15  1  0.834675  0.165325  0.624867  1
  Ni  Ni16  1  0.834675  0.669349  0.624867  1
  Ni  Ni17  1  0.330651  0.165325  0.624867  1
  Ni  Ni18  1  0.834675  0.165325  0.875133  1
  Ni  Ni19  1  0.834675  0.669349  0.875133  1
  Ni  Ni20  1  0.330651  0.165325  0.875133  1
  Ni  Ni21  1  0.165325  0.834675  0.124867  1
  Ni  Ni22  1  0.165325  0.330651  0.124867  1
  Ni  Ni23  1  0.669349  0.834675  0.124867  1
