# generated using pymatgen
data_La9Pr7Cd4(TcPd)2
_symmetry_space_group_name_H-M   'P 1'
_cell_length_a   10.09381727
_cell_length_b   10.09381891
_cell_length_c   10.19517400
_cell_angle_alpha   59.66727018
_cell_angle_beta   59.66726472
_cell_angle_gamma   59.67746800
_symmetry_Int_Tables_number   1
_chemical_formula_structural   La9Pr7Cd4(TcPd)2
_chemical_formula_sum   'La9 Pr7 Cd4 Tc2 Pd2'
_cell_volume   729.00235363
_cell_formula_units_Z   1
loop_
 _symmetry_equiv_pos_site_id
 _symmetry_equiv_pos_as_xyz
  1  'x, y, z'
loop_
 _atom_site_type_symbol
 _atom_site_label
 _atom_site_symmetry_multiplicity
 _atom_site_fract_x
 _atom_site_fract_y
 _atom_site_fract_z
 _atom_site_occupancy
  La  La0  1  0.347353  0.347353  0.356603  1
  La  La1  1  0.347353  0.347353  0.948691  1
  La  La2  1  0.343744  0.958690  0.348784  1
  La  La3  1  0.958690  0.343744  0.348784  1
  La  La4  1  0.818125  0.189482  0.190077  1
  La  La5  1  0.189482  0.818125  0.802316  1
  La  La6  1  0.189482  0.818125  0.190077  1
  La  La7  1  0.818125  0.189482  0.802316  1
  La  La8  1  0.188703  0.188703  0.811297  1
  Pr  Pr9  1  0.804340  0.804340  0.195660  1
  Pr  Pr10  1  0.935562  0.558929  0.566659  1
  Pr  Pr11  1  0.558929  0.935562  0.938849  1
  Pr  Pr12  1  0.558929  0.935562  0.566659  1
  Pr  Pr13  1  0.935562  0.558929  0.938849  1
  Pr  Pr14  1  0.563806  0.563806  0.936194  1
  Pr  Pr15  1  0.937527  0.937527  0.562473  1
  Cd  Cd16  1  0.580148  0.580148  0.579566  1
  Cd  Cd17  1  0.580148  0.580148  0.260138  1
  Cd  Cd18  1  0.579904  0.259143  0.580476  1
  Cd  Cd19  1  0.259143  0.579904  0.580476  1
  Tc  Tc20  1  0.140432  0.140432  0.132286  1
  Tc  Tc21  1  0.140432  0.140432  0.586850  1
  Pd  Pd22  1  0.148401  0.575679  0.137960  1
  Pd  Pd23  1  0.575679  0.148401  0.137960  1
