# generated using pymatgen
data_Na4LaP12Ir16Ru3
_symmetry_space_group_name_H-M   'P 1'
_cell_length_a   12.59630200
_cell_length_b   12.60380950
_cell_length_c   4.00444900
_cell_angle_alpha   90.00000000
_cell_angle_beta   90.00000000
_cell_angle_gamma   119.98030316
_symmetry_Int_Tables_number   1
_chemical_formula_structural   Na4LaP12Ir16Ru3
_chemical_formula_sum   'Na4 La1 P12 Ir16 Ru3'
_cell_volume   550.68653464
_cell_formula_units_Z   1
loop_
 _symmetry_equiv_pos_site_id
 _symmetry_equiv_pos_as_xyz
  1  'x, y, z'
loop_
 _atom_site_type_symbol
 _atom_site_label
 _atom_site_symmetry_multiplicity
 _atom_site_fract_x
 _atom_site_fract_y
 _atom_site_fract_z
 _atom_site_occupancy
  Na  Na0  1  0.001361  0.819006  0.500000  1
  Na  Na1  1  0.182354  0.180994  0.500000  1
  Na  Na2  1  0.333544  0.668177  0.000000  1
  Na  Na3  1  0.665368  0.331823  0.000000  1
  La  La4  1  0.826095  0.000000  0.500000  1
  P  P5  1  0.007128  0.188451  0.000000  1
  P  P6  1  0.818677  0.811549  0.000000  1
  P  P7  1  0.183160  0.000000  0.000000  1
  P  P8  1  0.514796  0.688945  0.500000  1
  P  P9  1  0.309393  0.826771  0.500000  1
  P  P10  1  0.175252  0.487216  0.500000  1
  P  P11  1  0.482622  0.173229  0.500000  1
  P  P12  1  0.688037  0.512784  0.500000  1
  P  P13  1  0.825852  0.311055  0.500000  1
  P  P14  1  0.000117  0.638710  0.000000  1
  P  P15  1  0.361407  0.361290  0.000000  1
  P  P16  1  0.635751  0.000000  0.000000  1
  Ir  Ir17  1  0.622213  0.802644  0.000000  1
  Ir  Ir18  1  0.196478  0.817383  0.000000  1
  Ir  Ir19  1  0.184360  0.382081  0.000000  1
  Ir  Ir20  1  0.379095  0.182617  0.000000  1
  Ir  Ir21  1  0.802278  0.617919  0.000000  1
  Ir  Ir22  1  0.819568  0.197356  0.000000  1
  Ir  Ir23  1  0.509518  0.871109  0.500000  1
  Ir  Ir24  1  0.126981  0.639043  0.500000  1
  Ir  Ir25  1  0.360876  0.490763  0.500000  1
  Ir  Ir26  1  0.487938  0.360957  0.500000  1
  Ir  Ir27  1  0.870114  0.509237  0.500000  1
  Ir  Ir28  1  0.638409  0.128891  0.500000  1
  Ir  Ir29  1  0.999281  0.000000  0.000000  1
  Ir  Ir30  1  0.997699  0.455691  0.000000  1
  Ir  Ir31  1  0.542008  0.544309  0.000000  1
  Ir  Ir32  1  0.455277  0.000000  0.000000  1
  Ru  Ru33  1  0.000802  0.295608  0.500000  1
  Ru  Ru34  1  0.705195  0.704392  0.500000  1
  Ru  Ru35  1  0.290992  0.000000  0.500000  1
