# generated using pymatgen
data_Yb3Sm2Dy(Si3Ru)8
_symmetry_space_group_name_H-M   'P 1'
_cell_length_a   10.14280917
_cell_length_b   10.14274674
_cell_length_c   8.11713900
_cell_angle_alpha   89.96168888
_cell_angle_beta   90.03749179
_cell_angle_gamma   132.82364707
_symmetry_Int_Tables_number   1
_chemical_formula_structural   Yb3Sm2Dy(Si3Ru)8
_chemical_formula_sum   'Yb3 Sm2 Dy1 Si24 Ru8'
_cell_volume   612.47286713
_cell_formula_units_Z   1
loop_
 _symmetry_equiv_pos_site_id
 _symmetry_equiv_pos_as_xyz
  1  'x, y, z'
loop_
 _atom_site_type_symbol
 _atom_site_label
 _atom_site_symmetry_multiplicity
 _atom_site_fract_x
 _atom_site_fract_y
 _atom_site_fract_z
 _atom_site_occupancy
  Yb  Yb0  1  0.500390  0.500349  0.500447  1
  Yb  Yb1  1  0.000348  0.000389  0.999552  1
  Yb  Yb2  1  0.501911  0.001911  0.750000  1
  Sm  Sm3  1  0.998810  0.498810  0.249999  1
  Sm  Sm4  1  0.498279  0.998279  0.249999  1
  Dy  Dy5  1  0.001374  0.501375  0.750001  1
  Si  Si6  1  0.795345  0.202963  0.503218  1
  Si  Si7  1  0.297109  0.705230  0.996037  1
  Si  Si8  1  0.205231  0.797109  0.503961  1
  Si  Si9  1  0.702964  0.295347  0.996781  1
  Si  Si10  1  0.332351  0.334262  0.832287  1
  Si  Si11  1  0.665546  0.668728  0.167547  1
  Si  Si12  1  0.168729  0.165546  0.332450  1
  Si  Si13  1  0.834263  0.832352  0.667708  1
  Si  Si14  1  0.122640  0.890832  0.730525  1
  Si  Si15  1  0.108513  0.876770  0.269418  1
  Si  Si16  1  0.608454  0.376694  0.230470  1
  Si  Si17  1  0.623070  0.391172  0.769541  1
  Si  Si18  1  0.876693  0.108455  0.269528  1
  Si  Si19  1  0.891172  0.123071  0.730458  1
  Si  Si20  1  0.390831  0.622638  0.769476  1
  Si  Si21  1  0.376770  0.608513  0.230581  1
  Si  Si22  1  0.346667  0.114273  0.506719  1
  Si  Si23  1  0.885466  0.653820  0.494313  1
  Si  Si24  1  0.385457  0.153316  0.005359  1
  Si  Si25  1  0.846098  0.614534  0.991697  1
  Si  Si26  1  0.653314  0.885454  0.494637  1
  Si  Si27  1  0.114533  0.346098  0.508308  1
  Si  Si28  1  0.614273  0.846666  0.993282  1
  Si  Si29  1  0.153825  0.385468  0.005684  1
  Ru  Ru30  1  0.671593  0.329434  0.500542  1
  Ru  Ru31  1  0.169475  0.827858  0.999275  1
  Ru  Ru32  1  0.327856  0.669476  0.500723  1
  Ru  Ru33  1  0.829431  0.171598  0.999459  1
  Ru  Ru34  1  0.126346  0.126675  0.625521  1
  Ru  Ru35  1  0.873780  0.874413  0.374377  1
  Ru  Ru36  1  0.374409  0.373777  0.125629  1
  Ru  Ru37  1  0.626679  0.626346  0.874487  1
