# generated using pymatgen
data_Sc6Zn20PPd3
_symmetry_space_group_name_H-M   'P 1'
_cell_length_a   8.80607209
_cell_length_b   8.80607161
_cell_length_c   8.81780400
_cell_angle_alpha   59.95592536
_cell_angle_beta   59.95592718
_cell_angle_gamma   60.08815615
_symmetry_Int_Tables_number   1
_chemical_formula_structural   Sc6Zn20PPd3
_chemical_formula_sum   'Sc6 Zn20 P1 Pd3'
_cell_volume   483.51324769
_cell_formula_units_Z   1
loop_
 _symmetry_equiv_pos_site_id
 _symmetry_equiv_pos_as_xyz
  1  'x, y, z'
loop_
 _atom_site_type_symbol
 _atom_site_label
 _atom_site_symmetry_multiplicity
 _atom_site_fract_x
 _atom_site_fract_y
 _atom_site_fract_z
 _atom_site_occupancy
  Sc  Sc0  1  0.708617  0.291383  0.291383  1
  Sc  Sc1  1  0.291383  0.708617  0.708617  1
  Sc  Sc2  1  0.291383  0.708617  0.291383  1
  Sc  Sc3  1  0.708617  0.291383  0.708617  1
  Sc  Sc4  1  0.287400  0.287400  0.712600  1
  Sc  Sc5  1  0.712600  0.712600  0.287400  1
  Zn  Zn6  1  0.119199  0.119199  0.125073  1
  Zn  Zn7  1  0.880801  0.880801  0.874927  1
  Zn  Zn8  1  0.119199  0.119199  0.636528  1
  Zn  Zn9  1  0.125073  0.636528  0.119199  1
  Zn  Zn10  1  0.880801  0.880801  0.363472  1
  Zn  Zn11  1  0.874927  0.363472  0.880801  1
  Zn  Zn12  1  0.636528  0.125073  0.119199  1
  Zn  Zn13  1  0.363472  0.874927  0.880801  1
  Zn  Zn14  1  0.500000  0.000000  0.000000  1
  Zn  Zn15  1  0.000000  0.500000  0.500000  1
  Zn  Zn16  1  0.000000  0.500000  0.000000  1
  Zn  Zn17  1  0.500000  0.000000  0.500000  1
  Zn  Zn18  1  0.331929  0.331929  0.335678  1
  Zn  Zn19  1  0.668071  0.668071  0.664322  1
  Zn  Zn20  1  0.331929  0.331929  0.000467  1
  Zn  Zn21  1  0.335678  0.000467  0.331929  1
  Zn  Zn22  1  0.668071  0.668071  0.999533  1
  Zn  Zn23  1  0.664322  0.999533  0.668071  1
  Zn  Zn24  1  0.000467  0.335678  0.331929  1
  Zn  Zn25  1  0.999533  0.664322  0.668071  1
  P  P26  1  0.500000  0.500000  0.500000  1
  Pd  Pd27  1  0.000000  0.000000  0.500000  1
  Pd  Pd28  1  0.500000  0.500000  0.000000  1
  Pd  Pd29  1  0.000000  0.000000  0.000000  1
