# generated using pymatgen
data_PrHo23Te12
_symmetry_space_group_name_H-M   'P 1'
_cell_length_a   4.08527600
_cell_length_b   11.48283237
_cell_length_c   21.81550300
_cell_angle_alpha   89.94457451
_cell_angle_beta   90.00000000
_cell_angle_gamma   90.00000000
_symmetry_Int_Tables_number   1
_chemical_formula_structural   PrHo23Te12
_chemical_formula_sum   'Pr1 Ho23 Te12'
_cell_volume   1023.37653646
_cell_formula_units_Z   1
loop_
 _symmetry_equiv_pos_site_id
 _symmetry_equiv_pos_as_xyz
  1  'x, y, z'
loop_
 _atom_site_type_symbol
 _atom_site_label
 _atom_site_symmetry_multiplicity
 _atom_site_fract_x
 _atom_site_fract_y
 _atom_site_fract_z
 _atom_site_occupancy
  Pr  Pr0  1  0.250000  0.751820  0.731322  1
  Ho  Ho1  1  0.250000  0.889692  0.486972  1
  Ho  Ho2  1  0.750000  0.110157  0.513259  1
  Ho  Ho3  1  0.750000  0.389068  0.012835  1
  Ho  Ho4  1  0.250000  0.609751  0.987375  1
  Ho  Ho5  1  0.250000  0.078262  0.642830  1
  Ho  Ho6  1  0.750000  0.923790  0.356981  1
  Ho  Ho7  1  0.750000  0.576722  0.856492  1
  Ho  Ho8  1  0.250000  0.423262  0.143299  1
  Ho  Ho9  1  0.250000  0.381489  0.534139  1
  Ho  Ho10  1  0.750000  0.617984  0.465973  1
  Ho  Ho11  1  0.750000  0.882997  0.966590  1
  Ho  Ho12  1  0.250000  0.118365  0.033816  1
  Ho  Ho13  1  0.750000  0.659414  0.108212  1
  Ho  Ho14  1  0.250000  0.340700  0.891660  1
  Ho  Ho15  1  0.250000  0.158811  0.392106  1
  Ho  Ho16  1  0.750000  0.844641  0.606877  1
  Ho  Ho17  1  0.750000  0.964238  0.160950  1
  Ho  Ho18  1  0.250000  0.035216  0.838946  1
  Ho  Ho19  1  0.250000  0.464836  0.339330  1
  Ho  Ho20  1  0.750000  0.531833  0.659873  1
  Ho  Ho21  1  0.250000  0.745191  0.232605  1
  Ho  Ho22  1  0.750000  0.254817  0.767507  1
  Ho  Ho23  1  0.750000  0.244759  0.267771  1
  Te  Te24  1  0.750000  0.974432  0.737098  1
  Te  Te25  1  0.250000  0.030261  0.262129  1
  Te  Te26  1  0.250000  0.466090  0.762078  1
  Te  Te27  1  0.750000  0.530490  0.237959  1
  Te  Te28  1  0.750000  0.279382  0.625983  1
  Te  Te29  1  0.250000  0.719629  0.374211  1
  Te  Te30  1  0.250000  0.781525  0.876036  1
  Te  Te31  1  0.750000  0.219091  0.126197  1
  Te  Te32  1  0.250000  0.646589  0.571584  1
  Te  Te33  1  0.750000  0.354497  0.429249  1
  Te  Te34  1  0.750000  0.145112  0.929004  1
  Te  Te35  1  0.250000  0.855089  0.070753  1
