# generated using pymatgen
data_YTc3P4Rh3
_symmetry_space_group_name_H-M   'P 1'
_cell_length_a   6.97528100
_cell_length_b   6.97528201
_cell_length_c   3.78915200
_cell_angle_alpha   90.00000000
_cell_angle_beta   90.00000000
_cell_angle_gamma   119.99999047
_symmetry_Int_Tables_number   1
_chemical_formula_structural   YTc3P4Rh3
_chemical_formula_sum   'Y1 Tc3 P4 Rh3'
_cell_volume   159.66001998
_cell_formula_units_Z   1
loop_
 _symmetry_equiv_pos_site_id
 _symmetry_equiv_pos_as_xyz
  1  'x, y, z'
loop_
 _atom_site_type_symbol
 _atom_site_label
 _atom_site_symmetry_multiplicity
 _atom_site_fract_x
 _atom_site_fract_y
 _atom_site_fract_z
 _atom_site_occupancy
  Y  Y0  1  0.333333  0.666667  0.000000  1
  Tc  Tc1  1  0.264702  0.132351  0.000000  1
  Tc  Tc2  1  0.867649  0.735298  0.000000  1
  Tc  Tc3  1  0.867649  0.132351  0.000000  1
  P  P4  1  0.666667  0.333333  0.000000  1
  P  P5  1  0.718705  0.859353  0.500000  1
  P  P6  1  0.140647  0.281295  0.500000  1
  P  P7  1  0.140647  0.859353  0.500000  1
  Rh  Rh8  1  0.942759  0.471380  0.500000  1
  Rh  Rh9  1  0.528620  0.057241  0.500000  1
  Rh  Rh10  1  0.528620  0.471380  0.500000  1
