# generated using pymatgen
data_Ho16MgZn3TcNi3
_symmetry_space_group_name_H-M   'P 1'
_cell_length_a   9.47075310
_cell_length_b   9.47075244
_cell_length_c   9.47075302
_cell_angle_alpha   59.29329894
_cell_angle_beta   59.29330942
_cell_angle_gamma   59.29330084
_symmetry_Int_Tables_number   1
_chemical_formula_structural   Ho16MgZn3TcNi3
_chemical_formula_sum   'Ho16 Mg1 Zn3 Tc1 Ni3'
_cell_volume   591.00740042
_cell_formula_units_Z   1
loop_
 _symmetry_equiv_pos_site_id
 _symmetry_equiv_pos_as_xyz
  1  'x, y, z'
loop_
 _atom_site_type_symbol
 _atom_site_label
 _atom_site_symmetry_multiplicity
 _atom_site_fract_x
 _atom_site_fract_y
 _atom_site_fract_z
 _atom_site_occupancy
  Ho  Ho0  1  0.352499  0.352499  0.352499  1
  Ho  Ho1  1  0.351367  0.351367  0.950984  1
  Ho  Ho2  1  0.351367  0.950984  0.351367  1
  Ho  Ho3  1  0.950984  0.351367  0.351367  1
  Ho  Ho4  1  0.808015  0.191464  0.191464  1
  Ho  Ho5  1  0.187960  0.811087  0.811087  1
  Ho  Ho6  1  0.191464  0.808015  0.191464  1
  Ho  Ho7  1  0.811087  0.187960  0.811087  1
  Ho  Ho8  1  0.191464  0.191464  0.808015  1
  Ho  Ho9  1  0.811087  0.811087  0.187960  1
  Ho  Ho10  1  0.939043  0.565384  0.565384  1
  Ho  Ho11  1  0.557453  0.938664  0.938664  1
  Ho  Ho12  1  0.565384  0.939043  0.565384  1
  Ho  Ho13  1  0.938664  0.557453  0.938664  1
  Ho  Ho14  1  0.565384  0.565384  0.939043  1
  Ho  Ho15  1  0.938664  0.938664  0.557453  1
  Mg  Mg16  1  0.570768  0.570768  0.570768  1
  Zn  Zn17  1  0.578069  0.578069  0.256288  1
  Zn  Zn18  1  0.578069  0.256288  0.578069  1
  Zn  Zn19  1  0.256288  0.578069  0.578069  1
  Tc  Tc20  1  0.143547  0.143547  0.143547  1
  Ni  Ni21  1  0.144746  0.144746  0.571884  1
  Ni  Ni22  1  0.144746  0.571884  0.144746  1
  Ni  Ni23  1  0.571884  0.144746  0.144746  1
