# generated using pymatgen
data_Yb3TmOsRu7
_symmetry_space_group_name_H-M   'P 1'
_cell_length_a   5.20645660
_cell_length_b   5.31224248
_cell_length_c   8.83687755
_cell_angle_alpha   90.00000333
_cell_angle_beta   90.10074305
_cell_angle_gamma   120.67443801
_symmetry_Int_Tables_number   1
_chemical_formula_structural   Yb3TmOsRu7
_chemical_formula_sum   'Yb3 Tm1 Os1 Ru7'
_cell_volume   210.21170775
_cell_formula_units_Z   1
loop_
 _symmetry_equiv_pos_site_id
 _symmetry_equiv_pos_as_xyz
  1  'x, y, z'
loop_
 _atom_site_type_symbol
 _atom_site_label
 _atom_site_symmetry_multiplicity
 _atom_site_fract_x
 _atom_site_fract_y
 _atom_site_fract_z
 _atom_site_occupancy
  Yb  Yb0  1  0.663159  0.331580  0.568569  1
  Yb  Yb1  1  0.661819  0.330909  0.935753  1
  Yb  Yb2  1  0.327524  0.663762  0.062017  1
  Tm  Tm3  1  0.330302  0.665151  0.431793  1
  Os  Os4  1  0.671712  0.835856  0.750290  1
  Ru  Ru5  1  0.980066  0.990033  0.499981  1
  Ru  Ru6  1  0.978093  0.989047  0.001016  1
  Ru  Ru7  1  0.832621  0.169678  0.250728  1
  Ru  Ru8  1  0.832621  0.662943  0.250728  1
  Ru  Ru9  1  0.356843  0.178421  0.252170  1
  Ru  Ru10  1  0.182619  0.832108  0.748477  1
  Ru  Ru11  1  0.182619  0.350513  0.748477  1
