# generated using pymatgen
data_Ce2PrGa3IrRh2
_symmetry_space_group_name_H-M   'P 1'
_cell_length_a   7.28780359
_cell_length_b   7.18229761
_cell_length_c   3.99344700
_cell_angle_alpha   90.00000000
_cell_angle_beta   90.00000000
_cell_angle_gamma   119.56797068
_symmetry_Int_Tables_number   1
_chemical_formula_structural   Ce2PrGa3IrRh2
_chemical_formula_sum   'Ce2 Pr1 Ga3 Ir1 Rh2'
_cell_volume   181.80794697
_cell_formula_units_Z   1
loop_
 _symmetry_equiv_pos_site_id
 _symmetry_equiv_pos_as_xyz
  1  'x, y, z'
loop_
 _atom_site_type_symbol
 _atom_site_label
 _atom_site_symmetry_multiplicity
 _atom_site_fract_x
 _atom_site_fract_y
 _atom_site_fract_z
 _atom_site_occupancy
  Ce  Ce0  1  0.583549  0.586313  0.500000  1
  Ce  Ce1  1  0.415505  0.001475  0.500000  1
  Pr  Pr2  1  0.000426  0.415658  0.500000  1
  Ga  Ga3  1  0.000407  0.751408  0.000000  1
  Ga  Ga4  1  0.234796  0.239833  0.000000  1
  Ga  Ga5  1  0.764946  0.004957  0.000000  1
  Ir  Ir6  1  0.360096  0.688980  0.000000  1
  Rh  Rh7  1  0.640108  0.329019  0.000000  1
  Rh  Rh8  1  0.000168  0.982357  0.500000  1
