# generated using pymatgen
data_Eu5TlCu2
_symmetry_space_group_name_H-M   'P 1'
_cell_length_a   9.36622143
_cell_length_b   9.36622140
_cell_length_c   9.36622111
_cell_angle_alpha   128.75249784
_cell_angle_beta   128.75249889
_cell_angle_gamma   75.40914418
_symmetry_Int_Tables_number   1
_chemical_formula_structural   Eu5TlCu2
_chemical_formula_sum   'Eu10 Tl2 Cu4'
_cell_volume   486.31383704
_cell_formula_units_Z   2
loop_
 _symmetry_equiv_pos_site_id
 _symmetry_equiv_pos_as_xyz
  1  'x, y, z'
loop_
 _atom_site_type_symbol
 _atom_site_label
 _atom_site_symmetry_multiplicity
 _atom_site_fract_x
 _atom_site_fract_y
 _atom_site_fract_z
 _atom_site_occupancy
  Eu  Eu0  1  0.500000  0.500000  0.000000  1
  Eu  Eu1  1  0.000000  0.000000  0.000000  1
  Eu  Eu2  1  0.526741  0.026741  0.833491  1
  Eu  Eu3  1  0.193250  0.693250  0.166509  1
  Eu  Eu4  1  0.026741  0.193250  0.500000  1
  Eu  Eu5  1  0.693250  0.526741  0.500000  1
  Eu  Eu6  1  0.473259  0.973259  0.166509  1
  Eu  Eu7  1  0.806750  0.306750  0.833491  1
  Eu  Eu8  1  0.973259  0.806750  0.500000  1
  Eu  Eu9  1  0.306750  0.473259  0.500000  1
  Tl  Tl10  1  0.250000  0.250000  0.000000  1
  Tl  Tl11  1  0.750000  0.750000  0.000000  1
  Cu  Cu12  1  0.115008  0.615008  0.730014  1
  Cu  Cu13  1  0.884992  0.384992  0.269986  1
  Cu  Cu14  1  0.615008  0.884992  0.500000  1
  Cu  Cu15  1  0.384992  0.115008  0.500000  1
