# generated using pymatgen
data_Lu6Zn22CuGe
_symmetry_space_group_name_H-M   'P 1'
_cell_length_a   8.98641193
_cell_length_b   8.98641154
_cell_length_c   8.98641100
_cell_angle_alpha   59.99999830
_cell_angle_beta   59.99999974
_cell_angle_gamma   59.99999626
_symmetry_Int_Tables_number   1
_chemical_formula_structural   Lu6Zn22CuGe
_chemical_formula_sum   'Lu6 Zn22 Cu1 Ge1'
_cell_volume   513.14947266
_cell_formula_units_Z   1
loop_
 _symmetry_equiv_pos_site_id
 _symmetry_equiv_pos_as_xyz
  1  'x, y, z'
loop_
 _atom_site_type_symbol
 _atom_site_label
 _atom_site_symmetry_multiplicity
 _atom_site_fract_x
 _atom_site_fract_y
 _atom_site_fract_z
 _atom_site_occupancy
  Lu  Lu0  1  0.716693  0.283307  0.283307  1
  Lu  Lu1  1  0.283307  0.716693  0.716693  1
  Lu  Lu2  1  0.283307  0.716693  0.283307  1
  Lu  Lu3  1  0.716693  0.283307  0.716693  1
  Lu  Lu4  1  0.283307  0.283307  0.716693  1
  Lu  Lu5  1  0.716693  0.716693  0.283307  1
  Zn  Zn6  1  0.123948  0.123948  0.123948  1
  Zn  Zn7  1  0.876052  0.876052  0.876052  1
  Zn  Zn8  1  0.123948  0.123948  0.628155  1
  Zn  Zn9  1  0.123948  0.628155  0.123948  1
  Zn  Zn10  1  0.876052  0.876052  0.371845  1
  Zn  Zn11  1  0.876052  0.371845  0.876052  1
  Zn  Zn12  1  0.628155  0.123948  0.123948  1
  Zn  Zn13  1  0.371845  0.876052  0.876052  1
  Zn  Zn14  1  0.500000  0.000000  0.000000  1
  Zn  Zn15  1  0.000000  0.500000  0.500000  1
  Zn  Zn16  1  0.000000  0.500000  0.000000  1
  Zn  Zn17  1  0.500000  0.000000  0.500000  1
  Zn  Zn18  1  0.000000  0.000000  0.500000  1
  Zn  Zn19  1  0.500000  0.500000  0.000000  1
  Zn  Zn20  1  0.334910  0.334910  0.334910  1
  Zn  Zn21  1  0.665090  0.665090  0.665090  1
  Zn  Zn22  1  0.334910  0.334910  0.995270  1
  Zn  Zn23  1  0.334910  0.995270  0.334910  1
  Zn  Zn24  1  0.665090  0.665090  0.004730  1
  Zn  Zn25  1  0.665090  0.004730  0.665090  1
  Zn  Zn26  1  0.995270  0.334910  0.334910  1
  Zn  Zn27  1  0.004730  0.665090  0.665090  1
  Cu  Cu28  1  0.000000  0.000000  0.000000  1
  Ge  Ge29  1  0.500000  0.500000  0.500000  1
