# generated using pymatgen
data_Dy4Sn6Ir3Rh4
_symmetry_space_group_name_H-M   'P 1'
_cell_length_a   7.61295753
_cell_length_b   7.61295753
_cell_length_c   7.61082900
_cell_angle_alpha   109.46555699
_cell_angle_beta   109.46555699
_cell_angle_gamma   109.47688368
_symmetry_Int_Tables_number   1
_chemical_formula_structural   Dy4Sn6Ir3Rh4
_chemical_formula_sum   'Dy4 Sn6 Ir3 Rh4'
_cell_volume   339.58401471
_cell_formula_units_Z   1
loop_
 _symmetry_equiv_pos_site_id
 _symmetry_equiv_pos_as_xyz
  1  'x, y, z'
loop_
 _atom_site_type_symbol
 _atom_site_label
 _atom_site_symmetry_multiplicity
 _atom_site_fract_x
 _atom_site_fract_y
 _atom_site_fract_z
 _atom_site_occupancy
  Dy  Dy0  1  0.000000  0.000000  0.500000  1
  Dy  Dy1  1  0.995111  0.497555  0.997555  1
  Dy  Dy2  1  0.502445  0.004889  0.002445  1
  Dy  Dy3  1  0.502445  0.497555  0.500000  1
  Sn  Sn4  1  0.684427  0.686503  0.999828  1
  Sn  Sn5  1  0.313497  0.997925  0.313325  1
  Sn  Sn6  1  0.002075  0.315573  0.315401  1
  Sn  Sn7  1  0.313497  0.315573  0.000172  1
  Sn  Sn8  1  0.684427  0.997925  0.684599  1
  Sn  Sn9  1  0.002075  0.686503  0.686675  1
  Ir  Ir10  1  0.749880  0.250120  0.500000  1
  Ir  Ir11  1  0.749880  0.499760  0.249880  1
  Ir  Ir12  1  0.500240  0.250120  0.750120  1
  Rh  Rh13  1  0.249751  0.499502  0.749751  1
  Rh  Rh14  1  0.249751  0.750249  0.500000  1
  Rh  Rh15  1  0.500498  0.750249  0.250249  1
  Rh  Rh16  1  0.000000  0.000000  0.000000  1
