# generated using pymatgen
data_Y3ErCdIr
_symmetry_space_group_name_H-M   'P 1'
_cell_length_a   9.64127965
_cell_length_b   9.64127911
_cell_length_c   9.64127900
_cell_angle_alpha   59.99999696
_cell_angle_beta   59.99999880
_cell_angle_gamma   59.99999538
_symmetry_Int_Tables_number   1
_chemical_formula_structural   Y3ErCdIr
_chemical_formula_sum   'Y12 Er4 Cd4 Ir4'
_cell_volume   633.70766403
_cell_formula_units_Z   4
loop_
 _symmetry_equiv_pos_site_id
 _symmetry_equiv_pos_as_xyz
  1  'x, y, z'
loop_
 _atom_site_type_symbol
 _atom_site_label
 _atom_site_symmetry_multiplicity
 _atom_site_fract_x
 _atom_site_fract_y
 _atom_site_fract_z
 _atom_site_occupancy
  Y  Y0  1  0.809738  0.190262  0.190262  1
  Y  Y1  1  0.190262  0.809738  0.809738  1
  Y  Y2  1  0.190262  0.809738  0.190262  1
  Y  Y3  1  0.809738  0.190262  0.809738  1
  Y  Y4  1  0.190262  0.190262  0.809738  1
  Y  Y5  1  0.809738  0.809738  0.190262  1
  Y  Y6  1  0.938599  0.561401  0.561401  1
  Y  Y7  1  0.561401  0.938599  0.938599  1
  Y  Y8  1  0.561401  0.938599  0.561401  1
  Y  Y9  1  0.938599  0.561401  0.938599  1
  Y  Y10  1  0.561401  0.561401  0.938599  1
  Y  Y11  1  0.938599  0.938599  0.561401  1
  Er  Er12  1  0.348370  0.348370  0.348370  1
  Er  Er13  1  0.348370  0.348370  0.954891  1
  Er  Er14  1  0.348370  0.954891  0.348370  1
  Er  Er15  1  0.954891  0.348370  0.348370  1
  Cd  Cd16  1  0.580866  0.580866  0.580866  1
  Cd  Cd17  1  0.580866  0.580866  0.257403  1
  Cd  Cd18  1  0.580866  0.257403  0.580866  1
  Cd  Cd19  1  0.257403  0.580866  0.580866  1
  Ir  Ir20  1  0.142829  0.142829  0.142829  1
  Ir  Ir21  1  0.142829  0.142829  0.571512  1
  Ir  Ir22  1  0.142829  0.571512  0.142829  1
  Ir  Ir23  1  0.571512  0.142829  0.142829  1
