# generated using pymatgen
data_LaTb(ZnSn)2
_symmetry_space_group_name_H-M   'P 1'
_cell_length_a   4.56747000
_cell_length_b   4.56746946
_cell_length_c   16.60041500
_cell_angle_alpha   90.00000000
_cell_angle_beta   90.00000000
_cell_angle_gamma   119.99998946
_symmetry_Int_Tables_number   1
_chemical_formula_structural   LaTb(ZnSn)2
_chemical_formula_sum   'La2 Tb2 Zn4 Sn4'
_cell_volume   299.91692755
_cell_formula_units_Z   2
loop_
 _symmetry_equiv_pos_site_id
 _symmetry_equiv_pos_as_xyz
  1  'x, y, z'
loop_
 _atom_site_type_symbol
 _atom_site_label
 _atom_site_symmetry_multiplicity
 _atom_site_fract_x
 _atom_site_fract_y
 _atom_site_fract_z
 _atom_site_occupancy
  La  La0  1  0.000000  0.000000  0.500000  1
  La  La1  1  0.000000  0.000000  0.000000  1
  Tb  Tb2  1  0.000000  0.000000  0.750000  1
  Tb  Tb3  1  0.000000  0.000000  0.250000  1
  Zn  Zn4  1  0.666667  0.333333  0.836013  1
  Zn  Zn5  1  0.666667  0.333333  0.663987  1
  Zn  Zn6  1  0.333333  0.666667  0.163987  1
  Zn  Zn7  1  0.333333  0.666667  0.336013  1
  Sn  Sn8  1  0.666667  0.333333  0.118928  1
  Sn  Sn9  1  0.666667  0.333333  0.381072  1
  Sn  Sn10  1  0.333333  0.666667  0.881072  1
  Sn  Sn11  1  0.333333  0.666667  0.618928  1
