# generated using pymatgen
data_Pr4Al2Ga3Cl2
_symmetry_space_group_name_H-M   'P 1'
_cell_length_a   11.46603996
_cell_length_b   11.46604048
_cell_length_c   4.26441200
_cell_angle_alpha   90.00000000
_cell_angle_beta   90.00000000
_cell_angle_gamma   94.07428247
_symmetry_Int_Tables_number   1
_chemical_formula_structural   Pr4Al2Ga3Cl2
_chemical_formula_sum   'Pr8 Al4 Ga6 Cl4'
_cell_volume   559.22570958
_cell_formula_units_Z   2
loop_
 _symmetry_equiv_pos_site_id
 _symmetry_equiv_pos_as_xyz
  1  'x, y, z'
loop_
 _atom_site_type_symbol
 _atom_site_label
 _atom_site_symmetry_multiplicity
 _atom_site_fract_x
 _atom_site_fract_y
 _atom_site_fract_z
 _atom_site_occupancy
  Pr  Pr0  1  0.681470  0.040660  0.500000  1
  Pr  Pr1  1  0.318530  0.959340  0.500000  1
  Pr  Pr2  1  0.040660  0.681470  0.500000  1
  Pr  Pr3  1  0.959340  0.318530  0.500000  1
  Pr  Pr4  1  0.734071  0.734071  0.000000  1
  Pr  Pr5  1  0.265929  0.265929  0.000000  1
  Pr  Pr6  1  0.364114  0.635886  0.000000  1
  Pr  Pr7  1  0.635886  0.364114  0.000000  1
  Al  Al8  1  0.516892  0.783718  0.500000  1
  Al  Al9  1  0.483108  0.216282  0.500000  1
  Al  Al10  1  0.216282  0.483108  0.500000  1
  Al  Al11  1  0.783718  0.516892  0.500000  1
  Ga  Ga12  1  0.579493  0.579493  0.500000  1
  Ga  Ga13  1  0.420507  0.420507  0.500000  1
  Ga  Ga14  1  0.534532  0.900056  0.000000  1
  Ga  Ga15  1  0.465468  0.099944  0.000000  1
  Ga  Ga16  1  0.900056  0.534532  0.000000  1
  Ga  Ga17  1  0.099944  0.465468  0.000000  1
  Cl  Cl18  1  0.128342  0.128342  0.500000  1
  Cl  Cl19  1  0.871658  0.871658  0.500000  1
  Cl  Cl20  1  0.823511  0.176489  0.000000  1
  Cl  Cl21  1  0.176489  0.823511  0.000000  1
