# generated using pymatgen
data_LuMg(TcSn4)2
_symmetry_space_group_name_H-M   'P 1'
_cell_length_a   7.55255430
_cell_length_b   7.55255458
_cell_length_c   7.55255442
_cell_angle_alpha   125.29380373
_cell_angle_beta   125.29381300
_cell_angle_gamma   81.05195166
_symmetry_Int_Tables_number   1
_chemical_formula_structural   LuMg(TcSn4)2
_chemical_formula_sum   'Lu1 Mg1 Tc2 Sn8'
_cell_volume   276.52763632
_cell_formula_units_Z   1
loop_
 _symmetry_equiv_pos_site_id
 _symmetry_equiv_pos_as_xyz
  1  'x, y, z'
loop_
 _atom_site_type_symbol
 _atom_site_label
 _atom_site_symmetry_multiplicity
 _atom_site_fract_x
 _atom_site_fract_y
 _atom_site_fract_z
 _atom_site_occupancy
  Lu  Lu0  1  0.500000  0.500000  0.000000  1
  Mg  Mg1  1  0.000000  0.000000  0.000000  1
  Tc  Tc2  1  0.754402  0.754402  0.000000  1
  Tc  Tc3  1  0.245598  0.245598  0.000000  1
  Sn  Sn4  1  0.704770  0.514912  0.504887  1
  Sn  Sn5  1  0.514912  0.010025  0.810142  1
  Sn  Sn6  1  0.199882  0.704770  0.189858  1
  Sn  Sn7  1  0.800118  0.295230  0.810142  1
  Sn  Sn8  1  0.485088  0.989975  0.189858  1
  Sn  Sn9  1  0.295230  0.485088  0.495113  1
  Sn  Sn10  1  0.989975  0.800118  0.504887  1
  Sn  Sn11  1  0.010025  0.199882  0.495113  1
