# generated using pymatgen
data_SrCaAs3BrO6
_symmetry_space_group_name_H-M   'P 1'
_cell_length_a   5.46352300
_cell_length_b   8.55214489
_cell_length_c   10.44946375
_cell_angle_alpha   71.34714570
_cell_angle_beta   90.00000000
_cell_angle_gamma   90.00000000
_symmetry_Int_Tables_number   1
_chemical_formula_structural   SrCaAs3BrO6
_chemical_formula_sum   'Sr2 Ca2 As6 Br2 O12'
_cell_volume   462.60361926
_cell_formula_units_Z   2
loop_
 _symmetry_equiv_pos_site_id
 _symmetry_equiv_pos_as_xyz
  1  'x, y, z'
loop_
 _atom_site_type_symbol
 _atom_site_label
 _atom_site_symmetry_multiplicity
 _atom_site_fract_x
 _atom_site_fract_y
 _atom_site_fract_z
 _atom_site_occupancy
  Sr  Sr0  1  0.250000  0.150213  0.385363  1
  Sr  Sr1  1  0.750000  0.849787  0.614637  1
  Ca  Ca2  1  0.250000  0.052626  0.774514  1
  Ca  Ca3  1  0.750000  0.947374  0.225486  1
  As  As4  1  0.250000  0.729511  0.425823  1
  As  As5  1  0.750000  0.270489  0.574177  1
  As  As6  1  0.250000  0.589268  0.164283  1
  As  As7  1  0.750000  0.410732  0.835717  1
  As  As8  1  0.250000  0.605409  0.824866  1
  As  As9  1  0.750000  0.394591  0.175134  1
  Br  Br10  1  0.750000  0.840098  0.959820  1
  Br  Br11  1  0.250000  0.159902  0.040180  1
  O  O12  1  0.988781  0.547839  0.731794  1
  O  O13  1  0.488781  0.452161  0.268206  1
  O  O14  1  0.011219  0.452161  0.268206  1
  O  O15  1  0.511219  0.547839  0.731794  1
  O  O16  1  0.007748  0.873755  0.408047  1
  O  O17  1  0.507748  0.126245  0.591953  1
  O  O18  1  0.992252  0.126245  0.591953  1
  O  O19  1  0.492252  0.873755  0.408047  1
  O  O20  1  0.750000  0.249746  0.761462  1
  O  O21  1  0.250000  0.750254  0.238538  1
  O  O22  1  0.250000  0.812520  0.726360  1
  O  O23  1  0.750000  0.187480  0.273640  1
