# generated using pymatgen
data_La4Tb5PrRu4
_symmetry_space_group_name_H-M   'P 1'
_cell_length_a   8.87419772
_cell_length_b   8.87419755
_cell_length_c   7.32679488
_cell_angle_alpha   83.82930465
_cell_angle_beta   83.82930568
_cell_angle_gamma   43.43681843
_symmetry_Int_Tables_number   1
_chemical_formula_structural   La4Tb5PrRu4
_chemical_formula_sum   'La4 Tb5 Pr1 Ru4'
_cell_volume   394.05107752
_cell_formula_units_Z   1
loop_
 _symmetry_equiv_pos_site_id
 _symmetry_equiv_pos_as_xyz
  1  'x, y, z'
loop_
 _atom_site_type_symbol
 _atom_site_label
 _atom_site_symmetry_multiplicity
 _atom_site_fract_x
 _atom_site_fract_y
 _atom_site_fract_z
 _atom_site_occupancy
  La  La0  1  0.014423  0.792724  0.907002  1
  La  La1  1  0.207276  0.985577  0.592998  1
  La  La2  1  0.983925  0.209649  0.090361  1
  La  La3  1  0.790351  0.016075  0.409639  1
  Tb  Tb4  1  0.362747  0.207949  0.817149  1
  Tb  Tb5  1  0.792051  0.637253  0.682851  1
  Tb  Tb6  1  0.639459  0.792186  0.182172  1
  Tb  Tb7  1  0.207814  0.360541  0.317828  1
  Tb  Tb8  1  0.573010  0.426990  0.750000  1
  Pr  Pr9  1  0.424353  0.575647  0.250000  1
  Ru  Ru10  1  0.166614  0.605600  0.586461  1
  Ru  Ru11  1  0.394400  0.833386  0.913539  1
  Ru  Ru12  1  0.835601  0.392025  0.418052  1
  Ru  Ru13  1  0.607975  0.164399  0.081948  1
