# generated using pymatgen
data_Dy3Er5In3Ni
_symmetry_space_group_name_H-M   'P 1'
_cell_length_a   10.35544600
_cell_length_b   10.35544660
_cell_length_c   6.92230200
_cell_angle_alpha   90.00000000
_cell_angle_beta   90.00000000
_cell_angle_gamma   119.99999807
_symmetry_Int_Tables_number   1
_chemical_formula_structural   Dy3Er5In3Ni
_chemical_formula_sum   'Dy6 Er10 In6 Ni2'
_cell_volume   642.86358291
_cell_formula_units_Z   2
loop_
 _symmetry_equiv_pos_site_id
 _symmetry_equiv_pos_as_xyz
  1  'x, y, z'
loop_
 _atom_site_type_symbol
 _atom_site_label
 _atom_site_symmetry_multiplicity
 _atom_site_fract_x
 _atom_site_fract_y
 _atom_site_fract_z
 _atom_site_occupancy
  Dy  Dy0  1  0.532941  0.065883  0.793884  1
  Dy  Dy1  1  0.934117  0.467059  0.793884  1
  Dy  Dy2  1  0.532941  0.467059  0.793884  1
  Dy  Dy3  1  0.467059  0.934117  0.293884  1
  Dy  Dy4  1  0.065883  0.532941  0.293884  1
  Dy  Dy5  1  0.467059  0.532941  0.293884  1
  Er  Er6  1  0.823099  0.646200  0.499740  1
  Er  Er7  1  0.353800  0.176901  0.499740  1
  Er  Er8  1  0.823099  0.176901  0.499740  1
  Er  Er9  1  0.176901  0.353800  0.999740  1
  Er  Er10  1  0.646200  0.823099  0.999740  1
  Er  Er11  1  0.176901  0.823099  0.999740  1
  Er  Er12  1  0.666667  0.333333  0.180504  1
  Er  Er13  1  0.333333  0.666667  0.680504  1
  Er  Er14  1  0.000000  0.000000  0.777664  1
  Er  Er15  1  0.000000  0.000000  0.277664  1
  In  In16  1  0.837371  0.674742  0.037414  1
  In  In17  1  0.325258  0.162629  0.037414  1
  In  In18  1  0.837371  0.162629  0.037414  1
  In  In19  1  0.162629  0.325258  0.537414  1
  In  In20  1  0.674742  0.837371  0.537414  1
  In  In21  1  0.162629  0.837371  0.537414  1
  Ni  Ni22  1  0.666667  0.333333  0.566668  1
  Ni  Ni23  1  0.333333  0.666667  0.066668  1
