# generated using pymatgen
data_In3Sn4Ir2Rh
_symmetry_space_group_name_H-M   'P 1'
_cell_length_a   8.24672319
_cell_length_b   8.23844187
_cell_length_c   8.23844200
_cell_angle_alpha   109.18423557
_cell_angle_beta   109.59440805
_cell_angle_gamma   109.59439472
_symmetry_Int_Tables_number   1
_chemical_formula_structural   In3Sn4Ir2Rh
_chemical_formula_sum   'In6 Sn8 Ir4 Rh2'
_cell_volume   431.08377821
_cell_formula_units_Z   2
loop_
 _symmetry_equiv_pos_site_id
 _symmetry_equiv_pos_as_xyz
  1  'x, y, z'
loop_
 _atom_site_type_symbol
 _atom_site_label
 _atom_site_symmetry_multiplicity
 _atom_site_fract_x
 _atom_site_fract_y
 _atom_site_fract_z
 _atom_site_occupancy
  In  In0  1  0.250559  0.750309  0.500250  1
  In  In1  1  0.750607  0.250415  0.500192  1
  In  In2  1  0.750607  0.500192  0.250415  1
  In  In3  1  0.250559  0.500250  0.750309  1
  In  In4  1  0.501283  0.750641  0.250641  1
  In  In5  1  0.501283  0.250641  0.750641  1
  Sn  Sn6  1  0.998749  0.998517  0.324325  1
  Sn  Sn7  1  0.674244  0.998799  0.998799  1
  Sn  Sn8  1  0.998749  0.674426  0.000231  1
  Sn  Sn9  1  0.325596  0.325516  0.325516  1
  Sn  Sn10  1  0.998749  0.324325  0.998517  1
  Sn  Sn11  1  0.674244  0.675444  0.675444  1
  Sn  Sn12  1  0.325596  0.000081  0.000081  1
  Sn  Sn13  1  0.998749  0.000231  0.674426  1
  Ir  Ir14  1  0.340803  0.000379  0.340424  1
  Ir  Ir15  1  0.000911  0.340888  0.340888  1
  Ir  Ir16  1  0.000911  0.660023  0.660023  1
  Ir  Ir17  1  0.340803  0.340424  0.000379  1
  Rh  Rh18  1  0.658500  0.658097  0.000403  1
  Rh  Rh19  1  0.658500  0.000403  0.658097  1
