# generated using pymatgen
data_Tm4Lu(ReO6)2
_symmetry_space_group_name_H-M   'P 1'
_cell_length_a   6.74374532
_cell_length_b   6.74374579
_cell_length_c   7.41932209
_cell_angle_alpha   73.78750209
_cell_angle_beta   73.78749842
_cell_angle_gamma   49.29634266
_symmetry_Int_Tables_number   1
_chemical_formula_structural   Tm4Lu(ReO6)2
_chemical_formula_sum   'Tm4 Lu1 Re2 O12'
_cell_volume   243.42508737
_cell_formula_units_Z   1
loop_
 _symmetry_equiv_pos_site_id
 _symmetry_equiv_pos_as_xyz
  1  'x, y, z'
loop_
 _atom_site_type_symbol
 _atom_site_label
 _atom_site_symmetry_multiplicity
 _atom_site_fract_x
 _atom_site_fract_y
 _atom_site_fract_z
 _atom_site_occupancy
  Tm  Tm0  1  0.802087  0.802087  0.359762  1
  Tm  Tm1  1  0.197913  0.197913  0.640238  1
  Tm  Tm2  1  0.185091  0.185091  0.178331  1
  Tm  Tm3  1  0.814909  0.814909  0.821669  1
  Lu  Lu4  1  0.500000  0.500000  0.500000  1
  Re  Re5  1  0.285168  0.714832  0.000000  1
  Re  Re6  1  0.714832  0.285168  0.000000  1
  O  O7  1  0.412933  0.922069  0.912359  1
  O  O8  1  0.077931  0.587067  0.087641  1
  O  O9  1  0.587067  0.077931  0.087641  1
  O  O10  1  0.922069  0.412933  0.912359  1
  O  O11  1  0.598479  0.096603  0.571697  1
  O  O12  1  0.903397  0.401521  0.428303  1
  O  O13  1  0.401521  0.903397  0.428303  1
  O  O14  1  0.000874  0.000874  0.818426  1
  O  O15  1  0.999126  0.999126  0.181574  1
  O  O16  1  0.497643  0.497643  0.790750  1
  O  O17  1  0.502357  0.502357  0.209250  1
  O  O18  1  0.096603  0.598479  0.571697  1
