# generated using pymatgen
data_Ca5HgIrPd
_symmetry_space_group_name_H-M   'P 1'
_cell_length_a   9.17303366
_cell_length_b   9.17303345
_cell_length_c   9.23687800
_cell_angle_alpha   129.91051248
_cell_angle_beta   129.91050325
_cell_angle_gamma   73.01559283
_symmetry_Int_Tables_number   1
_chemical_formula_structural   Ca5HgIrPd
_chemical_formula_sum   'Ca10 Hg2 Ir2 Pd2'
_cell_volume   447.75836792
_cell_formula_units_Z   2
loop_
 _symmetry_equiv_pos_site_id
 _symmetry_equiv_pos_as_xyz
  1  'x, y, z'
loop_
 _atom_site_type_symbol
 _atom_site_label
 _atom_site_symmetry_multiplicity
 _atom_site_fract_x
 _atom_site_fract_y
 _atom_site_fract_z
 _atom_site_occupancy
  Ca  Ca0  1  0.530153  0.030153  0.827418  1
  Ca  Ca1  1  0.202737  0.702737  0.172582  1
  Ca  Ca2  1  0.042831  0.191137  0.500000  1
  Ca  Ca3  1  0.691137  0.542831  0.500000  1
  Ca  Ca4  1  0.469847  0.969847  0.172582  1
  Ca  Ca5  1  0.797263  0.297263  0.827418  1
  Ca  Ca6  1  0.957169  0.808863  0.500000  1
  Ca  Ca7  1  0.308863  0.457169  0.500000  1
  Ca  Ca8  1  0.500000  0.500000  0.000000  1
  Ca  Ca9  1  0.000000  0.000000  0.000000  1
  Hg  Hg10  1  0.250000  0.250000  0.000000  1
  Hg  Hg11  1  0.750000  0.750000  0.000000  1
  Ir  Ir12  1  0.623697  0.876303  0.500000  1
  Ir  Ir13  1  0.376303  0.123697  0.500000  1
  Pd  Pd14  1  0.125261  0.625261  0.750520  1
  Pd  Pd15  1  0.874739  0.374739  0.249480  1
