# generated using pymatgen
data_TaSiW
_symmetry_space_group_name_H-M   'P 1'
_cell_length_a   6.95956918
_cell_length_b   6.95797345
_cell_length_c   3.32208600
_cell_angle_alpha   90.00000000
_cell_angle_beta   90.00000000
_cell_angle_gamma   119.99242771
_symmetry_Int_Tables_number   1
_chemical_formula_structural   TaSiW
_chemical_formula_sum   'Ta3 Si3 W3'
_cell_volume   139.32843503
_cell_formula_units_Z   3
loop_
 _symmetry_equiv_pos_site_id
 _symmetry_equiv_pos_as_xyz
  1  'x, y, z'
loop_
 _atom_site_type_symbol
 _atom_site_label
 _atom_site_symmetry_multiplicity
 _atom_site_fract_x
 _atom_site_fract_y
 _atom_site_fract_z
 _atom_site_occupancy
  Ta  Ta0  1  0.401091  0.400418  0.500000  1
  Ta  Ta1  1  0.598909  0.999327  0.500000  1
  Ta  Ta2  1  0.000000  0.599996  0.500000  1
  Si  Si3  1  0.666920  0.333154  0.000000  1
  Si  Si4  1  0.333080  0.666235  0.000000  1
  Si  Si5  1  0.000000  0.000497  0.500000  1
  W  W6  1  0.000000  0.259776  0.000000  1
  W  W7  1  0.740699  0.740647  0.000000  1
  W  W8  1  0.259301  0.999948  0.000000  1
