# generated using pymatgen
data_Pr16MgAg2HgIr4
_symmetry_space_group_name_H-M   'P 1'
_cell_length_a   9.99321810
_cell_length_b   10.02004367
_cell_length_c   10.00344100
_cell_angle_alpha   60.05479292
_cell_angle_beta   59.96615089
_cell_angle_gamma   60.11114627
_symmetry_Int_Tables_number   1
_chemical_formula_structural   Pr16MgAg2HgIr4
_chemical_formula_sum   'Pr16 Mg1 Ag2 Hg1 Ir4'
_cell_volume   708.99176860
_cell_formula_units_Z   1
loop_
 _symmetry_equiv_pos_site_id
 _symmetry_equiv_pos_as_xyz
  1  'x, y, z'
loop_
 _atom_site_type_symbol
 _atom_site_label
 _atom_site_symmetry_multiplicity
 _atom_site_fract_x
 _atom_site_fract_y
 _atom_site_fract_z
 _atom_site_occupancy
  Pr  Pr0  1  0.348220  0.347430  0.347941  1
  Pr  Pr1  1  0.348220  0.347430  0.956411  1
  Pr  Pr2  1  0.347602  0.956192  0.348104  1
  Pr  Pr3  1  0.946960  0.349762  0.351640  1
  Pr  Pr4  1  0.807088  0.192696  0.192785  1
  Pr  Pr5  1  0.188017  0.810701  0.811364  1
  Pr  Pr6  1  0.188017  0.810701  0.189918  1
  Pr  Pr7  1  0.807088  0.192696  0.807431  1
  Pr  Pr8  1  0.190086  0.190197  0.809858  1
  Pr  Pr9  1  0.805615  0.807317  0.193534  1
  Pr  Pr10  1  0.936945  0.561822  0.562451  1
  Pr  Pr11  1  0.559821  0.937682  0.940371  1
  Pr  Pr12  1  0.559821  0.937682  0.562126  1
  Pr  Pr13  1  0.936945  0.561822  0.938780  1
  Pr  Pr14  1  0.560427  0.561526  0.939024  1
  Pr  Pr15  1  0.938132  0.937749  0.562059  1
  Mg  Mg16  1  0.290332  0.572508  0.568580  1
  Ag  Ag17  1  0.580026  0.585449  0.583660  1
  Ag  Ag18  1  0.580026  0.585449  0.250865  1
  Hg  Hg19  1  0.581602  0.252486  0.582956  1
  Ir  Ir20  1  0.141371  0.141883  0.140694  1
  Ir  Ir21  1  0.141371  0.141883  0.576051  1
  Ir  Ir22  1  0.140606  0.575086  0.142154  1
  Ir  Ir23  1  0.575663  0.141847  0.141245  1
