# generated using pymatgen
data_Sm2Zn14Ni3
_symmetry_space_group_name_H-M   'P 1'
_cell_length_a   6.70515572
_cell_length_b   6.70515657
_cell_length_c   6.70515573
_cell_angle_alpha   82.89862558
_cell_angle_beta   82.89862283
_cell_angle_gamma   82.89862595
_symmetry_Int_Tables_number   1
_chemical_formula_structural   Sm2Zn14Ni3
_chemical_formula_sum   'Sm2 Zn14 Ni3'
_cell_volume   295.04846090
_cell_formula_units_Z   1
loop_
 _symmetry_equiv_pos_site_id
 _symmetry_equiv_pos_as_xyz
  1  'x, y, z'
loop_
 _atom_site_type_symbol
 _atom_site_label
 _atom_site_symmetry_multiplicity
 _atom_site_fract_x
 _atom_site_fract_y
 _atom_site_fract_z
 _atom_site_occupancy
  Sm  Sm0  1  0.660928  0.660928  0.660928  1
  Sm  Sm1  1  0.339073  0.339073  0.339073  1
  Zn  Zn2  1  0.345470  0.851580  0.345472  1
  Zn  Zn3  1  0.345471  0.345471  0.851581  1
  Zn  Zn4  1  0.851580  0.345470  0.345472  1
  Zn  Zn5  1  0.148420  0.654530  0.654527  1
  Zn  Zn6  1  0.654529  0.654529  0.148419  1
  Zn  Zn7  1  0.654530  0.148420  0.654527  1
  Zn  Zn8  1  0.894884  0.894884  0.894884  1
  Zn  Zn9  1  0.105117  0.105117  0.105117  1
  Zn  Zn10  1  0.706614  0.000000  0.293384  1
  Zn  Zn11  1  0.000000  0.293385  0.706614  1
  Zn  Zn12  1  0.293385  0.000000  0.706614  1
  Zn  Zn13  1  0.293383  0.706615  0.000000  1
  Zn  Zn14  1  0.000000  0.706614  0.293384  1
  Zn  Zn15  1  0.706615  0.293383  0.000000  1
  Ni  Ni16  1  0.500000  0.000001  0.000000  1
  Ni  Ni17  1  0.000001  0.500000  0.000000  1
  Ni  Ni18  1  0.000001  0.000001  0.500000  1
