# generated using pymatgen
data_ErTm2Th(Ga3Rh)6
_symmetry_space_group_name_H-M   'P 1'
_cell_length_a   7.59825606
_cell_length_b   7.60253483
_cell_length_c   9.49991600
_cell_angle_alpha   90.00000000
_cell_angle_beta   90.00000000
_cell_angle_gamma   119.79190453
_symmetry_Int_Tables_number   1
_chemical_formula_structural   ErTm2Th(Ga3Rh)6
_chemical_formula_sum   'Er1 Tm2 Th1 Ga18 Rh6'
_cell_volume   476.24409290
_cell_formula_units_Z   1
loop_
 _symmetry_equiv_pos_site_id
 _symmetry_equiv_pos_as_xyz
  1  'x, y, z'
loop_
 _atom_site_type_symbol
 _atom_site_label
 _atom_site_symmetry_multiplicity
 _atom_site_fract_x
 _atom_site_fract_y
 _atom_site_fract_z
 _atom_site_occupancy
  Er  Er0  1  0.669547  0.997114  0.250000  1
  Tm  Tm1  1  0.003155  0.331356  0.750000  1
  Tm  Tm2  1  0.330837  0.002674  0.750000  1
  Th  Th3  1  0.996865  0.668522  0.250000  1
  Ga  Ga4  1  0.127750  0.130539  0.250000  1
  Ga  Ga5  1  0.875455  0.876998  0.750000  1
  Ga  Ga6  1  0.998885  0.328092  0.076570  1
  Ga  Ga7  1  0.000759  0.665316  0.913745  1
  Ga  Ga8  1  0.000759  0.665316  0.586255  1
  Ga  Ga9  1  0.340758  0.005052  0.423322  1
  Ga  Ga10  1  0.998885  0.328092  0.423430  1
  Ga  Ga11  1  0.665574  0.001554  0.580803  1
  Ga  Ga12  1  0.665574  0.001554  0.919197  1
  Ga  Ga13  1  0.340758  0.005052  0.076678  1
  Ga  Ga14  1  0.331684  0.331681  0.567398  1
  Ga  Ga15  1  0.662285  0.668057  0.438903  1
  Ga  Ga16  1  0.662285  0.668057  0.061097  1
  Ga  Ga17  1  0.331684  0.331681  0.932602  1
  Ga  Ga18  1  0.341930  0.546785  0.250000  1
  Ga  Ga19  1  0.660425  0.450462  0.750000  1
  Ga  Ga20  1  0.542182  0.335022  0.250000  1
  Ga  Ga21  1  0.451316  0.661607  0.750000  1
  Rh  Rh22  1  0.673539  0.330860  0.000148  1
  Rh  Rh23  1  0.325948  0.670866  0.000220  1
  Rh  Rh24  1  0.325948  0.670866  0.499780  1
  Rh  Rh25  1  0.673539  0.330860  0.499852  1
  Rh  Rh26  1  0.000837  0.997983  0.000212  1
  Rh  Rh27  1  0.000837  0.997983  0.499788  1
