# generated using pymatgen
data_Be4AlRh
_symmetry_space_group_name_H-M   'P 1'
_cell_length_a   4.32468159
_cell_length_b   4.32468190
_cell_length_c   4.32468200
_cell_angle_alpha   59.99999923
_cell_angle_beta   59.99999685
_cell_angle_gamma   60.00000028
_symmetry_Int_Tables_number   1
_chemical_formula_structural   Be4AlRh
_chemical_formula_sum   'Be4 Al1 Rh1'
_cell_volume   57.19360543
_cell_formula_units_Z   1
loop_
 _symmetry_equiv_pos_site_id
 _symmetry_equiv_pos_as_xyz
  1  'x, y, z'
loop_
 _atom_site_type_symbol
 _atom_site_label
 _atom_site_symmetry_multiplicity
 _atom_site_fract_x
 _atom_site_fract_y
 _atom_site_fract_z
 _atom_site_occupancy
  Be  Be0  1  0.625270  0.625270  0.124191  1
  Be  Be1  1  0.625270  0.124191  0.625270  1
  Be  Be2  1  0.124191  0.625270  0.625270  1
  Be  Be3  1  0.625270  0.625270  0.625270  1
  Al  Al4  1  0.250000  0.250000  0.250000  1
  Rh  Rh5  1  0.000000  0.000000  0.000000  1
