# generated using pymatgen
data_HfSc2BeGe2Os3
_symmetry_space_group_name_H-M   'P 1'
_cell_length_a   6.89892832
_cell_length_b   6.89892727
_cell_length_c   3.38871700
_cell_angle_alpha   90.00000000
_cell_angle_beta   90.00000000
_cell_angle_gamma   120.33408479
_symmetry_Int_Tables_number   1
_chemical_formula_structural   HfSc2BeGe2Os3
_chemical_formula_sum   'Hf1 Sc2 Be1 Ge2 Os3'
_cell_volume   139.20576813
_cell_formula_units_Z   1
loop_
 _symmetry_equiv_pos_site_id
 _symmetry_equiv_pos_as_xyz
  1  'x, y, z'
loop_
 _atom_site_type_symbol
 _atom_site_label
 _atom_site_symmetry_multiplicity
 _atom_site_fract_x
 _atom_site_fract_y
 _atom_site_fract_z
 _atom_site_occupancy
  Hf  Hf0  1  0.614412  0.614412  0.500000  1
  Sc  Sc1  1  0.384976  0.000085  0.500000  1
  Sc  Sc2  1  0.000085  0.384976  0.500000  1
  Be  Be3  1  0.003582  0.003582  0.500000  1
  Ge  Ge4  1  0.329467  0.667982  0.000000  1
  Ge  Ge5  1  0.667982  0.329467  0.000000  1
  Os  Os6  1  0.755433  0.996314  0.000000  1
  Os  Os7  1  0.996314  0.755433  0.000000  1
  Os  Os8  1  0.247749  0.247749  0.000000  1
