# generated using pymatgen
data_Rb12Bi3AsSe12
_symmetry_space_group_name_H-M   'P 1'
_cell_length_a   10.38716742
_cell_length_b   10.38716742
_cell_length_c   10.38716742
_cell_angle_alpha   89.22956499
_cell_angle_beta   89.22956499
_cell_angle_gamma   89.22956499
_symmetry_Int_Tables_number   1
_chemical_formula_structural   Rb12Bi3AsSe12
_chemical_formula_sum   'Rb12 Bi3 As1 Se12'
_cell_volume   1120.40396881
_cell_formula_units_Z   1
loop_
 _symmetry_equiv_pos_site_id
 _symmetry_equiv_pos_as_xyz
  1  'x, y, z'
loop_
 _atom_site_type_symbol
 _atom_site_label
 _atom_site_symmetry_multiplicity
 _atom_site_fract_x
 _atom_site_fract_y
 _atom_site_fract_z
 _atom_site_occupancy
  Rb  Rb0  1  0.319511  0.319511  0.319511  1
  Rb  Rb1  1  0.181310  0.682358  0.816618  1
  Rb  Rb2  1  0.816618  0.181310  0.682358  1
  Rb  Rb3  1  0.682358  0.816618  0.181310  1
  Rb  Rb4  1  0.573428  0.573428  0.573428  1
  Rb  Rb5  1  0.934641  0.408091  0.071590  1
  Rb  Rb6  1  0.071590  0.934641  0.408091  1
  Rb  Rb7  1  0.408091  0.071590  0.934641  1
  Rb  Rb8  1  0.811409  0.811409  0.811409  1
  Rb  Rb9  1  0.694392  0.185913  0.309638  1
  Rb  Rb10  1  0.309638  0.694392  0.185913  1
  Rb  Rb11  1  0.185913  0.309638  0.694392  1
  Bi  Bi12  1  0.475479  0.969691  0.531350  1
  Bi  Bi13  1  0.531350  0.475479  0.969691  1
  Bi  Bi14  1  0.969691  0.531350  0.475479  1
  As  As15  1  0.018610  0.018610  0.018610  1
  Se  Se16  1  0.215547  0.606701  0.495779  1
  Se  Se17  1  0.495779  0.215547  0.606701  1
  Se  Se18  1  0.606701  0.495779  0.215547  1
  Se  Se19  1  0.894298  0.501370  0.723548  1
  Se  Se20  1  0.997734  0.284932  0.401259  1
  Se  Se21  1  0.401259  0.997734  0.284932  1
  Se  Se22  1  0.003723  0.796423  0.094655  1
  Se  Se23  1  0.501370  0.723548  0.894298  1
  Se  Se24  1  0.094655  0.003723  0.796423  1
  Se  Se25  1  0.723548  0.894298  0.501370  1
  Se  Se26  1  0.796423  0.094655  0.003723  1
  Se  Se27  1  0.284932  0.401259  0.997734  1
