# generated using pymatgen
data_TbTaFeB6
_symmetry_space_group_name_H-M   'P 1'
_cell_length_a   3.37035200
_cell_length_b   8.91620800
_cell_length_c   11.23454000
_cell_angle_alpha   90.00000000
_cell_angle_beta   90.00000000
_cell_angle_gamma   90.00000000
_symmetry_Int_Tables_number   1
_chemical_formula_structural   TbTaFeB6
_chemical_formula_sum   'Tb4 Ta4 Fe4 B24'
_cell_volume   337.60645924
_cell_formula_units_Z   4
loop_
 _symmetry_equiv_pos_site_id
 _symmetry_equiv_pos_as_xyz
  1  'x, y, z'
loop_
 _atom_site_type_symbol
 _atom_site_label
 _atom_site_symmetry_multiplicity
 _atom_site_fract_x
 _atom_site_fract_y
 _atom_site_fract_z
 _atom_site_occupancy
  Tb  Tb0  1  0.000000  0.823506  0.086034  1
  Tb  Tb1  1  0.000000  0.176494  0.913966  1
  Tb  Tb2  1  0.000000  0.323506  0.413966  1
  Tb  Tb3  1  0.000000  0.676494  0.586034  1
  Ta  Ta4  1  0.000000  0.445338  0.127918  1
  Ta  Ta5  1  0.000000  0.554662  0.872082  1
  Ta  Ta6  1  0.000000  0.945338  0.372082  1
  Ta  Ta7  1  0.000000  0.054662  0.627918  1
  Fe  Fe8  1  0.000000  0.144902  0.184048  1
  Fe  Fe9  1  0.000000  0.855098  0.815952  1
  Fe  Fe10  1  0.000000  0.644902  0.315952  1
  Fe  Fe11  1  0.000000  0.355098  0.684048  1
  B  B12  1  0.500000  0.055490  0.068607  1
  B  B13  1  0.500000  0.944510  0.931393  1
  B  B14  1  0.500000  0.555490  0.431393  1
  B  B15  1  0.500000  0.444510  0.568607  1
  B  B16  1  0.500000  0.252470  0.083794  1
  B  B17  1  0.500000  0.747530  0.916206  1
  B  B18  1  0.500000  0.752470  0.416206  1
  B  B19  1  0.500000  0.247530  0.583794  1
  B  B20  1  0.500000  0.297077  0.236140  1
  B  B21  1  0.500000  0.702923  0.763860  1
  B  B22  1  0.500000  0.797077  0.263860  1
  B  B23  1  0.500000  0.202923  0.736140  1
  B  B24  1  0.500000  0.130074  0.316749  1
  B  B25  1  0.500000  0.869926  0.683251  1
  B  B26  1  0.500000  0.630074  0.183251  1
  B  B27  1  0.500000  0.369926  0.816749  1
  B  B28  1  0.500000  0.483251  0.286347  1
  B  B29  1  0.500000  0.516749  0.713653  1
  B  B30  1  0.500000  0.983251  0.213653  1
  B  B31  1  0.500000  0.016749  0.786347  1
  B  B32  1  0.500000  0.099439  0.473853  1
  B  B33  1  0.500000  0.900561  0.526147  1
  B  B34  1  0.500000  0.599439  0.026147  1
  B  B35  1  0.500000  0.400561  0.973853  1
