# generated using pymatgen
data_Pa4Ta2NbZn6
_symmetry_space_group_name_H-M   'P 1'
_cell_length_a   10.84375768
_cell_length_b   10.84375764
_cell_length_c   10.84375854
_cell_angle_alpha   27.70545199
_cell_angle_beta   27.70545422
_cell_angle_gamma   27.70545384
_symmetry_Int_Tables_number   1
_chemical_formula_structural   Pa4Ta2NbZn6
_chemical_formula_sum   'Pa4 Ta2 Nb1 Zn6'
_cell_volume   243.33832426
_cell_formula_units_Z   1
loop_
 _symmetry_equiv_pos_site_id
 _symmetry_equiv_pos_as_xyz
  1  'x, y, z'
loop_
 _atom_site_type_symbol
 _atom_site_label
 _atom_site_symmetry_multiplicity
 _atom_site_fract_x
 _atom_site_fract_y
 _atom_site_fract_z
 _atom_site_occupancy
  Pa  Pa0  1  0.832287  0.832287  0.832287  1
  Pa  Pa1  1  0.167713  0.167713  0.167713  1
  Pa  Pa2  1  0.652109  0.652109  0.652109  1
  Pa  Pa3  1  0.347891  0.347891  0.347891  1
  Ta  Ta4  1  0.542327  0.542327  0.542327  1
  Ta  Ta5  1  0.457673  0.457673  0.457673  1
  Nb  Nb6  1  0.000000  0.000000  0.000000  1
  Zn  Zn7  1  0.911923  0.410603  0.911923  1
  Zn  Zn8  1  0.911923  0.911923  0.410603  1
  Zn  Zn9  1  0.410603  0.911923  0.911923  1
  Zn  Zn10  1  0.088077  0.589397  0.088077  1
  Zn  Zn11  1  0.088077  0.088077  0.589397  1
  Zn  Zn12  1  0.589397  0.088077  0.088077  1
