# generated using pymatgen
data_Yb3Ga(Ir2O7)2
_symmetry_space_group_name_H-M   'P 1'
_cell_length_a   7.07251818
_cell_length_b   7.25924222
_cell_length_c   7.25924300
_cell_angle_alpha   60.00000101
_cell_angle_beta   59.12273974
_cell_angle_gamma   59.12273699
_symmetry_Int_Tables_number   1
_chemical_formula_structural   Yb3Ga(Ir2O7)2
_chemical_formula_sum   'Yb3 Ga1 Ir4 O14'
_cell_volume   259.98837781
_cell_formula_units_Z   1
loop_
 _symmetry_equiv_pos_site_id
 _symmetry_equiv_pos_as_xyz
  1  'x, y, z'
loop_
 _atom_site_type_symbol
 _atom_site_label
 _atom_site_symmetry_multiplicity
 _atom_site_fract_x
 _atom_site_fract_y
 _atom_site_fract_z
 _atom_site_occupancy
  Yb  Yb0  1  0.125000  0.625000  0.125000  1
  Yb  Yb1  1  0.125000  0.125000  0.625000  1
  Yb  Yb2  1  0.125000  0.125000  0.125000  1
  Ga  Ga3  1  0.625000  0.125000  0.125000  1
  Ir  Ir4  1  0.125000  0.625000  0.625000  1
  Ir  Ir5  1  0.625000  0.125000  0.625000  1
  Ir  Ir6  1  0.625000  0.625000  0.125000  1
  Ir  Ir7  1  0.625000  0.625000  0.625000  1
  O  O8  1  0.693509  0.706400  0.300045  1
  O  O9  1  0.287429  0.291261  0.710656  1
  O  O10  1  0.693509  0.300045  0.706400  1
  O  O11  1  0.287429  0.710656  0.291261  1
  O  O12  1  0.287429  0.710656  0.710656  1
  O  O13  1  0.693509  0.300045  0.300045  1
  O  O14  1  0.556491  0.543600  0.949955  1
  O  O15  1  0.962571  0.958739  0.539344  1
  O  O16  1  0.556491  0.949955  0.543600  1
  O  O17  1  0.962571  0.539344  0.958739  1
  O  O18  1  0.962571  0.539344  0.539344  1
  O  O19  1  0.556491  0.949955  0.949955  1
  O  O20  1  0.307203  0.230933  0.230933  1
  O  O21  1  0.942797  0.019067  0.019067  1
