# generated using pymatgen
data_Lu11Cd(Hg2Pd)4
_symmetry_space_group_name_H-M   'P 1'
_cell_length_a   12.83747600
_cell_length_b   12.83747570
_cell_length_c   3.60753300
_cell_angle_alpha   90.00000000
_cell_angle_beta   90.00000000
_cell_angle_gamma   112.48812489
_symmetry_Int_Tables_number   1
_chemical_formula_structural   Lu11Cd(Hg2Pd)4
_chemical_formula_sum   'Lu11 Cd1 Hg8 Pd4'
_cell_volume   549.31595191
_cell_formula_units_Z   1
loop_
 _symmetry_equiv_pos_site_id
 _symmetry_equiv_pos_as_xyz
  1  'x, y, z'
loop_
 _atom_site_type_symbol
 _atom_site_label
 _atom_site_symmetry_multiplicity
 _atom_site_fract_x
 _atom_site_fract_y
 _atom_site_fract_z
 _atom_site_occupancy
  Lu  Lu0  1  0.414562  0.076159  0.000000  1
  Lu  Lu1  1  0.585438  0.923841  0.000000  1
  Lu  Lu2  1  0.076159  0.414562  0.000000  1
  Lu  Lu3  1  0.923841  0.585438  0.000000  1
  Lu  Lu4  1  0.166940  0.833060  0.000000  1
  Lu  Lu5  1  0.833060  0.166940  0.000000  1
  Lu  Lu6  1  0.362929  0.637071  0.000000  1
  Lu  Lu7  1  0.637071  0.362929  0.000000  1
  Lu  Lu8  1  0.289839  0.289839  0.000000  1
  Lu  Lu9  1  0.710161  0.710161  0.000000  1
  Lu  Lu10  1  0.000000  0.000000  0.000000  1
  Cd  Cd11  1  0.500000  0.500000  0.500000  1
  Hg  Hg12  1  0.369907  0.850165  0.500000  1
  Hg  Hg13  1  0.630093  0.149835  0.500000  1
  Hg  Hg14  1  0.850167  0.369907  0.500000  1
  Hg  Hg15  1  0.149833  0.630093  0.500000  1
  Hg  Hg16  1  0.212831  0.060899  0.500000  1
  Hg  Hg17  1  0.787169  0.939101  0.500000  1
  Hg  Hg18  1  0.060898  0.212830  0.500000  1
  Hg  Hg19  1  0.939102  0.787170  0.500000  1
  Pd  Pd20  1  0.449496  0.255570  0.500000  1
  Pd  Pd21  1  0.550504  0.744430  0.500000  1
  Pd  Pd22  1  0.255571  0.449496  0.500000  1
  Pd  Pd23  1  0.744429  0.550504  0.500000  1
