# generated using pymatgen
data_Tb11Er5(ScBi3)4
_symmetry_space_group_name_H-M   'P 1'
_cell_length_a   8.12174078
_cell_length_b   9.39551342
_cell_length_c   11.99133700
_cell_angle_alpha   90.00678730
_cell_angle_beta   89.93163368
_cell_angle_gamma   90.04056724
_symmetry_Int_Tables_number   1
_chemical_formula_structural   Tb11Er5(ScBi3)4
_chemical_formula_sum   'Tb11 Er5 Sc4 Bi12'
_cell_volume   915.03315147
_cell_formula_units_Z   1
loop_
 _symmetry_equiv_pos_site_id
 _symmetry_equiv_pos_as_xyz
  1  'x, y, z'
loop_
 _atom_site_type_symbol
 _atom_site_label
 _atom_site_symmetry_multiplicity
 _atom_site_fract_x
 _atom_site_fract_y
 _atom_site_fract_z
 _atom_site_occupancy
  Tb  Tb0  1  0.354850  0.249379  0.284293  1
  Tb  Tb1  1  0.645437  0.749400  0.715839  1
  Tb  Tb2  1  0.145796  0.749687  0.783959  1
  Tb  Tb3  1  0.853265  0.249461  0.216212  1
  Tb  Tb4  1  0.184023  0.250241  0.779824  1
  Tb  Tb5  1  0.816057  0.749338  0.219958  1
  Tb  Tb6  1  0.315409  0.749419  0.280213  1
  Tb  Tb7  1  0.684099  0.250016  0.719603  1
  Tb  Tb8  1  0.193300  0.063809  0.058304  1
  Tb  Tb9  1  0.806454  0.936024  0.941871  1
  Tb  Tb10  1  0.306235  0.936173  0.558250  1
  Er  Er11  1  0.803431  0.566865  0.941438  1
  Er  Er12  1  0.694682  0.066928  0.442179  1
  Er  Er13  1  0.196637  0.432965  0.058578  1
  Er  Er14  1  0.696475  0.433691  0.441833  1
  Er  Er15  1  0.304326  0.567173  0.557966  1
  Sc  Sc16  1  0.023316  0.249557  0.512005  1
  Sc  Sc17  1  0.975909  0.749793  0.487948  1
  Sc  Sc18  1  0.475746  0.749745  0.012305  1
  Sc  Sc19  1  0.524085  0.249743  0.987966  1
  Bi  Bi20  1  0.401690  0.253833  0.542677  1
  Bi  Bi21  1  0.599919  0.749350  0.456524  1
  Bi  Bi22  1  0.098703  0.745420  0.042898  1
  Bi  Bi23  1  0.901185  0.254428  0.957182  1
  Bi  Bi24  1  0.065062  0.003740  0.332151  1
  Bi  Bi25  1  0.933620  0.995730  0.667623  1
  Bi  Bi26  1  0.434006  0.995920  0.831737  1
  Bi  Bi27  1  0.934752  0.503684  0.667382  1
  Bi  Bi28  1  0.566344  0.003541  0.168424  1
  Bi  Bi29  1  0.065252  0.495533  0.332610  1
  Bi  Bi30  1  0.565184  0.495781  0.167684  1
  Bi  Bi31  1  0.434755  0.503634  0.832564  1
