# generated using pymatgen
data_Tm4Ga2(CoRu)3
_symmetry_space_group_name_H-M   'P 1'
_cell_length_a   5.13996038
_cell_length_b   5.18246793
_cell_length_c   8.66062100
_cell_angle_alpha   90.00000000
_cell_angle_beta   90.00000000
_cell_angle_gamma   119.82406789
_symmetry_Int_Tables_number   1
_chemical_formula_structural   Tm4Ga2(CoRu)3
_chemical_formula_sum   'Tm4 Ga2 Co3 Ru3'
_cell_volume   200.14431305
_cell_formula_units_Z   1
loop_
 _symmetry_equiv_pos_site_id
 _symmetry_equiv_pos_as_xyz
  1  'x, y, z'
loop_
 _atom_site_type_symbol
 _atom_site_label
 _atom_site_symmetry_multiplicity
 _atom_site_fract_x
 _atom_site_fract_y
 _atom_site_fract_z
 _atom_site_occupancy
  Tm  Tm0  1  0.672025  0.336614  0.565806  1
  Tm  Tm1  1  0.336394  0.669002  0.437978  1
  Tm  Tm2  1  0.336394  0.669002  0.062022  1
  Tm  Tm3  1  0.672025  0.336614  0.934194  1
  Ga  Ga4  1  0.643207  0.822055  0.750000  1
  Ga  Ga5  1  0.830346  0.167503  0.250000  1
  Co  Co6  1  0.165411  0.331396  0.750000  1
  Co  Co7  1  0.161631  0.837349  0.750000  1
  Co  Co8  1  0.826076  0.659142  0.250000  1
  Ru  Ru9  1  0.009476  0.000176  0.506002  1
  Ru  Ru10  1  0.009476  0.000176  0.993998  1
  Ru  Ru11  1  0.337537  0.170970  0.250000  1
