# generated using pymatgen
data_Zr4V3Zn3Pt2
_symmetry_space_group_name_H-M   'P 1'
_cell_length_a   5.18080400
_cell_length_b   5.18080411
_cell_length_c   8.69231500
_cell_angle_alpha   90.00000000
_cell_angle_beta   90.00000000
_cell_angle_gamma   119.99999931
_symmetry_Int_Tables_number   1
_chemical_formula_structural   Zr4V3Zn3Pt2
_chemical_formula_sum   'Zr4 V3 Zn3 Pt2'
_cell_volume   202.05073041
_cell_formula_units_Z   1
loop_
 _symmetry_equiv_pos_site_id
 _symmetry_equiv_pos_as_xyz
  1  'x, y, z'
loop_
 _atom_site_type_symbol
 _atom_site_label
 _atom_site_symmetry_multiplicity
 _atom_site_fract_x
 _atom_site_fract_y
 _atom_site_fract_z
 _atom_site_occupancy
  Zr  Zr0  1  0.333333  0.666667  0.446012  1
  Zr  Zr1  1  0.666667  0.333333  0.564450  1
  Zr  Zr2  1  0.666667  0.333333  0.935550  1
  Zr  Zr3  1  0.333333  0.666667  0.053988  1
  V  V4  1  0.174394  0.825606  0.750000  1
  V  V5  1  0.174394  0.348789  0.750000  1
  V  V6  1  0.651211  0.825606  0.750000  1
  Zn  Zn7  1  0.830295  0.169705  0.250000  1
  Zn  Zn8  1  0.830295  0.660590  0.250000  1
  Zn  Zn9  1  0.339410  0.169705  0.250000  1
  Pt  Pt10  1  0.000000  0.000000  0.502193  1
  Pt  Pt11  1  0.000000  0.000000  0.997807  1
