# generated using pymatgen
data_Ho6IrAu7
_symmetry_space_group_name_H-M   'P 1'
_cell_length_a   8.05584921
_cell_length_b   8.05584855
_cell_length_c   8.05585013
_cell_angle_alpha   114.28946641
_cell_angle_beta   114.28946048
_cell_angle_gamma   114.28947025
_symmetry_Int_Tables_number   1
_chemical_formula_structural   Ho6IrAu7
_chemical_formula_sum   'Ho6 Ir1 Au7'
_cell_volume   310.69193830
_cell_formula_units_Z   1
loop_
 _symmetry_equiv_pos_site_id
 _symmetry_equiv_pos_as_xyz
  1  'x, y, z'
loop_
 _atom_site_type_symbol
 _atom_site_label
 _atom_site_symmetry_multiplicity
 _atom_site_fract_x
 _atom_site_fract_y
 _atom_site_fract_z
 _atom_site_occupancy
  Ho  Ho0  1  0.737168  0.618159  0.987823  1
  Ho  Ho1  1  0.987823  0.737168  0.618159  1
  Ho  Ho2  1  0.618159  0.987823  0.737168  1
  Ho  Ho3  1  0.262832  0.381841  0.012177  1
  Ho  Ho4  1  0.012177  0.262832  0.381841  1
  Ho  Ho5  1  0.381841  0.012177  0.262832  1
  Ir  Ir6  1  0.000000  0.000000  0.000000  1
  Au  Au7  1  0.569085  0.236697  0.073694  1
  Au  Au8  1  0.073694  0.569085  0.236697  1
  Au  Au9  1  0.236697  0.073694  0.569085  1
  Au  Au10  1  0.430915  0.763303  0.926306  1
  Au  Au11  1  0.926306  0.430915  0.763303  1
  Au  Au12  1  0.763303  0.926306  0.430915  1
  Au  Au13  1  0.500000  0.500000  0.500000  1
