# generated using pymatgen
data_Hf4AlC3
_symmetry_space_group_name_H-M   'P 1'
_cell_length_a   3.29376200
_cell_length_b   3.29376151
_cell_length_c   24.98837200
_cell_angle_alpha   90.00000000
_cell_angle_beta   90.00000000
_cell_angle_gamma   120.00000492
_symmetry_Int_Tables_number   1
_chemical_formula_structural   Hf4AlC3
_chemical_formula_sum   'Hf8 Al2 C6'
_cell_volume   234.77558845
_cell_formula_units_Z   2
loop_
 _symmetry_equiv_pos_site_id
 _symmetry_equiv_pos_as_xyz
  1  'x, y, z'
loop_
 _atom_site_type_symbol
 _atom_site_label
 _atom_site_symmetry_multiplicity
 _atom_site_fract_x
 _atom_site_fract_y
 _atom_site_fract_z
 _atom_site_occupancy
  Hf  Hf0  1  0.000000  0.000000  0.343868  1
  Hf  Hf1  1  0.000000  0.000000  0.843868  1
  Hf  Hf2  1  0.000000  0.000000  0.656132  1
  Hf  Hf3  1  0.000000  0.000000  0.156132  1
  Hf  Hf4  1  0.333333  0.666667  0.448149  1
  Hf  Hf5  1  0.666667  0.333333  0.948149  1
  Hf  Hf6  1  0.666667  0.333333  0.551851  1
  Hf  Hf7  1  0.333333  0.666667  0.051851  1
  Al  Al8  1  0.666667  0.333333  0.750000  1
  Al  Al9  1  0.333333  0.666667  0.250000  1
  C  C10  1  0.666667  0.333333  0.390287  1
  C  C11  1  0.333333  0.666667  0.890287  1
  C  C12  1  0.333333  0.666667  0.609713  1
  C  C13  1  0.000000  0.000000  0.000000  1
  C  C14  1  0.666667  0.333333  0.109713  1
  C  C15  1  0.000000  0.000000  0.500000  1
