# generated using pymatgen
data_Hf9TiBeMo3
_symmetry_space_group_name_H-M   'P 1'
_cell_length_a   8.63663600
_cell_length_b   8.63648738
_cell_length_c   8.47489700
_cell_angle_alpha   90.00000000
_cell_angle_beta   90.00000000
_cell_angle_gamma   119.99721322
_symmetry_Int_Tables_number   1
_chemical_formula_structural   Hf9TiBeMo3
_chemical_formula_sum   'Hf18 Ti2 Be2 Mo6'
_cell_volume   547.46834648
_cell_formula_units_Z   2
loop_
 _symmetry_equiv_pos_site_id
 _symmetry_equiv_pos_as_xyz
  1  'x, y, z'
loop_
 _atom_site_type_symbol
 _atom_site_label
 _atom_site_symmetry_multiplicity
 _atom_site_fract_x
 _atom_site_fract_y
 _atom_site_fract_z
 _atom_site_occupancy
  Hf  Hf0  1  0.200951  0.401907  0.446894  1
  Hf  Hf1  1  0.200949  0.799049  0.446888  1
  Hf  Hf2  1  0.540197  0.080386  0.250000  1
  Hf  Hf3  1  0.459807  0.540191  0.750000  1
  Hf  Hf4  1  0.080392  0.540199  0.750000  1
  Hf  Hf5  1  0.919608  0.459801  0.250000  1
  Hf  Hf6  1  0.540193  0.459809  0.250000  1
  Hf  Hf7  1  0.459803  0.919614  0.750000  1
  Hf  Hf8  1  0.598092  0.799047  0.446889  1
  Hf  Hf9  1  0.401908  0.200953  0.946889  1
  Hf  Hf10  1  0.799049  0.598093  0.553106  1
  Hf  Hf11  1  0.799051  0.200951  0.946888  1
  Hf  Hf12  1  0.799049  0.598093  0.946894  1
  Hf  Hf13  1  0.200949  0.799049  0.053112  1
  Hf  Hf14  1  0.598092  0.799047  0.053111  1
  Hf  Hf15  1  0.401908  0.200953  0.553111  1
  Hf  Hf16  1  0.799051  0.200951  0.553112  1
  Hf  Hf17  1  0.200951  0.401907  0.053106  1
  Ti  Ti18  1  0.000000  0.000000  0.500000  1
  Ti  Ti19  1  0.000000  0.000000  0.000000  1
  Be  Be20  1  0.666662  0.333327  0.750000  1
  Be  Be21  1  0.333338  0.666673  0.250000  1
  Mo  Mo22  1  0.113934  0.227880  0.750000  1
  Mo  Mo23  1  0.886062  0.113943  0.250000  1
  Mo  Mo24  1  0.227875  0.113934  0.250000  1
  Mo  Mo25  1  0.772125  0.886066  0.750000  1
  Mo  Mo26  1  0.113938  0.886057  0.750000  1
  Mo  Mo27  1  0.886066  0.772120  0.250000  1
