# generated using pymatgen
data_Hf4Ta6MnOs
_symmetry_space_group_name_H-M   'P 1'
_cell_length_a   5.61177400
_cell_length_b   5.61177327
_cell_length_c   8.36102700
_cell_angle_alpha   90.00000000
_cell_angle_beta   90.00000000
_cell_angle_gamma   120.00000431
_symmetry_Int_Tables_number   1
_chemical_formula_structural   Hf4Ta6MnOs
_chemical_formula_sum   'Hf4 Ta6 Mn1 Os1'
_cell_volume   228.02923346
_cell_formula_units_Z   1
loop_
 _symmetry_equiv_pos_site_id
 _symmetry_equiv_pos_as_xyz
  1  'x, y, z'
loop_
 _atom_site_type_symbol
 _atom_site_label
 _atom_site_symmetry_multiplicity
 _atom_site_fract_x
 _atom_site_fract_y
 _atom_site_fract_z
 _atom_site_occupancy
  Hf  Hf0  1  0.333333  0.666667  0.437620  1
  Hf  Hf1  1  0.666667  0.333333  0.562380  1
  Hf  Hf2  1  0.666667  0.333333  0.938581  1
  Hf  Hf3  1  0.333333  0.666667  0.061419  1
  Ta  Ta4  1  0.832617  0.167383  0.256473  1
  Ta  Ta5  1  0.832617  0.665235  0.256473  1
  Ta  Ta6  1  0.334765  0.167383  0.256473  1
  Ta  Ta7  1  0.167383  0.832617  0.743527  1
  Ta  Ta8  1  0.167383  0.334765  0.743527  1
  Ta  Ta9  1  0.665235  0.832617  0.743527  1
  Mn  Mn10  1  0.000000  0.000000  0.500000  1
  Os  Os11  1  0.000000  0.000000  0.000000  1
