# generated using pymatgen
data_Ta11NbCr4(Co2N)4
_symmetry_space_group_name_H-M   'P 1'
_cell_length_a   7.99499650
_cell_length_b   7.99525705
_cell_length_c   7.99039100
_cell_angle_alpha   60.01915697
_cell_angle_beta   60.01968789
_cell_angle_gamma   60.03991272
_symmetry_Int_Tables_number   1
_chemical_formula_structural   Ta11NbCr4(Co2N)4
_chemical_formula_sum   'Ta11 Nb1 Cr4 Co8 N4'
_cell_volume   361.37831005
_cell_formula_units_Z   1
loop_
 _symmetry_equiv_pos_site_id
 _symmetry_equiv_pos_as_xyz
  1  'x, y, z'
loop_
 _atom_site_type_symbol
 _atom_site_label
 _atom_site_symmetry_multiplicity
 _atom_site_fract_x
 _atom_site_fract_y
 _atom_site_fract_z
 _atom_site_occupancy
  Ta  Ta0  1  0.196456  0.196456  0.803550  1
  Ta  Ta1  1  0.803483  0.196598  0.803686  1
  Ta  Ta2  1  0.196639  0.803487  0.196210  1
  Ta  Ta3  1  0.196625  0.803464  0.803664  1
  Ta  Ta4  1  0.803414  0.196701  0.196285  1
  Ta  Ta5  1  0.446843  0.446836  0.053171  1
  Ta  Ta6  1  0.053373  0.053382  0.446616  1
  Ta  Ta7  1  0.446643  0.053524  0.445818  1
  Ta  Ta8  1  0.053472  0.446659  0.054023  1
  Ta  Ta9  1  0.053492  0.446665  0.445846  1
  Ta  Ta10  1  0.446726  0.053416  0.053943  1
  Nb  Nb11  1  0.803448  0.803445  0.196538  1
  Cr  Cr12  1  0.124666  0.625167  0.625081  1
  Cr  Cr13  1  0.625196  0.124663  0.625063  1
  Cr  Cr14  1  0.624649  0.624656  0.125087  1
  Cr  Cr15  1  0.624641  0.624644  0.625619  1
  Co  Co16  1  0.728268  0.422931  0.424382  1
  Co  Co17  1  0.422950  0.728253  0.424377  1
  Co  Co18  1  0.423661  0.423607  0.728669  1
  Co  Co19  1  0.423666  0.423630  0.424041  1
  Co  Co20  1  0.521376  0.826232  0.826223  1
  Co  Co21  1  0.826205  0.521394  0.826230  1
  Co  Co22  1  0.826304  0.826340  0.522148  1
  Co  Co23  1  0.826301  0.826327  0.825229  1
  N  N24  1  0.623901  0.127375  0.124365  1
  N  N25  1  0.127369  0.623906  0.124365  1
  N  N26  1  0.125117  0.125120  0.624891  1
  N  N27  1  0.125118  0.125122  0.124881  1
