# generated using pymatgen
data_Lu3Mg(B6Ru)2
_symmetry_space_group_name_H-M   'P 1'
_cell_length_a   8.99430543
_cell_length_b   11.31786315
_cell_length_c   3.56400200
_cell_angle_alpha   90.00000000
_cell_angle_beta   90.00000000
_cell_angle_gamma   90.13727355
_symmetry_Int_Tables_number   1
_chemical_formula_structural   Lu3Mg(B6Ru)2
_chemical_formula_sum   'Lu6 Mg2 B24 Ru4'
_cell_volume   362.80123964
_cell_formula_units_Z   2
loop_
 _symmetry_equiv_pos_site_id
 _symmetry_equiv_pos_as_xyz
  1  'x, y, z'
loop_
 _atom_site_type_symbol
 _atom_site_label
 _atom_site_symmetry_multiplicity
 _atom_site_fract_x
 _atom_site_fract_y
 _atom_site_fract_z
 _atom_site_occupancy
  Lu  Lu0  1  0.941796  0.367310  0.000000  1
  Lu  Lu1  1  0.322541  0.409950  0.000000  1
  Lu  Lu2  1  0.677645  0.583048  0.000000  1
  Lu  Lu3  1  0.056205  0.628986  0.000000  1
  Lu  Lu4  1  0.558048  0.874605  0.000000  1
  Lu  Lu5  1  0.178220  0.918230  0.000000  1
  Mg  Mg6  1  0.821671  0.087586  0.000000  1
  Mg  Mg7  1  0.443606  0.127998  0.000000  1
  B  B8  1  0.596395  0.030663  0.500000  1
  B  B9  1  0.057037  0.065835  0.500000  1
  B  B10  1  0.253505  0.080766  0.500000  1
  B  B11  1  0.626688  0.182239  0.500000  1
  B  B12  1  0.981202  0.209669  0.500000  1
  B  B13  1  0.294582  0.234902  0.500000  1
  B  B14  1  0.789856  0.261650  0.500000  1
  B  B15  1  0.479560  0.286269  0.500000  1
  B  B16  1  0.131108  0.313797  0.500000  1
  B  B17  1  0.748255  0.417809  0.500000  1
  B  B18  1  0.552487  0.432606  0.500000  1
  B  B19  1  0.103119  0.470595  0.500000  1
  B  B20  1  0.896069  0.527436  0.500000  1
  B  B21  1  0.446331  0.566300  0.500000  1
  B  B22  1  0.250595  0.580238  0.500000  1
  B  B23  1  0.868729  0.684450  0.500000  1
  B  B24  1  0.518994  0.713707  0.500000  1
  B  B25  1  0.208362  0.736406  0.500000  1
  B  B26  1  0.708222  0.766081  0.500000  1
  B  B27  1  0.018060  0.788645  0.500000  1
  B  B28  1  0.369892  0.817829  0.500000  1
  B  B29  1  0.750858  0.923363  0.500000  1
  B  B30  1  0.947441  0.935647  0.500000  1
  B  B31  1  0.401275  0.975861  0.500000  1
  Ru  Ru32  1  0.142093  0.178675  0.000000  1
  Ru  Ru33  1  0.635225  0.319020  0.000000  1
  Ru  Ru34  1  0.362554  0.680138  0.000000  1
  Ru  Ru35  1  0.861775  0.821692  0.000000  1
