# generated using pymatgen
data_Tb3Ni6B2Rh
_symmetry_space_group_name_H-M   'P 1'
_cell_length_a   5.10179700
_cell_length_b   5.10179742
_cell_length_c   14.67003300
_cell_angle_alpha   90.00000000
_cell_angle_beta   90.00000000
_cell_angle_gamma   120.00000378
_symmetry_Int_Tables_number   1
_chemical_formula_structural   Tb3Ni6B2Rh
_chemical_formula_sum   'Tb6 Ni12 B4 Rh2'
_cell_volume   330.68012233
_cell_formula_units_Z   2
loop_
 _symmetry_equiv_pos_site_id
 _symmetry_equiv_pos_as_xyz
  1  'x, y, z'
loop_
 _atom_site_type_symbol
 _atom_site_label
 _atom_site_symmetry_multiplicity
 _atom_site_fract_x
 _atom_site_fract_y
 _atom_site_fract_z
 _atom_site_occupancy
  Tb  Tb0  1  0.333333  0.666667  0.468201  1
  Tb  Tb1  1  0.666667  0.333333  0.968201  1
  Tb  Tb2  1  0.666667  0.333333  0.531799  1
  Tb  Tb3  1  0.333333  0.666667  0.031799  1
  Tb  Tb4  1  0.666667  0.333333  0.750000  1
  Tb  Tb5  1  0.333333  0.666667  0.250000  1
  Ni  Ni6  1  0.834346  0.668691  0.347158  1
  Ni  Ni7  1  0.331309  0.165654  0.347158  1
  Ni  Ni8  1  0.834346  0.165654  0.152842  1
  Ni  Ni9  1  0.668691  0.834346  0.652842  1
  Ni  Ni10  1  0.165654  0.331309  0.652842  1
  Ni  Ni11  1  0.834346  0.668691  0.152842  1
  Ni  Ni12  1  0.331309  0.165654  0.152842  1
  Ni  Ni13  1  0.668691  0.834346  0.847158  1
  Ni  Ni14  1  0.165654  0.331309  0.847158  1
  Ni  Ni15  1  0.165654  0.834346  0.652842  1
  Ni  Ni16  1  0.165654  0.834346  0.847158  1
  Ni  Ni17  1  0.834346  0.165654  0.347158  1
  B  B18  1  0.666667  0.333333  0.250000  1
  B  B19  1  0.333333  0.666667  0.750000  1
  B  B20  1  0.000000  0.000000  0.750000  1
  B  B21  1  0.000000  0.000000  0.250000  1
  Rh  Rh22  1  0.000000  0.000000  0.000000  1
  Rh  Rh23  1  0.000000  0.000000  0.500000  1
