# generated using pymatgen
data_Ce3ErGe6Os7
_symmetry_space_group_name_H-M   'P 1'
_cell_length_a   7.29657121
_cell_length_b   7.29657175
_cell_length_c   7.29657168
_cell_angle_alpha   109.49597823
_cell_angle_beta   109.49597592
_cell_angle_gamma   109.49598587
_symmetry_Int_Tables_number   1
_chemical_formula_structural   Ce3ErGe6Os7
_chemical_formula_sum   'Ce3 Er1 Ge6 Os7'
_cell_volume   298.76924640
_cell_formula_units_Z   1
loop_
 _symmetry_equiv_pos_site_id
 _symmetry_equiv_pos_as_xyz
  1  'x, y, z'
loop_
 _atom_site_type_symbol
 _atom_site_label
 _atom_site_symmetry_multiplicity
 _atom_site_fract_x
 _atom_site_fract_y
 _atom_site_fract_z
 _atom_site_occupancy
  Ce  Ce0  1  0.000000  0.000000  0.500000  1
  Ce  Ce1  1  0.000000  0.500000  0.000000  1
  Ce  Ce2  1  0.500000  0.000000  0.000000  1
  Er  Er3  1  0.500000  0.500000  0.500000  1
  Ge  Ge4  1  0.686795  0.686795  0.997530  1
  Ge  Ge5  1  0.313205  0.002470  0.313205  1
  Ge  Ge6  1  0.002470  0.313205  0.313205  1
  Ge  Ge7  1  0.313205  0.313205  0.002470  1
  Ge  Ge8  1  0.686795  0.997530  0.686795  1
  Ge  Ge9  1  0.997530  0.686795  0.686795  1
  Os  Os10  1  0.750012  0.249988  0.500000  1
  Os  Os11  1  0.750012  0.500000  0.249988  1
  Os  Os12  1  0.500000  0.249988  0.750012  1
  Os  Os13  1  0.249988  0.500000  0.750012  1
  Os  Os14  1  0.249988  0.750012  0.500000  1
  Os  Os15  1  0.500000  0.750012  0.249988  1
  Os  Os16  1  0.000000  0.000000  0.000000  1
