# generated using pymatgen
data_La3Tl2Sn3
_symmetry_space_group_name_H-M   'P 1'
_cell_length_a   8.81441893
_cell_length_b   8.81442661
_cell_length_c   8.81447067
_cell_angle_alpha   119.94960899
_cell_angle_beta   119.94963951
_cell_angle_gamma   90.08770173
_symmetry_Int_Tables_number   1
_chemical_formula_structural   La3Tl2Sn3
_chemical_formula_sum   'La6 Tl4 Sn6'
_cell_volume   484.61559741
_cell_formula_units_Z   2
loop_
 _symmetry_equiv_pos_site_id
 _symmetry_equiv_pos_as_xyz
  1  'x, y, z'
loop_
 _atom_site_type_symbol
 _atom_site_label
 _atom_site_symmetry_multiplicity
 _atom_site_fract_x
 _atom_site_fract_y
 _atom_site_fract_z
 _atom_site_occupancy
  La  La0  1  0.757011  0.757005  0.000007  1
  La  La1  1  0.257000  0.257010  0.999999  1
  La  La2  1  0.336463  0.836454  0.178648  1
  La  La3  1  0.657828  0.157834  0.821360  1
  La  La4  1  0.836459  0.657818  0.499988  1
  La  La5  1  0.157819  0.336459  0.499994  1
  Tl  Tl6  1  0.033885  0.533885  0.212834  1
  Tl  Tl7  1  0.321064  0.821053  0.787195  1
  Tl  Tl8  1  0.533858  0.321063  0.499967  1
  Tl  Tl9  1  0.821076  0.033871  0.499990  1
  Sn  Sn10  1  0.964781  0.464780  0.793131  1
  Sn  Sn11  1  0.671618  0.171622  0.206845  1
  Sn  Sn12  1  0.464787  0.671636  0.500035  1
  Sn  Sn13  1  0.171628  0.964786  0.500026  1
  Sn  Sn14  1  0.007364  0.007363  0.999990  1
  Sn  Sn15  1  0.507362  0.507364  0.999989  1
