# generated using pymatgen
data_La7Th(ZnRh)8
_symmetry_space_group_name_H-M   'P 1'
_cell_length_a   4.04451400
_cell_length_b   7.46364927
_cell_length_c   16.76046504
_cell_angle_alpha   89.69691556
_cell_angle_beta   90.00000000
_cell_angle_gamma   90.00000000
_symmetry_Int_Tables_number   1
_chemical_formula_structural   La7Th(ZnRh)8
_chemical_formula_sum   'La7 Th1 Zn8 Rh8'
_cell_volume   505.93829687
_cell_formula_units_Z   1
loop_
 _symmetry_equiv_pos_site_id
 _symmetry_equiv_pos_as_xyz
  1  'x, y, z'
loop_
 _atom_site_type_symbol
 _atom_site_label
 _atom_site_symmetry_multiplicity
 _atom_site_fract_x
 _atom_site_fract_y
 _atom_site_fract_z
 _atom_site_occupancy
  La  La0  1  0.750000  0.949715  0.283235  1
  La  La1  1  0.750000  0.827369  0.059319  1
  La  La2  1  0.250000  0.048329  0.716266  1
  La  La3  1  0.250000  0.170402  0.939394  1
  La  La4  1  0.250000  0.548038  0.783886  1
  La  La5  1  0.750000  0.332649  0.440983  1
  La  La6  1  0.250000  0.672331  0.560907  1
  Th  Th7  1  0.750000  0.449106  0.216725  1
  Zn  Zn8  1  0.250000  0.001590  0.440087  1
  Zn  Zn9  1  0.750000  0.501423  0.940173  1
  Zn  Zn10  1  0.750000  0.003092  0.560143  1
  Zn  Zn11  1  0.250000  0.626347  0.351549  1
  Zn  Zn12  1  0.750000  0.375652  0.650882  1
  Zn  Zn13  1  0.750000  0.876443  0.849344  1
  Zn  Zn14  1  0.250000  0.497434  0.057722  1
  Zn  Zn15  1  0.250000  0.120145  0.150705  1
  Rh  Rh16  1  0.250000  0.246241  0.565482  1
  Rh  Rh17  1  0.750000  0.259228  0.069511  1
  Rh  Rh18  1  0.250000  0.254976  0.306076  1
  Rh  Rh19  1  0.750000  0.255020  0.814284  1
  Rh  Rh20  1  0.250000  0.746136  0.934108  1
  Rh  Rh21  1  0.750000  0.755709  0.686787  1
  Rh  Rh22  1  0.750000  0.761204  0.434611  1
  Rh  Rh23  1  0.250000  0.721424  0.187822  1
