# generated using pymatgen
data_Y8Tm12Bi11Sb
_symmetry_space_group_name_H-M   'P 1'
_cell_length_a   8.19099723
_cell_length_b   9.42590800
_cell_length_c   12.01019334
_cell_angle_alpha   90.00000000
_cell_angle_beta   90.02730476
_cell_angle_gamma   90.00000000
_symmetry_Int_Tables_number   1
_chemical_formula_structural   Y8Tm12Bi11Sb
_chemical_formula_sum   'Y8 Tm12 Bi11 Sb1'
_cell_volume   927.27793406
_cell_formula_units_Z   1
loop_
 _symmetry_equiv_pos_site_id
 _symmetry_equiv_pos_as_xyz
  1  'x, y, z'
loop_
 _atom_site_type_symbol
 _atom_site_label
 _atom_site_symmetry_multiplicity
 _atom_site_fract_x
 _atom_site_fract_y
 _atom_site_fract_z
 _atom_site_occupancy
  Y  Y0  1  0.187672  0.750000  0.720606  1
  Y  Y1  1  0.681395  0.750000  0.784044  1
  Y  Y2  1  0.813930  0.250000  0.281173  1
  Y  Y3  1  0.314006  0.250000  0.218882  1
  Y  Y4  1  0.353942  0.750000  0.212875  1
  Y  Y5  1  0.853286  0.750000  0.283633  1
  Y  Y6  1  0.646939  0.250000  0.783889  1
  Y  Y7  1  0.147069  0.250000  0.716326  1
  Tm  Tm8  1  0.028221  0.750000  0.988857  1
  Tm  Tm9  1  0.524350  0.750000  0.511107  1
  Tm  Tm10  1  0.976522  0.250000  0.010747  1
  Tm  Tm11  1  0.475615  0.250000  0.489048  1
  Tm  Tm12  1  0.308964  0.438775  0.940947  1
  Tm  Tm13  1  0.807569  0.065308  0.559296  1
  Tm  Tm14  1  0.689447  0.932138  0.057807  1
  Tm  Tm15  1  0.192513  0.565648  0.440509  1
  Tm  Tm16  1  0.689447  0.567862  0.057807  1
  Tm  Tm17  1  0.192513  0.934352  0.440509  1
  Tm  Tm18  1  0.308964  0.061225  0.940947  1
  Tm  Tm19  1  0.807569  0.434692  0.559296  1
  Bi  Bi20  1  0.433713  0.004157  0.672306  1
  Bi  Bi21  1  0.933437  0.496328  0.827675  1
  Bi  Bi22  1  0.566273  0.504181  0.327624  1
  Bi  Bi23  1  0.066136  0.996119  0.172201  1
  Bi  Bi24  1  0.566273  0.995819  0.327624  1
  Bi  Bi25  1  0.066136  0.503881  0.172201  1
  Bi  Bi26  1  0.433713  0.495843  0.672306  1
  Bi  Bi27  1  0.933437  0.003672  0.827675  1
  Bi  Bi28  1  0.906464  0.750000  0.543023  1
  Bi  Bi29  1  0.594258  0.250000  0.042473  1
  Bi  Bi30  1  0.093966  0.250000  0.457655  1
  Sb  Sb31  1  0.406260  0.750000  0.958928  1
