# generated using pymatgen
data_Tb6Tm10MgIn3Rh4
_symmetry_space_group_name_H-M   'P 1'
_cell_length_a   9.62114492
_cell_length_b   9.59741139
_cell_length_c   9.61610955
_cell_angle_alpha   60.02406339
_cell_angle_beta   59.97770717
_cell_angle_gamma   59.81057806
_symmetry_Int_Tables_number   1
_chemical_formula_structural   Tb6Tm10MgIn3Rh4
_chemical_formula_sum   'Tb6 Tm10 Mg1 In3 Rh4'
_cell_volume   626.96796036
_cell_formula_units_Z   1
loop_
 _symmetry_equiv_pos_site_id
 _symmetry_equiv_pos_as_xyz
  1  'x, y, z'
loop_
 _atom_site_type_symbol
 _atom_site_label
 _atom_site_symmetry_multiplicity
 _atom_site_fract_x
 _atom_site_fract_y
 _atom_site_fract_z
 _atom_site_occupancy
  Tb  Tb0  1  0.062250  0.061735  0.437358  1
  Tb  Tb1  1  0.435320  0.065230  0.434669  1
  Tb  Tb2  1  0.061675  0.438036  0.061438  1
  Tb  Tb3  1  0.049905  0.649610  0.649687  1
  Tb  Tb4  1  0.435654  0.435301  0.063888  1
  Tb  Tb5  1  0.649860  0.048964  0.649394  1
  Tm  Tm6  1  0.186476  0.814484  0.185954  1
  Tm  Tm7  1  0.185787  0.185941  0.814689  1
  Tm  Tm8  1  0.809725  0.809922  0.190566  1
  Tm  Tm9  1  0.440048  0.059183  0.059470  1
  Tm  Tm10  1  0.815066  0.186269  0.185478  1
  Tm  Tm11  1  0.060607  0.438390  0.438287  1
  Tm  Tm12  1  0.810919  0.189960  0.810844  1
  Tm  Tm13  1  0.189929  0.811266  0.810826  1
  Tm  Tm14  1  0.649705  0.649235  0.047520  1
  Tm  Tm15  1  0.650488  0.651891  0.652484  1
  Mg  Mg16  1  0.423599  0.424134  0.422110  1
  In  In17  1  0.747331  0.419357  0.417863  1
  In  In18  1  0.419932  0.747341  0.416454  1
  In  In19  1  0.419057  0.417658  0.747605  1
  Rh  Rh20  1  0.858902  0.856047  0.423940  1
  Rh  Rh21  1  0.855414  0.856988  0.860748  1
  Rh  Rh22  1  0.425047  0.857284  0.860900  1
  Rh  Rh23  1  0.857304  0.425774  0.857827  1
