# generated using pymatgen
data_ICl15
_symmetry_space_group_name_H-M   'P 1'
_cell_length_a   9.51349577
_cell_length_b   12.90720971
_cell_length_c   15.10554414
_cell_angle_alpha   68.26939925
_cell_angle_beta   126.23962228
_cell_angle_gamma   112.93701408
_symmetry_Int_Tables_number   1
_chemical_formula_structural   ICl15
_chemical_formula_sum   'I2 Cl30'
_cell_volume   1353.10502112
_cell_formula_units_Z   2
loop_
 _symmetry_equiv_pos_site_id
 _symmetry_equiv_pos_as_xyz
  1  'x, y, z'
loop_
 _atom_site_type_symbol
 _atom_site_label
 _atom_site_symmetry_multiplicity
 _atom_site_fract_x
 _atom_site_fract_y
 _atom_site_fract_z
 _atom_site_occupancy
  I  I0  1  0.183282  0.151596  0.997824  1
  I  I1  1  0.816718  0.848404  0.002176  1
  Cl  Cl2  1  0.167198  0.350004  0.940088  1
  Cl  Cl3  1  0.832802  0.649996  0.059912  1
  Cl  Cl4  1  0.166006  0.922818  0.053389  1
  Cl  Cl5  1  0.833994  0.077182  0.946611  1
  Cl  Cl6  1  0.149448  0.685047  0.308739  1
  Cl  Cl7  1  0.850552  0.314953  0.691261  1
  Cl  Cl8  1  0.358521  0.729573  0.454556  1
  Cl  Cl9  1  0.641479  0.270427  0.545444  1
  Cl  Cl10  1  0.201551  0.606359  0.678114  1
  Cl  Cl11  1  0.798449  0.393641  0.321886  1
  Cl  Cl12  1  0.019316  0.348830  0.463471  1
  Cl  Cl13  1  0.980684  0.651170  0.536529  1
  Cl  Cl14  1  0.421961  0.253786  0.807888  1
  Cl  Cl15  1  0.578039  0.746214  0.192112  1
  Cl  Cl16  1  0.296328  0.978994  0.529915  1
  Cl  Cl17  1  0.703672  0.021006  0.470085  1
  Cl  Cl18  1  0.283688  0.435586  0.292746  1
  Cl  Cl19  1  0.716312  0.564414  0.707254  1
  Cl  Cl20  1  0.015029  0.909920  0.667945  1
  Cl  Cl21  1  0.984971  0.090080  0.332055  1
  Cl  Cl22  1  0.750428  0.587028  0.843564  1
  Cl  Cl23  1  0.249572  0.412972  0.156436  1
  Cl  Cl24  1  0.642653  0.730660  0.348327  1
  Cl  Cl25  1  0.357347  0.269340  0.651673  1
  Cl  Cl26  1  0.511710  0.919867  0.662880  1
  Cl  Cl27  1  0.488290  0.080133  0.337120  1
  Cl  Cl28  1  0.070751  0.914227  0.817272  1
  Cl  Cl29  1  0.929249  0.085773  0.182728  1
  Cl  Cl30  1  0.510491  0.804571  0.948777  1
  Cl  Cl31  1  0.489509  0.195429  0.051223  1
