# generated using pymatgen
data_Dy5Er3(Si3Pt)4
_symmetry_space_group_name_H-M   'P 1'
_cell_length_a   8.13986700
_cell_length_b   8.13986759
_cell_length_c   8.12640300
_cell_angle_alpha   90.00000000
_cell_angle_beta   90.00000000
_cell_angle_gamma   120.00000166
_symmetry_Int_Tables_number   1
_chemical_formula_structural   Dy5Er3(Si3Pt)4
_chemical_formula_sum   'Dy5 Er3 Si12 Pt4'
_cell_volume   466.29808248
_cell_formula_units_Z   1
loop_
 _symmetry_equiv_pos_site_id
 _symmetry_equiv_pos_as_xyz
  1  'x, y, z'
loop_
 _atom_site_type_symbol
 _atom_site_label
 _atom_site_symmetry_multiplicity
 _atom_site_fract_x
 _atom_site_fract_y
 _atom_site_fract_z
 _atom_site_occupancy
  Dy  Dy0  1  0.000000  0.000000  0.250000  1
  Dy  Dy1  1  0.000000  0.000000  0.750000  1
  Dy  Dy2  1  0.498180  0.501820  0.250000  1
  Dy  Dy3  1  0.498180  0.996360  0.250000  1
  Dy  Dy4  1  0.003640  0.501820  0.250000  1
  Er  Er5  1  0.501851  0.498149  0.750000  1
  Er  Er6  1  0.996298  0.498149  0.750000  1
  Er  Er7  1  0.501851  0.003702  0.750000  1
  Si  Si8  1  0.834578  0.165422  0.499316  1
  Si  Si9  1  0.834578  0.669158  0.499316  1
  Si  Si10  1  0.330842  0.165422  0.499316  1
  Si  Si11  1  0.834578  0.165422  0.000684  1
  Si  Si12  1  0.834578  0.669158  0.000684  1
  Si  Si13  1  0.330842  0.165422  0.000684  1
  Si  Si14  1  0.165406  0.834594  0.998169  1
  Si  Si15  1  0.669190  0.834594  0.998169  1
  Si  Si16  1  0.165406  0.330810  0.998169  1
  Si  Si17  1  0.165406  0.834594  0.501831  1
  Si  Si18  1  0.669190  0.834594  0.501831  1
  Si  Si19  1  0.165406  0.330810  0.501831  1
  Pt  Pt20  1  0.666667  0.333333  0.499004  1
  Pt  Pt21  1  0.666667  0.333333  0.000996  1
  Pt  Pt22  1  0.333333  0.666667  0.993457  1
  Pt  Pt23  1  0.333333  0.666667  0.506543  1
