# generated using pymatgen
data_Pr16Cd3HgIrRu3
_symmetry_space_group_name_H-M   'P 1'
_cell_length_a   10.03023699
_cell_length_b   9.98526800
_cell_length_c   9.98526808
_cell_angle_alpha   59.89744616
_cell_angle_beta   59.96103198
_cell_angle_gamma   59.96103589
_symmetry_Int_Tables_number   1
_chemical_formula_structural   Pr16Cd3HgIrRu3
_chemical_formula_sum   'Pr16 Cd3 Hg1 Ir1 Ru3'
_cell_volume   706.19116255
_cell_formula_units_Z   1
loop_
 _symmetry_equiv_pos_site_id
 _symmetry_equiv_pos_as_xyz
  1  'x, y, z'
loop_
 _atom_site_type_symbol
 _atom_site_label
 _atom_site_symmetry_multiplicity
 _atom_site_fract_x
 _atom_site_fract_y
 _atom_site_fract_z
 _atom_site_occupancy
  Pr  Pr0  1  0.345897  0.346986  0.346986  1
  Pr  Pr1  1  0.346135  0.347234  0.958567  1
  Pr  Pr2  1  0.346135  0.958567  0.347234  1
  Pr  Pr3  1  0.961142  0.345813  0.345813  1
  Pr  Pr4  1  0.810604  0.190920  0.190920  1
  Pr  Pr5  1  0.190586  0.809626  0.809626  1
  Pr  Pr6  1  0.190346  0.809460  0.190105  1
  Pr  Pr7  1  0.810585  0.191836  0.806769  1
  Pr  Pr8  1  0.190346  0.190105  0.809460  1
  Pr  Pr9  1  0.810585  0.806769  0.191836  1
  Pr  Pr10  1  0.937450  0.561821  0.561821  1
  Pr  Pr11  1  0.559488  0.939752  0.939752  1
  Pr  Pr12  1  0.559503  0.938529  0.562118  1
  Pr  Pr13  1  0.938386  0.561826  0.938988  1
  Pr  Pr14  1  0.559503  0.562118  0.938529  1
  Pr  Pr15  1  0.938386  0.938988  0.561826  1
  Cd  Cd16  1  0.579142  0.579122  0.261604  1
  Cd  Cd17  1  0.579142  0.261604  0.579122  1
  Cd  Cd18  1  0.262207  0.578865  0.578865  1
  Hg  Hg19  1  0.582335  0.582120  0.582120  1
  Ir  Ir20  1  0.579797  0.139882  0.139882  1
  Ru  Ru21  1  0.140821  0.136640  0.136640  1
  Ru  Ru22  1  0.140739  0.137348  0.584068  1
  Ru  Ru23  1  0.140739  0.584068  0.137348  1
