# generated using pymatgen
data_DyTh3(ZnCo)4
_symmetry_space_group_name_H-M   'P 1'
_cell_length_a   3.84884500
_cell_length_b   6.92931027
_cell_length_c   8.32360708
_cell_angle_alpha   90.73927155
_cell_angle_beta   90.00000000
_cell_angle_gamma   90.00000000
_symmetry_Int_Tables_number   1
_chemical_formula_structural   DyTh3(ZnCo)4
_chemical_formula_sum   'Dy1 Th3 Zn4 Co4'
_cell_volume   221.97080073
_cell_formula_units_Z   1
loop_
 _symmetry_equiv_pos_site_id
 _symmetry_equiv_pos_as_xyz
  1  'x, y, z'
loop_
 _atom_site_type_symbol
 _atom_site_label
 _atom_site_symmetry_multiplicity
 _atom_site_fract_x
 _atom_site_fract_y
 _atom_site_fract_z
 _atom_site_occupancy
  Dy  Dy0  1  0.750000  0.950569  0.687020  1
  Th  Th1  1  0.250000  0.541786  0.184189  1
  Th  Th2  1  0.750000  0.452568  0.809808  1
  Th  Th3  1  0.250000  0.043381  0.320930  1
  Zn  Zn4  1  0.250000  0.118180  0.941518  1
  Zn  Zn5  1  0.750000  0.873681  0.050194  1
  Zn  Zn6  1  0.250000  0.638667  0.554450  1
  Zn  Zn7  1  0.750000  0.376901  0.447506  1
  Co  Co8  1  0.750000  0.759776  0.355422  1
  Co  Co9  1  0.250000  0.256548  0.638455  1
  Co  Co10  1  0.750000  0.255344  0.141126  1
  Co  Co11  1  0.250000  0.732596  0.869383  1
