# generated using pymatgen
data_Lu10Si3Hg4Os
_symmetry_space_group_name_H-M   'P 1'
_cell_length_a   8.55436264
_cell_length_b   8.55436209
_cell_length_c   7.41194100
_cell_angle_alpha   90.25487388
_cell_angle_beta   90.25487387
_cell_angle_gamma   128.86087975
_symmetry_Int_Tables_number   1
_chemical_formula_structural   Lu10Si3Hg4Os
_chemical_formula_sum   'Lu10 Si3 Hg4 Os1'
_cell_volume   422.31701319
_cell_formula_units_Z   1
loop_
 _symmetry_equiv_pos_site_id
 _symmetry_equiv_pos_as_xyz
  1  'x, y, z'
loop_
 _atom_site_type_symbol
 _atom_site_label
 _atom_site_symmetry_multiplicity
 _atom_site_fract_x
 _atom_site_fract_y
 _atom_site_fract_z
 _atom_site_occupancy
  Lu  Lu0  1  0.062647  0.312973  0.316287  1
  Lu  Lu1  1  0.946232  0.689095  0.676974  1
  Lu  Lu2  1  0.446791  0.197467  0.830868  1
  Lu  Lu3  1  0.798562  0.547303  0.174451  1
  Lu  Lu4  1  0.547303  0.798562  0.174451  1
  Lu  Lu5  1  0.197467  0.446791  0.830868  1
  Lu  Lu6  1  0.689095  0.946232  0.676974  1
  Lu  Lu7  1  0.312973  0.062647  0.316287  1
  Lu  Lu8  1  0.006076  0.006076  0.006282  1
  Lu  Lu9  1  0.495179  0.495179  0.492006  1
  Si  Si10  1  0.623390  0.623390  0.875073  1
  Si  Si11  1  0.111618  0.111618  0.622960  1
  Si  Si12  1  0.880835  0.880835  0.386881  1
  Hg  Hg13  1  0.783154  0.215713  0.998007  1
  Hg  Hg14  1  0.215713  0.783154  0.998007  1
  Hg  Hg15  1  0.718485  0.282235  0.501317  1
  Hg  Hg16  1  0.282235  0.718485  0.501317  1
  Os  Os17  1  0.382247  0.382247  0.120989  1
