# generated using pymatgen
data_ZrSc3(SiW)4
_symmetry_space_group_name_H-M   'P 1'
_cell_length_a   3.55070900
_cell_length_b   7.00602542
_cell_length_c   8.21177153
_cell_angle_alpha   90.13197154
_cell_angle_beta   90.00000000
_cell_angle_gamma   90.00000000
_symmetry_Int_Tables_number   1
_chemical_formula_structural   ZrSc3(SiW)4
_chemical_formula_sum   'Zr1 Sc3 Si4 W4'
_cell_volume   204.27842271
_cell_formula_units_Z   1
loop_
 _symmetry_equiv_pos_site_id
 _symmetry_equiv_pos_as_xyz
  1  'x, y, z'
loop_
 _atom_site_type_symbol
 _atom_site_label
 _atom_site_symmetry_multiplicity
 _atom_site_fract_x
 _atom_site_fract_y
 _atom_site_fract_z
 _atom_site_occupancy
  Zr  Zr0  1  0.750000  0.458951  0.834571  1
  Sc  Sc1  1  0.250000  0.041830  0.334459  1
  Sc  Sc2  1  0.250000  0.541475  0.164802  1
  Sc  Sc3  1  0.750000  0.957100  0.665083  1
  Si  Si4  1  0.250000  0.254559  0.639751  1
  Si  Si5  1  0.250000  0.758657  0.859270  1
  Si  Si6  1  0.750000  0.742721  0.358434  1
  Si  Si7  1  0.750000  0.243161  0.142003  1
  W  W8  1  0.250000  0.129391  0.942296  1
  W  W9  1  0.250000  0.628076  0.557685  1
  W  W10  1  0.750000  0.871687  0.058294  1
  W  W11  1  0.750000  0.372393  0.443352  1
