# generated using pymatgen
data_Sm5MnCoO12
_symmetry_space_group_name_H-M   'P 1'
_cell_length_a   6.90012663
_cell_length_b   6.90012683
_cell_length_c   7.42244000
_cell_angle_alpha   74.49930437
_cell_angle_beta   74.49931436
_cell_angle_gamma   50.41181339
_symmetry_Int_Tables_number   1
_chemical_formula_structural   Sm5MnCoO12
_chemical_formula_sum   'Sm5 Mn1 Co1 O12'
_cell_volume   260.19073625
_cell_formula_units_Z   1
loop_
 _symmetry_equiv_pos_site_id
 _symmetry_equiv_pos_as_xyz
  1  'x, y, z'
loop_
 _atom_site_type_symbol
 _atom_site_label
 _atom_site_symmetry_multiplicity
 _atom_site_fract_x
 _atom_site_fract_y
 _atom_site_fract_z
 _atom_site_occupancy
  Sm  Sm0  1  0.303862  0.309829  0.356142  1
  Sm  Sm1  1  0.690171  0.696138  0.643858  1
  Sm  Sm2  1  0.694011  0.691939  0.164547  1
  Sm  Sm3  1  0.308061  0.305989  0.835453  1
  Sm  Sm4  1  0.995266  0.004734  0.500000  1
  Mn  Mn5  1  0.246037  0.753963  0.000000  1
  Co  Co6  1  0.759884  0.240116  0.000000  1
  O  O7  1  0.093935  0.596879  0.579846  1
  O  O8  1  0.996788  0.001471  0.170987  1
  O  O9  1  0.403121  0.906065  0.420154  1
  O  O10  1  0.502968  0.497693  0.172201  1
  O  O11  1  0.099134  0.580229  0.077358  1
  O  O12  1  0.901780  0.403527  0.424131  1
  O  O13  1  0.998529  0.003212  0.829013  1
  O  O14  1  0.596473  0.098219  0.575869  1
  O  O15  1  0.502307  0.497032  0.827799  1
  O  O16  1  0.592067  0.104163  0.075555  1
  O  O17  1  0.419771  0.900866  0.922642  1
  O  O18  1  0.895837  0.407933  0.924445  1
