# generated using pymatgen
data_YbTm5U2(ReB6)4
_symmetry_space_group_name_H-M   'P 1'
_cell_length_a   3.65804100
_cell_length_b   9.10017608
_cell_length_c   11.45830114
_cell_angle_alpha   90.42893862
_cell_angle_beta   90.00000000
_cell_angle_gamma   90.00000000
_symmetry_Int_Tables_number   1
_chemical_formula_structural   YbTm5U2(ReB6)4
_chemical_formula_sum   'Yb1 Tm5 U2 Re4 B24'
_cell_volume   381.42260332
_cell_formula_units_Z   1
loop_
 _symmetry_equiv_pos_site_id
 _symmetry_equiv_pos_as_xyz
  1  'x, y, z'
loop_
 _atom_site_type_symbol
 _atom_site_label
 _atom_site_symmetry_multiplicity
 _atom_site_fract_x
 _atom_site_fract_y
 _atom_site_fract_z
 _atom_site_occupancy
  Yb  Yb0  1  0.000000  0.823145  0.086086  1
  Tm  Tm1  1  0.000000  0.175681  0.914767  1
  Tm  Tm2  1  0.000000  0.944326  0.371551  1
  Tm  Tm3  1  0.000000  0.055063  0.626677  1
  Tm  Tm4  1  0.000000  0.444044  0.127095  1
  Tm  Tm5  1  0.000000  0.557411  0.873570  1
  U  U6  1  0.000000  0.322093  0.413125  1
  U  U7  1  0.000000  0.677908  0.586606  1
  Re  Re8  1  0.000000  0.633919  0.326823  1
  Re  Re9  1  0.000000  0.365040  0.674543  1
  Re  Re10  1  0.000000  0.143143  0.183454  1
  Re  Re11  1  0.000000  0.858908  0.815892  1
  B  B12  1  0.500000  0.552359  0.434764  1
  B  B13  1  0.500000  0.447134  0.566146  1
  B  B14  1  0.500000  0.053822  0.067253  1
  B  B15  1  0.500000  0.947170  0.932235  1
  B  B16  1  0.500000  0.748406  0.420572  1
  B  B17  1  0.500000  0.251260  0.579372  1
  B  B18  1  0.500000  0.249014  0.080402  1
  B  B19  1  0.500000  0.751724  0.918779  1
  B  B20  1  0.500000  0.791178  0.266390  1
  B  B21  1  0.500000  0.207920  0.734150  1
  B  B22  1  0.500000  0.293840  0.235220  1
  B  B23  1  0.500000  0.706856  0.764425  1
  B  B24  1  0.500000  0.630356  0.186189  1
  B  B25  1  0.500000  0.368883  0.814970  1
  B  B26  1  0.500000  0.133406  0.315258  1
  B  B27  1  0.500000  0.867204  0.684096  1
  B  B28  1  0.500000  0.982396  0.212330  1
  B  B29  1  0.500000  0.018609  0.787121  1
  B  B30  1  0.500000  0.481302  0.288234  1
  B  B31  1  0.500000  0.518473  0.712812  1
  B  B32  1  0.500000  0.600490  0.028505  1
  B  B33  1  0.500000  0.397515  0.971151  1
  B  B34  1  0.500000  0.110726  0.469406  1
  B  B35  1  0.500000  0.889277  0.530031  1
