# generated using pymatgen
data_Dy4Ho2PtI10
_symmetry_space_group_name_H-M   'P 1'
_cell_length_a   7.73229813
_cell_length_b   9.72450316
_cell_length_c   9.77009140
_cell_angle_alpha   107.20795545
_cell_angle_beta   96.95475864
_cell_angle_gamma   104.67587869
_symmetry_Int_Tables_number   1
_chemical_formula_structural   Dy4Ho2PtI10
_chemical_formula_sum   'Dy4 Ho2 Pt1 I10'
_cell_volume   663.40846076
_cell_formula_units_Z   1
loop_
 _symmetry_equiv_pos_site_id
 _symmetry_equiv_pos_as_xyz
  1  'x, y, z'
loop_
 _atom_site_type_symbol
 _atom_site_label
 _atom_site_symmetry_multiplicity
 _atom_site_fract_x
 _atom_site_fract_y
 _atom_site_fract_z
 _atom_site_occupancy
  Dy  Dy0  1  0.885393  0.959717  0.241647  1
  Dy  Dy1  1  0.114607  0.040283  0.758353  1
  Dy  Dy2  1  0.348428  0.125314  0.165734  1
  Dy  Dy3  1  0.651572  0.874686  0.834266  1
  Ho  Ho4  1  0.971479  0.286439  0.086580  1
  Ho  Ho5  1  0.028521  0.713561  0.913420  1
  Pt  Pt6  1  0.000000  0.000000  0.000000  1
  I  I7  1  0.355169  0.453481  0.272696  1
  I  I8  1  0.644831  0.546519  0.727304  1
  I  I9  1  0.914337  0.626685  0.179155  1
  I  I10  1  0.085663  0.373315  0.820845  1
  I  I11  1  0.453530  0.816838  0.092160  1
  I  I12  1  0.546470  0.183162  0.907840  1
  I  I13  1  0.259354  0.087717  0.463460  1
  I  I14  1  0.740646  0.912283  0.536540  1
  I  I15  1  0.779596  0.259314  0.347309  1
  I  I16  1  0.220404  0.740686  0.652691  1
