# generated using pymatgen
data_K2HgF6
_symmetry_space_group_name_H-M   'P 1'
_cell_length_a   6.49484400
_cell_length_b   6.30429201
_cell_length_c   10.63230003
_cell_angle_alpha   55.18761264
_cell_angle_beta   90.00257255
_cell_angle_gamma   90.00123154
_symmetry_Int_Tables_number   1
_chemical_formula_structural   K2HgF6
_chemical_formula_sum   'K4 Hg2 F12'
_cell_volume   357.42841356
_cell_formula_units_Z   2
loop_
 _symmetry_equiv_pos_site_id
 _symmetry_equiv_pos_as_xyz
  1  'x, y, z'
loop_
 _atom_site_type_symbol
 _atom_site_label
 _atom_site_symmetry_multiplicity
 _atom_site_fract_x
 _atom_site_fract_y
 _atom_site_fract_z
 _atom_site_occupancy
  K  K0  1  0.570696  0.731179  0.255667  1
  K  K1  1  0.429304  0.268821  0.744333  1
  K  K2  1  0.929276  0.731193  0.755676  1
  K  K3  1  0.070724  0.268807  0.244324  1
  Hg  Hg4  1  0.500000  0.000000  0.500000  1
  Hg  Hg5  1  0.000000  0.000000  0.000000  1
  F  F6  1  0.279520  0.794308  0.045887  1
  F  F7  1  0.830460  0.673650  0.046115  1
  F  F8  1  0.220484  0.794304  0.545894  1
  F  F9  1  0.779516  0.205696  0.454106  1
  F  F10  1  0.669561  0.673656  0.546131  1
  F  F11  1  0.330439  0.326344  0.453869  1
  F  F12  1  0.975245  0.859636  0.233947  1
  F  F13  1  0.169540  0.326350  0.953885  1
  F  F14  1  0.024755  0.140364  0.766053  1
  F  F15  1  0.720480  0.205692  0.954113  1
  F  F16  1  0.475253  0.140292  0.266079  1
  F  F17  1  0.524747  0.859708  0.733921  1
