# generated using pymatgen
data_Dy5TmAl21Si3Os8
_symmetry_space_group_name_H-M   'P 1'
_cell_length_a   8.71852905
_cell_length_b   8.71853198
_cell_length_c   9.64186703
_cell_angle_alpha   89.99250587
_cell_angle_beta   90.00749571
_cell_angle_gamma   120.00945203
_symmetry_Int_Tables_number   1
_chemical_formula_structural   Dy5TmAl21Si3Os8
_chemical_formula_sum   'Dy5 Tm1 Al21 Si3 Os8'
_cell_volume   634.65393315
_cell_formula_units_Z   1
loop_
 _symmetry_equiv_pos_site_id
 _symmetry_equiv_pos_as_xyz
  1  'x, y, z'
loop_
 _atom_site_type_symbol
 _atom_site_label
 _atom_site_symmetry_multiplicity
 _atom_site_fract_x
 _atom_site_fract_y
 _atom_site_fract_z
 _atom_site_occupancy
  Dy  Dy0  1  0.194742  0.389534  0.247655  1
  Dy  Dy1  1  0.804691  0.608992  0.752710  1
  Dy  Dy2  1  0.610467  0.805259  0.247655  1
  Dy  Dy3  1  0.391008  0.195308  0.752710  1
  Dy  Dy4  1  0.194846  0.805156  0.247636  1
  Tm  Tm5  1  0.803192  0.196807  0.752734  1
  Al  Al6  1  0.333406  0.666593  0.476741  1
  Al  Al7  1  0.163880  0.328281  0.574611  1
  Al  Al8  1  0.835065  0.670066  0.423684  1
  Al  Al9  1  0.671719  0.836120  0.574611  1
  Al  Al10  1  0.834879  0.669708  0.076564  1
  Al  Al11  1  0.329933  0.164935  0.423684  1
  Al  Al12  1  0.165084  0.330734  0.922568  1
  Al  Al13  1  0.164292  0.835707  0.574473  1
  Al  Al14  1  0.330291  0.165121  0.076564  1
  Al  Al15  1  0.835084  0.164917  0.423975  1
  Al  Al16  1  0.669266  0.834916  0.922568  1
  Al  Al17  1  0.834903  0.165098  0.076175  1
  Al  Al18  1  0.165547  0.834452  0.922711  1
  Al  Al19  1  0.563629  0.127129  0.248799  1
  Al  Al20  1  0.437438  0.874056  0.748796  1
  Al  Al21  1  0.872872  0.436371  0.248799  1
  Al  Al22  1  0.125944  0.562561  0.748796  1
  Al  Al23  1  0.563631  0.436370  0.248778  1
  Al  Al24  1  0.436734  0.563265  0.748814  1
  Al  Al25  1  0.000008  0.999993  0.248770  1
  Al  Al26  1  0.999349  0.000650  0.749393  1
  Si  Si27  1  0.333409  0.666591  0.038865  1
  Si  Si28  1  0.667017  0.332983  0.961800  1
  Si  Si29  1  0.666955  0.333044  0.539371  1
  Os  Os30  1  0.500368  0.000108  0.998545  1
  Os  Os31  1  0.999892  0.499632  0.998545  1
  Os  Os32  1  0.504702  0.008729  0.501837  1
  Os  Os33  1  0.500047  0.499953  0.998799  1
  Os  Os34  1  0.991270  0.495297  0.501838  1
  Os  Os35  1  0.504405  0.495595  0.501523  1
  Os  Os36  1  0.000006  0.999993  0.998715  1
  Os  Os37  1  0.000024  0.999976  0.499189  1
