# generated using pymatgen
data_Zr4CoMoOs6
_symmetry_space_group_name_H-M   'P 1'
_cell_length_a   5.15325007
_cell_length_b   5.15324931
_cell_length_c   8.62814300
_cell_angle_alpha   90.00000000
_cell_angle_beta   90.00000000
_cell_angle_gamma   118.37366181
_symmetry_Int_Tables_number   1
_chemical_formula_structural   Zr4CoMoOs6
_chemical_formula_sum   'Zr4 Co1 Mo1 Os6'
_cell_volume   201.60290883
_cell_formula_units_Z   1
loop_
 _symmetry_equiv_pos_site_id
 _symmetry_equiv_pos_as_xyz
  1  'x, y, z'
loop_
 _atom_site_type_symbol
 _atom_site_label
 _atom_site_symmetry_multiplicity
 _atom_site_fract_x
 _atom_site_fract_y
 _atom_site_fract_z
 _atom_site_occupancy
  Zr  Zr0  1  0.333369  0.666631  0.431565  1
  Zr  Zr1  1  0.671336  0.328664  0.559768  1
  Zr  Zr2  1  0.671336  0.328664  0.940232  1
  Zr  Zr3  1  0.333369  0.666631  0.068435  1
  Co  Co4  1  0.827590  0.172410  0.250000  1
  Mo  Mo5  1  0.167539  0.832461  0.750000  1
  Os  Os6  1  0.999067  0.000933  0.493241  1
  Os  Os7  1  0.999067  0.000933  0.006759  1
  Os  Os8  1  0.824346  0.655161  0.250000  1
  Os  Os9  1  0.344839  0.175654  0.250000  1
  Os  Os10  1  0.173372  0.345230  0.750000  1
  Os  Os11  1  0.654770  0.826628  0.750000  1
