# generated using pymatgen
data_Th6IrPd7
_symmetry_space_group_name_H-M   'P 1'
_cell_length_a   8.26027822
_cell_length_b   8.26027790
_cell_length_c   8.26027709
_cell_angle_alpha   114.79636399
_cell_angle_beta   114.79635678
_cell_angle_gamma   114.79635551
_symmetry_Int_Tables_number   1
_chemical_formula_structural   Th6IrPd7
_chemical_formula_sum   'Th6 Ir1 Pd7'
_cell_volume   321.20675077
_cell_formula_units_Z   1
loop_
 _symmetry_equiv_pos_site_id
 _symmetry_equiv_pos_as_xyz
  1  'x, y, z'
loop_
 _atom_site_type_symbol
 _atom_site_label
 _atom_site_symmetry_multiplicity
 _atom_site_fract_x
 _atom_site_fract_y
 _atom_site_fract_z
 _atom_site_occupancy
  Th  Th0  1  0.397212  0.026095  0.272628  1
  Th  Th1  1  0.026095  0.272628  0.397212  1
  Th  Th2  1  0.272628  0.397212  0.026095  1
  Th  Th3  1  0.602788  0.973905  0.727372  1
  Th  Th4  1  0.973905  0.727372  0.602788  1
  Th  Th5  1  0.727372  0.602788  0.973905  1
  Ir  Ir6  1  0.000000  0.000000  0.000000  1
  Pd  Pd7  1  0.500000  0.500000  0.500000  1
  Pd  Pd8  1  0.230142  0.065623  0.571476  1
  Pd  Pd9  1  0.065623  0.571476  0.230142  1
  Pd  Pd10  1  0.571476  0.230142  0.065623  1
  Pd  Pd11  1  0.769858  0.934377  0.428524  1
  Pd  Pd12  1  0.934377  0.428524  0.769858  1
  Pd  Pd13  1  0.428524  0.769858  0.934377  1
