# generated using pymatgen
data_Li2Tb16ZnInRh4
_symmetry_space_group_name_H-M   'P 1'
_cell_length_a   9.65374904
_cell_length_b   9.66154961
_cell_length_c   9.66155082
_cell_angle_alpha   60.05884862
_cell_angle_beta   59.91091197
_cell_angle_gamma   59.91091545
_symmetry_Int_Tables_number   1
_chemical_formula_structural   Li2Tb16ZnInRh4
_chemical_formula_sum   'Li2 Tb16 Zn1 In1 Rh4'
_cell_volume   636.62074416
_cell_formula_units_Z   1
loop_
 _symmetry_equiv_pos_site_id
 _symmetry_equiv_pos_as_xyz
  1  'x, y, z'
loop_
 _atom_site_type_symbol
 _atom_site_label
 _atom_site_symmetry_multiplicity
 _atom_site_fract_x
 _atom_site_fract_y
 _atom_site_fract_z
 _atom_site_occupancy
  Li  Li0  1  0.428329  0.424104  0.717387  1
  Li  Li1  1  0.428329  0.717387  0.424104  1
  Tb  Tb2  1  0.812482  0.809526  0.190375  1
  Tb  Tb3  1  0.812482  0.190375  0.809526  1
  Tb  Tb4  1  0.186493  0.189614  0.814242  1
  Tb  Tb5  1  0.650378  0.050539  0.648197  1
  Tb  Tb6  1  0.063175  0.064217  0.437431  1
  Tb  Tb7  1  0.435976  0.436520  0.066936  1
  Tb  Tb8  1  0.654901  0.651696  0.651696  1
  Tb  Tb9  1  0.804535  0.193117  0.193117  1
  Tb  Tb10  1  0.184335  0.816946  0.816946  1
  Tb  Tb11  1  0.041835  0.650805  0.650805  1
  Tb  Tb12  1  0.437635  0.062668  0.062668  1
  Tb  Tb13  1  0.435976  0.066936  0.436520  1
  Tb  Tb14  1  0.063175  0.437431  0.064217  1
  Tb  Tb15  1  0.650378  0.648197  0.050539  1
  Tb  Tb16  1  0.186493  0.814242  0.189614  1
  Tb  Tb17  1  0.073556  0.433925  0.433925  1
  Zn  Zn18  1  0.414618  0.415894  0.415894  1
  In  In19  1  0.742058  0.421174  0.421174  1
  Rh  Rh20  1  0.855168  0.426764  0.859638  1
  Rh  Rh21  1  0.855829  0.859316  0.859316  1
  Rh  Rh22  1  0.855168  0.859638  0.426764  1
  Rh  Rh23  1  0.426695  0.858968  0.858968  1
