# generated using pymatgen
data_ZnCo9(TeO8)2
_symmetry_space_group_name_H-M   'P 1'
_cell_length_a   6.01191939
_cell_length_b   10.41511025
_cell_length_c   6.23450435
_cell_angle_alpha   73.82068424
_cell_angle_beta   61.17636145
_cell_angle_gamma   89.99575468
_symmetry_Int_Tables_number   1
_chemical_formula_structural   ZnCo9(TeO8)2
_chemical_formula_sum   'Zn1 Co9 Te2 O16'
_cell_volume   324.25396334
_cell_formula_units_Z   1
loop_
 _symmetry_equiv_pos_site_id
 _symmetry_equiv_pos_as_xyz
  1  'x, y, z'
loop_
 _atom_site_type_symbol
 _atom_site_label
 _atom_site_symmetry_multiplicity
 _atom_site_fract_x
 _atom_site_fract_y
 _atom_site_fract_z
 _atom_site_occupancy
  Zn  Zn0  1  0.714487  0.571099  0.073049  1
  Co  Co1  1  0.788075  0.929281  0.923059  1
  Co  Co2  1  0.749654  0.250058  0.500043  1
  Co  Co3  1  0.001085  0.499951  0.499930  1
  Co  Co4  1  0.249559  0.250001  0.500074  1
  Co  Co5  1  0.210727  0.070487  0.076740  1
  Co  Co6  1  0.288696  0.429693  0.923345  1
  Co  Co7  1  0.250730  0.750070  0.499693  1
  Co  Co8  1  0.499022  0.999940  0.499829  1
  Co  Co9  1  0.750328  0.750138  0.499658  1
  Te  Te10  1  0.749599  0.250215  0.000081  1
  Te  Te11  1  0.250264  0.749737  0.000192  1
  O  O12  1  0.399145  0.133024  0.700730  1
  O  O13  1  0.900795  0.633495  0.699461  1
  O  O14  1  0.100150  0.366769  0.299324  1
  O  O15  1  0.600558  0.866976  0.299115  1
  O  O16  1  0.407715  0.136525  0.227871  1
  O  O17  1  0.907750  0.635436  0.230359  1
  O  O18  1  0.862443  0.136099  0.228533  1
  O  O19  1  0.363743  0.635764  0.229791  1
  O  O20  1  0.634956  0.363689  0.229864  1
  O  O21  1  0.136013  0.863492  0.228176  1
  O  O22  1  0.636994  0.364290  0.771331  1
  O  O23  1  0.136343  0.863369  0.772252  1
  O  O24  1  0.863435  0.136532  0.771960  1
  O  O25  1  0.364657  0.636295  0.771885  1
  O  O26  1  0.091737  0.363790  0.772155  1
  O  O27  1  0.591338  0.863784  0.771500  1
