# generated using pymatgen
data_YbDy(B4Ru)2
_symmetry_space_group_name_H-M   'P 1'
_cell_length_a   3.54206500
_cell_length_b   5.95373406
_cell_length_c   11.51510712
_cell_angle_alpha   89.98361476
_cell_angle_beta   90.00000000
_cell_angle_gamma   90.00000000
_symmetry_Int_Tables_number   1
_chemical_formula_structural   YbDy(B4Ru)2
_chemical_formula_sum   'Yb2 Dy2 B16 Ru4'
_cell_volume   242.83647664
_cell_formula_units_Z   2
loop_
 _symmetry_equiv_pos_site_id
 _symmetry_equiv_pos_as_xyz
  1  'x, y, z'
loop_
 _atom_site_type_symbol
 _atom_site_label
 _atom_site_symmetry_multiplicity
 _atom_site_fract_x
 _atom_site_fract_y
 _atom_site_fract_z
 _atom_site_occupancy
  Yb  Yb0  1  0.500000  0.128763  0.350396  1
  Yb  Yb1  1  0.500000  0.871237  0.649604  1
  Dy  Dy2  1  0.500000  0.629612  0.150718  1
  Dy  Dy3  1  0.500000  0.370388  0.849282  1
  B  B4  1  0.000000  0.975321  0.192318  1
  B  B5  1  0.000000  0.024679  0.807682  1
  B  B6  1  0.000000  0.476321  0.308592  1
  B  B7  1  0.000000  0.523679  0.691408  1
  B  B8  1  0.000000  0.788370  0.315612  1
  B  B9  1  0.000000  0.211630  0.684388  1
  B  B10  1  0.000000  0.287352  0.186049  1
  B  B11  1  0.000000  0.712648  0.813951  1
  B  B12  1  0.000000  0.864672  0.469025  1
  B  B13  1  0.000000  0.135328  0.530975  1
  B  B14  1  0.000000  0.363941  0.030644  1
  B  B15  1  0.000000  0.636059  0.969356  1
  B  B16  1  0.000000  0.888255  0.047282  1
  B  B17  1  0.000000  0.111745  0.952718  1
  B  B18  1  0.000000  0.386358  0.453261  1
  B  B19  1  0.000000  0.613642  0.546739  1
  Ru  Ru20  1  0.500000  0.635968  0.410641  1
  Ru  Ru21  1  0.500000  0.364032  0.589359  1
  Ru  Ru22  1  0.500000  0.139998  0.091075  1
  Ru  Ru23  1  0.500000  0.860002  0.908925  1
