# generated using pymatgen
data_Li3Hf(NiAs)4
_symmetry_space_group_name_H-M   'P 1'
_cell_length_a   3.92176900
_cell_length_b   6.31719744
_cell_length_c   6.97446320
_cell_angle_alpha   88.75645696
_cell_angle_beta   90.00000000
_cell_angle_gamma   90.00000000
_symmetry_Int_Tables_number   1
_chemical_formula_structural   Li3Hf(NiAs)4
_chemical_formula_sum   'Li3 Hf1 Ni4 As4'
_cell_volume   172.74876425
_cell_formula_units_Z   1
loop_
 _symmetry_equiv_pos_site_id
 _symmetry_equiv_pos_as_xyz
  1  'x, y, z'
loop_
 _atom_site_type_symbol
 _atom_site_label
 _atom_site_symmetry_multiplicity
 _atom_site_fract_x
 _atom_site_fract_y
 _atom_site_fract_z
 _atom_site_occupancy
  Li  Li0  1  0.250000  0.485619  0.182811  1
  Li  Li1  1  0.750000  0.508902  0.811880  1
  Li  Li2  1  0.750000  0.010436  0.691553  1
  Hf  Hf3  1  0.250000  0.986512  0.315154  1
  Ni  Ni4  1  0.250000  0.844769  0.940425  1
  Ni  Ni5  1  0.750000  0.155470  0.056207  1
  Ni  Ni6  1  0.750000  0.653859  0.438349  1
  Ni  Ni7  1  0.250000  0.356641  0.558927  1
  As  As8  1  0.250000  0.725872  0.624734  1
  As  As9  1  0.750000  0.279355  0.384166  1
  As  As10  1  0.750000  0.772253  0.113029  1
  As  As11  1  0.250000  0.220311  0.882765  1
