# generated using pymatgen
data_La8CoHg3
_symmetry_space_group_name_H-M   'P 1'
_cell_length_a   10.80257200
_cell_length_b   10.80257146
_cell_length_c   7.34674800
_cell_angle_alpha   90.00000000
_cell_angle_beta   90.00000000
_cell_angle_gamma   120.00001390
_symmetry_Int_Tables_number   1
_chemical_formula_structural   La8CoHg3
_chemical_formula_sum   'La16 Co2 Hg6'
_cell_volume   742.47191711
_cell_formula_units_Z   2
loop_
 _symmetry_equiv_pos_site_id
 _symmetry_equiv_pos_as_xyz
  1  'x, y, z'
loop_
 _atom_site_type_symbol
 _atom_site_label
 _atom_site_symmetry_multiplicity
 _atom_site_fract_x
 _atom_site_fract_y
 _atom_site_fract_z
 _atom_site_occupancy
  La  La0  1  0.829488  0.658978  0.480197  1
  La  La1  1  0.341023  0.170512  0.480198  1
  La  La2  1  0.829488  0.170511  0.480197  1
  La  La3  1  0.170512  0.341022  0.980197  1
  La  La4  1  0.658977  0.829488  0.980198  1
  La  La5  1  0.170512  0.829489  0.980197  1
  La  La6  1  0.666667  0.333333  0.196291  1
  La  La7  1  0.333333  0.666667  0.696291  1
  La  La8  1  0.543372  0.086744  0.788684  1
  La  La9  1  0.913257  0.456628  0.788682  1
  La  La10  1  0.543372  0.456628  0.788684  1
  La  La11  1  0.456628  0.913256  0.288684  1
  La  La12  1  0.086743  0.543372  0.288682  1
  La  La13  1  0.456628  0.543372  0.288684  1
  La  La14  1  0.000000  0.000000  0.795069  1
  La  La15  1  0.000000  0.000000  0.295069  1
  Co  Co16  1  0.666668  0.333334  0.553805  1
  Co  Co17  1  0.333332  0.666666  0.053805  1
  Hg  Hg18  1  0.833323  0.666646  0.037086  1
  Hg  Hg19  1  0.333354  0.166678  0.037086  1
  Hg  Hg20  1  0.833323  0.166678  0.037086  1
  Hg  Hg21  1  0.166677  0.333354  0.537086  1
  Hg  Hg22  1  0.666646  0.833322  0.537086  1
  Hg  Hg23  1  0.166677  0.833322  0.537086  1
