# generated using pymatgen
data_CrCu3Sn6IrS16
_symmetry_space_group_name_H-M   'P 1'
_cell_length_a   7.40097100
_cell_length_b   7.38876145
_cell_length_c   10.42842452
_cell_angle_alpha   89.79815739
_cell_angle_beta   90.00000000
_cell_angle_gamma   90.00000000
_symmetry_Int_Tables_number   1
_chemical_formula_structural   CrCu3Sn6IrS16
_chemical_formula_sum   'Cr1 Cu3 Sn6 Ir1 S16'
_cell_volume   570.26452389
_cell_formula_units_Z   1
loop_
 _symmetry_equiv_pos_site_id
 _symmetry_equiv_pos_as_xyz
  1  'x, y, z'
loop_
 _atom_site_type_symbol
 _atom_site_label
 _atom_site_symmetry_multiplicity
 _atom_site_fract_x
 _atom_site_fract_y
 _atom_site_fract_z
 _atom_site_occupancy
  Cr  Cr0  1  0.000000  0.757279  0.751003  1
  Cu  Cu1  1  0.000000  0.998156  0.129613  1
  Cu  Cu2  1  0.500000  0.494348  0.623504  1
  Cu  Cu3  1  0.500000  0.005290  0.873017  1
  Sn  Sn4  1  0.000000  0.256139  0.744200  1
  Sn  Sn5  1  0.500000  0.739894  0.252382  1
  Sn  Sn6  1  0.757099  0.001330  0.502657  1
  Sn  Sn7  1  0.249717  0.501268  0.999831  1
  Sn  Sn8  1  0.242901  0.001330  0.502657  1
  Sn  Sn9  1  0.750283  0.501268  0.999831  1
  Ir  Ir10  1  0.500000  0.245989  0.245702  1
  S  S11  1  0.000000  0.253786  0.496098  1
  S  S12  1  0.500000  0.752377  0.999350  1
  S  S13  1  0.000000  0.755170  0.521211  1
  S  S14  1  0.500000  0.250040  0.016160  1
  S  S15  1  0.235247  0.989413  0.752077  1
  S  S16  1  0.724975  0.473267  0.246205  1
  S  S17  1  0.764753  0.989413  0.752077  1
  S  S18  1  0.275025  0.473267  0.246205  1
  S  S19  1  0.500000  0.752747  0.502425  1
  S  S20  1  0.000000  0.250024  0.998800  1
  S  S21  1  0.500000  0.246187  0.479204  1
  S  S22  1  0.000000  0.749717  0.988263  1
  S  S23  1  0.269752  0.010232  0.251517  1
  S  S24  1  0.765000  0.520918  0.749748  1
  S  S25  1  0.730248  0.010232  0.251517  1
  S  S26  1  0.235000  0.520918  0.749748  1
