# generated using pymatgen
data_Er3Tm5Re3B24Os
_symmetry_space_group_name_H-M   'P 1'
_cell_length_a   3.64112500
_cell_length_b   9.10363017
_cell_length_c   11.47731503
_cell_angle_alpha   90.06781106
_cell_angle_beta   90.00000000
_cell_angle_gamma   90.00000000
_symmetry_Int_Tables_number   1
_chemical_formula_structural   Er3Tm5Re3B24Os
_chemical_formula_sum   'Er3 Tm5 Re3 B24 Os1'
_cell_volume   380.44352154
_cell_formula_units_Z   1
loop_
 _symmetry_equiv_pos_site_id
 _symmetry_equiv_pos_as_xyz
  1  'x, y, z'
loop_
 _atom_site_type_symbol
 _atom_site_label
 _atom_site_symmetry_multiplicity
 _atom_site_fract_x
 _atom_site_fract_y
 _atom_site_fract_z
 _atom_site_occupancy
  Er  Er0  1  0.000000  0.321204  0.414221  1
  Er  Er1  1  0.000000  0.677943  0.587620  1
  Er  Er2  1  0.000000  0.824032  0.084317  1
  Tm  Tm3  1  0.000000  0.177239  0.913514  1
  Tm  Tm4  1  0.000000  0.942418  0.370276  1
  Tm  Tm5  1  0.000000  0.056688  0.629176  1
  Tm  Tm6  1  0.000000  0.442596  0.129575  1
  Tm  Tm7  1  0.000000  0.557112  0.871071  1
  Re  Re8  1  0.000000  0.362333  0.678406  1
  Re  Re9  1  0.000000  0.138165  0.179703  1
  Re  Re10  1  0.000000  0.862109  0.820745  1
  B  B11  1  0.500000  0.553508  0.433112  1
  B  B12  1  0.500000  0.447288  0.566470  1
  B  B13  1  0.500000  0.052995  0.066465  1
  B  B14  1  0.500000  0.947464  0.933200  1
  B  B15  1  0.500000  0.749058  0.418850  1
  B  B16  1  0.500000  0.250038  0.580825  1
  B  B17  1  0.500000  0.249700  0.080777  1
  B  B18  1  0.500000  0.750770  0.919183  1
  B  B19  1  0.500000  0.791197  0.265266  1
  B  B20  1  0.500000  0.207804  0.734672  1
  B  B21  1  0.500000  0.292068  0.235167  1
  B  B22  1  0.500000  0.707756  0.765530  1
  B  B23  1  0.500000  0.630629  0.185311  1
  B  B24  1  0.500000  0.369916  0.814752  1
  B  B25  1  0.500000  0.130322  0.315413  1
  B  B26  1  0.500000  0.869486  0.685029  1
  B  B27  1  0.500000  0.981223  0.212073  1
  B  B28  1  0.500000  0.019016  0.787629  1
  B  B29  1  0.500000  0.482168  0.288013  1
  B  B30  1  0.500000  0.519163  0.712199  1
  B  B31  1  0.500000  0.601030  0.028632  1
  B  B32  1  0.500000  0.399189  0.972143  1
  B  B33  1  0.500000  0.099892  0.471785  1
  B  B34  1  0.500000  0.898480  0.527909  1
  Os  Os35  1  0.000000  0.638001  0.320967  1
