# generated using pymatgen
data_TbY3(NiPt)2
_symmetry_space_group_name_H-M   'P 1'
_cell_length_a   4.35256600
_cell_length_b   5.52711529
_cell_length_c   7.13270170
_cell_angle_alpha   89.81337097
_cell_angle_beta   90.00000000
_cell_angle_gamma   90.00000000
_symmetry_Int_Tables_number   1
_chemical_formula_structural   TbY3(NiPt)2
_chemical_formula_sum   'Tb1 Y3 Ni2 Pt2'
_cell_volume   171.59145105
_cell_formula_units_Z   1
loop_
 _symmetry_equiv_pos_site_id
 _symmetry_equiv_pos_as_xyz
  1  'x, y, z'
loop_
 _atom_site_type_symbol
 _atom_site_label
 _atom_site_symmetry_multiplicity
 _atom_site_fract_x
 _atom_site_fract_y
 _atom_site_fract_z
 _atom_site_occupancy
  Tb  Tb0  1  0.500000  0.616726  0.819927  1
  Y  Y1  1  0.000000  0.114530  0.681107  1
  Y  Y2  1  0.000000  0.885660  0.181786  1
  Y  Y3  1  0.500000  0.383590  0.319753  1
  Ni  Ni4  1  0.500000  0.890215  0.460581  1
  Ni  Ni5  1  0.500000  0.109364  0.959144  1
  Pt  Pt6  1  0.000000  0.615927  0.539117  1
  Pt  Pt7  1  0.000000  0.383989  0.038588  1
