# generated using pymatgen
data_La2Cr2(Re5C)3
_symmetry_space_group_name_H-M   'P 1'
_cell_length_a   7.01815952
_cell_length_b   7.01816064
_cell_length_c   7.01794853
_cell_angle_alpha   82.86380748
_cell_angle_beta   82.86380951
_cell_angle_gamma   83.18348407
_symmetry_Int_Tables_number   1
_chemical_formula_structural   La2Cr2(Re5C)3
_chemical_formula_sum   'La2 Cr2 Re15 C3'
_cell_volume   338.45466992
_cell_formula_units_Z   1
loop_
 _symmetry_equiv_pos_site_id
 _symmetry_equiv_pos_as_xyz
  1  'x, y, z'
loop_
 _atom_site_type_symbol
 _atom_site_label
 _atom_site_symmetry_multiplicity
 _atom_site_fract_x
 _atom_site_fract_y
 _atom_site_fract_z
 _atom_site_occupancy
  La  La0  1  0.647424  0.647424  0.647225  1
  La  La1  1  0.352576  0.352576  0.352775  1
  Cr  Cr2  1  0.500000  0.000000  0.000000  1
  Cr  Cr3  1  0.000000  0.500000  0.000000  1
  Re  Re4  1  0.000000  0.000000  0.500000  1
  Re  Re5  1  0.721053  0.278947  0.000000  1
  Re  Re6  1  0.000579  0.718507  0.275655  1
  Re  Re7  1  0.281493  0.999421  0.724345  1
  Re  Re8  1  0.999421  0.281493  0.724345  1
  Re  Re9  1  0.718507  0.000579  0.275655  1
  Re  Re10  1  0.278947  0.721053  0.000000  1
  Re  Re11  1  0.349241  0.865960  0.341267  1
  Re  Re12  1  0.342692  0.342692  0.869804  1
  Re  Re13  1  0.865960  0.349241  0.341267  1
  Re  Re14  1  0.650759  0.134040  0.658733  1
  Re  Re15  1  0.657308  0.657308  0.130196  1
  Re  Re16  1  0.134040  0.650759  0.658733  1
  Re  Re17  1  0.901350  0.901350  0.902896  1
  Re  Re18  1  0.098650  0.098650  0.097104  1
  C  C19  1  0.500000  0.500000  0.000000  1
  C  C20  1  0.000000  0.500000  0.500000  1
  C  C21  1  0.500000  0.000000  0.500000  1
