# generated using pymatgen
data_CsSb2PtRh
_symmetry_space_group_name_H-M   'P 1'
_cell_length_a   4.74750515
_cell_length_b   4.74750510
_cell_length_c   7.39676974
_cell_angle_alpha   101.43997634
_cell_angle_beta   101.43997294
_cell_angle_gamma   103.03942182
_symmetry_Int_Tables_number   1
_chemical_formula_structural   CsSb2PtRh
_chemical_formula_sum   'Cs1 Sb2 Pt1 Rh1'
_cell_volume   153.94379566
_cell_formula_units_Z   1
loop_
 _symmetry_equiv_pos_site_id
 _symmetry_equiv_pos_as_xyz
  1  'x, y, z'
loop_
 _atom_site_type_symbol
 _atom_site_label
 _atom_site_symmetry_multiplicity
 _atom_site_fract_x
 _atom_site_fract_y
 _atom_site_fract_z
 _atom_site_occupancy
  Cs  Cs0  1  0.000962  0.999038  0.000000  1
  Sb  Sb1  1  0.630952  0.630775  0.345631  1
  Sb  Sb2  1  0.369225  0.369048  0.654369  1
  Pt  Pt3  1  0.208793  0.791205  0.500000  1
  Rh  Rh4  1  0.790067  0.209931  0.500000  1
