# generated using pymatgen
data_Ho4Al18PdRh5
_symmetry_space_group_name_H-M   'P 1'
_cell_length_a   7.56474467
_cell_length_b   7.56474431
_cell_length_c   9.44803822
_cell_angle_alpha   90.02941105
_cell_angle_beta   90.02940723
_cell_angle_gamma   119.48218249
_symmetry_Int_Tables_number   1
_chemical_formula_structural   Ho4Al18PdRh5
_chemical_formula_sum   'Ho4 Al18 Pd1 Rh5'
_cell_volume   470.65546077
_cell_formula_units_Z   1
loop_
 _symmetry_equiv_pos_site_id
 _symmetry_equiv_pos_as_xyz
  1  'x, y, z'
loop_
 _atom_site_type_symbol
 _atom_site_label
 _atom_site_symmetry_multiplicity
 _atom_site_fract_x
 _atom_site_fract_y
 _atom_site_fract_z
 _atom_site_occupancy
  Ho  Ho0  1  0.994074  0.670186  0.249526  1
  Ho  Ho1  1  0.004203  0.328557  0.750271  1
  Ho  Ho2  1  0.671443  0.995797  0.249729  1
  Ho  Ho3  1  0.329814  0.005926  0.750474  1
  Al  Al4  1  0.127353  0.126454  0.249576  1
  Al  Al5  1  0.873546  0.872647  0.750424  1
  Al  Al6  1  0.000413  0.335025  0.075877  1
  Al  Al7  1  0.000697  0.664892  0.924748  1
  Al  Al8  1  0.003108  0.668684  0.576914  1
  Al  Al9  1  0.331316  0.996892  0.423086  1
  Al  Al10  1  0.005259  0.335665  0.422787  1
  Al  Al11  1  0.664335  0.994741  0.577213  1
  Al  Al12  1  0.664975  0.999587  0.924123  1
  Al  Al13  1  0.335108  0.999303  0.075252  1
  Al  Al14  1  0.329881  0.333238  0.553496  1
  Al  Al15  1  0.666762  0.670120  0.446504  1
  Al  Al16  1  0.667745  0.667718  0.049470  1
  Al  Al17  1  0.332283  0.332255  0.950530  1
  Al  Al18  1  0.340848  0.551139  0.249471  1
  Al  Al19  1  0.659691  0.452664  0.753318  1
  Al  Al20  1  0.547336  0.340309  0.246682  1
  Al  Al21  1  0.448861  0.659152  0.750529  1
  Pd  Pd22  1  0.672054  0.327946  0.500000  1
  Rh  Rh23  1  0.672499  0.327501  0.000000  1
  Rh  Rh24  1  0.328117  0.671883  0.000000  1
  Rh  Rh25  1  0.328122  0.671878  0.500000  1
  Rh  Rh26  1  0.000161  0.999839  0.000000  1
  Rh  Rh27  1  0.999997  0.000003  0.500000  1
