# generated using pymatgen
data_In(S8Br)3
_symmetry_space_group_name_H-M   'P 1'
_cell_length_a   15.32700948
_cell_length_b   15.32700901
_cell_length_c   15.32700905
_cell_angle_alpha   118.66756071
_cell_angle_beta   118.66755897
_cell_angle_gamma   118.66755468
_symmetry_Int_Tables_number   1
_chemical_formula_structural   In(S8Br)3
_chemical_formula_sum   'In1 S24 Br3'
_cell_volume   1072.82851511
_cell_formula_units_Z   1
loop_
 _symmetry_equiv_pos_site_id
 _symmetry_equiv_pos_as_xyz
  1  'x, y, z'
loop_
 _atom_site_type_symbol
 _atom_site_label
 _atom_site_symmetry_multiplicity
 _atom_site_fract_x
 _atom_site_fract_y
 _atom_site_fract_z
 _atom_site_occupancy
  In  In0  1  0.063337  0.063337  0.063337  1
  S  S1  1  0.024441  0.619306  0.619306  1
  S  S2  1  0.619306  0.619306  0.024441  1
  S  S3  1  0.619306  0.024441  0.619306  1
  S  S4  1  0.231485  0.840745  0.713362  1
  S  S5  1  0.840745  0.713362  0.231485  1
  S  S6  1  0.713362  0.231485  0.840745  1
  S  S7  1  0.840745  0.231485  0.713362  1
  S  S8  1  0.231485  0.713362  0.840745  1
  S  S9  1  0.713362  0.840745  0.231485  1
  S  S10  1  0.104826  0.633047  0.453617  1
  S  S11  1  0.633047  0.453617  0.104826  1
  S  S12  1  0.453617  0.104826  0.633047  1
  S  S13  1  0.633047  0.104826  0.453617  1
  S  S14  1  0.104826  0.453617  0.633047  1
  S  S15  1  0.453617  0.633047  0.104826  1
  S  S16  1  0.350708  0.740127  0.612594  1
  S  S17  1  0.740127  0.612594  0.350708  1
  S  S18  1  0.612594  0.350708  0.740127  1
  S  S19  1  0.740127  0.350708  0.612594  1
  S  S20  1  0.350708  0.612594  0.740127  1
  S  S21  1  0.612594  0.740127  0.350708  1
  S  S22  1  0.193668  0.475815  0.475815  1
  S  S23  1  0.475815  0.475815  0.193668  1
  S  S24  1  0.475815  0.193668  0.475815  1
  Br  Br25  1  0.179522  0.017434  0.017434  1
  Br  Br26  1  0.017434  0.017434  0.179522  1
  Br  Br27  1  0.017434  0.179522  0.017434  1
