# generated using pymatgen
data_Ti16Ir7RhO4
_symmetry_space_group_name_H-M   'P 1'
_cell_length_a   8.25312571
_cell_length_b   8.24595932
_cell_length_c   8.24595800
_cell_angle_alpha   59.99999728
_cell_angle_beta   60.02871707
_cell_angle_gamma   60.02871192
_symmetry_Int_Tables_number   1
_chemical_formula_structural   Ti16Ir7RhO4
_chemical_formula_sum   'Ti16 Ir7 Rh1 O4'
_cell_volume   396.98501703
_cell_formula_units_Z   1
loop_
 _symmetry_equiv_pos_site_id
 _symmetry_equiv_pos_as_xyz
  1  'x, y, z'
loop_
 _atom_site_type_symbol
 _atom_site_label
 _atom_site_symmetry_multiplicity
 _atom_site_fract_x
 _atom_site_fract_y
 _atom_site_fract_z
 _atom_site_occupancy
  Ti  Ti0  1  0.817839  0.181955  0.818250  1
  Ti  Ti1  1  0.183391  0.817034  0.182542  1
  Ti  Ti2  1  0.433389  0.066535  0.433541  1
  Ti  Ti3  1  0.433389  0.066535  0.066535  1
  Ti  Ti4  1  0.066906  0.433445  0.433445  1
  Ti  Ti5  1  0.066906  0.433445  0.066203  1
  Ti  Ti6  1  0.183391  0.182542  0.817034  1
  Ti  Ti7  1  0.433389  0.433541  0.066535  1
  Ti  Ti8  1  0.127756  0.624081  0.624081  1
  Ti  Ti9  1  0.624525  0.623754  0.127969  1
  Ti  Ti10  1  0.624525  0.623754  0.623754  1
  Ti  Ti11  1  0.624525  0.127969  0.623754  1
  Ti  Ti12  1  0.183391  0.817034  0.817034  1
  Ti  Ti13  1  0.817839  0.181955  0.181955  1
  Ti  Ti14  1  0.066906  0.066203  0.433445  1
  Ti  Ti15  1  0.817839  0.818250  0.181955  1
  Ir  Ir16  1  0.407056  0.777540  0.407702  1
  Ir  Ir17  1  0.841104  0.840166  0.478565  1
  Ir  Ir18  1  0.841104  0.840166  0.840166  1
  Ir  Ir19  1  0.480198  0.839934  0.839934  1
  Ir  Ir20  1  0.407056  0.407702  0.407702  1
  Ir  Ir21  1  0.407056  0.407702  0.777540  1
  Ir  Ir22  1  0.841104  0.478565  0.840166  1
  Rh  Rh23  1  0.772444  0.409185  0.409185  1
  O  O24  1  0.124056  0.125464  0.625016  1
  O  O25  1  0.624810  0.125063  0.125063  1
  O  O26  1  0.124056  0.125464  0.125464  1
  O  O27  1  0.124056  0.625016  0.125464  1
