# generated using pymatgen
data_CsTi2PS10
_symmetry_space_group_name_H-M   'P 1'
_cell_length_a   8.16284700
_cell_length_b   7.48678741
_cell_length_c   13.28340070
_cell_angle_alpha   69.10379068
_cell_angle_beta   90.00000000
_cell_angle_gamma   90.00000000
_symmetry_Int_Tables_number   1
_chemical_formula_structural   CsTi2PS10
_chemical_formula_sum   'Cs2 Ti4 P2 S20'
_cell_volume   758.40178277
_cell_formula_units_Z   2
loop_
 _symmetry_equiv_pos_site_id
 _symmetry_equiv_pos_as_xyz
  1  'x, y, z'
loop_
 _atom_site_type_symbol
 _atom_site_label
 _atom_site_symmetry_multiplicity
 _atom_site_fract_x
 _atom_site_fract_y
 _atom_site_fract_z
 _atom_site_occupancy
  Cs  Cs0  1  0.998736  0.395724  0.460780  1
  Cs  Cs1  1  0.001264  0.395724  0.960780  1
  Ti  Ti2  1  0.438105  0.866039  0.695097  1
  Ti  Ti3  1  0.561895  0.866039  0.195097  1
  Ti  Ti4  1  0.561538  0.871820  0.463817  1
  Ti  Ti5  1  0.438462  0.871820  0.963817  1
  P  P6  1  0.116386  0.009763  0.798829  1
  P  P7  1  0.883614  0.009763  0.298829  1
  S  S8  1  0.062288  0.201303  0.253758  1
  S  S9  1  0.937712  0.201303  0.753758  1
  S  S10  1  0.874413  0.861558  0.462353  1
  S  S11  1  0.125587  0.861558  0.962353  1
  S  S12  1  0.619849  0.636037  0.105214  1
  S  S13  1  0.380151  0.636037  0.605214  1
  S  S14  1  0.378080  0.634107  0.144354  1
  S  S15  1  0.621920  0.634107  0.644354  1
  S  S16  1  0.614263  0.106367  0.995699  1
  S  S17  1  0.385737  0.106367  0.495699  1
  S  S18  1  0.391210  0.107167  0.067752  1
  S  S19  1  0.608790  0.107167  0.567752  1
  S  S20  1  0.651821  0.811870  0.840744  1
  S  S21  1  0.348179  0.811870  0.340744  1
  S  S22  1  0.456163  0.625656  0.878088  1
  S  S23  1  0.543837  0.625656  0.378088  1
  S  S24  1  0.129016  0.835702  0.709513  1
  S  S25  1  0.870984  0.835702  0.209513  1
  S  S26  1  0.360866  0.111027  0.778803  1
  S  S27  1  0.639134  0.111027  0.278803  1
