# generated using pymatgen
data_Sm2MgCdRh2
_symmetry_space_group_name_H-M   'P 1'
_cell_length_a   4.21295200
_cell_length_b   7.21333999
_cell_length_c   8.62365800
_cell_angle_alpha   91.14963223
_cell_angle_beta   90.00000000
_cell_angle_gamma   90.00000000
_symmetry_Int_Tables_number   1
_chemical_formula_structural   Sm2MgCdRh2
_chemical_formula_sum   'Sm4 Mg2 Cd2 Rh4'
_cell_volume   262.01551558
_cell_formula_units_Z   2
loop_
 _symmetry_equiv_pos_site_id
 _symmetry_equiv_pos_as_xyz
  1  'x, y, z'
loop_
 _atom_site_type_symbol
 _atom_site_label
 _atom_site_symmetry_multiplicity
 _atom_site_fract_x
 _atom_site_fract_y
 _atom_site_fract_z
 _atom_site_occupancy
  Sm  Sm0  1  0.250000  0.542034  0.177020  1
  Sm  Sm1  1  0.750000  0.457966  0.822980  1
  Sm  Sm2  1  0.750000  0.958132  0.678825  1
  Sm  Sm3  1  0.250000  0.041868  0.321175  1
  Mg  Mg4  1  0.250000  0.634008  0.558200  1
  Mg  Mg5  1  0.750000  0.365992  0.441800  1
  Cd  Cd6  1  0.750000  0.862581  0.060724  1
  Cd  Cd7  1  0.250000  0.137419  0.939276  1
  Rh  Rh8  1  0.250000  0.740368  0.864210  1
  Rh  Rh9  1  0.750000  0.259632  0.135790  1
  Rh  Rh10  1  0.750000  0.749223  0.380091  1
  Rh  Rh11  1  0.250000  0.250777  0.619909  1
