# generated using pymatgen
data_Hf12Pa8Si15Ge
_symmetry_space_group_name_H-M   'P 1'
_cell_length_a   7.06410236
_cell_length_b   7.25770317
_cell_length_c   13.63921100
_cell_angle_alpha   90.01205487
_cell_angle_beta   89.89280712
_cell_angle_gamma   90.03021888
_symmetry_Int_Tables_number   1
_chemical_formula_structural   Hf12Pa8Si15Ge
_chemical_formula_sum   'Hf12 Pa8 Si15 Ge1'
_cell_volume   699.26952876
_cell_formula_units_Z   1
loop_
 _symmetry_equiv_pos_site_id
 _symmetry_equiv_pos_as_xyz
  1  'x, y, z'
loop_
 _atom_site_type_symbol
 _atom_site_label
 _atom_site_symmetry_multiplicity
 _atom_site_fract_x
 _atom_site_fract_y
 _atom_site_fract_z
 _atom_site_occupancy
  Hf  Hf0  1  0.336523  0.169562  0.624453  1
  Hf  Hf1  1  0.665720  0.827753  0.376505  1
  Hf  Hf2  1  0.664431  0.992391  0.750381  1
  Hf  Hf3  1  0.163839  0.675151  0.375593  1
  Hf  Hf4  1  0.833542  0.326460  0.877082  1
  Hf  Hf5  1  0.831575  0.327318  0.623057  1
  Hf  Hf6  1  0.835784  0.492473  0.249541  1
  Hf  Hf7  1  0.335557  0.007395  0.249591  1
  Hf  Hf8  1  0.333119  0.173494  0.877287  1
  Hf  Hf9  1  0.166876  0.673182  0.122921  1
  Hf  Hf10  1  0.665802  0.826107  0.122620  1
  Hf  Hf11  1  0.164381  0.507402  0.751908  1
  Pa  Pa12  1  0.002685  0.169478  0.404567  1
  Pa  Pa13  1  0.505708  0.326943  0.404186  1
  Pa  Pa14  1  0.495227  0.670759  0.905949  1
  Pa  Pa15  1  0.500095  0.673760  0.595818  1
  Pa  Pa16  1  0.995449  0.830429  0.594870  1
  Pa  Pa17  1  0.995526  0.829795  0.906125  1
  Pa  Pa18  1  0.504507  0.329249  0.094337  1
  Pa  Pa19  1  0.004511  0.170951  0.094121  1
  Si  Si20  1  0.292382  0.870881  0.750711  1
  Si  Si21  1  0.460983  0.619609  0.250074  1
  Si  Si22  1  0.038381  0.120176  0.749858  1
  Si  Si23  1  0.538477  0.380368  0.750320  1
  Si  Si24  1  0.960625  0.880461  0.249091  1
  Si  Si25  1  0.707605  0.127889  0.248931  1
  Si  Si26  1  0.835144  0.536638  0.041783  1
  Si  Si27  1  0.334582  0.963528  0.041729  1
  Si  Si28  1  0.164908  0.463119  0.958588  1
  Si  Si29  1  0.666860  0.037757  0.541102  1
  Si  Si30  1  0.333298  0.962317  0.458499  1
  Si  Si31  1  0.829253  0.538248  0.457747  1
  Si  Si32  1  0.793844  0.628683  0.750626  1
  Si  Si33  1  0.207109  0.371469  0.249918  1
  Si  Si34  1  0.664903  0.037136  0.958353  1
  Ge  Ge35  1  0.170786  0.461667  0.541757  1
