# generated using pymatgen
data_DyYEr2MnRu7
_symmetry_space_group_name_H-M   'P 1'
_cell_length_a   5.32851602
_cell_length_b   5.32705257
_cell_length_c   8.66833200
_cell_angle_alpha   89.99999917
_cell_angle_beta   89.99521221
_cell_angle_gamma   60.00907207
_symmetry_Int_Tables_number   1
_chemical_formula_structural   DyYEr2MnRu7
_chemical_formula_sum   'Dy1 Y1 Er2 Mn1 Ru7'
_cell_volume   213.10768887
_cell_formula_units_Z   1
loop_
 _symmetry_equiv_pos_site_id
 _symmetry_equiv_pos_as_xyz
  1  'x, y, z'
loop_
 _atom_site_type_symbol
 _atom_site_label
 _atom_site_symmetry_multiplicity
 _atom_site_fract_x
 _atom_site_fract_y
 _atom_site_fract_z
 _atom_site_occupancy
  Dy  Dy0  1  0.666751  0.666624  0.434796  1
  Y  Y1  1  0.333255  0.333373  0.565165  1
  Er  Er2  1  0.666663  0.666669  0.067919  1
  Er  Er3  1  0.333309  0.333345  0.932127  1
  Mn  Mn4  1  0.000003  0.999998  0.999991  1
  Ru  Ru5  1  0.000000  0.000000  0.499970  1
  Ru  Ru6  1  0.828821  0.342327  0.754577  1
  Ru  Ru7  1  0.342483  0.828758  0.754524  1
  Ru  Ru8  1  0.828821  0.828853  0.754577  1
  Ru  Ru9  1  0.171158  0.657722  0.245433  1
  Ru  Ru10  1  0.657579  0.171210  0.245488  1
  Ru  Ru11  1  0.171158  0.171119  0.245433  1
