# generated using pymatgen
data_Sm3VReC6
_symmetry_space_group_name_H-M   'P 1'
_cell_length_a   8.46987900
_cell_length_b   8.46987929
_cell_length_c   5.20428700
_cell_angle_alpha   90.00000000
_cell_angle_beta   90.00000000
_cell_angle_gamma   119.99999498
_symmetry_Int_Tables_number   1
_chemical_formula_structural   Sm3VReC6
_chemical_formula_sum   'Sm6 V2 Re2 C12'
_cell_volume   323.33023583
_cell_formula_units_Z   2
loop_
 _symmetry_equiv_pos_site_id
 _symmetry_equiv_pos_as_xyz
  1  'x, y, z'
loop_
 _atom_site_type_symbol
 _atom_site_label
 _atom_site_symmetry_multiplicity
 _atom_site_fract_x
 _atom_site_fract_y
 _atom_site_fract_z
 _atom_site_occupancy
  Sm  Sm0  1  0.621708  0.693351  0.750000  1
  Sm  Sm1  1  0.928357  0.621708  0.250000  1
  Sm  Sm2  1  0.693351  0.071643  0.250000  1
  Sm  Sm3  1  0.306649  0.928357  0.750000  1
  Sm  Sm4  1  0.071643  0.378292  0.750000  1
  Sm  Sm5  1  0.378292  0.306649  0.250000  1
  V  V6  1  0.000000  0.000000  0.500000  1
  V  V7  1  0.000000  0.000000  0.000000  1
  Re  Re8  1  0.666667  0.333333  0.750000  1
  Re  Re9  1  0.333333  0.666667  0.250000  1
  C  C10  1  0.957968  0.773532  0.750000  1
  C  C11  1  0.184437  0.957968  0.250000  1
  C  C12  1  0.773532  0.815563  0.250000  1
  C  C13  1  0.226468  0.184437  0.750000  1
  C  C14  1  0.815563  0.042032  0.750000  1
  C  C15  1  0.042032  0.226468  0.250000  1
  C  C16  1  0.862947  0.586523  0.750000  1
  C  C17  1  0.276424  0.862947  0.250000  1
  C  C18  1  0.586523  0.723576  0.250000  1
  C  C19  1  0.413477  0.276424  0.750000  1
  C  C20  1  0.137053  0.413477  0.250000  1
  C  C21  1  0.723576  0.137053  0.750000  1
