# generated using pymatgen
data_Dy6IrPd7
_symmetry_space_group_name_H-M   'P 1'
_cell_length_a   7.87645252
_cell_length_b   7.87645219
_cell_length_c   7.87645273
_cell_angle_alpha   114.27253285
_cell_angle_beta   114.27253257
_cell_angle_gamma   114.27252798
_symmetry_Int_Tables_number   1
_chemical_formula_structural   Dy6IrPd7
_chemical_formula_sum   'Dy6 Ir1 Pd7'
_cell_volume   290.77961537
_cell_formula_units_Z   1
loop_
 _symmetry_equiv_pos_site_id
 _symmetry_equiv_pos_as_xyz
  1  'x, y, z'
loop_
 _atom_site_type_symbol
 _atom_site_label
 _atom_site_symmetry_multiplicity
 _atom_site_fract_x
 _atom_site_fract_y
 _atom_site_fract_z
 _atom_site_occupancy
  Dy  Dy0  1  0.396375  0.024066  0.273545  1
  Dy  Dy1  1  0.024066  0.273545  0.396375  1
  Dy  Dy2  1  0.273545  0.396375  0.024066  1
  Dy  Dy3  1  0.603625  0.975934  0.726455  1
  Dy  Dy4  1  0.975934  0.726455  0.603625  1
  Dy  Dy5  1  0.726455  0.603625  0.975934  1
  Ir  Ir6  1  0.000000  0.000000  0.000000  1
  Pd  Pd7  1  0.500000  0.500000  0.500000  1
  Pd  Pd8  1  0.227213  0.062328  0.552707  1
  Pd  Pd9  1  0.062328  0.552707  0.227213  1
  Pd  Pd10  1  0.552707  0.227213  0.062328  1
  Pd  Pd11  1  0.772787  0.937672  0.447293  1
  Pd  Pd12  1  0.937672  0.447293  0.772787  1
  Pd  Pd13  1  0.447293  0.772787  0.937672  1
