# generated using pymatgen
data_CsLiMoF6
_symmetry_space_group_name_H-M   'P 1'
_cell_length_a   11.26110800
_cell_length_b   5.95393167
_cell_length_c   9.55850437
_cell_angle_alpha   88.95635897
_cell_angle_beta   90.00000000
_cell_angle_gamma   90.00000000
_symmetry_Int_Tables_number   1
_chemical_formula_structural   CsLiMoF6
_chemical_formula_sum   'Cs4 Li4 Mo4 F24'
_cell_volume   640.77102157
_cell_formula_units_Z   4
loop_
 _symmetry_equiv_pos_site_id
 _symmetry_equiv_pos_as_xyz
  1  'x, y, z'
loop_
 _atom_site_type_symbol
 _atom_site_label
 _atom_site_symmetry_multiplicity
 _atom_site_fract_x
 _atom_site_fract_y
 _atom_site_fract_z
 _atom_site_occupancy
  Cs  Cs0  1  0.691619  0.299897  0.503856  1
  Cs  Cs1  1  0.808381  0.299897  0.003856  1
  Cs  Cs2  1  0.308381  0.700103  0.496144  1
  Cs  Cs3  1  0.191619  0.700103  0.996144  1
  Li  Li4  1  0.900109  0.753450  0.680072  1
  Li  Li5  1  0.099891  0.246550  0.319928  1
  Li  Li6  1  0.400109  0.246550  0.819928  1
  Li  Li7  1  0.599891  0.753450  0.180072  1
  Mo  Mo8  1  0.914359  0.773352  0.277965  1
  Mo  Mo9  1  0.414359  0.226648  0.222035  1
  Mo  Mo10  1  0.085641  0.226648  0.722035  1
  Mo  Mo11  1  0.585641  0.773352  0.777965  1
  F  F12  1  0.247616  0.364995  0.250042  1
  F  F13  1  0.006526  0.524505  0.750750  1
  F  F14  1  0.075747  0.931243  0.300219  1
  F  F15  1  0.752384  0.635005  0.749958  1
  F  F16  1  0.493474  0.524505  0.250750  1
  F  F17  1  0.597894  0.705143  0.982060  1
  F  F18  1  0.924253  0.068757  0.699781  1
  F  F19  1  0.575747  0.068757  0.199781  1
  F  F20  1  0.840191  0.067822  0.298446  1
  F  F21  1  0.902106  0.705143  0.482060  1
  F  F22  1  0.159809  0.932178  0.701554  1
  F  F23  1  0.423182  0.183714  0.426304  1
  F  F24  1  0.576818  0.816286  0.573696  1
  F  F25  1  0.506526  0.475495  0.749250  1
  F  F26  1  0.252384  0.364995  0.750042  1
  F  F27  1  0.747616  0.635005  0.249958  1
  F  F28  1  0.340191  0.932178  0.201554  1
  F  F29  1  0.993474  0.475495  0.249250  1
  F  F30  1  0.402106  0.294857  0.017940  1
  F  F31  1  0.659809  0.067822  0.798446  1
  F  F32  1  0.097894  0.294857  0.517940  1
  F  F33  1  0.076818  0.183714  0.926304  1
  F  F34  1  0.923182  0.816286  0.073696  1
  F  F35  1  0.424253  0.931243  0.800219  1
