# generated using pymatgen
data_DyY7(Ho3Sn4)4
_symmetry_space_group_name_H-M   'P 1'
_cell_length_a   8.01151000
_cell_length_b   8.14594114
_cell_length_c   15.40057000
_cell_angle_alpha   90.01368750
_cell_angle_beta   89.99894155
_cell_angle_gamma   90.02706578
_symmetry_Int_Tables_number   1
_chemical_formula_structural   DyY7(Ho3Sn4)4
_chemical_formula_sum   'Dy1 Y7 Ho12 Sn16'
_cell_volume   1005.06090738
_cell_formula_units_Z   1
loop_
 _symmetry_equiv_pos_site_id
 _symmetry_equiv_pos_as_xyz
  1  'x, y, z'
loop_
 _atom_site_type_symbol
 _atom_site_label
 _atom_site_symmetry_multiplicity
 _atom_site_fract_x
 _atom_site_fract_y
 _atom_site_fract_z
 _atom_site_occupancy
  Dy  Dy0  1  0.021146  0.179323  0.902586  1
  Y  Y1  1  0.521723  0.320499  0.902514  1
  Y  Y2  1  0.021531  0.179515  0.597540  1
  Y  Y3  1  0.478428  0.679474  0.402453  1
  Y  Y4  1  0.978495  0.820428  0.097504  1
  Y  Y5  1  0.478320  0.679559  0.097465  1
  Y  Y6  1  0.978497  0.820525  0.402426  1
  Y  Y7  1  0.521624  0.320507  0.597525  1
  Ho  Ho8  1  0.367415  0.836666  0.877562  1
  Ho  Ho9  1  0.867447  0.663351  0.622460  1
  Ho  Ho10  1  0.632593  0.163304  0.377515  1
  Ho  Ho11  1  0.132514  0.336617  0.122384  1
  Ho  Ho12  1  0.632517  0.163316  0.122473  1
  Ho  Ho13  1  0.132576  0.336687  0.377519  1
  Ho  Ho14  1  0.367426  0.836683  0.622466  1
  Ho  Ho15  1  0.867419  0.663332  0.877546  1
  Ho  Ho16  1  0.198379  0.503529  0.750028  1
  Ho  Ho17  1  0.698540  0.996450  0.750001  1
  Ho  Ho18  1  0.801561  0.496446  0.249990  1
  Ho  Ho19  1  0.301547  0.003597  0.249966  1
  Sn  Sn20  1  0.293505  0.037214  0.041493  1
  Sn  Sn21  1  0.793718  0.462987  0.458397  1
  Sn  Sn22  1  0.706398  0.962949  0.541507  1
  Sn  Sn23  1  0.206284  0.536908  0.958462  1
  Sn  Sn24  1  0.706758  0.963077  0.958461  1
  Sn  Sn25  1  0.206306  0.537029  0.541530  1
  Sn  Sn26  1  0.293686  0.037135  0.458412  1
  Sn  Sn27  1  0.793636  0.462874  0.041522  1
  Sn  Sn28  1  0.564989  0.619458  0.750033  1
  Sn  Sn29  1  0.065053  0.880592  0.750134  1
  Sn  Sn30  1  0.435065  0.380578  0.249988  1
  Sn  Sn31  1  0.934974  0.119479  0.249958  1
  Sn  Sn32  1  0.329828  0.147750  0.750142  1
  Sn  Sn33  1  0.830117  0.352206  0.750166  1
  Sn  Sn34  1  0.670025  0.852176  0.249948  1
  Sn  Sn35  1  0.169959  0.647780  0.249926  1
