# generated using pymatgen
data_Li2Zr5Al(Co4P3)4
_symmetry_space_group_name_H-M   'P 1'
_cell_length_a   11.87156849
_cell_length_b   11.87156941
_cell_length_c   3.63094100
_cell_angle_alpha   90.00000000
_cell_angle_beta   90.00000000
_cell_angle_gamma   119.94263362
_symmetry_Int_Tables_number   1
_chemical_formula_structural   Li2Zr5Al(Co4P3)4
_chemical_formula_sum   'Li2 Zr5 Al1 Co16 P12'
_cell_volume   443.42157569
_cell_formula_units_Z   1
loop_
 _symmetry_equiv_pos_site_id
 _symmetry_equiv_pos_as_xyz
  1  'x, y, z'
loop_
 _atom_site_type_symbol
 _atom_site_label
 _atom_site_symmetry_multiplicity
 _atom_site_fract_x
 _atom_site_fract_y
 _atom_site_fract_z
 _atom_site_occupancy
  Li  Li0  1  0.558450  0.000076  0.000000  1
  Li  Li1  1  0.000076  0.558450  0.000000  1
  Zr  Zr2  1  0.669361  0.333746  0.000000  1
  Zr  Zr3  1  0.333746  0.669361  0.000000  1
  Zr  Zr4  1  0.812896  0.812896  0.500000  1
  Zr  Zr5  1  0.189966  0.001951  0.500000  1
  Zr  Zr6  1  0.001951  0.189966  0.500000  1
  Al  Al7  1  0.441524  0.441524  0.000000  1
  Co  Co8  1  0.200549  0.377014  0.000000  1
  Co  Co9  1  0.178298  0.801968  0.000000  1
  Co  Co10  1  0.820722  0.622446  0.000000  1
  Co  Co11  1  0.801968  0.178298  0.000000  1
  Co  Co12  1  0.377014  0.200549  0.000000  1
  Co  Co13  1  0.127051  0.482443  0.500000  1
  Co  Co14  1  0.354335  0.872584  0.500000  1
  Co  Co15  1  0.516000  0.642002  0.500000  1
  Co  Co16  1  0.642002  0.516000  0.500000  1
  Co  Co17  1  0.872584  0.354335  0.500000  1
  Co  Co18  1  0.482443  0.127051  0.500000  1
  Co  Co19  1  0.996972  0.996972  0.000000  1
  Co  Co20  1  0.717280  0.999594  0.500000  1
  Co  Co21  1  0.999594  0.717280  0.500000  1
  Co  Co22  1  0.622446  0.820722  0.000000  1
  Co  Co23  1  0.284338  0.284338  0.500000  1
  P  P24  1  0.642755  0.642755  0.000000  1
  P  P25  1  0.362663  0.999077  0.000000  1
  P  P26  1  0.999077  0.362663  0.000000  1
  P  P27  1  0.484670  0.311775  0.500000  1
  P  P28  1  0.685733  0.168331  0.500000  1
  P  P29  1  0.831447  0.516716  0.500000  1
  P  P30  1  0.516716  0.831447  0.500000  1
  P  P31  1  0.168331  0.685733  0.500000  1
  P  P32  1  0.821305  0.999899  0.000000  1
  P  P33  1  0.999899  0.821305  0.000000  1
  P  P34  1  0.311775  0.484670  0.500000  1
  P  P35  1  0.174060  0.174060  0.000000  1
