# generated using pymatgen
data_TaNb9SiB4As
_symmetry_space_group_name_H-M   'P 1'
_cell_length_a   7.34559863
_cell_length_b   7.34559806
_cell_length_c   7.34559948
_cell_angle_alpha   129.35379623
_cell_angle_beta   129.35380214
_cell_angle_gamma   74.44195714
_symmetry_Int_Tables_number   1
_chemical_formula_structural   TaNb9SiB4As
_chemical_formula_sum   'Ta1 Nb9 Si1 B4 As1'
_cell_volume   230.96533222
_cell_formula_units_Z   1
loop_
 _symmetry_equiv_pos_site_id
 _symmetry_equiv_pos_as_xyz
  1  'x, y, z'
loop_
 _atom_site_type_symbol
 _atom_site_label
 _atom_site_symmetry_multiplicity
 _atom_site_fract_x
 _atom_site_fract_y
 _atom_site_fract_z
 _atom_site_occupancy
  Ta  Ta0  1  0.999400  0.999400  0.000000  1
  Nb  Nb1  1  0.500335  0.500335  0.000000  1
  Nb  Nb2  1  0.802618  0.307092  0.834565  1
  Nb  Nb3  1  0.193670  0.696635  0.165491  1
  Nb  Nb4  1  0.472528  0.968054  0.165435  1
  Nb  Nb5  1  0.307092  0.472528  0.504475  1
  Nb  Nb6  1  0.028179  0.193670  0.497035  1
  Nb  Nb7  1  0.531143  0.028179  0.834509  1
  Nb  Nb8  1  0.696635  0.531143  0.502965  1
  Nb  Nb9  1  0.968054  0.802618  0.495525  1
  Si  Si10  1  0.750520  0.750520  0.000000  1
  B  B11  1  0.113227  0.615005  0.728152  1
  B  B12  1  0.886852  0.385074  0.271848  1
  B  B13  1  0.615005  0.886852  0.501778  1
  B  B14  1  0.385074  0.113227  0.498222  1
  As  As15  1  0.249666  0.249666  0.000000  1
