# generated using pymatgen
data_Yb12Sn3Ge5Pd8
_symmetry_space_group_name_H-M   'P 1'
_cell_length_a   5.62355800
_cell_length_b   8.36294042
_cell_length_c   13.48169045
_cell_angle_alpha   89.72293019
_cell_angle_beta   90.00000000
_cell_angle_gamma   90.00000000
_symmetry_Int_Tables_number   1
_chemical_formula_structural   Yb12Sn3Ge5Pd8
_chemical_formula_sum   'Yb12 Sn3 Ge5 Pd8'
_cell_volume   634.02948475
_cell_formula_units_Z   1
loop_
 _symmetry_equiv_pos_site_id
 _symmetry_equiv_pos_as_xyz
  1  'x, y, z'
loop_
 _atom_site_type_symbol
 _atom_site_label
 _atom_site_symmetry_multiplicity
 _atom_site_fract_x
 _atom_site_fract_y
 _atom_site_fract_z
 _atom_site_occupancy
  Yb  Yb0  1  0.649209  0.255481  0.253687  1
  Yb  Yb1  1  0.350358  0.745513  0.748846  1
  Yb  Yb2  1  0.350358  0.754487  0.251154  1
  Yb  Yb3  1  0.649209  0.244519  0.746313  1
  Yb  Yb4  1  0.153001  0.394490  0.105410  1
  Yb  Yb5  1  0.847287  0.605453  0.894543  1
  Yb  Yb6  1  0.847987  0.603956  0.603743  1
  Yb  Yb7  1  0.847987  0.896044  0.396257  1
  Yb  Yb8  1  0.145946  0.390551  0.397655  1
  Yb  Yb9  1  0.145946  0.109449  0.602345  1
  Yb  Yb10  1  0.153001  0.105510  0.894590  1
  Yb  Yb11  1  0.847287  0.894547  0.105457  1
  Sn  Sn12  1  0.664169  0.250000  0.000000  1
  Sn  Sn13  1  0.336525  0.750000  0.000000  1
  Sn  Sn14  1  0.342131  0.750000  0.500000  1
  Ge  Ge15  1  0.143987  0.105381  0.251505  1
  Ge  Ge16  1  0.856278  0.894312  0.748115  1
  Ge  Ge17  1  0.856278  0.605688  0.251885  1
  Ge  Ge18  1  0.143987  0.394619  0.748495  1
  Ge  Ge19  1  0.646309  0.250000  0.500000  1
  Pd  Pd20  1  0.372000  0.038049  0.095102  1
  Pd  Pd21  1  0.628423  0.962170  0.905019  1
  Pd  Pd22  1  0.630244  0.973371  0.591086  1
  Pd  Pd23  1  0.630244  0.526629  0.408914  1
  Pd  Pd24  1  0.380711  0.047059  0.408197  1
  Pd  Pd25  1  0.380711  0.452941  0.591803  1
  Pd  Pd26  1  0.372000  0.461951  0.904898  1
  Pd  Pd27  1  0.628423  0.537830  0.094981  1
