# generated using pymatgen
data_Tm10GaBi5S
_symmetry_space_group_name_H-M   'P 1'
_cell_length_a   9.05501189
_cell_length_b   9.11873295
_cell_length_c   6.18102200
_cell_angle_alpha   90.01838495
_cell_angle_beta   89.96296502
_cell_angle_gamma   119.76911639
_symmetry_Int_Tables_number   1
_chemical_formula_structural   Tm10GaBi5S
_chemical_formula_sum   'Tm10 Ga1 Bi5 S1'
_cell_volume   443.01666163
_cell_formula_units_Z   1
loop_
 _symmetry_equiv_pos_site_id
 _symmetry_equiv_pos_as_xyz
  1  'x, y, z'
loop_
 _atom_site_type_symbol
 _atom_site_label
 _atom_site_symmetry_multiplicity
 _atom_site_fract_x
 _atom_site_fract_y
 _atom_site_fract_z
 _atom_site_occupancy
  Tm  Tm0  1  0.001133  0.755665  0.244250  1
  Tm  Tm1  1  0.245468  0.244335  0.244250  1
  Tm  Tm2  1  0.755942  0.000000  0.240267  1
  Tm  Tm3  1  0.981068  0.232181  0.756002  1
  Tm  Tm4  1  0.748887  0.767819  0.756002  1
  Tm  Tm5  1  0.253189  0.000000  0.754330  1
  Tm  Tm6  1  0.343339  0.679329  0.502435  1
  Tm  Tm7  1  0.664011  0.320671  0.502435  1
  Tm  Tm8  1  0.664489  0.321772  0.997617  1
  Tm  Tm9  1  0.342717  0.678228  0.997617  1
  Ga  Ga10  1  0.606141  0.000000  0.752935  1
  Bi  Bi11  1  0.004860  0.392839  0.250696  1
  Bi  Bi12  1  0.612021  0.607161  0.250696  1
  Bi  Bi13  1  0.391781  0.000000  0.249488  1
  Bi  Bi14  1  0.996746  0.612091  0.750445  1
  Bi  Bi15  1  0.384655  0.387909  0.750445  1
  S  S16  1  0.003555  0.000000  0.500090  1
