# generated using pymatgen
data_NaLiDy4VP12Ir17
_symmetry_space_group_name_H-M   'P 1'
_cell_length_a   12.65644500
_cell_length_b   12.73435978
_cell_length_c   3.96676900
_cell_angle_alpha   90.00000000
_cell_angle_beta   90.00000000
_cell_angle_gamma   119.77861329
_symmetry_Int_Tables_number   1
_chemical_formula_structural   NaLiDy4VP12Ir17
_chemical_formula_sum   'Na1 Li1 Dy4 V1 P12 Ir17'
_cell_volume   554.90791446
_cell_formula_units_Z   1
loop_
 _symmetry_equiv_pos_site_id
 _symmetry_equiv_pos_as_xyz
  1  'x, y, z'
loop_
 _atom_site_type_symbol
 _atom_site_label
 _atom_site_symmetry_multiplicity
 _atom_site_fract_x
 _atom_site_fract_y
 _atom_site_fract_z
 _atom_site_occupancy
  Na  Na0  1  0.001259  0.813207  0.000000  1
  Li  Li1  1  0.555938  0.558408  0.500000  1
  Dy  Dy2  1  0.331742  0.662091  0.500000  1
  Dy  Dy3  1  0.670548  0.337123  0.500000  1
  Dy  Dy4  1  0.188223  0.188827  0.000000  1
  Dy  Dy5  1  0.814156  0.003082  0.000000  1
  V  V6  1  0.998093  0.446822  0.500000  1
  P  P7  1  0.998958  0.629943  0.500000  1
  P  P8  1  0.367590  0.367139  0.500000  1
  P  P9  1  0.640760  0.999824  0.500000  1
  P  P10  1  0.514904  0.685152  0.000000  1
  P  P11  1  0.305951  0.823090  0.000000  1
  P  P12  1  0.163258  0.477942  0.000000  1
  P  P13  1  0.483570  0.176455  0.000000  1
  P  P14  1  0.688325  0.521266  0.000000  1
  P  P15  1  0.834147  0.318263  0.000000  1
  P  P16  1  0.998833  0.175104  0.500000  1
  P  P17  1  0.819784  0.821146  0.500000  1
  P  P18  1  0.178908  0.997414  0.500000  1
  Ir  Ir19  1  0.503570  0.867602  0.000000  1
  Ir  Ir20  1  0.127717  0.635228  0.000000  1
  Ir  Ir21  1  0.354535  0.489936  0.000000  1
  Ir  Ir22  1  0.491145  0.362988  0.000000  1
  Ir  Ir23  1  0.869615  0.510628  0.000000  1
  Ir  Ir24  1  0.640923  0.137998  0.000000  1
  Ir  Ir25  1  0.462084  0.003799  0.500000  1
  Ir  Ir26  1  0.996191  0.280222  0.000000  1
  Ir  Ir27  1  0.719305  0.722529  0.000000  1
  Ir  Ir28  1  0.288279  0.999983  0.000000  1
  Ir  Ir29  1  0.621263  0.806742  0.500000  1
  Ir  Ir30  1  0.198274  0.817842  0.500000  1
  Ir  Ir31  1  0.176291  0.369169  0.500000  1
  Ir  Ir32  1  0.376482  0.177100  0.500000  1
  Ir  Ir33  1  0.802733  0.623687  0.500000  1
  Ir  Ir34  1  0.817360  0.194049  0.500000  1
  Ir  Ir35  1  0.999285  0.998202  0.500000  1
