# generated using pymatgen
data_Ho2Lu10Tc3Os
_symmetry_space_group_name_H-M   'P 1'
_cell_length_a   6.12815601
_cell_length_b   7.40473606
_cell_length_c   8.86524500
_cell_angle_alpha   90.00000000
_cell_angle_beta   90.00000000
_cell_angle_gamma   90.11727476
_symmetry_Int_Tables_number   1
_chemical_formula_structural   Ho2Lu10Tc3Os
_chemical_formula_sum   'Ho2 Lu10 Tc3 Os1'
_cell_volume   402.28072850
_cell_formula_units_Z   1
loop_
 _symmetry_equiv_pos_site_id
 _symmetry_equiv_pos_as_xyz
  1  'x, y, z'
loop_
 _atom_site_type_symbol
 _atom_site_label
 _atom_site_symmetry_multiplicity
 _atom_site_fract_x
 _atom_site_fract_y
 _atom_site_fract_z
 _atom_site_occupancy
  Ho  Ho0  1  0.878356  0.539370  0.250000  1
  Ho  Ho1  1  0.622477  0.036919  0.250000  1
  Lu  Lu2  1  0.343571  0.673718  0.059995  1
  Lu  Lu3  1  0.153148  0.175130  0.438730  1
  Lu  Lu4  1  0.656166  0.327455  0.563766  1
  Lu  Lu5  1  0.844446  0.823825  0.935914  1
  Lu  Lu6  1  0.656166  0.327455  0.936234  1
  Lu  Lu7  1  0.844446  0.823825  0.564086  1
  Lu  Lu8  1  0.343571  0.673718  0.440005  1
  Lu  Lu9  1  0.153148  0.175130  0.061270  1
  Lu  Lu10  1  0.127352  0.458446  0.750000  1
  Lu  Lu11  1  0.376451  0.962189  0.750000  1
  Tc  Tc12  1  0.047835  0.880863  0.250000  1
  Tc  Tc13  1  0.456146  0.381844  0.250000  1
  Tc  Tc14  1  0.956270  0.119159  0.750000  1
  Os  Os15  1  0.540451  0.620952  0.750000  1
