# generated using pymatgen
data_Mg7In9(BRh4)2
_symmetry_space_group_name_H-M   'P 1'
_cell_length_a   8.73631462
_cell_length_b   8.73999162
_cell_length_c   8.71708717
_cell_angle_alpha   60.02185183
_cell_angle_beta   59.92700405
_cell_angle_gamma   60.01391240
_symmetry_Int_Tables_number   1
_chemical_formula_structural   Mg7In9(BRh4)2
_chemical_formula_sum   'Mg7 In9 B2 Rh8'
_cell_volume   470.51417612
_cell_formula_units_Z   1
loop_
 _symmetry_equiv_pos_site_id
 _symmetry_equiv_pos_as_xyz
  1  'x, y, z'
loop_
 _atom_site_type_symbol
 _atom_site_label
 _atom_site_symmetry_multiplicity
 _atom_site_fract_x
 _atom_site_fract_y
 _atom_site_fract_z
 _atom_site_occupancy
  Mg  Mg0  1  0.125047  0.123960  0.625945  1
  Mg  Mg1  1  0.126475  0.623928  0.123123  1
  Mg  Mg2  1  0.549900  0.550147  0.947630  1
  Mg  Mg3  1  0.952323  0.550147  0.947630  1
  Mg  Mg4  1  0.125664  0.126143  0.124263  1
  Mg  Mg5  1  0.623930  0.126143  0.124263  1
  Mg  Mg6  1  0.298912  0.699476  0.702700  1
  In  In7  1  0.954916  0.944680  0.552669  1
  In  In8  1  0.305077  0.698390  0.297013  1
  In  In9  1  0.695390  0.308419  0.700667  1
  In  In10  1  0.295524  0.308419  0.700667  1
  In  In11  1  0.703424  0.305300  0.287853  1
  In  In12  1  0.699519  0.698390  0.297013  1
  In  In13  1  0.944788  0.553079  0.557345  1
  In  In14  1  0.555078  0.944223  0.945621  1
  In  In15  1  0.547736  0.944680  0.552669  1
  B  B16  1  0.249456  0.251232  0.249856  1
  B  B17  1  0.000689  0.998538  0.000084  1
  Rh  Rh18  1  0.903212  0.902823  0.905365  1
  Rh  Rh19  1  0.903580  0.286688  0.906154  1
  Rh  Rh20  1  0.288600  0.902823  0.905365  1
  Rh  Rh21  1  0.345862  0.346546  0.961728  1
  Rh  Rh22  1  0.959873  0.345147  0.348184  1
  Rh  Rh23  1  0.902752  0.904032  0.290465  1
  Rh  Rh24  1  0.345478  0.961501  0.347542  1
  Rh  Rh25  1  0.346795  0.345147  0.348184  1
