# generated using pymatgen
data_Rb8Li4HoEr3As8
_symmetry_space_group_name_H-M   'P 1'
_cell_length_a   10.60553009
_cell_length_b   10.60553158
_cell_length_c   6.83723103
_cell_angle_alpha   90.00807177
_cell_angle_beta   89.99193011
_cell_angle_gamma   99.87557918
_symmetry_Int_Tables_number   1
_chemical_formula_structural   Rb8Li4HoEr3As8
_chemical_formula_sum   'Rb8 Li4 Ho1 Er3 As8'
_cell_volume   757.63802904
_cell_formula_units_Z   1
loop_
 _symmetry_equiv_pos_site_id
 _symmetry_equiv_pos_as_xyz
  1  'x, y, z'
loop_
 _atom_site_type_symbol
 _atom_site_label
 _atom_site_symmetry_multiplicity
 _atom_site_fract_x
 _atom_site_fract_y
 _atom_site_fract_z
 _atom_site_occupancy
  Rb  Rb0  1  0.568299  0.931726  0.750055  1
  Rb  Rb1  1  0.931726  0.568299  0.249945  1
  Rb  Rb2  1  0.431734  0.068164  0.249946  1
  Rb  Rb3  1  0.068164  0.431734  0.750054  1
  Rb  Rb4  1  0.677779  0.322333  0.785872  1
  Rb  Rb5  1  0.822339  0.177659  0.285794  1
  Rb  Rb6  1  0.322333  0.677779  0.214128  1
  Rb  Rb7  1  0.177659  0.822339  0.714206  1
  Li  Li8  1  0.618305  0.618305  0.000000  1
  Li  Li9  1  0.881759  0.881759  0.500000  1
  Li  Li10  1  0.381742  0.381742  0.000000  1
  Li  Li11  1  0.118087  0.118087  0.500000  1
  Ho  Ho12  1  0.367935  0.367935  0.500000  1
  Er  Er13  1  0.868127  0.868127  0.000000  1
  Er  Er14  1  0.632166  0.632166  0.500000  1
  Er  Er15  1  0.131666  0.131666  0.000000  1
  As  As16  1  0.342435  0.156827  0.750925  1
  As  As17  1  0.156827  0.342435  0.249075  1
  As  As18  1  0.657644  0.842379  0.249999  1
  As  As19  1  0.842379  0.657644  0.750001  1
  As  As20  1  0.910356  0.089568  0.766535  1
  As  As21  1  0.590322  0.410648  0.265949  1
  As  As22  1  0.089568  0.910356  0.233465  1
  As  As23  1  0.410648  0.590322  0.734051  1
