# generated using pymatgen
data_DySc3Fe10(P6Rh5)2
_symmetry_space_group_name_H-M   'P 1'
_cell_length_a   3.75030700
_cell_length_b   10.38810820
_cell_length_c   12.17834877
_cell_angle_alpha   89.90993704
_cell_angle_beta   90.00000000
_cell_angle_gamma   90.00000000
_symmetry_Int_Tables_number   1
_chemical_formula_structural   DySc3Fe10(P6Rh5)2
_chemical_formula_sum   'Dy1 Sc3 Fe10 P12 Rh10'
_cell_volume   474.45077017
_cell_formula_units_Z   1
loop_
 _symmetry_equiv_pos_site_id
 _symmetry_equiv_pos_as_xyz
  1  'x, y, z'
loop_
 _atom_site_type_symbol
 _atom_site_label
 _atom_site_symmetry_multiplicity
 _atom_site_fract_x
 _atom_site_fract_y
 _atom_site_fract_z
 _atom_site_occupancy
  Dy  Dy0  1  0.750000  0.076425  0.789724  1
  Sc  Sc1  1  0.250000  0.582632  0.713437  1
  Sc  Sc2  1  0.250000  0.916892  0.213473  1
  Sc  Sc3  1  0.750000  0.425468  0.289080  1
  Fe  Fe4  1  0.750000  0.771854  0.828298  1
  Fe  Fe5  1  0.750000  0.726604  0.328023  1
  Fe  Fe6  1  0.250000  0.871730  0.696866  1
  Fe  Fe7  1  0.250000  0.626110  0.198240  1
  Fe  Fe8  1  0.750000  0.119095  0.300409  1
  Fe  Fe9  1  0.750000  0.382634  0.801051  1
  Fe  Fe10  1  0.250000  0.461357  0.934348  1
  Fe  Fe11  1  0.250000  0.039634  0.431990  1
  Fe  Fe12  1  0.750000  0.541442  0.065950  1
  Fe  Fe13  1  0.750000  0.956958  0.563265  1
  P  P14  1  0.250000  0.439948  0.113985  1
  P  P15  1  0.250000  0.060095  0.610204  1
  P  P16  1  0.750000  0.570831  0.885154  1
  P  P17  1  0.750000  0.928825  0.383571  1
  P  P18  1  0.250000  0.272326  0.864015  1
  P  P19  1  0.250000  0.231378  0.362784  1
  P  P20  1  0.750000  0.729821  0.147741  1
  P  P21  1  0.750000  0.769216  0.647185  1
  P  P22  1  0.250000  0.607053  0.376160  1
  P  P23  1  0.250000  0.889756  0.877414  1
  P  P24  1  0.750000  0.406226  0.619989  1
  P  P25  1  0.750000  0.094187  0.120327  1
  Rh  Rh26  1  0.250000  0.707607  0.985912  1
  Rh  Rh27  1  0.250000  0.791026  0.484296  1
  Rh  Rh28  1  0.750000  0.286949  0.008918  1
  Rh  Rh29  1  0.750000  0.213149  0.508759  1
  Rh  Rh30  1  0.250000  0.412422  0.474331  1
  Rh  Rh31  1  0.250000  0.087536  0.979766  1
  Rh  Rh32  1  0.750000  0.598677  0.523150  1
  Rh  Rh33  1  0.750000  0.900206  0.023927  1
  Rh  Rh34  1  0.250000  0.232167  0.174890  1
  Rh  Rh35  1  0.250000  0.271765  0.673366  1
