# generated using pymatgen
data_Mg5Fe17(CoP6)2
_symmetry_space_group_name_H-M   'P 1'
_cell_length_a   11.75067378
_cell_length_b   11.75067345
_cell_length_c   3.64224600
_cell_angle_alpha   90.00000000
_cell_angle_beta   90.00000000
_cell_angle_gamma   120.04173862
_symmetry_Int_Tables_number   1
_chemical_formula_structural   Mg5Fe17(CoP6)2
_chemical_formula_sum   'Mg5 Fe17 Co2 P12'
_cell_volume   435.35408300
_cell_formula_units_Z   1
loop_
 _symmetry_equiv_pos_site_id
 _symmetry_equiv_pos_as_xyz
  1  'x, y, z'
loop_
 _atom_site_type_symbol
 _atom_site_label
 _atom_site_symmetry_multiplicity
 _atom_site_fract_x
 _atom_site_fract_y
 _atom_site_fract_z
 _atom_site_occupancy
  Mg  Mg0  1  0.333153  0.667416  0.500000  1
  Mg  Mg1  1  0.667416  0.333153  0.500000  1
  Mg  Mg2  1  0.182141  0.999659  0.000000  1
  Mg  Mg3  1  0.999659  0.182141  0.000000  1
  Mg  Mg4  1  0.817429  0.817429  0.000000  1
  Fe  Fe5  1  0.198950  0.378803  0.500000  1
  Fe  Fe6  1  0.619324  0.817725  0.500000  1
  Fe  Fe7  1  0.182126  0.802061  0.500000  1
  Fe  Fe8  1  0.817725  0.619324  0.500000  1
  Fe  Fe9  1  0.802061  0.182126  0.500000  1
  Fe  Fe10  1  0.378803  0.198950  0.500000  1
  Fe  Fe11  1  0.554543  0.999391  0.500000  1
  Fe  Fe12  1  0.999391  0.554543  0.500000  1
  Fe  Fe13  1  0.445217  0.445217  0.500000  1
  Fe  Fe14  1  0.124642  0.482053  0.000000  1
  Fe  Fe15  1  0.518213  0.642826  0.000000  1
  Fe  Fe16  1  0.356803  0.876264  0.000000  1
  Fe  Fe17  1  0.642826  0.518213  0.000000  1
  Fe  Fe18  1  0.876264  0.356803  0.000000  1
  Fe  Fe19  1  0.482053  0.124642  0.000000  1
  Fe  Fe20  1  0.718600  0.999848  0.000000  1
  Fe  Fe21  1  0.999848  0.718600  0.000000  1
  Co  Co22  1  0.281841  0.281841  0.000000  1
  Co  Co23  1  0.000313  0.000313  0.500000  1
  P  P24  1  0.367381  0.001147  0.500000  1
  P  P25  1  0.001147  0.367381  0.500000  1
  P  P26  1  0.632786  0.632786  0.500000  1
  P  P27  1  0.315306  0.482932  0.000000  1
  P  P28  1  0.517898  0.834702  0.000000  1
  P  P29  1  0.165510  0.683934  0.000000  1
  P  P30  1  0.834702  0.517898  0.000000  1
  P  P31  1  0.683934  0.165510  0.000000  1
  P  P32  1  0.482932  0.315306  0.000000  1
  P  P33  1  0.818767  0.999685  0.500000  1
  P  P34  1  0.999685  0.818767  0.500000  1
  P  P35  1  0.180611  0.180611  0.500000  1
