# generated using pymatgen
data_Y2Lu3Zr(SnIr)6
_symmetry_space_group_name_H-M   'P 1'
_cell_length_a   7.46776306
_cell_length_b   7.50901700
_cell_length_c   7.70488900
_cell_angle_alpha   90.00000000
_cell_angle_beta   90.00000000
_cell_angle_gamma   120.19228255
_symmetry_Int_Tables_number   1
_chemical_formula_structural   Y2Lu3Zr(SnIr)6
_chemical_formula_sum   'Y2 Lu3 Zr1 Sn6 Ir6'
_cell_volume   373.44435298
_cell_formula_units_Z   1
loop_
 _symmetry_equiv_pos_site_id
 _symmetry_equiv_pos_as_xyz
  1  'x, y, z'
loop_
 _atom_site_type_symbol
 _atom_site_label
 _atom_site_symmetry_multiplicity
 _atom_site_fract_x
 _atom_site_fract_y
 _atom_site_fract_z
 _atom_site_occupancy
  Y  Y0  1  0.000034  0.408890  0.750000  1
  Y  Y1  1  0.403276  0.994765  0.750000  1
  Lu  Lu2  1  0.403015  0.004313  0.250000  1
  Lu  Lu3  1  0.598200  0.594121  0.750000  1
  Lu  Lu4  1  0.598132  0.598596  0.250000  1
  Zr  Zr5  1  0.999673  0.397720  0.250000  1
  Sn  Sn6  1  0.266042  0.263682  0.501392  1
  Sn  Sn7  1  0.266042  0.263682  0.998608  1
  Sn  Sn8  1  0.733444  0.996679  0.001634  1
  Sn  Sn9  1  0.000137  0.739794  0.490291  1
  Sn  Sn10  1  0.733444  0.996679  0.498366  1
  Sn  Sn11  1  0.000137  0.739794  0.009709  1
  Ir  Ir12  1  0.674235  0.337363  0.484859  1
  Ir  Ir13  1  0.674235  0.337363  0.015141  1
  Ir  Ir14  1  0.326927  0.659659  0.018886  1
  Ir  Ir15  1  0.326927  0.659659  0.481114  1
  Ir  Ir16  1  0.995635  0.994843  0.750000  1
  Ir  Ir17  1  0.000462  0.012400  0.250000  1
