# generated using pymatgen
data_Tm3Mn(P3Ir4)2
_symmetry_space_group_name_H-M   'P 1'
_cell_length_a   3.97660500
_cell_length_b   11.18855200
_cell_length_c   12.67337700
_cell_angle_alpha   90.00000000
_cell_angle_beta   90.00000000
_cell_angle_gamma   90.00000000
_symmetry_Int_Tables_number   1
_chemical_formula_structural   Tm3Mn(P3Ir4)2
_chemical_formula_sum   'Tm6 Mn2 P12 Ir16'
_cell_volume   563.86961564
_cell_formula_units_Z   2
loop_
 _symmetry_equiv_pos_site_id
 _symmetry_equiv_pos_as_xyz
  1  'x, y, z'
loop_
 _atom_site_type_symbol
 _atom_site_label
 _atom_site_symmetry_multiplicity
 _atom_site_fract_x
 _atom_site_fract_y
 _atom_site_fract_z
 _atom_site_occupancy
  Tm  Tm0  1  0.000000  0.500000  0.521711  1
  Tm  Tm1  1  0.500000  0.000000  0.478289  1
  Tm  Tm2  1  0.500000  0.818205  0.205457  1
  Tm  Tm3  1  0.500000  0.181795  0.205457  1
  Tm  Tm4  1  0.000000  0.681795  0.794543  1
  Tm  Tm5  1  0.000000  0.318205  0.794543  1
  Mn  Mn6  1  0.500000  0.500000  0.170290  1
  Mn  Mn7  1  0.000000  0.000000  0.829710  1
  P  P8  1  0.500000  0.500000  0.877239  1
  P  P9  1  0.000000  0.000000  0.122761  1
  P  P10  1  0.500000  0.500000  0.351424  1
  P  P11  1  0.000000  0.000000  0.648576  1
  P  P12  1  0.500000  0.315385  0.619145  1
  P  P13  1  0.500000  0.684615  0.619145  1
  P  P14  1  0.000000  0.184615  0.380855  1
  P  P15  1  0.000000  0.815385  0.380855  1
  P  P16  1  0.500000  0.844294  0.889880  1
  P  P17  1  0.500000  0.155706  0.889880  1
  P  P18  1  0.000000  0.655706  0.110120  1
  P  P19  1  0.000000  0.344294  0.110120  1
  Ir  Ir20  1  0.500000  0.500000  0.699044  1
  Ir  Ir21  1  0.000000  0.000000  0.300956  1
  Ir  Ir22  1  0.000000  0.500000  0.988696  1
  Ir  Ir23  1  0.500000  0.000000  0.011304  1
  Ir  Ir24  1  0.500000  0.332469  0.986532  1
  Ir  Ir25  1  0.500000  0.667531  0.986532  1
  Ir  Ir26  1  0.000000  0.167531  0.013468  1
  Ir  Ir27  1  0.000000  0.832469  0.013468  1
  Ir  Ir28  1  0.500000  0.300867  0.433030  1
  Ir  Ir29  1  0.500000  0.699133  0.433030  1
  Ir  Ir30  1  0.000000  0.199133  0.566970  1
  Ir  Ir31  1  0.000000  0.800867  0.566970  1
  Ir  Ir32  1  0.500000  0.871306  0.711922  1
  Ir  Ir33  1  0.500000  0.128694  0.711922  1
  Ir  Ir34  1  0.000000  0.628694  0.288078  1
  Ir  Ir35  1  0.000000  0.371306  0.288078  1
