# generated using pymatgen
data_Ac2PrIn2Sn3
_symmetry_space_group_name_H-M   'P 1'
_cell_length_a   6.83608816
_cell_length_b   6.83608771
_cell_length_c   10.82688800
_cell_angle_alpha   90.00000000
_cell_angle_beta   90.00000000
_cell_angle_gamma   102.61960460
_symmetry_Int_Tables_number   1
_chemical_formula_structural   Ac2PrIn2Sn3
_chemical_formula_sum   'Ac4 Pr2 In4 Sn6'
_cell_volume   493.74016734
_cell_formula_units_Z   2
loop_
 _symmetry_equiv_pos_site_id
 _symmetry_equiv_pos_as_xyz
  1  'x, y, z'
loop_
 _atom_site_type_symbol
 _atom_site_label
 _atom_site_symmetry_multiplicity
 _atom_site_fract_x
 _atom_site_fract_y
 _atom_site_fract_z
 _atom_site_occupancy
  Ac  Ac0  1  0.201588  0.798412  0.500000  1
  Ac  Ac1  1  0.201588  0.798412  0.000000  1
  Ac  Ac2  1  0.798412  0.201588  0.500000  1
  Ac  Ac3  1  0.798412  0.201588  0.000000  1
  Pr  Pr4  1  0.646563  0.646563  0.250000  1
  Pr  Pr5  1  0.353437  0.353437  0.750000  1
  In  In6  1  0.318409  0.318409  0.047657  1
  In  In7  1  0.681591  0.681591  0.952343  1
  In  In8  1  0.318409  0.318409  0.452343  1
  In  In9  1  0.681591  0.681591  0.547657  1
  Sn  Sn10  1  0.028755  0.028755  0.250000  1
  Sn  Sn11  1  0.971245  0.971245  0.750000  1
  Sn  Sn12  1  0.488126  0.079843  0.250000  1
  Sn  Sn13  1  0.920157  0.511874  0.750000  1
  Sn  Sn14  1  0.511874  0.920157  0.750000  1
  Sn  Sn15  1  0.079843  0.488126  0.250000  1
