# generated using pymatgen
data_Tb16In5HgIr2
_symmetry_space_group_name_H-M   'P 1'
_cell_length_a   10.43728400
_cell_length_b   10.42973862
_cell_length_c   7.08851600
_cell_angle_alpha   90.01458525
_cell_angle_beta   90.00000000
_cell_angle_gamma   120.02393436
_symmetry_Int_Tables_number   1
_chemical_formula_structural   Tb16In5HgIr2
_chemical_formula_sum   'Tb16 In5 Hg1 Ir2'
_cell_volume   668.10091969
_cell_formula_units_Z   1
loop_
 _symmetry_equiv_pos_site_id
 _symmetry_equiv_pos_as_xyz
  1  'x, y, z'
loop_
 _atom_site_type_symbol
 _atom_site_label
 _atom_site_symmetry_multiplicity
 _atom_site_fract_x
 _atom_site_fract_y
 _atom_site_fract_z
 _atom_site_occupancy
  Tb  Tb0  1  0.532039  0.064078  0.523799  1
  Tb  Tb1  1  0.931963  0.470997  0.523731  1
  Tb  Tb2  1  0.539035  0.470997  0.523731  1
  Tb  Tb3  1  0.467008  0.934017  0.020552  1
  Tb  Tb4  1  0.067876  0.531385  0.024241  1
  Tb  Tb5  1  0.463508  0.531385  0.024241  1
  Tb  Tb6  1  0.176517  0.353034  0.726541  1
  Tb  Tb7  1  0.651833  0.821913  0.733612  1
  Tb  Tb8  1  0.170080  0.821913  0.733612  1
  Tb  Tb9  1  0.823517  0.647033  0.214281  1
  Tb  Tb10  1  0.352882  0.176059  0.231365  1
  Tb  Tb11  1  0.823177  0.176059  0.231365  1
  Tb  Tb12  1  0.667955  0.335909  0.900151  1
  Tb  Tb13  1  0.334055  0.668110  0.402261  1
  Tb  Tb14  1  0.998857  0.997716  0.507675  1
  Tb  Tb15  1  0.002090  0.004180  0.008966  1
  In  In16  1  0.326780  0.163240  0.770048  1
  In  In17  1  0.836460  0.163240  0.770048  1
  In  In18  1  0.162683  0.325367  0.272633  1
  In  In19  1  0.673656  0.836240  0.270411  1
  In  In20  1  0.162584  0.836240  0.270411  1
  Hg  Hg21  1  0.834858  0.669715  0.776385  1
  Ir  Ir22  1  0.666680  0.333360  0.298072  1
  Ir  Ir23  1  0.333907  0.667815  0.797557  1
