# generated using pymatgen
data_MnV4Cr
_symmetry_space_group_name_H-M   'P 1'
_cell_length_a   2.91340000
_cell_length_b   4.15007327
_cell_length_c   6.36639268
_cell_angle_alpha   89.79641301
_cell_angle_beta   76.73434594
_cell_angle_gamma   89.21704772
_symmetry_Int_Tables_number   1
_chemical_formula_structural   MnV4Cr
_chemical_formula_sum   'Mn1 V4 Cr1'
_cell_volume   74.91397526
_cell_formula_units_Z   1
loop_
 _symmetry_equiv_pos_site_id
 _symmetry_equiv_pos_as_xyz
  1  'x, y, z'
loop_
 _atom_site_type_symbol
 _atom_site_label
 _atom_site_symmetry_multiplicity
 _atom_site_fract_x
 _atom_site_fract_y
 _atom_site_fract_z
 _atom_site_occupancy
  Mn  Mn0  1  0.219373  0.361850  0.940799  1
  V  V1  1  0.877584  0.362797  0.619206  1
  V  V2  1  0.389648  0.862841  0.597388  1
  V  V3  1  0.556678  0.362181  0.264365  1
  V  V4  1  0.718058  0.861814  0.946746  1
  Cr  Cr5  1  0.052904  0.862164  0.272283  1
