# generated using pymatgen
data_Dy2Lu8InSb5
_symmetry_space_group_name_H-M   'P 1'
_cell_length_a   6.28088000
_cell_length_b   8.81938338
_cell_length_c   8.82528828
_cell_angle_alpha   119.97788247
_cell_angle_beta   90.00001824
_cell_angle_gamma   89.99997138
_symmetry_Int_Tables_number   1
_chemical_formula_structural   Dy2Lu8InSb5
_chemical_formula_sum   'Dy2 Lu8 In1 Sb5'
_cell_volume   423.46254051
_cell_formula_units_Z   1
loop_
 _symmetry_equiv_pos_site_id
 _symmetry_equiv_pos_as_xyz
  1  'x, y, z'
loop_
 _atom_site_type_symbol
 _atom_site_label
 _atom_site_symmetry_multiplicity
 _atom_site_fract_x
 _atom_site_fract_y
 _atom_site_fract_z
 _atom_site_occupancy
  Dy  Dy0  1  0.250001  0.245281  0.242915  1
  Dy  Dy1  1  0.250001  0.002367  0.757085  1
  Lu  Lu2  1  0.499655  0.335226  0.668885  1
  Lu  Lu3  1  0.499655  0.666341  0.331115  1
  Lu  Lu4  1  0.000344  0.666342  0.331115  1
  Lu  Lu5  1  0.000344  0.335227  0.668885  1
  Lu  Lu6  1  0.750001  0.243256  0.000000  1
  Lu  Lu7  1  0.750001  0.755750  0.761126  1
  Lu  Lu8  1  0.750001  0.994624  0.238874  1
  Lu  Lu9  1  0.249999  0.757334  0.000000  1
  In  In10  1  0.749999  0.605029  0.000000  1
  Sb  Sb11  1  0.750001  0.389186  0.390044  1
  Sb  Sb12  1  0.750001  0.999141  0.609956  1
  Sb  Sb13  1  0.250000  0.395378  0.000000  1
  Sb  Sb14  1  0.250000  0.609719  0.609921  1
  Sb  Sb15  1  0.250000  0.999798  0.390079  1
