# generated using pymatgen
data_TbH2Cl
_symmetry_space_group_name_H-M   'P 1'
_cell_length_a   10.34553348
_cell_length_b   10.34553345
_cell_length_c   10.34553299
_cell_angle_alpha   20.80487752
_cell_angle_beta   20.80487948
_cell_angle_gamma   20.80488031
_symmetry_Int_Tables_number   1
_chemical_formula_structural   TbH2Cl
_chemical_formula_sum   'Tb2 H4 Cl2'
_cell_volume   122.30568743
_cell_formula_units_Z   2
loop_
 _symmetry_equiv_pos_site_id
 _symmetry_equiv_pos_as_xyz
  1  'x, y, z'
loop_
 _atom_site_type_symbol
 _atom_site_label
 _atom_site_symmetry_multiplicity
 _atom_site_fract_x
 _atom_site_fract_y
 _atom_site_fract_z
 _atom_site_occupancy
  Tb  Tb0  1  0.887031  0.887031  0.887031  1
  Tb  Tb1  1  0.112969  0.112969  0.112969  1
  H  H2  1  0.813451  0.813451  0.813451  1
  H  H3  1  0.186549  0.186549  0.186549  1
  H  H4  1  0.546188  0.546188  0.546188  1
  H  H5  1  0.453812  0.453812  0.453812  1
  Cl  Cl6  1  0.721247  0.721247  0.721247  1
  Cl  Cl7  1  0.278753  0.278753  0.278753  1
