# generated using pymatgen
data_Nb12ZnAu7N4
_symmetry_space_group_name_H-M   'P 1'
_cell_length_a   7.16462775
_cell_length_b   7.16462850
_cell_length_c   7.16462801
_cell_angle_alpha   90.06075126
_cell_angle_beta   90.06075340
_cell_angle_gamma   90.06074952
_symmetry_Int_Tables_number   1
_chemical_formula_structural   Nb12ZnAu7N4
_chemical_formula_sum   'Nb12 Zn1 Au7 N4'
_cell_volume   367.77332040
_cell_formula_units_Z   1
loop_
 _symmetry_equiv_pos_site_id
 _symmetry_equiv_pos_as_xyz
  1  'x, y, z'
loop_
 _atom_site_type_symbol
 _atom_site_label
 _atom_site_symmetry_multiplicity
 _atom_site_fract_x
 _atom_site_fract_y
 _atom_site_fract_z
 _atom_site_occupancy
  Nb  Nb0  1  0.788380  0.955672  0.376422  1
  Nb  Nb1  1  0.709018  0.041551  0.877101  1
  Nb  Nb2  1  0.208202  0.458693  0.127410  1
  Nb  Nb3  1  0.293255  0.540810  0.626893  1
  Nb  Nb4  1  0.955672  0.376422  0.788380  1
  Nb  Nb5  1  0.041551  0.877101  0.709018  1
  Nb  Nb6  1  0.458693  0.127410  0.208202  1
  Nb  Nb7  1  0.540810  0.626893  0.293255  1
  Nb  Nb8  1  0.376422  0.788380  0.955672  1
  Nb  Nb9  1  0.877101  0.709018  0.041551  1
  Nb  Nb10  1  0.127410  0.208202  0.458693  1
  Nb  Nb11  1  0.626893  0.293255  0.540810  1
  Zn  Zn12  1  0.066922  0.066922  0.066922  1
  Au  Au13  1  0.179828  0.826580  0.304259  1
  Au  Au14  1  0.304259  0.179828  0.826580  1
  Au  Au15  1  0.826580  0.304259  0.179828  1
  Au  Au16  1  0.684573  0.684573  0.684573  1
  Au  Au17  1  0.565805  0.431606  0.937147  1
  Au  Au18  1  0.431606  0.937147  0.565805  1
  Au  Au19  1  0.937147  0.565805  0.431606  1
  N  N20  1  0.873941  0.125710  0.623410  1
  N  N21  1  0.623410  0.873941  0.125710  1
  N  N22  1  0.125710  0.623410  0.873941  1
  N  N23  1  0.376813  0.376813  0.376813  1
