# generated using pymatgen
data_Ta5Nb6Mo12W
_symmetry_space_group_name_H-M   'P 1'
_cell_length_a   4.57561300
_cell_length_b   6.45600600
_cell_length_c   13.71487600
_cell_angle_alpha   90.00000000
_cell_angle_beta   89.99992901
_cell_angle_gamma   90.00000000
_symmetry_Int_Tables_number   1
_chemical_formula_structural   Ta5Nb6Mo12W
_chemical_formula_sum   'Ta5 Nb6 Mo12 W1'
_cell_volume   405.13997404
_cell_formula_units_Z   1
loop_
 _symmetry_equiv_pos_site_id
 _symmetry_equiv_pos_as_xyz
  1  'x, y, z'
loop_
 _atom_site_type_symbol
 _atom_site_label
 _atom_site_symmetry_multiplicity
 _atom_site_fract_x
 _atom_site_fract_y
 _atom_site_fract_z
 _atom_site_occupancy
  Ta  Ta0  1  0.000001  0.000000  0.999268  1
  Ta  Ta1  1  0.499987  0.500001  0.166213  1
  Ta  Ta2  1  0.999986  0.000000  0.333340  1
  Ta  Ta3  1  0.499999  0.500001  0.500461  1
  Ta  Ta4  1  0.000011  0.000000  0.667389  1
  Nb  Nb5  1  0.000001  0.500001  0.999418  1
  Nb  Nb6  1  0.499985  0.000000  0.166492  1
  Nb  Nb7  1  0.999988  0.500001  0.333348  1
  Nb  Nb8  1  0.500000  0.000000  0.500184  1
  Nb  Nb9  1  0.000013  0.500001  0.667233  1
  Nb  Nb10  1  0.500015  0.000000  0.833317  1
  Mo  Mo11  1  0.500000  0.253548  0.998126  1
  Mo  Mo12  1  0.500000  0.746451  0.998126  1
  Mo  Mo13  1  0.999986  0.247609  0.166011  1
  Mo  Mo14  1  0.999986  0.752391  0.166011  1
  Mo  Mo15  1  0.499988  0.252271  0.333341  1
  Mo  Mo16  1  0.499988  0.747729  0.333341  1
  Mo  Mo17  1  0.000000  0.247610  0.500664  1
  Mo  Mo18  1  0.000000  0.752390  0.500664  1
  Mo  Mo19  1  0.500012  0.253546  0.668533  1
  Mo  Mo20  1  0.500012  0.746454  0.668533  1
  Mo  Mo21  1  0.000014  0.251465  0.833329  1
  Mo  Mo22  1  0.000014  0.748535  0.833329  1
  W  W23  1  0.500013  0.500001  0.833328  1
