# generated using pymatgen
data_Ho(GaCu)6
_symmetry_space_group_name_H-M   'P 1'
_cell_length_a   5.23580350
_cell_length_b   6.60305167
_cell_length_c   6.60305098
_cell_angle_alpha   79.91374967
_cell_angle_beta   66.64241480
_cell_angle_gamma   66.64241636
_symmetry_Int_Tables_number   1
_chemical_formula_structural   Ho(GaCu)6
_chemical_formula_sum   'Ho1 Ga6 Cu6'
_cell_volume   192.35584031
_cell_formula_units_Z   1
loop_
 _symmetry_equiv_pos_site_id
 _symmetry_equiv_pos_as_xyz
  1  'x, y, z'
loop_
 _atom_site_type_symbol
 _atom_site_label
 _atom_site_symmetry_multiplicity
 _atom_site_fract_x
 _atom_site_fract_y
 _atom_site_fract_z
 _atom_site_occupancy
  Ho  Ho0  1  0.000000  0.000000  0.000000  1
  Ga  Ga1  1  0.688650  0.811350  0.811350  1
  Ga  Ga2  1  0.311350  0.188650  0.188650  1
  Ga  Ga3  1  0.347109  0.652891  0.652891  1
  Ga  Ga4  1  0.652891  0.347109  0.347109  1
  Ga  Ga5  1  0.000000  0.652121  0.347879  1
  Ga  Ga6  1  0.000000  0.347879  0.652121  1
  Cu  Cu7  1  0.000000  0.500000  0.000000  1
  Cu  Cu8  1  0.500000  0.500000  0.000000  1
  Cu  Cu9  1  0.000000  0.000000  0.500000  1
  Cu  Cu10  1  0.500000  0.000000  0.500000  1
  Cu  Cu11  1  0.500000  0.236818  0.763182  1
  Cu  Cu12  1  0.500000  0.763182  0.236818  1
