# generated using pymatgen
data_Dy3Er2Hf5(Si5Ir2)4
_symmetry_space_group_name_H-M   'P 1'
_cell_length_a   12.47799037
_cell_length_b   12.47828137
_cell_length_c   4.16268500
_cell_angle_alpha   90.00000000
_cell_angle_beta   90.00000000
_cell_angle_gamma   90.02781648
_symmetry_Int_Tables_number   1
_chemical_formula_structural   Dy3Er2Hf5(Si5Ir2)4
_chemical_formula_sum   'Dy3 Er2 Hf5 Si20 Ir8'
_cell_volume   648.14610731
_cell_formula_units_Z   1
loop_
 _symmetry_equiv_pos_site_id
 _symmetry_equiv_pos_as_xyz
  1  'x, y, z'
loop_
 _atom_site_type_symbol
 _atom_site_label
 _atom_site_symmetry_multiplicity
 _atom_site_fract_x
 _atom_site_fract_y
 _atom_site_fract_z
 _atom_site_occupancy
  Dy  Dy0  1  0.884120  0.384437  0.500000  1
  Dy  Dy1  1  0.115894  0.615558  0.500000  1
  Dy  Dy2  1  0.384452  0.115880  0.500000  1
  Er  Er3  1  0.999888  0.999983  0.000000  1
  Er  Er4  1  0.615591  0.884107  0.500000  1
  Hf  Hf5  1  0.499995  0.500017  0.000000  1
  Hf  Hf6  1  0.673482  0.174912  0.500000  1
  Hf  Hf7  1  0.326603  0.825015  0.500000  1
  Hf  Hf8  1  0.174995  0.326515  0.500000  1
  Hf  Hf9  1  0.824975  0.673529  0.500000  1
  Si  Si10  1  0.565820  0.067554  0.000000  1
  Si  Si11  1  0.434337  0.932315  0.000000  1
  Si  Si12  1  0.067691  0.434180  0.000000  1
  Si  Si13  1  0.932312  0.565822  0.000000  1
  Si  Si14  1  0.665789  0.701391  0.000000  1
  Si  Si15  1  0.334201  0.298742  0.000000  1
  Si  Si16  1  0.164173  0.800866  0.000000  1
  Si  Si17  1  0.835809  0.199116  0.000000  1
  Si  Si18  1  0.298778  0.665815  0.000000  1
  Si  Si19  1  0.701246  0.334204  0.000000  1
  Si  Si20  1  0.199151  0.164179  0.000000  1
  Si  Si21  1  0.800728  0.835836  0.000000  1
  Si  Si22  1  0.651206  0.507629  0.500000  1
  Si  Si23  1  0.348806  0.492385  0.500000  1
  Si  Si24  1  0.156091  0.992828  0.500000  1
  Si  Si25  1  0.843841  0.007182  0.500000  1
  Si  Si26  1  0.492379  0.651265  0.500000  1
  Si  Si27  1  0.507607  0.348796  0.500000  1
  Si  Si28  1  0.007191  0.156076  0.500000  1
  Si  Si29  1  0.992804  0.843908  0.500000  1
  Ir  Ir30  1  0.741989  0.521597  0.000000  1
  Ir  Ir31  1  0.258006  0.478443  0.000000  1
  Ir  Ir32  1  0.246212  0.978004  0.000000  1
  Ir  Ir33  1  0.753511  0.021624  0.000000  1
  Ir  Ir34  1  0.478770  0.742326  0.000000  1
  Ir  Ir35  1  0.521588  0.257959  0.000000  1
  Ir  Ir36  1  0.021965  0.246152  0.000000  1
  Ir  Ir37  1  0.978004  0.753854  0.000000  1
