# generated using pymatgen
data_La2Y3Ho15Si15Pd
_symmetry_space_group_name_H-M   'P 1'
_cell_length_a   7.42489976
_cell_length_b   7.76129907
_cell_length_c   14.65317646
_cell_angle_alpha   89.59177013
_cell_angle_beta   89.96203757
_cell_angle_gamma   89.90836417
_symmetry_Int_Tables_number   1
_chemical_formula_structural   La2Y3Ho15Si15Pd
_chemical_formula_sum   'La2 Y3 Ho15 Si15 Pd1'
_cell_volume   844.39396773
_cell_formula_units_Z   1
loop_
 _symmetry_equiv_pos_site_id
 _symmetry_equiv_pos_as_xyz
  1  'x, y, z'
loop_
 _atom_site_type_symbol
 _atom_site_label
 _atom_site_symmetry_multiplicity
 _atom_site_fract_x
 _atom_site_fract_y
 _atom_site_fract_z
 _atom_site_occupancy
  La  La0  1  0.522710  0.571323  0.341948  1
  La  La1  1  0.023074  0.428467  0.657089  1
  Y  Y2  1  0.971906  0.066853  0.848577  1
  Y  Y3  1  0.527217  0.566509  0.652374  1
  Y  Y4  1  0.027735  0.433975  0.347574  1
  Ho  Ho5  1  0.810956  0.576332  0.875199  1
  Ho  Ho6  1  0.315651  0.423659  0.125508  1
  Ho  Ho7  1  0.182216  0.928318  0.373223  1
  Ho  Ho8  1  0.682154  0.069654  0.626883  1
  Ho  Ho9  1  0.182800  0.928042  0.628240  1
  Ho  Ho10  1  0.682681  0.070670  0.371356  1
  Ho  Ho11  1  0.815801  0.572111  0.126016  1
  Ho  Ho12  1  0.319334  0.428068  0.873497  1
  Ho  Ho13  1  0.644072  0.232071  0.999439  1
  Ho  Ho14  1  0.156107  0.758993  0.000925  1
  Ho  Ho15  1  0.351476  0.262878  0.499995  1
  Ho  Ho16  1  0.850259  0.736254  0.499883  1
  Ho  Ho17  1  0.474828  0.933702  0.845866  1
  Ho  Ho18  1  0.973102  0.066106  0.152312  1
  Ho  Ho19  1  0.472889  0.934917  0.153103  1
  Si  Si20  1  0.018461  0.352349  0.000134  1
  Si  Si21  1  0.476945  0.859813  0.501169  1
  Si  Si22  1  0.977775  0.139761  0.498978  1
  Si  Si23  1  0.649962  0.277226  0.790915  1
  Si  Si24  1  0.151967  0.722114  0.208816  1
  Si  Si25  1  0.351310  0.215465  0.288103  1
  Si  Si26  1  0.851225  0.784090  0.712528  1
  Si  Si27  1  0.360958  0.219321  0.710333  1
  Si  Si28  1  0.860582  0.781084  0.288916  1
  Si  Si29  1  0.646244  0.269743  0.206019  1
  Si  Si30  1  0.147762  0.727779  0.793541  1
  Si  Si31  1  0.773235  0.880981  0.001099  1
  Si  Si32  1  0.260392  0.124210  0.999686  1
  Si  Si33  1  0.234018  0.627738  0.501821  1
  Si  Si34  1  0.733085  0.373103  0.498458  1
  Pd  Pd35  1  0.519109  0.656320  0.000477  1
