# generated using pymatgen
data_TbHf7(Ta3Si4)4
_symmetry_space_group_name_H-M   'P 1'
_cell_length_a   6.87107300
_cell_length_b   6.87381332
_cell_length_c   12.73293615
_cell_angle_alpha   89.91799557
_cell_angle_beta   89.99307262
_cell_angle_gamma   89.94030262
_symmetry_Int_Tables_number   1
_chemical_formula_structural   TbHf7(Ta3Si4)4
_chemical_formula_sum   'Tb1 Hf7 Ta12 Si16'
_cell_volume   601.38165210
_cell_formula_units_Z   1
loop_
 _symmetry_equiv_pos_site_id
 _symmetry_equiv_pos_as_xyz
  1  'x, y, z'
loop_
 _atom_site_type_symbol
 _atom_site_label
 _atom_site_symmetry_multiplicity
 _atom_site_fract_x
 _atom_site_fract_y
 _atom_site_fract_z
 _atom_site_occupancy
  Tb  Tb0  1  0.996249  0.660799  0.030771  1
  Hf  Hf1  1  0.339871  0.000073  0.470112  1
  Hf  Hf2  1  0.500251  0.840571  0.718483  1
  Hf  Hf3  1  0.498555  0.161060  0.221941  1
  Hf  Hf4  1  0.840705  0.501206  0.281753  1
  Hf  Hf5  1  0.160889  0.498570  0.779546  1
  Hf  Hf6  1  0.655361  0.003861  0.968291  1
  Hf  Hf7  1  0.999762  0.339907  0.529942  1
  Ta  Ta8  1  0.332306  0.327300  0.999874  1
  Ta  Ta9  1  0.170960  0.831518  0.251733  1
  Ta  Ta10  1  0.830174  0.169866  0.748875  1
  Ta  Ta11  1  0.670226  0.670152  0.500272  1
  Ta  Ta12  1  0.155276  0.002871  0.870942  1
  Ta  Ta13  1  0.497115  0.651949  0.124818  1
  Ta  Ta14  1  0.503507  0.348361  0.622703  1
  Ta  Ta15  1  0.652344  0.492753  0.873837  1
  Ta  Ta16  1  0.348493  0.503676  0.377643  1
  Ta  Ta17  1  0.847707  0.997175  0.375401  1
  Ta  Ta18  1  0.005362  0.152656  0.127646  1
  Ta  Ta19  1  0.996086  0.848137  0.624998  1
  Si  Si20  1  0.207389  0.136700  0.675990  1
  Si  Si21  1  0.367897  0.706740  0.926059  1
  Si  Si22  1  0.636720  0.292507  0.426705  1
  Si  Si23  1  0.704065  0.359501  0.072710  1
  Si  Si24  1  0.291866  0.636780  0.573548  1
  Si  Si25  1  0.788576  0.868532  0.180355  1
  Si  Si26  1  0.136502  0.207739  0.324290  1
  Si  Si27  1  0.861725  0.794411  0.820411  1
  Si  Si28  1  0.301502  0.956757  0.063860  1
  Si  Si29  1  0.543388  0.800133  0.314654  1
  Si  Si30  1  0.454717  0.200923  0.812143  1
  Si  Si31  1  0.800257  0.543888  0.685602  1
  Si  Si32  1  0.203215  0.454217  0.188395  1
  Si  Si33  1  0.699831  0.044464  0.563478  1
  Si  Si34  1  0.956309  0.293588  0.935588  1
  Si  Si35  1  0.044843  0.700663  0.436636  1
