# generated using pymatgen
data_CsSmCr2O8
_symmetry_space_group_name_H-M   'P 1'
_cell_length_a   5.87333400
_cell_length_b   5.87333311
_cell_length_c   8.42077900
_cell_angle_alpha   90.00000000
_cell_angle_beta   90.00000000
_cell_angle_gamma   119.99999374
_symmetry_Int_Tables_number   1
_chemical_formula_structural   CsSmCr2O8
_chemical_formula_sum   'Cs1 Sm1 Cr2 O8'
_cell_volume   251.56618300
_cell_formula_units_Z   1
loop_
 _symmetry_equiv_pos_site_id
 _symmetry_equiv_pos_as_xyz
  1  'x, y, z'
loop_
 _atom_site_type_symbol
 _atom_site_label
 _atom_site_symmetry_multiplicity
 _atom_site_fract_x
 _atom_site_fract_y
 _atom_site_fract_z
 _atom_site_occupancy
  Cs  Cs0  1  0.000000  0.000000  0.500000  1
  Sm  Sm1  1  0.000000  0.000000  0.000000  1
  Cr  Cr2  1  0.666667  0.333334  0.237839  1
  Cr  Cr3  1  0.333333  0.666667  0.762162  1
  O  O4  1  0.355194  0.177596  0.172309  1
  O  O5  1  0.822403  0.177596  0.172309  1
  O  O6  1  0.822403  0.644807  0.172309  1
  O  O7  1  0.666667  0.333334  0.430599  1
  O  O8  1  0.333333  0.666667  0.569402  1
  O  O9  1  0.177597  0.355194  0.827692  1
  O  O10  1  0.177597  0.822403  0.827692  1
  O  O11  1  0.644806  0.822403  0.827692  1
