# generated using pymatgen
data_Nb5Tc6MoI24
_symmetry_space_group_name_H-M   'P 1'
_cell_length_a   10.82558602
_cell_length_b   10.82676255
_cell_length_c   13.00505397
_cell_angle_alpha   89.80441469
_cell_angle_beta   89.81969500
_cell_angle_gamma   105.55058544
_symmetry_Int_Tables_number   1
_chemical_formula_structural   Nb5Tc6MoI24
_chemical_formula_sum   'Nb5 Tc6 Mo1 I24'
_cell_volume   1468.45213446
_cell_formula_units_Z   1
loop_
 _symmetry_equiv_pos_site_id
 _symmetry_equiv_pos_as_xyz
  1  'x, y, z'
loop_
 _atom_site_type_symbol
 _atom_site_label
 _atom_site_symmetry_multiplicity
 _atom_site_fract_x
 _atom_site_fract_y
 _atom_site_fract_z
 _atom_site_occupancy
  Nb  Nb0  1  0.627377  0.626956  0.427012  1
  Nb  Nb1  1  0.373458  0.372811  0.574890  1
  Nb  Nb2  1  0.873462  0.874948  0.928923  1
  Nb  Nb3  1  0.125479  0.126940  0.072527  1
  Nb  Nb4  1  0.574533  0.574036  0.630650  1
  Tc  Tc5  1  0.427033  0.426622  0.371717  1
  Tc  Tc6  1  0.926086  0.927556  0.131093  1
  Tc  Tc7  1  0.073193  0.074619  0.869866  1
  Tc  Tc8  1  0.613677  0.386106  0.500043  1
  Tc  Tc9  1  0.888377  0.112323  0.000399  1
  Tc  Tc10  1  0.386644  0.612958  0.500134  1
  Mo  Mo11  1  0.111559  0.889286  0.000489  1
  I  I12  1  0.824404  0.581667  0.554440  1
  I  I13  1  0.416157  0.182444  0.437350  1
  I  I14  1  0.680903  0.913066  0.066398  1
  I  I15  1  0.088650  0.319769  0.935021  1
  I  I16  1  0.183010  0.415357  0.437139  1
  I  I17  1  0.582320  0.823863  0.554481  1
  I  I18  1  0.319627  0.090952  0.936866  1
  I  I19  1  0.910729  0.681097  0.064590  1
  I  I20  1  0.664343  0.431377  0.293532  1
  I  I21  1  0.564491  0.321927  0.704762  1
  I  I22  1  0.835091  0.066179  0.791532  1
  I  I23  1  0.933932  0.165750  0.209360  1
  I  I24  1  0.322258  0.562878  0.705242  1
  I  I25  1  0.432207  0.663993  0.293213  1
  I  I26  1  0.166467  0.936803  0.209368  1
  I  I27  1  0.063136  0.834196  0.791586  1
  I  I28  1  0.670136  0.670428  0.835058  1
  I  I29  1  0.332147  0.331905  0.169843  1
  I  I30  1  0.834451  0.832957  0.332506  1
  I  I31  1  0.168038  0.166406  0.668265  1
  I  I32  1  0.778711  0.224601  0.500481  1
  I  I33  1  0.726723  0.274335  0.000138  1
  I  I34  1  0.225134  0.777699  0.500773  1
  I  I35  1  0.276059  0.725190  0.000314  1
