# generated using pymatgen
data_RbNa(CoO2)12
_symmetry_space_group_name_H-M   'P 1'
_cell_length_a   7.92804172
_cell_length_b   7.92804229
_cell_length_c   8.03988100
_cell_angle_alpha   108.44024257
_cell_angle_beta   105.38863634
_cell_angle_gamma   114.21199260
_symmetry_Int_Tables_number   1
_chemical_formula_structural   RbNa(CoO2)12
_chemical_formula_sum   'Rb1 Na1 Co12 O24'
_cell_volume   388.97314993
_cell_formula_units_Z   1
loop_
 _symmetry_equiv_pos_site_id
 _symmetry_equiv_pos_as_xyz
  1  'x, y, z'
loop_
 _atom_site_type_symbol
 _atom_site_label
 _atom_site_symmetry_multiplicity
 _atom_site_fract_x
 _atom_site_fract_y
 _atom_site_fract_z
 _atom_site_occupancy
  Rb  Rb0  1  0.662841  0.662841  0.000000  1
  Na  Na1  1  0.163152  0.163152  0.000000  1
  Co  Co2  1  0.811227  0.995858  0.482686  1
  Co  Co3  1  0.475042  0.659078  0.477562  1
  Co  Co4  1  0.142938  0.326956  0.477624  1
  Co  Co5  1  0.849331  0.665314  0.522376  1
  Co  Co6  1  0.513173  0.328541  0.517314  1
  Co  Co7  1  0.181516  0.997479  0.522438  1
  Co  Co8  1  0.992018  0.481910  0.817295  1
  Co  Co9  1  0.659862  0.149909  0.817300  1
  Co  Co10  1  0.324001  0.817755  0.817223  1
  Co  Co11  1  0.664616  0.174725  0.182705  1
  Co  Co12  1  0.332609  0.842562  0.182700  1
  Co  Co13  1  0.000532  0.506778  0.182777  1
  O  O14  1  0.678042  0.369306  0.389115  1
  O  O15  1  0.344461  0.035483  0.389281  1
  O  O16  1  0.012028  0.704825  0.392341  1
  O  O17  1  0.980189  0.288927  0.610885  1
  O  O18  1  0.646201  0.955180  0.610719  1
  O  O19  1  0.312485  0.619687  0.607659  1
  O  O20  1  0.954860  0.319338  0.283554  1
  O  O21  1  0.619971  0.987239  0.282593  1
  O  O22  1  0.288672  0.652941  0.283345  1
  O  O23  1  0.704644  0.337377  0.717407  1
  O  O24  1  0.369596  0.005327  0.716655  1
  O  O25  1  0.035783  0.671305  0.716446  1
  O  O26  1  0.703494  0.344195  0.056781  1
  O  O27  1  0.367304  0.014386  0.057228  1
  O  O28  1  0.037295  0.677793  0.056775  1
  O  O29  1  0.957158  0.310075  0.942772  1
  O  O30  1  0.621019  0.980520  0.943225  1
  O  O31  1  0.287414  0.646713  0.943219  1
  O  O32  1  0.005704  0.967370  0.648740  1
  O  O33  1  0.334967  0.297286  0.640957  1
  O  O34  1  0.668044  0.630374  0.640856  1
  O  O35  1  0.318630  0.356963  0.351260  1
  O  O36  1  0.656330  0.694009  0.359043  1
  O  O37  1  0.989518  0.027188  0.359144  1
