# generated using pymatgen
data_CeAg2F6
_symmetry_space_group_name_H-M   'P 1'
_cell_length_a   5.45962303
_cell_length_b   5.45962301
_cell_length_c   11.26608700
_cell_angle_alpha   90.00000000
_cell_angle_beta   90.00000000
_cell_angle_gamma   90.00855298
_symmetry_Int_Tables_number   1
_chemical_formula_structural   CeAg2F6
_chemical_formula_sum   'Ce2 Ag4 F12'
_cell_volume   335.81369856
_cell_formula_units_Z   2
loop_
 _symmetry_equiv_pos_site_id
 _symmetry_equiv_pos_as_xyz
  1  'x, y, z'
loop_
 _atom_site_type_symbol
 _atom_site_label
 _atom_site_symmetry_multiplicity
 _atom_site_fract_x
 _atom_site_fract_y
 _atom_site_fract_z
 _atom_site_occupancy
  Ce  Ce0  1  0.000000  0.000000  0.000000  1
  Ce  Ce1  1  0.500000  0.499997  0.500000  1
  Ag  Ag2  1  0.500000  0.499997  0.166394  1
  Ag  Ag3  1  0.000000  0.000000  0.333617  1
  Ag  Ag4  1  0.000000  0.000000  0.666383  1
  Ag  Ag5  1  0.500000  0.499997  0.833607  1
  F  F6  1  0.717267  0.282734  0.000000  1
  F  F7  1  0.282732  0.717267  0.000000  1
  F  F8  1  0.190654  0.191339  0.145663  1
  F  F9  1  0.809346  0.808664  0.145663  1
  F  F10  1  0.690623  0.308681  0.354355  1
  F  F11  1  0.309376  0.691318  0.354355  1
  F  F12  1  0.217212  0.217213  0.500000  1
  F  F13  1  0.782786  0.782786  0.500000  1
  F  F14  1  0.691318  0.309375  0.645646  1
  F  F15  1  0.308681  0.690623  0.645646  1
  F  F16  1  0.191336  0.190653  0.854337  1
  F  F17  1  0.808662  0.809346  0.854337  1
