# generated using pymatgen
data_YbLu3(Al8Pt3)3
_symmetry_space_group_name_H-M   'P 1'
_cell_length_a   7.50983068
_cell_length_b   7.52864584
_cell_length_c   13.14176686
_cell_angle_alpha   84.62664475
_cell_angle_beta   79.11984687
_cell_angle_gamma   59.91965426
_symmetry_Int_Tables_number   1
_chemical_formula_structural   YbLu3(Al8Pt3)3
_chemical_formula_sum   'Yb1 Lu3 Al24 Pt9'
_cell_volume   631.39496390
_cell_formula_units_Z   1
loop_
 _symmetry_equiv_pos_site_id
 _symmetry_equiv_pos_as_xyz
  1  'x, y, z'
loop_
 _atom_site_type_symbol
 _atom_site_label
 _atom_site_symmetry_multiplicity
 _atom_site_fract_x
 _atom_site_fract_y
 _atom_site_fract_z
 _atom_site_occupancy
  Yb  Yb0  1  0.393936  0.168571  0.807695  1
  Lu  Lu1  1  0.605247  0.831582  0.192800  1
  Lu  Lu2  1  0.734195  0.498814  0.807065  1
  Lu  Lu3  1  0.265964  0.500845  0.192902  1
  Al  Al4  1  0.684155  0.833158  0.944532  1
  Al  Al5  1  0.315958  0.166319  0.056280  1
  Al  Al6  1  0.146868  0.832121  0.560873  1
  Al  Al7  1  0.853359  0.167945  0.438194  1
  Al  Al8  1  0.479580  0.166597  0.558569  1
  Al  Al9  1  0.520559  0.833487  0.440841  1
  Al  Al10  1  0.218535  0.165294  0.327291  1
  Al  Al11  1  0.781865  0.835019  0.671725  1
  Al  Al12  1  0.437072  0.506066  0.671508  1
  Al  Al13  1  0.563333  0.493452  0.327456  1
  Al  Al14  1  0.109458  0.160328  0.670208  1
  Al  Al15  1  0.891019  0.839752  0.328819  1
  Al  Al16  1  0.353558  0.499280  0.944730  1
  Al  Al17  1  0.645650  0.501526  0.056774  1
  Al  Al18  1  0.015160  0.168725  0.952987  1
  Al  Al19  1  0.983628  0.831110  0.048702  1
  Al  Al20  1  0.186714  0.499380  0.440846  1
  Al  Al21  1  0.813538  0.500468  0.558365  1
  Al  Al22  1  0.732997  0.164538  0.183177  1
  Al  Al23  1  0.268200  0.832293  0.817100  1
  Al  Al24  1  0.058462  0.632320  0.816150  1
  Al  Al25  1  0.938359  0.370031  0.184282  1
  Al  Al26  1  0.856159  0.043730  0.816630  1
  Al  Al27  1  0.146099  0.957315  0.183771  1
  Pt  Pt28  1  0.119262  0.492312  0.638651  1
  Pt  Pt29  1  0.880421  0.509131  0.360294  1
  Pt  Pt30  1  0.656980  0.171242  0.000626  1
  Pt  Pt31  1  0.342255  0.828452  0.001280  1
  Pt  Pt32  1  0.537588  0.166704  0.360369  1
  Pt  Pt33  1  0.462625  0.832241  0.638569  1
  Pt  Pt34  1  0.779168  0.175184  0.637137  1
  Pt  Pt35  1  0.222443  0.824240  0.361702  1
  Pt  Pt36  1  0.999632  0.500428  0.001097  1
