# generated using pymatgen
data_PrNd7Hg4
_symmetry_space_group_name_H-M   'P 1'
_cell_length_a   7.22027819
_cell_length_b   5.27100100
_cell_length_c   9.72762625
_cell_angle_alpha   90.00000000
_cell_angle_beta   90.02599538
_cell_angle_gamma   90.00000000
_symmetry_Int_Tables_number   1
_chemical_formula_structural   PrNd7Hg4
_chemical_formula_sum   'Pr1 Nd7 Hg4'
_cell_volume   370.21487163
_cell_formula_units_Z   1
loop_
 _symmetry_equiv_pos_site_id
 _symmetry_equiv_pos_as_xyz
  1  'x, y, z'
loop_
 _atom_site_type_symbol
 _atom_site_label
 _atom_site_symmetry_multiplicity
 _atom_site_fract_x
 _atom_site_fract_y
 _atom_site_fract_z
 _atom_site_occupancy
  Pr  Pr0  1  0.173051  0.750001  0.923748  1
  Nd  Nd1  1  0.826935  0.250000  0.076343  1
  Nd  Nd2  1  0.515737  0.750001  0.193261  1
  Nd  Nd3  1  0.015550  0.750001  0.306817  1
  Nd  Nd4  1  0.327168  0.250000  0.423792  1
  Nd  Nd5  1  0.672827  0.750001  0.576251  1
  Nd  Nd6  1  0.984296  0.250000  0.693189  1
  Nd  Nd7  1  0.484537  0.250000  0.806672  1
  Hg  Hg8  1  0.268136  0.250000  0.103003  1
  Hg  Hg9  1  0.768061  0.250000  0.397243  1
  Hg  Hg10  1  0.232045  0.750001  0.602464  1
  Hg  Hg11  1  0.731652  0.750001  0.897223  1
