# generated using pymatgen
data_Y2Er4Zn23P
_symmetry_space_group_name_H-M   'P 1'
_cell_length_a   9.02190513
_cell_length_b   9.02192870
_cell_length_c   9.01977300
_cell_angle_alpha   60.00770864
_cell_angle_beta   60.00784556
_cell_angle_gamma   59.98717999
_symmetry_Int_Tables_number   1
_chemical_formula_structural   Y2Er4Zn23P
_chemical_formula_sum   'Y2 Er4 Zn23 P1'
_cell_volume   519.14322760
_cell_formula_units_Z   1
loop_
 _symmetry_equiv_pos_site_id
 _symmetry_equiv_pos_as_xyz
  1  'x, y, z'
loop_
 _atom_site_type_symbol
 _atom_site_label
 _atom_site_symmetry_multiplicity
 _atom_site_fract_x
 _atom_site_fract_y
 _atom_site_fract_z
 _atom_site_occupancy
  Y  Y0  1  0.711660  0.288332  0.288075  1
  Y  Y1  1  0.711670  0.288328  0.711936  1
  Er  Er2  1  0.710968  0.711449  0.288790  1
  Er  Er3  1  0.288195  0.711803  0.711580  1
  Er  Er4  1  0.288195  0.711806  0.288421  1
  Er  Er5  1  0.288548  0.289041  0.711206  1
  Zn  Zn6  1  0.624203  0.124043  0.125876  1
  Zn  Zn7  1  0.124906  0.625275  0.124909  1
  Zn  Zn8  1  0.126287  0.124479  0.624744  1
  Zn  Zn9  1  0.126284  0.124480  0.124490  1
  Zn  Zn10  1  0.374726  0.875094  0.875090  1
  Zn  Zn11  1  0.875955  0.375797  0.874125  1
  Zn  Zn12  1  0.875522  0.873712  0.375253  1
  Zn  Zn13  1  0.875520  0.873712  0.875512  1
  Zn  Zn14  1  0.499526  0.999746  0.000486  1
  Zn  Zn15  1  0.499527  0.999745  0.500240  1
  Zn  Zn16  1  0.499268  0.500731  0.000000  1
  Zn  Zn17  1  0.000256  0.500474  0.499757  1
  Zn  Zn18  1  0.000257  0.500474  0.999512  1
  Zn  Zn19  1  0.000745  0.999255  0.500000  1
  Zn  Zn20  1  0.000022  0.999978  0.999998  1
  Zn  Zn21  1  0.012368  0.329718  0.328958  1
  Zn  Zn22  1  0.329705  0.010711  0.329791  1
  Zn  Zn23  1  0.328944  0.329791  0.011558  1
  Zn  Zn24  1  0.328942  0.329792  0.329706  1
  Zn  Zn25  1  0.989289  0.670296  0.670208  1
  Zn  Zn26  1  0.670281  0.987635  0.671042  1
  Zn  Zn27  1  0.670209  0.671054  0.988445  1
  Zn  Zn28  1  0.670211  0.671055  0.670293  1
  P  P29  1  0.497810  0.502193  0.500001  1
