# generated using pymatgen
data_Pr4Zn4RuPt2Rh
_symmetry_space_group_name_H-M   'P 1'
_cell_length_a   4.06706100
_cell_length_b   7.40553348
_cell_length_c   16.80167328
_cell_angle_alpha   90.07198989
_cell_angle_beta   90.00000000
_cell_angle_gamma   90.00000000
_symmetry_Int_Tables_number   1
_chemical_formula_structural   Pr4Zn4RuPt2Rh
_chemical_formula_sum   'Pr8 Zn8 Ru2 Pt4 Rh2'
_cell_volume   506.04510500
_cell_formula_units_Z   2
loop_
 _symmetry_equiv_pos_site_id
 _symmetry_equiv_pos_as_xyz
  1  'x, y, z'
loop_
 _atom_site_type_symbol
 _atom_site_label
 _atom_site_symmetry_multiplicity
 _atom_site_fract_x
 _atom_site_fract_y
 _atom_site_fract_z
 _atom_site_occupancy
  Pr  Pr0  1  0.750000  0.458812  0.216993  1
  Pr  Pr1  1  0.750000  0.943187  0.283919  1
  Pr  Pr2  1  0.750000  0.829243  0.058479  1
  Pr  Pr3  1  0.250000  0.035400  0.716835  1
  Pr  Pr4  1  0.250000  0.164802  0.938399  1
  Pr  Pr5  1  0.250000  0.556960  0.785155  1
  Pr  Pr6  1  0.750000  0.334675  0.439592  1
  Pr  Pr7  1  0.250000  0.671054  0.562696  1
  Zn  Zn8  1  0.250000  0.993501  0.438461  1
  Zn  Zn9  1  0.750000  0.507063  0.937909  1
  Zn  Zn10  1  0.750000  0.997552  0.560348  1
  Zn  Zn11  1  0.250000  0.628581  0.350118  1
  Zn  Zn12  1  0.750000  0.385003  0.652077  1
  Zn  Zn13  1  0.750000  0.870095  0.850740  1
  Zn  Zn14  1  0.250000  0.502464  0.057793  1
  Zn  Zn15  1  0.250000  0.120176  0.151543  1
  Ru  Ru16  1  0.250000  0.745076  0.936089  1
  Ru  Ru17  1  0.750000  0.750878  0.683174  1
  Pt  Pt18  1  0.250000  0.242011  0.565736  1
  Pt  Pt19  1  0.750000  0.258484  0.066500  1
  Pt  Pt20  1  0.250000  0.244550  0.313374  1
  Pt  Pt21  1  0.750000  0.254762  0.812530  1
  Rh  Rh22  1  0.750000  0.756774  0.434975  1
  Rh  Rh23  1  0.250000  0.748895  0.186565  1
