# generated using pymatgen
data_Pr8Nd8MgCo4Hg3
_symmetry_space_group_name_H-M   'P 1'
_cell_length_a   9.83643448
_cell_length_b   9.82572119
_cell_length_c   9.83215280
_cell_angle_alpha   60.16295409
_cell_angle_beta   60.08852879
_cell_angle_gamma   60.10247646
_symmetry_Int_Tables_number   1
_chemical_formula_structural   Pr8Nd8MgCo4Hg3
_chemical_formula_sum   'Pr8 Nd8 Mg1 Co4 Hg3'
_cell_volume   673.74365933
_cell_formula_units_Z   1
loop_
 _symmetry_equiv_pos_site_id
 _symmetry_equiv_pos_as_xyz
  1  'x, y, z'
loop_
 _atom_site_type_symbol
 _atom_site_label
 _atom_site_symmetry_multiplicity
 _atom_site_fract_x
 _atom_site_fract_y
 _atom_site_fract_z
 _atom_site_occupancy
  Pr  Pr0  1  0.310351  0.310005  0.688568  1
  Pr  Pr1  1  0.438029  0.062592  0.437787  1
  Pr  Pr2  1  0.902065  0.902316  0.902127  1
  Pr  Pr3  1  0.438038  0.438696  0.062857  1
  Pr  Pr4  1  0.311940  0.689248  0.687193  1
  Pr  Pr5  1  0.688249  0.312749  0.687035  1
  Pr  Pr6  1  0.058568  0.440017  0.060046  1
  Pr  Pr7  1  0.904063  0.288309  0.903479  1
  Nd  Nd8  1  0.288381  0.903638  0.904850  1
  Nd  Nd9  1  0.688073  0.688866  0.311175  1
  Nd  Nd10  1  0.904645  0.902963  0.289068  1
  Nd  Nd11  1  0.310012  0.689671  0.309797  1
  Nd  Nd12  1  0.689153  0.309894  0.310002  1
  Nd  Nd13  1  0.061655  0.439465  0.438464  1
  Nd  Nd14  1  0.440736  0.057718  0.059075  1
  Nd  Nd15  1  0.058572  0.058753  0.440413  1
  Mg  Mg16  1  0.679788  0.679978  0.679206  1
  Co  Co17  1  0.109421  0.106939  0.109474  1
  Co  Co18  1  0.109182  0.107680  0.671155  1
  Co  Co19  1  0.671622  0.106802  0.109737  1
  Co  Co20  1  0.107993  0.672009  0.109402  1
  Hg  Hg21  1  0.663648  0.665274  0.001716  1
  Hg  Hg22  1  0.000415  0.665979  0.663159  1
  Hg  Hg23  1  0.665403  0.000442  0.664217  1
