# generated using pymatgen
data_Ho8Er4Tc3Ni
_symmetry_space_group_name_H-M   'P 1'
_cell_length_a   6.23647908
_cell_length_b   7.31309560
_cell_length_c   9.11994111
_cell_angle_alpha   89.99984420
_cell_angle_beta   90.01794727
_cell_angle_gamma   90.17526619
_symmetry_Int_Tables_number   1
_chemical_formula_structural   Ho8Er4Tc3Ni
_chemical_formula_sum   'Ho8 Er4 Tc3 Ni1'
_cell_volume   415.94001357
_cell_formula_units_Z   1
loop_
 _symmetry_equiv_pos_site_id
 _symmetry_equiv_pos_as_xyz
  1  'x, y, z'
loop_
 _atom_site_type_symbol
 _atom_site_label
 _atom_site_symmetry_multiplicity
 _atom_site_fract_x
 _atom_site_fract_y
 _atom_site_fract_z
 _atom_site_occupancy
  Ho  Ho0  1  0.329273  0.677653  0.066436  1
  Ho  Ho1  1  0.163240  0.176789  0.437413  1
  Ho  Ho2  1  0.665965  0.322929  0.562410  1
  Ho  Ho3  1  0.834846  0.823392  0.938726  1
  Ho  Ho4  1  0.666033  0.322876  0.937605  1
  Ho  Ho5  1  0.834750  0.823321  0.561254  1
  Ho  Ho6  1  0.139874  0.458105  0.749997  1
  Ho  Ho7  1  0.373788  0.958031  0.750002  1
  Er  Er8  1  0.329271  0.677650  0.433543  1
  Er  Er9  1  0.163194  0.176750  0.062559  1
  Er  Er10  1  0.872196  0.540313  0.250010  1
  Er  Er11  1  0.623292  0.039670  0.250004  1
  Tc  Tc12  1  0.037434  0.885410  0.250023  1
  Tc  Tc13  1  0.461040  0.387790  0.249971  1
  Tc  Tc14  1  0.961402  0.113570  0.750069  1
  Ni  Ni15  1  0.544403  0.615750  0.749978  1
