# generated using pymatgen
data_Ba3YCrO6
_symmetry_space_group_name_H-M   'P 1'
_cell_length_a   7.17318033
_cell_length_b   7.17318823
_cell_length_c   7.17309313
_cell_angle_alpha   93.39014826
_cell_angle_beta   93.39051768
_cell_angle_gamma   93.39170272
_symmetry_Int_Tables_number   1
_chemical_formula_structural   Ba3YCrO6
_chemical_formula_sum   'Ba6 Y2 Cr2 O12'
_cell_volume   367.06981667
_cell_formula_units_Z   2
loop_
 _symmetry_equiv_pos_site_id
 _symmetry_equiv_pos_as_xyz
  1  'x, y, z'
loop_
 _atom_site_type_symbol
 _atom_site_label
 _atom_site_symmetry_multiplicity
 _atom_site_fract_x
 _atom_site_fract_y
 _atom_site_fract_z
 _atom_site_occupancy
  Ba  Ba0  1  0.614507  0.885482  0.249999  1
  Ba  Ba1  1  0.885478  0.249993  0.614520  1
  Ba  Ba2  1  0.250004  0.614532  0.885473  1
  Ba  Ba3  1  0.114521  0.749988  0.385469  1
  Ba  Ba4  1  0.750008  0.385487  0.114523  1
  Ba  Ba5  1  0.385464  0.114530  0.749999  1
  Y  Y6  1  0.250014  0.249969  0.249981  1
  Y  Y7  1  0.750012  0.749971  0.749980  1
  Cr  Cr8  1  0.500021  0.500003  0.499988  1
  Cr  Cr9  1  0.999988  0.000020  0.000070  1
  O  O10  1  0.535173  0.222971  0.407809  1
  O  O11  1  0.222965  0.407827  0.535150  1
  O  O12  1  0.407834  0.535161  0.222917  1
  O  O13  1  0.035150  0.907821  0.722976  1
  O  O14  1  0.907801  0.722959  0.035175  1
  O  O15  1  0.722916  0.035137  0.907836  1
  O  O16  1  0.464874  0.777065  0.592168  1
  O  O17  1  0.777064  0.592177  0.464830  1
  O  O18  1  0.592195  0.464839  0.777019  1
  O  O19  1  0.964837  0.092178  0.277077  1
  O  O20  1  0.092157  0.277058  0.964853  1
  O  O21  1  0.277012  0.964831  0.092187  1
