# generated using pymatgen
data_PrNd(Dy2Rh9)2
_symmetry_space_group_name_H-M   'P 1'
_cell_length_a   5.30491400
_cell_length_b   5.30491425
_cell_length_c   17.52845700
_cell_angle_alpha   90.00000000
_cell_angle_beta   90.00000000
_cell_angle_gamma   120.00001091
_symmetry_Int_Tables_number   1
_chemical_formula_structural   PrNd(Dy2Rh9)2
_chemical_formula_sum   'Pr1 Nd1 Dy4 Rh18'
_cell_volume   427.19974769
_cell_formula_units_Z   1
loop_
 _symmetry_equiv_pos_site_id
 _symmetry_equiv_pos_as_xyz
  1  'x, y, z'
loop_
 _atom_site_type_symbol
 _atom_site_label
 _atom_site_symmetry_multiplicity
 _atom_site_fract_x
 _atom_site_fract_y
 _atom_site_fract_z
 _atom_site_occupancy
  Pr  Pr0  1  0.333333  0.666667  0.750000  1
  Nd  Nd1  1  0.666667  0.333333  0.250000  1
  Dy  Dy2  1  0.333333  0.666667  0.541963  1
  Dy  Dy3  1  0.666667  0.333333  0.041418  1
  Dy  Dy4  1  0.666667  0.333333  0.458582  1
  Dy  Dy5  1  0.333333  0.666667  0.958037  1
  Rh  Rh6  1  0.167326  0.334651  0.125057  1
  Rh  Rh7  1  0.832688  0.665379  0.625348  1
  Rh  Rh8  1  0.665349  0.832674  0.125057  1
  Rh  Rh9  1  0.167326  0.832674  0.125057  1
  Rh  Rh10  1  0.832688  0.167312  0.625348  1
  Rh  Rh11  1  0.334621  0.167312  0.625348  1
  Rh  Rh12  1  0.832688  0.665379  0.874652  1
  Rh  Rh13  1  0.832688  0.167312  0.874652  1
  Rh  Rh14  1  0.334621  0.167312  0.874652  1
  Rh  Rh15  1  0.665349  0.832674  0.374943  1
  Rh  Rh16  1  0.167326  0.832674  0.374943  1
  Rh  Rh17  1  0.167326  0.334651  0.374943  1
  Rh  Rh18  1  0.000000  0.000000  0.250000  1
  Rh  Rh19  1  0.000000  0.000000  0.750000  1
  Rh  Rh20  1  0.333333  0.666667  0.250000  1
  Rh  Rh21  1  0.666667  0.333333  0.750000  1
  Rh  Rh22  1  0.000000  0.000000  0.999819  1
  Rh  Rh23  1  0.000000  0.000000  0.500181  1
