# generated using pymatgen
data_BeFe4P3W4
_symmetry_space_group_name_H-M   'P 1'
_cell_length_a   3.51813900
_cell_length_b   6.00367163
_cell_length_c   6.80784785
_cell_angle_alpha   90.25477232
_cell_angle_beta   90.00000000
_cell_angle_gamma   90.00000000
_symmetry_Int_Tables_number   1
_chemical_formula_structural   BeFe4P3W4
_chemical_formula_sum   'Be1 Fe4 P3 W4'
_cell_volume   143.79224757
_cell_formula_units_Z   1
loop_
 _symmetry_equiv_pos_site_id
 _symmetry_equiv_pos_as_xyz
  1  'x, y, z'
loop_
 _atom_site_type_symbol
 _atom_site_label
 _atom_site_symmetry_multiplicity
 _atom_site_fract_x
 _atom_site_fract_y
 _atom_site_fract_z
 _atom_site_occupancy
  Be  Be0  1  0.250000  0.277363  0.125318  1
  Fe  Fe1  1  0.250000  0.140391  0.443404  1
  Fe  Fe2  1  0.250000  0.648218  0.061723  1
  Fe  Fe3  1  0.750000  0.851129  0.562943  1
  Fe  Fe4  1  0.750000  0.356883  0.935219  1
  P  P5  1  0.250000  0.772825  0.373799  1
  P  P6  1  0.750000  0.723970  0.878982  1
  P  P7  1  0.750000  0.221242  0.621279  1
  W  W8  1  0.250000  0.032553  0.836338  1
  W  W9  1  0.250000  0.520220  0.673500  1
  W  W10  1  0.750000  0.990059  0.168782  1
  W  W11  1  0.750000  0.465146  0.318714  1
