# generated using pymatgen
data_LaPr15Mg3AlIr4
_symmetry_space_group_name_H-M   'P 1'
_cell_length_a   10.06803403
_cell_length_b   10.06803412
_cell_length_c   10.06803406
_cell_angle_alpha   59.91826576
_cell_angle_beta   59.91826031
_cell_angle_gamma   59.91826777
_symmetry_Int_Tables_number   1
_chemical_formula_structural   LaPr15Mg3AlIr4
_chemical_formula_sum   'La1 Pr15 Mg3 Al1 Ir4'
_cell_volume   720.29941247
_cell_formula_units_Z   1
loop_
 _symmetry_equiv_pos_site_id
 _symmetry_equiv_pos_as_xyz
  1  'x, y, z'
loop_
 _atom_site_type_symbol
 _atom_site_label
 _atom_site_symmetry_multiplicity
 _atom_site_fract_x
 _atom_site_fract_y
 _atom_site_fract_z
 _atom_site_occupancy
  La  La0  1  0.344636  0.344636  0.344636  1
  Pr  Pr1  1  0.349111  0.349111  0.955006  1
  Pr  Pr2  1  0.349111  0.955006  0.349111  1
  Pr  Pr3  1  0.955006  0.349111  0.349111  1
  Pr  Pr4  1  0.811424  0.188181  0.188181  1
  Pr  Pr5  1  0.191652  0.807357  0.807357  1
  Pr  Pr6  1  0.188181  0.811424  0.188181  1
  Pr  Pr7  1  0.807357  0.191652  0.807357  1
  Pr  Pr8  1  0.188181  0.188181  0.811424  1
  Pr  Pr9  1  0.807357  0.807357  0.191652  1
  Pr  Pr10  1  0.936196  0.562013  0.562013  1
  Pr  Pr11  1  0.560317  0.938535  0.938535  1
  Pr  Pr12  1  0.562013  0.936196  0.562013  1
  Pr  Pr13  1  0.938535  0.560317  0.938535  1
  Pr  Pr14  1  0.562013  0.562013  0.936196  1
  Pr  Pr15  1  0.938535  0.938535  0.560317  1
  Mg  Mg16  1  0.579024  0.579024  0.268650  1
  Mg  Mg17  1  0.579024  0.268650  0.579024  1
  Mg  Mg18  1  0.268650  0.579024  0.579024  1
  Al  Al19  1  0.581617  0.581617  0.581617  1
  Ir  Ir20  1  0.141710  0.141710  0.141710  1
  Ir  Ir21  1  0.142779  0.142779  0.574793  1
  Ir  Ir22  1  0.142779  0.574793  0.142779  1
  Ir  Ir23  1  0.574793  0.142779  0.142779  1
