# generated using pymatgen
data_YbFe4O5
_symmetry_space_group_name_H-M   'P 1'
_cell_length_a   5.43379929
_cell_length_b   5.43379913
_cell_length_c   6.97254418
_cell_angle_alpha   129.89784737
_cell_angle_beta   129.89785067
_cell_angle_gamma   49.68366812
_symmetry_Int_Tables_number   1
_chemical_formula_structural   YbFe4O5
_chemical_formula_sum   'Yb1 Fe4 O5'
_cell_volume   111.04236255
_cell_formula_units_Z   1
loop_
 _symmetry_equiv_pos_site_id
 _symmetry_equiv_pos_as_xyz
  1  'x, y, z'
loop_
 _atom_site_type_symbol
 _atom_site_label
 _atom_site_symmetry_multiplicity
 _atom_site_fract_x
 _atom_site_fract_y
 _atom_site_fract_z
 _atom_site_occupancy
  Yb  Yb0  1  0.000000  0.000000  0.000000  1
  Fe  Fe1  1  0.402545  0.402545  0.201832  1
  Fe  Fe2  1  0.797867  0.797867  0.395676  1
  Fe  Fe3  1  0.202133  0.202133  0.604323  1
  Fe  Fe4  1  0.597455  0.597455  0.798169  1
  O  O5  1  0.500000  0.500000  0.000000  1
  O  O6  1  0.884105  0.884105  0.195502  1
  O  O7  1  0.311314  0.311314  0.426993  1
  O  O8  1  0.688687  0.688687  0.573007  1
  O  O9  1  0.115895  0.115895  0.804498  1
