# generated using pymatgen
data_Sc8Cr(B8Os)3
_symmetry_space_group_name_H-M   'P 1'
_cell_length_a   3.47205800
_cell_length_b   8.88437808
_cell_length_c   11.19752810
_cell_angle_alpha   90.01529444
_cell_angle_beta   90.00000000
_cell_angle_gamma   90.00000000
_symmetry_Int_Tables_number   1
_chemical_formula_structural   Sc8Cr(B8Os)3
_chemical_formula_sum   'Sc8 Cr1 B24 Os3'
_cell_volume   345.41098783
_cell_formula_units_Z   1
loop_
 _symmetry_equiv_pos_site_id
 _symmetry_equiv_pos_as_xyz
  1  'x, y, z'
loop_
 _atom_site_type_symbol
 _atom_site_label
 _atom_site_symmetry_multiplicity
 _atom_site_fract_x
 _atom_site_fract_y
 _atom_site_fract_z
 _atom_site_occupancy
  Sc  Sc0  1  0.000000  0.818109  0.084612  1
  Sc  Sc1  1  0.000000  0.184068  0.911199  1
  Sc  Sc2  1  0.000000  0.319705  0.417786  1
  Sc  Sc3  1  0.000000  0.677313  0.587599  1
  Sc  Sc4  1  0.000000  0.444278  0.127182  1
  Sc  Sc5  1  0.000000  0.553938  0.871154  1
  Sc  Sc6  1  0.000000  0.943858  0.372876  1
  Sc  Sc7  1  0.000000  0.057726  0.627802  1
  Cr  Cr8  1  0.000000  0.360860  0.679915  1
  B  B9  1  0.500000  0.053164  0.064622  1
  B  B10  1  0.500000  0.946757  0.934775  1
  B  B11  1  0.500000  0.553047  0.435600  1
  B  B12  1  0.500000  0.446815  0.565910  1
  B  B13  1  0.500000  0.252074  0.078134  1
  B  B14  1  0.500000  0.747054  0.920769  1
  B  B15  1  0.500000  0.751611  0.421956  1
  B  B16  1  0.500000  0.248996  0.579553  1
  B  B17  1  0.500000  0.294265  0.236027  1
  B  B18  1  0.500000  0.705133  0.763939  1
  B  B19  1  0.500000  0.794348  0.264371  1
  B  B20  1  0.500000  0.206433  0.735335  1
  B  B21  1  0.500000  0.130440  0.318129  1
  B  B22  1  0.500000  0.870158  0.682669  1
  B  B23  1  0.500000  0.630156  0.181950  1
  B  B24  1  0.500000  0.370129  0.816532  1
  B  B25  1  0.500000  0.479576  0.287495  1
  B  B26  1  0.500000  0.519737  0.712207  1
  B  B27  1  0.500000  0.979505  0.212673  1
  B  B28  1  0.500000  0.021193  0.787028  1
  B  B29  1  0.500000  0.101307  0.472545  1
  B  B30  1  0.500000  0.899048  0.528059  1
  B  B31  1  0.500000  0.601037  0.027498  1
  B  B32  1  0.500000  0.398629  0.971811  1
  Os  Os33  1  0.000000  0.138690  0.179718  1
  Os  Os34  1  0.000000  0.861366  0.820929  1
  Os  Os35  1  0.000000  0.639476  0.319640  1
