# generated using pymatgen
data_Ba2FeCo3As4
_symmetry_space_group_name_H-M   'P 1'
_cell_length_a   5.59276500
_cell_length_b   6.98076214
_cell_length_c   5.58350509
_cell_angle_alpha   66.34428303
_cell_angle_beta   89.99625764
_cell_angle_gamma   89.99910491
_symmetry_Int_Tables_number   1
_chemical_formula_structural   Ba2FeCo3As4
_chemical_formula_sum   'Ba2 Fe1 Co3 As4'
_cell_volume   199.67283761
_cell_formula_units_Z   1
loop_
 _symmetry_equiv_pos_site_id
 _symmetry_equiv_pos_as_xyz
  1  'x, y, z'
loop_
 _atom_site_type_symbol
 _atom_site_label
 _atom_site_symmetry_multiplicity
 _atom_site_fract_x
 _atom_site_fract_y
 _atom_site_fract_z
 _atom_site_occupancy
  Ba  Ba0  1  0.998947  0.000013  0.999960  1
  Ba  Ba1  1  0.501017  0.000007  0.500039  1
  Fe  Fe2  1  0.250127  0.499966  0.500011  1
  Co  Co3  1  0.250146  0.500033  0.999969  1
  Co  Co4  1  0.749809  0.499947  0.000050  1
  Co  Co5  1  0.749895  0.500062  0.499965  1
  As  As6  1  0.498736  0.694530  0.153453  1
  As  As7  1  0.001275  0.694024  0.651575  1
  As  As8  1  0.001284  0.305952  0.348430  1
  As  As9  1  0.498766  0.305465  0.846547  1
