# generated using pymatgen
data_Sr2In4PdRh
_symmetry_space_group_name_H-M   'P 1'
_cell_length_a   5.93375441
_cell_length_b   5.93375551
_cell_length_c   8.16350700
_cell_angle_alpha   90.00000000
_cell_angle_beta   90.00000000
_cell_angle_gamma   135.79773269
_symmetry_Int_Tables_number   1
_chemical_formula_structural   Sr2In4PdRh
_chemical_formula_sum   'Sr2 In4 Pd1 Rh1'
_cell_volume   200.39611481
_cell_formula_units_Z   1
loop_
 _symmetry_equiv_pos_site_id
 _symmetry_equiv_pos_as_xyz
  1  'x, y, z'
loop_
 _atom_site_type_symbol
 _atom_site_label
 _atom_site_symmetry_multiplicity
 _atom_site_fract_x
 _atom_site_fract_y
 _atom_site_fract_z
 _atom_site_occupancy
  Sr  Sr0  1  0.940100  0.059900  0.750000  1
  Sr  Sr1  1  0.059531  0.940469  0.250000  1
  In  In2  1  0.653590  0.346410  0.948931  1
  In  In3  1  0.346161  0.653839  0.056320  1
  In  In4  1  0.346161  0.653839  0.443680  1
  In  In5  1  0.653590  0.346410  0.551069  1
  Pd  Pd6  1  0.219728  0.780272  0.750000  1
  Rh  Rh7  1  0.781140  0.218860  0.250000  1
