# generated using pymatgen
data_LaPr2Tm(MoO6)2
_symmetry_space_group_name_H-M   'P 1'
_cell_length_a   10.25517282
_cell_length_b   10.25517283
_cell_length_c   5.53366648
_cell_angle_alpha   75.01714030
_cell_angle_beta   75.01713614
_cell_angle_gamma   68.64828660
_symmetry_Int_Tables_number   1
_chemical_formula_structural   LaPr2Tm(MoO6)2
_chemical_formula_sum   'La2 Pr4 Tm2 Mo4 O24'
_cell_volume   514.78056391
_cell_formula_units_Z   2
loop_
 _symmetry_equiv_pos_site_id
 _symmetry_equiv_pos_as_xyz
  1  'x, y, z'
loop_
 _atom_site_type_symbol
 _atom_site_label
 _atom_site_symmetry_multiplicity
 _atom_site_fract_x
 _atom_site_fract_y
 _atom_site_fract_z
 _atom_site_occupancy
  La  La0  1  0.639653  0.360347  0.750000  1
  La  La1  1  0.360347  0.639653  0.250000  1
  Pr  Pr2  1  0.713850  0.946675  0.878143  1
  Pr  Pr3  1  0.286150  0.053325  0.121857  1
  Pr  Pr4  1  0.053325  0.286150  0.621857  1
  Pr  Pr5  1  0.946675  0.713850  0.378143  1
  Tm  Tm6  1  0.097477  0.902523  0.750000  1
  Tm  Tm7  1  0.902523  0.097477  0.250000  1
  Mo  Mo8  1  0.506169  0.799335  0.567528  1
  Mo  Mo9  1  0.493831  0.200665  0.432472  1
  Mo  Mo10  1  0.200665  0.493831  0.932472  1
  Mo  Mo11  1  0.799335  0.506169  0.067528  1
  O  O12  1  0.697575  0.160253  0.549308  1
  O  O13  1  0.302425  0.839747  0.450692  1
  O  O14  1  0.839747  0.302425  0.950692  1
  O  O15  1  0.160253  0.697575  0.049308  1
  O  O16  1  0.391507  0.832394  0.878652  1
  O  O17  1  0.608493  0.167606  0.121348  1
  O  O18  1  0.167606  0.608493  0.621348  1
  O  O19  1  0.832394  0.391507  0.378652  1
  O  O20  1  0.676981  0.791032  0.629951  1
  O  O21  1  0.323019  0.208968  0.370049  1
  O  O22  1  0.208968  0.323019  0.870049  1
  O  O23  1  0.791032  0.676981  0.129951  1
  O  O24  1  0.477973  0.074349  0.736264  1
  O  O25  1  0.522027  0.925651  0.263736  1
  O  O26  1  0.925651  0.522027  0.763736  1
  O  O27  1  0.074349  0.477973  0.236264  1
  O  O28  1  0.542428  0.619560  0.524023  1
  O  O29  1  0.457572  0.380440  0.475977  1
  O  O30  1  0.380440  0.457572  0.975977  1
  O  O31  1  0.619560  0.542428  0.024023  1
  O  O32  1  0.895128  0.932552  0.072448  1
  O  O33  1  0.104872  0.067448  0.927552  1
  O  O34  1  0.067448  0.104872  0.427552  1
  O  O35  1  0.932552  0.895128  0.572448  1
