# generated using pymatgen
data_NdDy4(In2Rh)2
_symmetry_space_group_name_H-M   'P 1'
_cell_length_a   3.66616900
_cell_length_b   8.03203900
_cell_length_c   18.44093500
_cell_angle_alpha   90.00000000
_cell_angle_beta   90.00000000
_cell_angle_gamma   90.00000000
_symmetry_Int_Tables_number   1
_chemical_formula_structural   NdDy4(In2Rh)2
_chemical_formula_sum   'Nd2 Dy8 In8 Rh4'
_cell_volume   543.02675322
_cell_formula_units_Z   2
loop_
 _symmetry_equiv_pos_site_id
 _symmetry_equiv_pos_as_xyz
  1  'x, y, z'
loop_
 _atom_site_type_symbol
 _atom_site_label
 _atom_site_symmetry_multiplicity
 _atom_site_fract_x
 _atom_site_fract_y
 _atom_site_fract_z
 _atom_site_occupancy
  Nd  Nd0  1  0.500000  0.500000  0.000000  1
  Nd  Nd1  1  0.500000  0.000000  0.500000  1
  Dy  Dy2  1  0.500000  0.382557  0.589023  1
  Dy  Dy3  1  0.500000  0.882557  0.910977  1
  Dy  Dy4  1  0.500000  0.117443  0.089023  1
  Dy  Dy5  1  0.500000  0.753173  0.721384  1
  Dy  Dy6  1  0.500000  0.253173  0.778616  1
  Dy  Dy7  1  0.500000  0.746827  0.221384  1
  Dy  Dy8  1  0.500000  0.246827  0.278616  1
  Dy  Dy9  1  0.500000  0.617443  0.410977  1
  In  In10  1  0.000000  0.796161  0.069992  1
  In  In11  1  0.000000  0.927828  0.347736  1
  In  In12  1  0.000000  0.072172  0.652264  1
  In  In13  1  0.000000  0.572172  0.847736  1
  In  In14  1  0.000000  0.703839  0.569992  1
  In  In15  1  0.000000  0.203839  0.930008  1
  In  In16  1  0.000000  0.296161  0.430008  1
  In  In17  1  0.000000  0.427828  0.152264  1
  Rh  Rh18  1  0.000000  0.976606  0.805418  1
  Rh  Rh19  1  0.000000  0.523394  0.305418  1
  Rh  Rh20  1  0.000000  0.476606  0.694582  1
  Rh  Rh21  1  0.000000  0.023394  0.194582  1
