# generated using pymatgen
data_La3Nd2Bi3O14
_symmetry_space_group_name_H-M   'P 1'
_cell_length_a   6.80118310
_cell_length_b   6.87872820
_cell_length_c   8.00557843
_cell_angle_alpha   106.61172025
_cell_angle_beta   89.71913869
_cell_angle_gamma   97.96135226
_symmetry_Int_Tables_number   1
_chemical_formula_structural   La3Nd2Bi3O14
_chemical_formula_sum   'La3 Nd2 Bi3 O14'
_cell_volume   355.20084971
_cell_formula_units_Z   1
loop_
 _symmetry_equiv_pos_site_id
 _symmetry_equiv_pos_as_xyz
  1  'x, y, z'
loop_
 _atom_site_type_symbol
 _atom_site_label
 _atom_site_symmetry_multiplicity
 _atom_site_fract_x
 _atom_site_fract_y
 _atom_site_fract_z
 _atom_site_occupancy
  La  La0  1  0.266167  0.528316  0.881075  1
  La  La1  1  0.745376  0.465383  0.117137  1
  La  La2  1  0.753921  0.486266  0.619124  1
  Nd  Nd3  1  0.455869  0.008255  0.255007  1
  Nd  Nd4  1  0.538518  0.002226  0.750200  1
  Bi  Bi5  1  0.993296  0.998671  0.499623  1
  Bi  Bi6  1  0.998290  0.995109  0.997329  1
  Bi  Bi7  1  0.291642  0.539957  0.390631  1
  O  O8  1  0.443027  0.649890  0.176126  1
  O  O9  1  0.561838  0.358846  0.835889  1
  O  O10  1  0.295761  0.926874  0.953827  1
  O  O11  1  0.702247  0.066010  0.047858  1
  O  O12  1  0.289525  0.928114  0.513904  1
  O  O13  1  0.703130  0.081472  0.491574  1
  O  O14  1  0.543776  0.363231  0.344651  1
  O  O15  1  0.458501  0.642110  0.649836  1
  O  O16  1  0.925424  0.669470  0.946139  1
  O  O17  1  0.070573  0.312751  0.026754  1
  O  O18  1  0.071743  0.323933  0.622702  1
  O  O19  1  0.904577  0.676440  0.386674  1
  O  O20  1  0.882476  0.913023  0.728521  1
  O  O21  1  0.104322  0.063652  0.265420  1
