# generated using pymatgen
data_Nd16Cd2CoHg2Pt3
_symmetry_space_group_name_H-M   'P 1'
_cell_length_a   9.92511933
_cell_length_b   9.92511908
_cell_length_c   9.94732633
_cell_angle_alpha   60.15675205
_cell_angle_beta   60.15675314
_cell_angle_gamma   60.14186074
_symmetry_Int_Tables_number   1
_chemical_formula_structural   Nd16Cd2CoHg2Pt3
_chemical_formula_sum   'Nd16 Cd2 Co1 Hg2 Pt3'
_cell_volume   695.26986617
_cell_formula_units_Z   1
loop_
 _symmetry_equiv_pos_site_id
 _symmetry_equiv_pos_as_xyz
  1  'x, y, z'
loop_
 _atom_site_type_symbol
 _atom_site_label
 _atom_site_symmetry_multiplicity
 _atom_site_fract_x
 _atom_site_fract_y
 _atom_site_fract_z
 _atom_site_occupancy
  Nd  Nd0  1  0.351568  0.351568  0.350799  1
  Nd  Nd1  1  0.346447  0.346447  0.950814  1
  Nd  Nd2  1  0.347247  0.949088  0.346745  1
  Nd  Nd3  1  0.949088  0.347247  0.346745  1
  Nd  Nd4  1  0.819788  0.188868  0.189948  1
  Nd  Nd5  1  0.190455  0.808494  0.808766  1
  Nd  Nd6  1  0.188868  0.819788  0.189948  1
  Nd  Nd7  1  0.808494  0.190455  0.808766  1
  Nd  Nd8  1  0.188861  0.188861  0.820140  1
  Nd  Nd9  1  0.807746  0.807746  0.191697  1
  Nd  Nd10  1  0.938024  0.561898  0.562367  1
  Nd  Nd11  1  0.561925  0.935240  0.936405  1
  Nd  Nd12  1  0.561898  0.938024  0.562367  1
  Nd  Nd13  1  0.935240  0.561925  0.936405  1
  Nd  Nd14  1  0.561722  0.561722  0.939435  1
  Nd  Nd15  1  0.935523  0.935523  0.562724  1
  Cd  Cd16  1  0.580219  0.258655  0.581196  1
  Cd  Cd17  1  0.258655  0.580219  0.581196  1
  Co  Co18  1  0.142706  0.142706  0.142663  1
  Hg  Hg19  1  0.582825  0.582825  0.584764  1
  Hg  Hg20  1  0.583908  0.583908  0.247531  1
  Pt  Pt21  1  0.143713  0.143713  0.571011  1
  Pt  Pt22  1  0.143670  0.571406  0.143783  1
  Pt  Pt23  1  0.571406  0.143670  0.143783  1
