# generated using pymatgen
data_BaNaMnCo3P4
_symmetry_space_group_name_H-M   'P 1'
_cell_length_a   6.77690069
_cell_length_b   6.76661317
_cell_length_c   5.30579100
_cell_angle_alpha   90.00000000
_cell_angle_beta   90.00000000
_cell_angle_gamma   133.90100407
_symmetry_Int_Tables_number   1
_chemical_formula_structural   BaNaMnCo3P4
_chemical_formula_sum   'Ba1 Na1 Mn1 Co3 P4'
_cell_volume   175.31136789
_cell_formula_units_Z   1
loop_
 _symmetry_equiv_pos_site_id
 _symmetry_equiv_pos_as_xyz
  1  'x, y, z'
loop_
 _atom_site_type_symbol
 _atom_site_label
 _atom_site_symmetry_multiplicity
 _atom_site_fract_x
 _atom_site_fract_y
 _atom_site_fract_z
 _atom_site_occupancy
  Ba  Ba0  1  0.500000  0.500000  0.502401  1
  Na  Na1  1  0.000000  0.000000  0.999446  1
  Mn  Mn2  1  0.000000  0.500000  0.248618  1
  Co  Co3  1  0.500000  0.000000  0.750695  1
  Co  Co4  1  0.000000  0.500000  0.750369  1
  Co  Co5  1  0.500000  0.000000  0.249609  1
  P  P6  1  0.341829  0.653552  0.001896  1
  P  P7  1  0.845894  0.158638  0.497535  1
  P  P8  1  0.154106  0.841362  0.497535  1
  P  P9  1  0.658171  0.346448  0.001896  1
