# generated using pymatgen
data_Tb3Dy3RhI10
_symmetry_space_group_name_H-M   'P 1'
_cell_length_a   7.75705961
_cell_length_b   9.76194346
_cell_length_c   9.74033361
_cell_angle_alpha   106.82190024
_cell_angle_beta   96.61156978
_cell_angle_gamma   104.40405093
_symmetry_Int_Tables_number   1
_chemical_formula_structural   Tb3Dy3RhI10
_chemical_formula_sum   'Tb3 Dy3 Rh1 I10'
_cell_volume   669.74816494
_cell_formula_units_Z   1
loop_
 _symmetry_equiv_pos_site_id
 _symmetry_equiv_pos_as_xyz
  1  'x, y, z'
loop_
 _atom_site_type_symbol
 _atom_site_label
 _atom_site_symmetry_multiplicity
 _atom_site_fract_x
 _atom_site_fract_y
 _atom_site_fract_z
 _atom_site_occupancy
  Tb  Tb0  1  0.846716  0.624781  0.666314  1
  Tb  Tb1  1  0.614233  0.543289  0.264473  1
  Tb  Tb2  1  0.384871  0.456211  0.734970  1
  Dy  Dy3  1  0.531824  0.214117  0.414517  1
  Dy  Dy4  1  0.467611  0.785787  0.585090  1
  Dy  Dy5  1  0.154905  0.375916  0.334639  1
  Rh  Rh6  1  0.499995  0.499988  0.499863  1
  I  I7  1  0.153343  0.051266  0.227096  1
  I  I8  1  0.845744  0.949788  0.772911  1
  I  I9  1  0.245397  0.413335  0.039630  1
  I  I10  1  0.753385  0.586190  0.960856  1
  I  I11  1  0.726754  0.246822  0.156481  1
  I  I12  1  0.276037  0.753926  0.844772  1
  I  I13  1  0.045106  0.683649  0.407198  1
  I  I14  1  0.954846  0.315259  0.591593  1
  I  I15  1  0.412932  0.125306  0.678918  1
  I  I16  1  0.586303  0.874368  0.320680  1
