# generated using pymatgen
data_CdBiPO5
_symmetry_space_group_name_H-M   'P 1'
_cell_length_a   5.52139503
_cell_length_b   6.97637484
_cell_length_c   6.97853285
_cell_angle_alpha   109.74791705
_cell_angle_beta   106.41035279
_cell_angle_gamma   99.66146698
_symmetry_Int_Tables_number   1
_chemical_formula_structural   CdBiPO5
_chemical_formula_sum   'Cd2 Bi2 P2 O10'
_cell_volume   232.14441422
_cell_formula_units_Z   2
loop_
 _symmetry_equiv_pos_site_id
 _symmetry_equiv_pos_as_xyz
  1  'x, y, z'
loop_
 _atom_site_type_symbol
 _atom_site_label
 _atom_site_symmetry_multiplicity
 _atom_site_fract_x
 _atom_site_fract_y
 _atom_site_fract_z
 _atom_site_occupancy
  Cd  Cd0  1  0.832987  0.883683  0.200300  1
  Cd  Cd1  1  0.167013  0.116317  0.799699  1
  Bi  Bi2  1  0.381329  0.729205  0.442441  1
  Bi  Bi3  1  0.618672  0.270796  0.557560  1
  P  P4  1  0.830836  0.328332  0.124665  1
  P  P5  1  0.169164  0.671668  0.875336  1
  O  O6  1  0.381925  0.713427  0.099053  1
  O  O7  1  0.080291  0.265802  0.102779  1
  O  O8  1  0.697917  0.190143  0.224399  1
  O  O9  1  0.912662  0.570076  0.279103  1
  O  O10  1  0.246455  0.002020  0.461537  1
  O  O11  1  0.753544  0.997980  0.538462  1
  O  O12  1  0.087339  0.429925  0.720898  1
  O  O13  1  0.302080  0.809856  0.775601  1
  O  O14  1  0.919711  0.734196  0.897221  1
  O  O15  1  0.618073  0.286573  0.900946  1
