# generated using pymatgen
data_Ho2Tm3(TcO6)2
_symmetry_space_group_name_H-M   'P 1'
_cell_length_a   6.75417541
_cell_length_b   6.75417473
_cell_length_c   7.45246630
_cell_angle_alpha   73.90540413
_cell_angle_beta   73.90540255
_cell_angle_gamma   49.33244240
_symmetry_Int_Tables_number   1
_chemical_formula_structural   Ho2Tm3(TcO6)2
_chemical_formula_sum   'Ho2 Tm3 Tc2 O12'
_cell_volume   245.57898103
_cell_formula_units_Z   1
loop_
 _symmetry_equiv_pos_site_id
 _symmetry_equiv_pos_as_xyz
  1  'x, y, z'
loop_
 _atom_site_type_symbol
 _atom_site_label
 _atom_site_symmetry_multiplicity
 _atom_site_fract_x
 _atom_site_fract_y
 _atom_site_fract_z
 _atom_site_occupancy
  Ho  Ho0  1  0.804053  0.804053  0.357790  1
  Ho  Ho1  1  0.195947  0.195947  0.642210  1
  Tm  Tm2  1  0.184250  0.184250  0.176805  1
  Tm  Tm3  1  0.815750  0.815750  0.823195  1
  Tm  Tm4  1  0.500000  0.500000  0.500000  1
  Tc  Tc5  1  0.286015  0.713985  0.000000  1
  Tc  Tc6  1  0.713985  0.286015  0.000000  1
  O  O7  1  0.414726  0.917858  0.915394  1
  O  O8  1  0.082142  0.585274  0.084606  1
  O  O9  1  0.585274  0.082142  0.084606  1
  O  O10  1  0.917858  0.414726  0.915394  1
  O  O11  1  0.599461  0.095190  0.574725  1
  O  O12  1  0.904810  0.400539  0.425275  1
  O  O13  1  0.400539  0.904810  0.425275  1
  O  O14  1  0.000143  0.000143  0.820243  1
  O  O15  1  0.999857  0.999857  0.179757  1
  O  O16  1  0.498491  0.498491  0.793442  1
  O  O17  1  0.501509  0.501509  0.206558  1
  O  O18  1  0.095190  0.599461  0.574725  1
