# generated using pymatgen
data_BaNpF6
_symmetry_space_group_name_H-M   'P 1'
_cell_length_a   5.53673900
_cell_length_b   7.33626321
_cell_length_c   7.33626321
_cell_angle_alpha   67.15316225
_cell_angle_beta   90.00000000
_cell_angle_gamma   90.00000000
_symmetry_Int_Tables_number   1
_chemical_formula_structural   BaNpF6
_chemical_formula_sum   'Ba2 Np2 F12'
_cell_volume   274.61288287
_cell_formula_units_Z   2
loop_
 _symmetry_equiv_pos_site_id
 _symmetry_equiv_pos_as_xyz
  1  'x, y, z'
loop_
 _atom_site_type_symbol
 _atom_site_label
 _atom_site_symmetry_multiplicity
 _atom_site_fract_x
 _atom_site_fract_y
 _atom_site_fract_z
 _atom_site_occupancy
  Ba  Ba0  1  0.441254  0.250000  0.250000  1
  Ba  Ba1  1  0.558745  0.750000  0.750000  1
  Np  Np2  1  0.000000  0.750000  0.250000  1
  Np  Np3  1  0.000000  0.250000  0.750000  1
  F  F4  1  0.253463  0.671763  0.059072  1
  F  F5  1  0.175727  0.065431  0.065431  1
  F  F6  1  0.746538  0.559072  0.171763  1
  F  F7  1  0.746538  0.940928  0.328237  1
  F  F8  1  0.175727  0.434569  0.434569  1
  F  F9  1  0.253463  0.828237  0.440928  1
  F  F10  1  0.746538  0.171763  0.559072  1
  F  F11  1  0.824272  0.565431  0.565431  1
  F  F12  1  0.253463  0.059072  0.671763  1
  F  F13  1  0.253463  0.440928  0.828237  1
  F  F14  1  0.824272  0.934569  0.934569  1
  F  F15  1  0.746538  0.328237  0.940928  1
