# generated using pymatgen
data_LiLa7SmPt6
_symmetry_space_group_name_H-M   'P 1'
_cell_length_a   7.82020053
_cell_length_b   7.82020041
_cell_length_c   7.82020035
_cell_angle_alpha   70.18717052
_cell_angle_beta   70.18717212
_cell_angle_gamma   70.18717410
_symmetry_Int_Tables_number   1
_chemical_formula_structural   LiLa7SmPt6
_chemical_formula_sum   'Li1 La7 Sm1 Pt6'
_cell_volume   409.51665637
_cell_formula_units_Z   1
loop_
 _symmetry_equiv_pos_site_id
 _symmetry_equiv_pos_as_xyz
  1  'x, y, z'
loop_
 _atom_site_type_symbol
 _atom_site_label
 _atom_site_symmetry_multiplicity
 _atom_site_fract_x
 _atom_site_fract_y
 _atom_site_fract_z
 _atom_site_occupancy
  Li  Li0  1  0.999044  0.999044  0.999044  1
  La  La1  1  0.186447  0.186447  0.186447  1
  La  La2  1  0.317387  0.616071  0.854695  1
  La  La3  1  0.854695  0.317387  0.616071  1
  La  La4  1  0.616071  0.854695  0.317387  1
  La  La5  1  0.681787  0.387252  0.143307  1
  La  La6  1  0.143307  0.681787  0.387252  1
  La  La7  1  0.387252  0.143307  0.681787  1
  Sm  Sm8  1  0.814939  0.814939  0.814939  1
  Pt  Pt9  1  0.176762  0.953226  0.579158  1
  Pt  Pt10  1  0.579158  0.176762  0.953226  1
  Pt  Pt11  1  0.953226  0.579158  0.176762  1
  Pt  Pt12  1  0.820404  0.044068  0.425454  1
  Pt  Pt13  1  0.425454  0.820404  0.044068  1
  Pt  Pt14  1  0.044068  0.425454  0.820404  1
