# generated using pymatgen
data_Dy10Sn6PCl
_symmetry_space_group_name_H-M   'P 1'
_cell_length_a   9.07841200
_cell_length_b   9.07841214
_cell_length_c   6.67627100
_cell_angle_alpha   90.00000000
_cell_angle_beta   90.00000000
_cell_angle_gamma   120.00000678
_symmetry_Int_Tables_number   1
_chemical_formula_structural   Dy10Sn6PCl
_chemical_formula_sum   'Dy10 Sn6 P1 Cl1'
_cell_volume   476.52352089
_cell_formula_units_Z   1
loop_
 _symmetry_equiv_pos_site_id
 _symmetry_equiv_pos_as_xyz
  1  'x, y, z'
loop_
 _atom_site_type_symbol
 _atom_site_label
 _atom_site_symmetry_multiplicity
 _atom_site_fract_x
 _atom_site_fract_y
 _atom_site_fract_z
 _atom_site_occupancy
  Dy  Dy0  1  0.249403  0.249403  0.762910  1
  Dy  Dy1  1  0.000000  0.750597  0.762910  1
  Dy  Dy2  1  0.750597  0.000000  0.762910  1
  Dy  Dy3  1  0.000000  0.249403  0.237090  1
  Dy  Dy4  1  0.333333  0.666667  0.500000  1
  Dy  Dy5  1  0.750597  0.750597  0.237090  1
  Dy  Dy6  1  0.666667  0.333333  0.500000  1
  Dy  Dy7  1  0.249403  0.000000  0.237090  1
  Dy  Dy8  1  0.333333  0.666667  0.000000  1
  Dy  Dy9  1  0.666667  0.333333  0.000000  1
  Sn  Sn10  1  0.604678  0.000000  0.250280  1
  Sn  Sn11  1  0.000000  0.395322  0.749720  1
  Sn  Sn12  1  0.395322  0.000000  0.749720  1
  Sn  Sn13  1  0.604678  0.604678  0.749720  1
  Sn  Sn14  1  0.000000  0.604678  0.250280  1
  Sn  Sn15  1  0.395322  0.395322  0.250280  1
  P  P16  1  0.000000  0.000000  0.000000  1
  Cl  Cl17  1  0.000000  0.000000  0.500000  1
