# generated using pymatgen
data_TbDy4(TcO6)2
_symmetry_space_group_name_H-M   'P 1'
_cell_length_a   6.83828584
_cell_length_b   6.83828605
_cell_length_c   7.54436806
_cell_angle_alpha   73.77422794
_cell_angle_beta   73.77422654
_cell_angle_gamma   49.02902659
_symmetry_Int_Tables_number   1
_chemical_formula_structural   TbDy4(TcO6)2
_chemical_formula_sum   'Tb1 Dy4 Tc2 O12'
_cell_volume   253.49949013
_cell_formula_units_Z   1
loop_
 _symmetry_equiv_pos_site_id
 _symmetry_equiv_pos_as_xyz
  1  'x, y, z'
loop_
 _atom_site_type_symbol
 _atom_site_label
 _atom_site_symmetry_multiplicity
 _atom_site_fract_x
 _atom_site_fract_y
 _atom_site_fract_z
 _atom_site_occupancy
  Tb  Tb0  1  0.195253  0.195253  0.642546  1
  Dy  Dy1  1  0.184336  0.184336  0.175924  1
  Dy  Dy2  1  0.500039  0.500039  0.499947  1
  Dy  Dy3  1  0.804659  0.804659  0.357507  1
  Dy  Dy4  1  0.815671  0.815671  0.824104  1
  Tc  Tc5  1  0.713922  0.286028  0.000075  1
  Tc  Tc6  1  0.286028  0.713922  0.000075  1
  O  O7  1  0.414078  0.914966  0.916173  1
  O  O8  1  0.914966  0.414078  0.916173  1
  O  O9  1  0.905356  0.402542  0.425530  1
  O  O10  1  0.402542  0.905356  0.425530  1
  O  O11  1  0.501815  0.501815  0.203898  1
  O  O12  1  0.998813  0.998813  0.177847  1
  O  O13  1  0.000867  0.000867  0.822536  1
  O  O14  1  0.498170  0.498170  0.796043  1
  O  O15  1  0.084676  0.586175  0.084213  1
  O  O16  1  0.586175  0.084676  0.084213  1
  O  O17  1  0.093933  0.598700  0.573833  1
  O  O18  1  0.598700  0.093933  0.573833  1
