# generated using pymatgen
data_LiDy3In3AgIr
_symmetry_space_group_name_H-M   'P 1'
_cell_length_a   7.93822800
_cell_length_b   7.93822877
_cell_length_c   3.72611900
_cell_angle_alpha   90.00000000
_cell_angle_beta   90.00000000
_cell_angle_gamma   119.99999678
_symmetry_Int_Tables_number   1
_chemical_formula_structural   LiDy3In3AgIr
_chemical_formula_sum   'Li1 Dy3 In3 Ag1 Ir1'
_cell_volume   203.34549046
_cell_formula_units_Z   1
loop_
 _symmetry_equiv_pos_site_id
 _symmetry_equiv_pos_as_xyz
  1  'x, y, z'
loop_
 _atom_site_type_symbol
 _atom_site_label
 _atom_site_symmetry_multiplicity
 _atom_site_fract_x
 _atom_site_fract_y
 _atom_site_fract_z
 _atom_site_occupancy
  Li  Li0  1  0.000000  0.000000  0.000000  1
  Dy  Dy1  1  0.576352  0.606866  0.000000  1
  Dy  Dy2  1  0.393134  0.969486  0.000000  1
  Dy  Dy3  1  0.030514  0.423648  0.000000  1
  In  In4  1  0.992966  0.735763  0.500000  1
  In  In5  1  0.264237  0.257204  0.500000  1
  In  In6  1  0.742796  0.007034  0.500000  1
  Ag  Ag7  1  0.666667  0.333333  0.500000  1
  Ir  Ir8  1  0.333333  0.666667  0.500000  1
