# generated using pymatgen
data_Tb7Sn23(OsRu)3
_symmetry_space_group_name_H-M   'P 1'
_cell_length_a   9.86848602
_cell_length_b   9.87668279
_cell_length_c   10.12244889
_cell_angle_alpha   90.04887577
_cell_angle_beta   89.82286249
_cell_angle_gamma   119.99674064
_symmetry_Int_Tables_number   1
_chemical_formula_structural   Tb7Sn23(OsRu)3
_chemical_formula_sum   'Tb7 Sn23 Os3 Ru3'
_cell_volume   854.45640324
_cell_formula_units_Z   1
loop_
 _symmetry_equiv_pos_site_id
 _symmetry_equiv_pos_as_xyz
  1  'x, y, z'
loop_
 _atom_site_type_symbol
 _atom_site_label
 _atom_site_symmetry_multiplicity
 _atom_site_fract_x
 _atom_site_fract_y
 _atom_site_fract_z
 _atom_site_occupancy
  Tb  Tb0  1  0.999769  0.999391  0.000436  1
  Tb  Tb1  1  0.484657  0.515934  0.302536  1
  Tb  Tb2  1  0.515838  0.484251  0.697276  1
  Tb  Tb3  1  0.484579  0.968681  0.302385  1
  Tb  Tb4  1  0.515359  0.031236  0.697531  1
  Tb  Tb5  1  0.031149  0.515626  0.302356  1
  Tb  Tb6  1  0.968408  0.484466  0.697496  1
  Sn  Sn7  1  0.349242  0.000178  0.000613  1
  Sn  Sn8  1  0.650816  0.999847  0.999281  1
  Sn  Sn9  1  0.000106  0.348983  0.999382  1
  Sn  Sn10  1  0.999991  0.650527  0.999927  1
  Sn  Sn11  1  0.650812  0.650916  0.999307  1
  Sn  Sn12  1  0.348685  0.348652  0.000020  1
  Sn  Sn13  1  0.333328  0.666404  0.821984  1
  Sn  Sn14  1  0.666478  0.333161  0.177163  1
  Sn  Sn15  1  0.000153  0.000271  0.500279  1
  Sn  Sn16  1  0.780546  0.219507  0.462717  1
  Sn  Sn17  1  0.219580  0.780621  0.537388  1
  Sn  Sn18  1  0.780366  0.561261  0.462709  1
  Sn  Sn19  1  0.219609  0.438740  0.537855  1
  Sn  Sn20  1  0.438781  0.219729  0.462168  1
  Sn  Sn21  1  0.561279  0.780504  0.537965  1
  Sn  Sn22  1  0.333412  0.666483  0.126472  1
  Sn  Sn23  1  0.666363  0.333249  0.873437  1
  Sn  Sn24  1  0.118305  0.882532  0.273655  1
  Sn  Sn25  1  0.882395  0.118078  0.726889  1
  Sn  Sn26  1  0.118292  0.235988  0.273750  1
  Sn  Sn27  1  0.881706  0.764246  0.726306  1
  Sn  Sn28  1  0.764310  0.882239  0.274515  1
  Sn  Sn29  1  0.235676  0.118458  0.726058  1
  Os  Os30  1  0.829749  0.169657  0.202110  1
  Os  Os31  1  0.170277  0.830299  0.797829  1
  Os  Os32  1  0.829669  0.660026  0.202137  1
  Ru  Ru33  1  0.170279  0.339901  0.798165  1
  Ru  Ru34  1  0.339579  0.169778  0.201939  1
  Ru  Ru35  1  0.660459  0.830180  0.797962  1
