# generated using pymatgen
data_CaTm3Ni4(SnH)4
_symmetry_space_group_name_H-M   'P 1'
_cell_length_a   4.23571000
_cell_length_b   7.06886041
_cell_length_c   8.22637921
_cell_angle_alpha   89.87152244
_cell_angle_beta   90.00000000
_cell_angle_gamma   90.00000000
_symmetry_Int_Tables_number   1
_chemical_formula_structural   CaTm3Ni4(SnH)4
_chemical_formula_sum   'Ca1 Tm3 Ni4 Sn4 H4'
_cell_volume   246.31068797
_cell_formula_units_Z   1
loop_
 _symmetry_equiv_pos_site_id
 _symmetry_equiv_pos_as_xyz
  1  'x, y, z'
loop_
 _atom_site_type_symbol
 _atom_site_label
 _atom_site_symmetry_multiplicity
 _atom_site_fract_x
 _atom_site_fract_y
 _atom_site_fract_z
 _atom_site_occupancy
  Ca  Ca0  1  0.750000  0.517198  0.813758  1
  Tm  Tm1  1  0.250000  0.484192  0.182296  1
  Tm  Tm2  1  0.250000  0.983179  0.314574  1
  Tm  Tm3  1  0.750000  0.016040  0.685499  1
  Ni  Ni4  1  0.750000  0.268047  0.387522  1
  Ni  Ni5  1  0.250000  0.735966  0.603906  1
  Ni  Ni6  1  0.250000  0.224473  0.890130  1
  Ni  Ni7  1  0.750000  0.771505  0.116591  1
  Sn  Sn8  1  0.750000  0.153584  0.069370  1
  Sn  Sn9  1  0.250000  0.845605  0.931897  1
  Sn  Sn10  1  0.250000  0.345505  0.566792  1
  Sn  Sn11  1  0.750000  0.654074  0.429545  1
  H  H12  1  0.250000  0.957537  0.577521  1
  H  H13  1  0.750000  0.047623  0.422038  1
  H  H14  1  0.750000  0.550795  0.083925  1
  H  H15  1  0.250000  0.444678  0.924635  1
