# generated using pymatgen
data_Nd12Cd2Tc3
_symmetry_space_group_name_H-M   'P 1'
_cell_length_a   8.72221231
_cell_length_b   8.72221190
_cell_length_c   8.72221175
_cell_angle_alpha   109.58381822
_cell_angle_beta   109.58382069
_cell_angle_gamma   109.24624790
_symmetry_Int_Tables_number   1
_chemical_formula_structural   Nd12Cd2Tc3
_chemical_formula_sum   'Nd12 Cd2 Tc3'
_cell_volume   510.80254425
_cell_formula_units_Z   1
loop_
 _symmetry_equiv_pos_site_id
 _symmetry_equiv_pos_as_xyz
  1  'x, y, z'
loop_
 _atom_site_type_symbol
 _atom_site_label
 _atom_site_symmetry_multiplicity
 _atom_site_fract_x
 _atom_site_fract_y
 _atom_site_fract_z
 _atom_site_occupancy
  Nd  Nd0  1  0.186831  0.430709  0.243878  1
  Nd  Nd1  1  0.813169  0.569291  0.756122  1
  Nd  Nd2  1  0.186831  0.942954  0.756122  1
  Nd  Nd3  1  0.942954  0.186831  0.756122  1
  Nd  Nd4  1  0.813169  0.057046  0.243878  1
  Nd  Nd5  1  0.057046  0.813169  0.243878  1
  Nd  Nd6  1  0.430709  0.186831  0.243878  1
  Nd  Nd7  1  0.569291  0.813169  0.756122  1
  Nd  Nd8  1  0.318768  0.318768  0.637537  1
  Nd  Nd9  1  0.681232  0.681232  0.362463  1
  Nd  Nd10  1  0.681232  0.318768  0.000000  1
  Nd  Nd11  1  0.318768  0.681232  0.000000  1
  Cd  Cd12  1  0.000000  0.500000  0.500000  1
  Cd  Cd13  1  0.500000  0.000000  0.500000  1
  Tc  Tc14  1  0.338475  0.338475  0.000000  1
  Tc  Tc15  1  0.661525  0.661525  0.000000  1
  Tc  Tc16  1  0.000000  0.000000  0.000000  1
