# generated using pymatgen
data_Th2Fe9Re3P7
_symmetry_space_group_name_H-M   'P 1'
_cell_length_a   9.11331100
_cell_length_b   9.11331176
_cell_length_c   3.77612100
_cell_angle_alpha   90.00000000
_cell_angle_beta   90.00000000
_cell_angle_gamma   119.99998734
_symmetry_Int_Tables_number   1
_chemical_formula_structural   Th2Fe9Re3P7
_chemical_formula_sum   'Th2 Fe9 Re3 P7'
_cell_volume   271.59952602
_cell_formula_units_Z   1
loop_
 _symmetry_equiv_pos_site_id
 _symmetry_equiv_pos_as_xyz
  1  'x, y, z'
loop_
 _atom_site_type_symbol
 _atom_site_label
 _atom_site_symmetry_multiplicity
 _atom_site_fract_x
 _atom_site_fract_y
 _atom_site_fract_z
 _atom_site_occupancy
  Th  Th0  1  0.333333  0.666667  0.000000  1
  Th  Th1  1  0.000000  0.000000  0.500000  1
  Fe  Fe2  1  0.033533  0.271676  0.000000  1
  Fe  Fe3  1  0.728324  0.761857  0.000000  1
  Fe  Fe4  1  0.238143  0.966467  0.000000  1
  Fe  Fe5  1  0.545154  0.061165  0.000000  1
  Fe  Fe6  1  0.938835  0.483989  0.000000  1
  Fe  Fe7  1  0.516011  0.454846  0.000000  1
  Fe  Fe8  1  0.611490  0.896693  0.500000  1
  Fe  Fe9  1  0.103307  0.714795  0.500000  1
  Fe  Fe10  1  0.285205  0.388510  0.500000  1
  Re  Re11  1  0.781001  0.231275  0.500000  1
  Re  Re12  1  0.768725  0.549726  0.500000  1
  Re  Re13  1  0.450274  0.218999  0.500000  1
  P  P14  1  0.767448  0.027476  0.000000  1
  P  P15  1  0.972524  0.739972  0.000000  1
  P  P16  1  0.260028  0.232552  0.000000  1
  P  P17  1  0.373401  0.932502  0.500000  1
  P  P18  1  0.067498  0.440899  0.500000  1
  P  P19  1  0.559101  0.626599  0.500000  1
  P  P20  1  0.666667  0.333333  0.000000  1
