# generated using pymatgen
data_V2OsS6
_symmetry_space_group_name_H-M   'P 1'
_cell_length_a   5.27760374
_cell_length_b   5.27760415
_cell_length_c   6.96597000
_cell_angle_alpha   82.74794477
_cell_angle_beta   82.74793325
_cell_angle_gamma   119.98867836
_symmetry_Int_Tables_number   1
_chemical_formula_structural   V2OsS6
_chemical_formula_sum   'V2 Os1 S6'
_cell_volume   162.60671503
_cell_formula_units_Z   1
loop_
 _symmetry_equiv_pos_site_id
 _symmetry_equiv_pos_as_xyz
  1  'x, y, z'
loop_
 _atom_site_type_symbol
 _atom_site_label
 _atom_site_symmetry_multiplicity
 _atom_site_fract_x
 _atom_site_fract_y
 _atom_site_fract_z
 _atom_site_occupancy
  V  V0  1  0.833331  0.500014  0.500005  1
  V  V1  1  0.500014  0.833331  0.500005  1
  Os  Os2  1  0.166610  0.166610  0.500046  1
  S  S3  1  0.580323  0.242612  0.272046  1
  S  S4  1  0.242612  0.580323  0.272046  1
  S  S5  1  0.904826  0.904826  0.272102  1
  S  S6  1  0.753001  0.753001  0.728076  1
  S  S7  1  0.428461  0.090726  0.727986  1
  S  S8  1  0.090726  0.428461  0.727986  1
