# generated using pymatgen
data_K8Ba4TiSnSb8
_symmetry_space_group_name_H-M   'P 1'
_cell_length_a   11.14858646
_cell_length_b   11.16735965
_cell_length_c   8.53589723
_cell_angle_alpha   88.91550263
_cell_angle_beta   88.81297473
_cell_angle_gamma   119.74054364
_symmetry_Int_Tables_number   1
_chemical_formula_structural   K8Ba4TiSnSb8
_chemical_formula_sum   'K8 Ba4 Ti1 Sn1 Sb8'
_cell_volume   922.02041480
_cell_formula_units_Z   1
loop_
 _symmetry_equiv_pos_site_id
 _symmetry_equiv_pos_as_xyz
  1  'x, y, z'
loop_
 _atom_site_type_symbol
 _atom_site_label
 _atom_site_symmetry_multiplicity
 _atom_site_fract_x
 _atom_site_fract_y
 _atom_site_fract_z
 _atom_site_occupancy
  K  K0  1  0.475334  0.946625  0.383059  1
  K  K1  1  0.952410  0.477961  0.883529  1
  K  K2  1  0.865384  0.723956  0.178391  1
  K  K3  1  0.274165  0.130341  0.222187  1
  K  K4  1  0.853827  0.139275  0.199063  1
  K  K5  1  0.133309  0.281632  0.728292  1
  K  K6  1  0.715851  0.860917  0.683993  1
  K  K7  1  0.141882  0.849384  0.704390  1
  Ba  Ba8  1  0.053810  0.527910  0.389335  1
  Ba  Ba9  1  0.478610  0.528327  0.380581  1
  Ba  Ba10  1  0.527191  0.052149  0.883199  1
  Ba  Ba11  1  0.527657  0.480218  0.877449  1
  Ti  Ti12  1  0.332642  0.664406  0.993882  1
  Sn  Sn13  1  0.663381  0.331757  0.496555  1
  Sb  Sb14  1  0.656497  0.335026  0.158652  1
  Sb  Sb15  1  0.334388  0.655529  0.672792  1
  Sb  Sb16  1  0.206221  0.401384  0.114614  1
  Sb  Sb17  1  0.601517  0.798020  0.082375  1
  Sb  Sb18  1  0.205151  0.800651  0.096487  1
  Sb  Sb19  1  0.806602  0.617544  0.584554  1
  Sb  Sb20  1  0.383218  0.197972  0.621476  1
  Sb  Sb21  1  0.810765  0.198824  0.600481  1
