# generated using pymatgen
data_La3Pr5(Sc3Si4)4
_symmetry_space_group_name_H-M   'P 1'
_cell_length_a   7.28742515
_cell_length_b   7.57420655
_cell_length_c   14.30948626
_cell_angle_alpha   89.95710435
_cell_angle_beta   89.97845602
_cell_angle_gamma   89.99122135
_symmetry_Int_Tables_number   1
_chemical_formula_structural   La3Pr5(Sc3Si4)4
_chemical_formula_sum   'La3 Pr5 Sc12 Si16'
_cell_volume   789.83274688
_cell_formula_units_Z   1
loop_
 _symmetry_equiv_pos_site_id
 _symmetry_equiv_pos_as_xyz
  1  'x, y, z'
loop_
 _atom_site_type_symbol
 _atom_site_label
 _atom_site_symmetry_multiplicity
 _atom_site_fract_x
 _atom_site_fract_y
 _atom_site_fract_z
 _atom_site_occupancy
  La  La0  1  0.012051  0.170997  0.402905  1
  La  La1  1  0.512176  0.329016  0.402755  1
  La  La2  1  0.487496  0.671008  0.902579  1
  Pr  Pr3  1  0.488204  0.672390  0.598237  1
  Pr  Pr4  1  0.988072  0.827741  0.598122  1
  Pr  Pr5  1  0.988167  0.827888  0.902242  1
  Pr  Pr6  1  0.512077  0.327868  0.097915  1
  Pr  Pr7  1  0.011781  0.172539  0.097682  1
  Sc  Sc8  1  0.330176  0.175386  0.625622  1
  Sc  Sc9  1  0.669959  0.824228  0.374363  1
  Sc  Sc10  1  0.659841  0.001641  0.749762  1
  Sc  Sc11  1  0.170050  0.675647  0.374386  1
  Sc  Sc12  1  0.830287  0.324021  0.874369  1
  Sc  Sc13  1  0.830229  0.324664  0.625624  1
  Sc  Sc14  1  0.840198  0.502043  0.249458  1
  Sc  Sc15  1  0.340218  0.998038  0.249552  1
  Sc  Sc16  1  0.329704  0.175683  0.874424  1
  Sc  Sc17  1  0.169499  0.675653  0.125183  1
  Sc  Sc18  1  0.670226  0.824412  0.125175  1
  Sc  Sc19  1  0.159699  0.498404  0.749775  1
  Si  Si20  1  0.287598  0.884029  0.749678  1
  Si  Si21  1  0.465605  0.626347  0.249643  1
  Si  Si22  1  0.034264  0.125426  0.749942  1
  Si  Si23  1  0.534469  0.373817  0.749731  1
  Si  Si24  1  0.150874  0.464151  0.540383  1
  Si  Si25  1  0.965723  0.873734  0.249602  1
  Si  Si26  1  0.711561  0.115782  0.249225  1
  Si  Si27  1  0.849356  0.536668  0.039980  1
  Si  Si28  1  0.348537  0.963919  0.039980  1
  Si  Si29  1  0.150289  0.462661  0.960524  1
  Si  Si30  1  0.650834  0.035814  0.540338  1
  Si  Si31  1  0.349528  0.961757  0.460851  1
  Si  Si32  1  0.849526  0.538264  0.460803  1
  Si  Si33  1  0.788762  0.616319  0.749555  1
  Si  Si34  1  0.211626  0.384260  0.249223  1
  Si  Si35  1  0.651340  0.037785  0.960411  1
