# generated using pymatgen
data_Zr6Ta3Ti(Si3N)2
_symmetry_space_group_name_H-M   'P 1'
_cell_length_a   7.80415900
_cell_length_b   7.80415879
_cell_length_c   5.41306000
_cell_angle_alpha   90.00000000
_cell_angle_beta   90.00000000
_cell_angle_gamma   119.99999663
_symmetry_Int_Tables_number   1
_chemical_formula_structural   Zr6Ta3Ti(Si3N)2
_chemical_formula_sum   'Zr6 Ta3 Ti1 Si6 N2'
_cell_volume   285.51287286
_cell_formula_units_Z   1
loop_
 _symmetry_equiv_pos_site_id
 _symmetry_equiv_pos_as_xyz
  1  'x, y, z'
loop_
 _atom_site_type_symbol
 _atom_site_label
 _atom_site_symmetry_multiplicity
 _atom_site_fract_x
 _atom_site_fract_y
 _atom_site_fract_z
 _atom_site_occupancy
  Zr  Zr0  1  0.237587  0.000813  0.749327  1
  Zr  Zr1  1  0.763226  0.000813  0.250673  1
  Zr  Zr2  1  0.999187  0.236774  0.749327  1
  Zr  Zr3  1  0.999187  0.762413  0.250673  1
  Zr  Zr4  1  0.763226  0.762413  0.749327  1
  Zr  Zr5  1  0.237587  0.236774  0.250673  1
  Ta  Ta6  1  0.333333  0.666667  0.500000  1
  Ta  Ta7  1  0.666667  0.333333  0.500000  1
  Ta  Ta8  1  0.666667  0.333333  0.000000  1
  Ti  Ti9  1  0.333333  0.666667  0.000000  1
  Si  Si10  1  0.588892  0.998184  0.751012  1
  Si  Si11  1  0.409292  0.998184  0.248988  1
  Si  Si12  1  0.001816  0.590708  0.751012  1
  Si  Si13  1  0.001816  0.411108  0.248988  1
  Si  Si14  1  0.409292  0.411108  0.751012  1
  Si  Si15  1  0.588892  0.590708  0.248988  1
  N  N16  1  0.000000  0.000000  0.500000  1
  N  N17  1  0.000000  0.000000  0.000000  1
