# generated using pymatgen
data_Nd6Cd23S
_symmetry_space_group_name_H-M   'P 1'
_cell_length_a   10.03989181
_cell_length_b   10.04371894
_cell_length_c   10.05547101
_cell_angle_alpha   59.95245137
_cell_angle_beta   59.94487250
_cell_angle_gamma   59.86824337
_symmetry_Int_Tables_number   1
_chemical_formula_structural   Nd6Cd23S
_chemical_formula_sum   'Nd6 Cd23 S1'
_cell_volume   715.71466843
_cell_formula_units_Z   1
loop_
 _symmetry_equiv_pos_site_id
 _symmetry_equiv_pos_as_xyz
  1  'x, y, z'
loop_
 _atom_site_type_symbol
 _atom_site_label
 _atom_site_symmetry_multiplicity
 _atom_site_fract_x
 _atom_site_fract_y
 _atom_site_fract_z
 _atom_site_occupancy
  Nd  Nd0  1  0.798755  0.798777  0.201236  1
  Nd  Nd1  1  0.200947  0.799027  0.201461  1
  Nd  Nd2  1  0.799044  0.200971  0.201428  1
  Nd  Nd3  1  0.201248  0.201216  0.798768  1
  Nd  Nd4  1  0.799057  0.200965  0.798540  1
  Nd  Nd5  1  0.200947  0.799039  0.798570  1
  Cd  Cd6  1  0.833955  0.833956  0.497615  1
  Cd  Cd7  1  0.833016  0.499954  0.833511  1
  Cd  Cd8  1  0.499940  0.833024  0.833524  1
  Cd  Cd9  1  0.833937  0.833973  0.834457  1
  Cd  Cd10  1  0.166046  0.166039  0.502389  1
  Cd  Cd11  1  0.166990  0.500046  0.166484  1
  Cd  Cd12  1  0.500068  0.166977  0.166472  1
  Cd  Cd13  1  0.166063  0.166030  0.165542  1
  Cd  Cd14  1  0.621672  0.621654  0.134582  1
  Cd  Cd15  1  0.621232  0.135317  0.621713  1
  Cd  Cd16  1  0.135352  0.621212  0.621706  1
  Cd  Cd17  1  0.621666  0.621661  0.622105  1
  Cd  Cd18  1  0.378327  0.378350  0.865414  1
  Cd  Cd19  1  0.378766  0.864688  0.378286  1
  Cd  Cd20  1  0.864646  0.378788  0.378296  1
  Cd  Cd21  1  0.378334  0.378342  0.377896  1
  Cd  Cd22  1  0.999998  0.999997  0.500002  1
  Cd  Cd23  1  0.500002  0.999999  0.500000  1
  Cd  Cd24  1  0.999998  0.500000  0.500001  1
  Cd  Cd25  1  0.500009  0.499998  0.999999  1
  Cd  Cd26  1  0.999996  0.500002  0.000001  1
  Cd  Cd27  1  0.500005  0.999997  0.999998  1
  Cd  Cd28  1  0.499998  0.499998  0.499998  1
  S  S29  1  0.999991  0.000005  0.000011  1
