# generated using pymatgen
data_LaTb6Sn23Ru6
_symmetry_space_group_name_H-M   'P 1'
_cell_length_a   9.90178200
_cell_length_b   9.90178048
_cell_length_c   10.13921700
_cell_angle_alpha   90.00000000
_cell_angle_beta   90.00000000
_cell_angle_gamma   120.00000508
_symmetry_Int_Tables_number   1
_chemical_formula_structural   LaTb6Sn23Ru6
_chemical_formula_sum   'La1 Tb6 Sn23 Ru6'
_cell_volume   860.91778949
_cell_formula_units_Z   1
loop_
 _symmetry_equiv_pos_site_id
 _symmetry_equiv_pos_as_xyz
  1  'x, y, z'
loop_
 _atom_site_type_symbol
 _atom_site_label
 _atom_site_symmetry_multiplicity
 _atom_site_fract_x
 _atom_site_fract_y
 _atom_site_fract_z
 _atom_site_occupancy
  La  La0  1  0.000000  0.000000  0.000000  1
  Tb  Tb1  1  0.484244  0.515756  0.302679  1
  Tb  Tb2  1  0.515756  0.484244  0.697321  1
  Tb  Tb3  1  0.484244  0.968487  0.302679  1
  Tb  Tb4  1  0.515756  0.031513  0.697321  1
  Tb  Tb5  1  0.031513  0.515756  0.302679  1
  Tb  Tb6  1  0.968487  0.484244  0.697321  1
  Sn  Sn7  1  0.350069  0.000000  0.000000  1
  Sn  Sn8  1  0.649931  0.000000  0.000000  1
  Sn  Sn9  1  0.000000  0.350069  0.000000  1
  Sn  Sn10  1  0.000000  0.649931  0.000000  1
  Sn  Sn11  1  0.649931  0.649931  0.000000  1
  Sn  Sn12  1  0.350069  0.350069  0.000000  1
  Sn  Sn13  1  0.333333  0.666667  0.822124  1
  Sn  Sn14  1  0.666667  0.333333  0.177876  1
  Sn  Sn15  1  0.000000  0.000000  0.500000  1
  Sn  Sn16  1  0.780481  0.219519  0.462289  1
  Sn  Sn17  1  0.219519  0.780481  0.537711  1
  Sn  Sn18  1  0.780481  0.560962  0.462289  1
  Sn  Sn19  1  0.219519  0.439038  0.537711  1
  Sn  Sn20  1  0.439038  0.219519  0.462289  1
  Sn  Sn21  1  0.560962  0.780481  0.537711  1
  Sn  Sn22  1  0.333333  0.666667  0.126408  1
  Sn  Sn23  1  0.666667  0.333333  0.873592  1
  Sn  Sn24  1  0.118876  0.881124  0.274690  1
  Sn  Sn25  1  0.881124  0.118876  0.725310  1
  Sn  Sn26  1  0.118876  0.237753  0.274690  1
  Sn  Sn27  1  0.881124  0.762247  0.725310  1
  Sn  Sn28  1  0.762247  0.881124  0.274690  1
  Sn  Sn29  1  0.237753  0.118876  0.725310  1
  Ru  Ru30  1  0.829767  0.170233  0.202770  1
  Ru  Ru31  1  0.170233  0.829767  0.797230  1
  Ru  Ru32  1  0.829767  0.659532  0.202770  1
  Ru  Ru33  1  0.170233  0.340468  0.797230  1
  Ru  Ru34  1  0.340468  0.170233  0.202770  1
  Ru  Ru35  1  0.659532  0.829767  0.797230  1
