# generated using pymatgen
data_SmY4(FeB3)2
_symmetry_space_group_name_H-M   'P 1'
_cell_length_a   5.43515130
_cell_length_b   5.43515191
_cell_length_c   8.26347652
_cell_angle_alpha   70.80004643
_cell_angle_beta   70.80004438
_cell_angle_gamma   59.99999601
_symmetry_Int_Tables_number   1
_chemical_formula_structural   SmY4(FeB3)2
_chemical_formula_sum   'Sm1 Y4 Fe2 B6'
_cell_volume   195.56986638
_cell_formula_units_Z   1
loop_
 _symmetry_equiv_pos_site_id
 _symmetry_equiv_pos_as_xyz
  1  'x, y, z'
loop_
 _atom_site_type_symbol
 _atom_site_label
 _atom_site_symmetry_multiplicity
 _atom_site_fract_x
 _atom_site_fract_y
 _atom_site_fract_z
 _atom_site_occupancy
  Sm  Sm0  1  0.000000  0.000000  0.000000  1
  Y  Y1  1  0.251160  0.251160  0.246521  1
  Y  Y2  1  0.748840  0.748840  0.753479  1
  Y  Y3  1  0.416491  0.416491  0.750525  1
  Y  Y4  1  0.583509  0.583509  0.249475  1
  Fe  Fe5  1  0.117120  0.117120  0.648642  1
  Fe  Fe6  1  0.882880  0.882880  0.351358  1
  B  B7  1  0.167447  0.832553  0.500000  1
  B  B8  1  0.832553  0.500000  0.500000  1
  B  B9  1  0.500000  0.167447  0.500000  1
  B  B10  1  0.167447  0.500000  0.500000  1
  B  B11  1  0.500000  0.832553  0.500000  1
  B  B12  1  0.832553  0.167447  0.500000  1
