# generated using pymatgen
data_Sc6Nb3Al13Ru7
_symmetry_space_group_name_H-M   'P 1'
_cell_length_a   8.85946775
_cell_length_b   8.85946739
_cell_length_c   8.85946724
_cell_angle_alpha   59.90840058
_cell_angle_beta   59.90840178
_cell_angle_gamma   59.90839608
_symmetry_Int_Tables_number   1
_chemical_formula_structural   Sc6Nb3Al13Ru7
_chemical_formula_sum   'Sc6 Nb3 Al13 Ru7'
_cell_volume   490.68688277
_cell_formula_units_Z   1
loop_
 _symmetry_equiv_pos_site_id
 _symmetry_equiv_pos_as_xyz
  1  'x, y, z'
loop_
 _atom_site_type_symbol
 _atom_site_label
 _atom_site_symmetry_multiplicity
 _atom_site_fract_x
 _atom_site_fract_y
 _atom_site_fract_z
 _atom_site_occupancy
  Sc  Sc0  1  0.712517  0.712517  0.281236  1
  Sc  Sc1  1  0.290506  0.709874  0.290506  1
  Sc  Sc2  1  0.709874  0.290506  0.290506  1
  Sc  Sc3  1  0.290506  0.290506  0.709874  1
  Sc  Sc4  1  0.712517  0.281236  0.712517  1
  Sc  Sc5  1  0.281236  0.712517  0.712517  1
  Nb  Nb6  1  0.877716  0.877716  0.361684  1
  Nb  Nb7  1  0.877716  0.361684  0.877716  1
  Nb  Nb8  1  0.361684  0.877716  0.877716  1
  Al  Al9  1  0.881312  0.881312  0.881312  1
  Al  Al10  1  0.120340  0.120340  0.638361  1
  Al  Al11  1  0.120340  0.638361  0.120340  1
  Al  Al12  1  0.638361  0.120340  0.120340  1
  Al  Al13  1  0.120978  0.120978  0.120978  1
  Al  Al14  1  0.667424  0.667424  0.004538  1
  Al  Al15  1  0.667424  0.004538  0.667424  1
  Al  Al16  1  0.004538  0.667424  0.667424  1
  Al  Al17  1  0.662506  0.662506  0.662506  1
  Al  Al18  1  0.335341  0.335341  0.996689  1
  Al  Al19  1  0.335341  0.996689  0.335341  1
  Al  Al20  1  0.996689  0.335341  0.335341  1
  Al  Al21  1  0.335027  0.335027  0.335027  1
  Ru  Ru22  1  0.001481  0.001481  0.001481  1
  Ru  Ru23  1  0.999314  0.999314  0.498030  1
  Ru  Ru24  1  0.502392  0.997185  0.502392  1
  Ru  Ru25  1  0.997185  0.502392  0.502392  1
  Ru  Ru26  1  0.502392  0.502392  0.997185  1
  Ru  Ru27  1  0.999314  0.498030  0.999314  1
  Ru  Ru28  1  0.498030  0.999314  0.999314  1
