# generated using pymatgen
data_LiDyNb(SbPt)3
_symmetry_space_group_name_H-M   'P 1'
_cell_length_a   7.85600235
_cell_length_b   7.83036485
_cell_length_c   7.85111704
_cell_angle_alpha   119.98357162
_cell_angle_beta   99.60287883
_cell_angle_gamma   99.57303296
_symmetry_Int_Tables_number   1
_chemical_formula_structural   LiDyNb(SbPt)3
_chemical_formula_sum   'Li2 Dy2 Nb2 Sb6 Pt6'
_cell_volume   394.44729257
_cell_formula_units_Z   2
loop_
 _symmetry_equiv_pos_site_id
 _symmetry_equiv_pos_as_xyz
  1  'x, y, z'
loop_
 _atom_site_type_symbol
 _atom_site_label
 _atom_site_symmetry_multiplicity
 _atom_site_fract_x
 _atom_site_fract_y
 _atom_site_fract_z
 _atom_site_occupancy
  Li  Li0  1  0.998897  0.502497  0.997454  1
  Li  Li1  1  0.498461  0.329394  0.165145  1
  Dy  Dy2  1  0.998866  0.162752  0.332447  1
  Dy  Dy3  1  0.499467  0.999812  0.500840  1
  Nb  Nb4  1  0.000261  0.833533  0.667846  1
  Nb  Nb5  1  0.500302  0.669652  0.833703  1
  Sb  Sb6  1  0.247311  0.914823  0.084784  1
  Sb  Sb7  1  0.748968  0.732424  0.250083  1
  Sb  Sb8  1  0.255635  0.567854  0.395873  1
  Sb  Sb9  1  0.755682  0.416568  0.583267  1
  Sb  Sb10  1  0.249343  0.265193  0.765669  1
  Sb  Sb11  1  0.748006  0.106935  0.925299  1
  Pt  Pt12  1  0.116126  0.187159  0.021468  1
  Pt  Pt13  1  0.619623  0.020537  0.188590  1
  Pt  Pt14  1  0.119997  0.872443  0.393809  1
  Pt  Pt15  1  0.637723  0.715586  0.566496  1
  Pt  Pt16  1  0.138259  0.561845  0.707055  1
  Pt  Pt17  1  0.617158  0.390967  0.870146  1
