# generated using pymatgen
data_Y4Er16Cd6IrRu
_symmetry_space_group_name_H-M   'P 1'
_cell_length_a   9.55595801
_cell_length_b   9.55529370
_cell_length_c   9.76893200
_cell_angle_alpha   90.00000000
_cell_angle_beta   90.00000000
_cell_angle_gamma   119.99770464
_symmetry_Int_Tables_number   1
_chemical_formula_structural   Y4Er16Cd6IrRu
_chemical_formula_sum   'Y4 Er16 Cd6 Ir1 Ru1'
_cell_volume   772.51342596
_cell_formula_units_Z   1
loop_
 _symmetry_equiv_pos_site_id
 _symmetry_equiv_pos_as_xyz
  1  'x, y, z'
loop_
 _atom_site_type_symbol
 _atom_site_label
 _atom_site_symmetry_multiplicity
 _atom_site_fract_x
 _atom_site_fract_y
 _atom_site_fract_z
 _atom_site_occupancy
  Y  Y0  1  0.540995  0.459028  0.250000  1
  Y  Y1  1  0.540995  0.081967  0.250000  1
  Y  Y2  1  0.918077  0.459039  0.250000  1
  Y  Y3  1  0.082658  0.541329  0.750000  1
  Er  Er4  1  0.999974  0.999987  0.499539  1
  Er  Er5  1  0.999974  0.999987  0.000461  1
  Er  Er6  1  0.209584  0.790758  0.440798  1
  Er  Er7  1  0.209584  0.418826  0.440798  1
  Er  Er8  1  0.581132  0.790566  0.440977  1
  Er  Er9  1  0.790153  0.209318  0.560004  1
  Er  Er10  1  0.790153  0.580833  0.560004  1
  Er  Er11  1  0.419164  0.209581  0.560105  1
  Er  Er12  1  0.790153  0.209318  0.939996  1
  Er  Er13  1  0.790153  0.580833  0.939996  1
  Er  Er14  1  0.419164  0.209581  0.939895  1
  Er  Er15  1  0.209584  0.790758  0.059202  1
  Er  Er16  1  0.209584  0.418826  0.059202  1
  Er  Er17  1  0.581132  0.790566  0.059023  1
  Er  Er18  1  0.459041  0.541245  0.750000  1
  Er  Er19  1  0.459041  0.917796  0.750000  1
  Cd  Cd20  1  0.885661  0.114227  0.250000  1
  Cd  Cd21  1  0.885661  0.771434  0.250000  1
  Cd  Cd22  1  0.228595  0.114298  0.250000  1
  Cd  Cd23  1  0.114744  0.885679  0.750000  1
  Cd  Cd24  1  0.114744  0.229064  0.750000  1
  Cd  Cd25  1  0.770633  0.885316  0.750000  1
  Ir  Ir26  1  0.333276  0.666639  0.250000  1
  Ru  Ru27  1  0.666393  0.333196  0.750000  1
