# generated using pymatgen
data_Zr6UPt10
_symmetry_space_group_name_H-M   'P 1'
_cell_length_a   8.27680032
_cell_length_b   8.27680003
_cell_length_c   9.74674937
_cell_angle_alpha   90.03540741
_cell_angle_beta   90.03540598
_cell_angle_gamma   107.47560409
_symmetry_Int_Tables_number   1
_chemical_formula_structural   Zr6UPt10
_chemical_formula_sum   'Zr12 U2 Pt20'
_cell_volume   636.88682535
_cell_formula_units_Z   2
loop_
 _symmetry_equiv_pos_site_id
 _symmetry_equiv_pos_as_xyz
  1  'x, y, z'
loop_
 _atom_site_type_symbol
 _atom_site_label
 _atom_site_symmetry_multiplicity
 _atom_site_fract_x
 _atom_site_fract_y
 _atom_site_fract_z
 _atom_site_occupancy
  Zr  Zr0  1  0.810917  0.189083  0.500000  1
  Zr  Zr1  1  0.189083  0.810917  0.500000  1
  Zr  Zr2  1  0.000000  0.000000  0.000000  1
  Zr  Zr3  1  0.500000  0.500000  0.500000  1
  Zr  Zr4  1  0.001408  0.500430  0.254459  1
  Zr  Zr5  1  0.998592  0.499570  0.745541  1
  Zr  Zr6  1  0.499570  0.998592  0.745541  1
  Zr  Zr7  1  0.500430  0.001408  0.254459  1
  Zr  Zr8  1  0.311361  0.311361  0.190337  1
  Zr  Zr9  1  0.688639  0.688639  0.809663  1
  Zr  Zr10  1  0.181830  0.181830  0.680612  1
  Zr  Zr11  1  0.818170  0.818170  0.319388  1
  U  U12  1  0.689393  0.310607  0.000000  1
  U  U13  1  0.310607  0.689393  0.000000  1
  Pt  Pt14  1  0.850178  0.142516  0.207761  1
  Pt  Pt15  1  0.149822  0.857484  0.792239  1
  Pt  Pt16  1  0.647349  0.353925  0.709197  1
  Pt  Pt17  1  0.646075  0.352651  0.290803  1
  Pt  Pt18  1  0.352651  0.646075  0.290803  1
  Pt  Pt19  1  0.353925  0.647349  0.709197  1
  Pt  Pt20  1  0.857484  0.149822  0.792239  1
  Pt  Pt21  1  0.142516  0.850178  0.207761  1
  Pt  Pt22  1  0.936842  0.644626  0.997644  1
  Pt  Pt23  1  0.063158  0.355374  0.002356  1
  Pt  Pt24  1  0.562517  0.853129  0.499117  1
  Pt  Pt25  1  0.146871  0.437483  0.500883  1
  Pt  Pt26  1  0.437483  0.146871  0.500883  1
  Pt  Pt27  1  0.853129  0.562517  0.499117  1
  Pt  Pt28  1  0.355374  0.063158  0.002356  1
  Pt  Pt29  1  0.644626  0.936842  0.997644  1
  Pt  Pt30  1  0.105729  0.105729  0.393946  1
  Pt  Pt31  1  0.894271  0.894271  0.606054  1
  Pt  Pt32  1  0.392170  0.392170  0.892618  1
  Pt  Pt33  1  0.607830  0.607830  0.107382  1
