# generated using pymatgen
data_La3V4BiF28
_symmetry_space_group_name_H-M   'P 1'
_cell_length_a   5.66908317
_cell_length_b   9.22112252
_cell_length_c   12.26501300
_cell_angle_alpha   62.77525247
_cell_angle_beta   90.01400790
_cell_angle_gamma   90.01118036
_symmetry_Int_Tables_number   1
_chemical_formula_structural   La3V4BiF28
_chemical_formula_sum   'La3 V4 Bi1 F28'
_cell_volume   570.12919821
_cell_formula_units_Z   1
loop_
 _symmetry_equiv_pos_site_id
 _symmetry_equiv_pos_as_xyz
  1  'x, y, z'
loop_
 _atom_site_type_symbol
 _atom_site_label
 _atom_site_symmetry_multiplicity
 _atom_site_fract_x
 _atom_site_fract_y
 _atom_site_fract_z
 _atom_site_occupancy
  La  La0  1  0.757507  0.805109  0.768781  1
  La  La1  1  0.258171  0.193388  0.732089  1
  La  La2  1  0.242210  0.193804  0.232439  1
  V  V3  1  0.754379  0.272334  0.957789  1
  V  V4  1  0.253771  0.726793  0.540926  1
  V  V5  1  0.243941  0.726502  0.045909  1
  V  V6  1  0.745000  0.276059  0.455782  1
  Bi  Bi7  1  0.736815  0.808413  0.268727  1
  F  F8  1  0.437418  0.709340  0.925503  1
  F  F9  1  0.936914  0.291532  0.576446  1
  F  F10  1  0.562864  0.290192  0.077767  1
  F  F11  1  0.059945  0.710181  0.421585  1
  F  F12  1  0.466928  0.285027  0.540725  1
  F  F13  1  0.968168  0.715506  0.959579  1
  F  F14  1  0.536229  0.718437  0.454580  1
  F  F15  1  0.033009  0.283002  0.042473  1
  F  F16  1  0.764901  0.496787  0.867862  1
  F  F17  1  0.266693  0.503083  0.630141  1
  F  F18  1  0.235296  0.501610  0.134446  1
  F  F19  1  0.734902  0.498407  0.366736  1
  F  F20  1  0.760348  0.050030  0.045957  1
  F  F21  1  0.260908  0.949667  0.454051  1
  F  F22  1  0.239369  0.949090  0.956037  1
  F  F23  1  0.740171  0.052928  0.543643  1
  F  F24  1  0.984140  0.731530  0.630285  1
  F  F25  1  0.481828  0.268119  0.869498  1
  F  F26  1  0.017337  0.267949  0.367330  1
  F  F27  1  0.517093  0.732786  0.133825  1
  F  F28  1  0.051234  0.745086  0.166584  1
  F  F29  1  0.553347  0.257902  0.333413  1
  F  F30  1  0.945299  0.256521  0.835160  1
  F  F31  1  0.447320  0.742731  0.663221  1
  F  F32  1  0.417114  0.967070  0.228781  1
  F  F33  1  0.902272  0.023735  0.272044  1
  F  F34  1  0.593930  0.030969  0.771889  1
  F  F35  1  0.093229  0.968380  0.728002  1
