# generated using pymatgen
data_TmSc5Al14(Si5Os4)2
_symmetry_space_group_name_H-M   'P 1'
_cell_length_a   8.59797103
_cell_length_b   8.60717298
_cell_length_c   9.22089200
_cell_angle_alpha   90.00000000
_cell_angle_beta   90.00000000
_cell_angle_gamma   120.10382890
_symmetry_Int_Tables_number   1
_chemical_formula_structural   TmSc5Al14(Si5Os4)2
_chemical_formula_sum   'Tm1 Sc5 Al14 Si10 Os8'
_cell_volume   590.34344322
_cell_formula_units_Z   1
loop_
 _symmetry_equiv_pos_site_id
 _symmetry_equiv_pos_as_xyz
  1  'x, y, z'
loop_
 _atom_site_type_symbol
 _atom_site_label
 _atom_site_symmetry_multiplicity
 _atom_site_fract_x
 _atom_site_fract_y
 _atom_site_fract_z
 _atom_site_occupancy
  Tm  Tm0  1  0.186440  0.375358  0.250000  1
  Sc  Sc1  1  0.808065  0.610765  0.750000  1
  Sc  Sc2  1  0.609574  0.806867  0.250000  1
  Sc  Sc3  1  0.389122  0.192465  0.750000  1
  Sc  Sc4  1  0.198446  0.802815  0.250000  1
  Sc  Sc5  1  0.804516  0.196819  0.750000  1
  Al  Al6  1  0.165825  0.330459  0.583362  1
  Al  Al7  1  0.837129  0.672784  0.418408  1
  Al  Al8  1  0.673818  0.836477  0.581398  1
  Al  Al9  1  0.837129  0.672784  0.081592  1
  Al  Al10  1  0.332699  0.164847  0.420695  1
  Al  Al11  1  0.165825  0.330459  0.916638  1
  Al  Al12  1  0.162440  0.837953  0.582312  1
  Al  Al13  1  0.332699  0.164847  0.079305  1
  Al  Al14  1  0.831440  0.166874  0.422035  1
  Al  Al15  1  0.673818  0.836477  0.918602  1
  Al  Al16  1  0.831440  0.166874  0.077965  1
  Al  Al17  1  0.162440  0.837953  0.917688  1
  Al  Al18  1  0.440151  0.564278  0.750000  1
  Al  Al19  1  0.998923  0.998951  0.750000  1
  Si  Si20  1  0.335185  0.666261  0.047140  1
  Si  Si21  1  0.665903  0.335119  0.948785  1
  Si  Si22  1  0.665903  0.335119  0.551215  1
  Si  Si23  1  0.335185  0.666261  0.452860  1
  Si  Si24  1  0.557959  0.119026  0.250000  1
  Si  Si25  1  0.436617  0.875781  0.750000  1
  Si  Si26  1  0.874489  0.440378  0.250000  1
  Si  Si27  1  0.123776  0.565149  0.750000  1
  Si  Si28  1  0.566685  0.437844  0.250000  1
  Si  Si29  1  0.989541  0.967291  0.250000  1
  Os  Os30  1  0.499035  0.999912  0.999263  1
  Os  Os31  1  0.998932  0.502431  0.999434  1
  Os  Os32  1  0.499035  0.999912  0.500737  1
  Os  Os33  1  0.503062  0.501027  0.006283  1
  Os  Os34  1  0.998932  0.502431  0.500566  1
  Os  Os35  1  0.503062  0.501027  0.493717  1
  Os  Os36  1  0.002380  0.008964  0.007649  1
  Os  Os37  1  0.002380  0.008964  0.492351  1
