# generated using pymatgen
data_NaCa5(FeN3)2
_symmetry_space_group_name_H-M   'P 1'
_cell_length_a   7.18244723
_cell_length_b   7.12485322
_cell_length_c   4.98937200
_cell_angle_alpha   90.00000000
_cell_angle_beta   90.00000000
_cell_angle_gamma   118.75304854
_symmetry_Int_Tables_number   1
_chemical_formula_structural   NaCa5(FeN3)2
_chemical_formula_sum   'Na1 Ca5 Fe2 N6'
_cell_volume   223.84419373
_cell_formula_units_Z   1
loop_
 _symmetry_equiv_pos_site_id
 _symmetry_equiv_pos_as_xyz
  1  'x, y, z'
loop_
 _atom_site_type_symbol
 _atom_site_label
 _atom_site_symmetry_multiplicity
 _atom_site_fract_x
 _atom_site_fract_y
 _atom_site_fract_z
 _atom_site_occupancy
  Na  Na0  1  0.271273  0.911955  0.750000  1
  Ca  Ca1  1  0.629147  0.723509  0.750000  1
  Ca  Ca2  1  0.089481  0.372393  0.750000  1
  Ca  Ca3  1  0.723011  0.086330  0.250000  1
  Ca  Ca4  1  0.358287  0.263529  0.250000  1
  Ca  Ca5  1  0.919543  0.644421  0.250000  1
  Fe  Fe6  1  0.335977  0.666205  0.250000  1
  Fe  Fe7  1  0.660203  0.325373  0.750000  1
  N  N8  1  0.303704  0.891200  0.250000  1
  N  N9  1  0.596002  0.702617  0.250000  1
  N  N10  1  0.109258  0.410750  0.250000  1
  N  N11  1  0.715374  0.111640  0.750000  1
  N  N12  1  0.411447  0.310942  0.750000  1
  N  N13  1  0.877293  0.579136  0.750000  1
