# generated using pymatgen
data_Tb3ThAl16(GaIr3)2
_symmetry_space_group_name_H-M   'P 1'
_cell_length_a   7.57124633
_cell_length_b   7.58299692
_cell_length_c   9.55382000
_cell_angle_alpha   90.00000000
_cell_angle_beta   90.00000000
_cell_angle_gamma   119.47228388
_symmetry_Int_Tables_number   1
_chemical_formula_structural   Tb3ThAl16(GaIr3)2
_chemical_formula_sum   'Tb3 Th1 Al16 Ga2 Ir6'
_cell_volume   477.53024034
_cell_formula_units_Z   1
loop_
 _symmetry_equiv_pos_site_id
 _symmetry_equiv_pos_as_xyz
  1  'x, y, z'
loop_
 _atom_site_type_symbol
 _atom_site_label
 _atom_site_symmetry_multiplicity
 _atom_site_fract_x
 _atom_site_fract_y
 _atom_site_fract_z
 _atom_site_occupancy
  Tb  Tb0  1  0.003229  0.328342  0.750000  1
  Tb  Tb1  1  0.670104  0.990516  0.250000  1
  Tb  Tb2  1  0.327933  0.002365  0.750000  1
  Th  Th3  1  0.997950  0.674719  0.250000  1
  Al  Al4  1  0.870513  0.872406  0.750000  1
  Al  Al5  1  0.001446  0.331136  0.070745  1
  Al  Al6  1  0.998516  0.664031  0.919674  1
  Al  Al7  1  0.998516  0.664031  0.580326  1
  Al  Al8  1  0.340454  0.006826  0.429220  1
  Al  Al9  1  0.001446  0.331136  0.429255  1
  Al  Al10  1  0.664617  0.000335  0.575354  1
  Al  Al11  1  0.664617  0.000335  0.924646  1
  Al  Al12  1  0.340454  0.006826  0.070780  1
  Al  Al13  1  0.332285  0.332424  0.559997  1
  Al  Al14  1  0.662774  0.665298  0.457328  1
  Al  Al15  1  0.662774  0.665298  0.042672  1
  Al  Al16  1  0.332285  0.332424  0.940003  1
  Al  Al17  1  0.659370  0.449708  0.750000  1
  Al  Al18  1  0.546022  0.337420  0.250000  1
  Al  Al19  1  0.450335  0.661407  0.750000  1
  Ga  Ga20  1  0.133042  0.136784  0.250000  1
  Ga  Ga21  1  0.345166  0.546539  0.250000  1
  Ir  Ir22  1  0.672083  0.330135  0.001003  1
  Ir  Ir23  1  0.326221  0.671542  0.998435  1
  Ir  Ir24  1  0.326221  0.671542  0.501565  1
  Ir  Ir25  1  0.672083  0.330135  0.498997  1
  Ir  Ir26  1  0.999773  0.998170  0.998382  1
  Ir  Ir27  1  0.999773  0.998170  0.501618  1
