# generated using pymatgen
data_Yb5Eu8Dy7Si16
_symmetry_space_group_name_H-M   'P 1'
_cell_length_a   7.88633400
_cell_length_b   7.88182251
_cell_length_c   14.51285100
_cell_angle_alpha   90.14571441
_cell_angle_beta   89.99924442
_cell_angle_gamma   90.00445077
_symmetry_Int_Tables_number   1
_chemical_formula_structural   Yb5Eu8Dy7Si16
_chemical_formula_sum   'Yb5 Eu8 Dy7 Si16'
_cell_volume   902.09681178
_cell_formula_units_Z   1
loop_
 _symmetry_equiv_pos_site_id
 _symmetry_equiv_pos_as_xyz
  1  'x, y, z'
loop_
 _atom_site_type_symbol
 _atom_site_label
 _atom_site_symmetry_multiplicity
 _atom_site_fract_x
 _atom_site_fract_y
 _atom_site_fract_z
 _atom_site_occupancy
  Yb  Yb0  1  0.135446  0.989512  0.873043  1
  Yb  Yb1  1  0.686001  0.686500  0.499985  1
  Yb  Yb2  1  0.817700  0.184334  0.751433  1
  Yb  Yb3  1  0.185929  0.814336  0.250560  1
  Yb  Yb4  1  0.311088  0.308865  0.998498  1
  Eu  Eu5  1  0.992419  0.636828  0.042513  1
  Eu  Eu6  1  0.008983  0.364794  0.542057  1
  Eu  Eu7  1  0.635692  0.989098  0.958014  1
  Eu  Eu8  1  0.135511  0.510586  0.791602  1
  Eu  Eu9  1  0.863585  0.490714  0.291976  1
  Eu  Eu10  1  0.508768  0.135283  0.207725  1
  Eu  Eu11  1  0.489947  0.866425  0.707459  1
  Eu  Eu12  1  0.363813  0.010140  0.458410  1
  Dy  Dy13  1  0.366303  0.493682  0.376541  1
  Dy  Dy14  1  0.866786  0.006648  0.373790  1
  Dy  Dy15  1  0.992691  0.134274  0.126660  1
  Dy  Dy16  1  0.005621  0.867813  0.625953  1
  Dy  Dy17  1  0.633303  0.506359  0.876265  1
  Dy  Dy18  1  0.494583  0.366749  0.622888  1
  Dy  Dy19  1  0.505861  0.632235  0.124783  1
  Si  Si20  1  0.076416  0.715506  0.443184  1
  Si  Si21  1  0.920786  0.289031  0.944982  1
  Si  Si22  1  0.715887  0.077401  0.556342  1
  Si  Si23  1  0.214805  0.422899  0.193610  1
  Si  Si24  1  0.782760  0.575387  0.691669  1
  Si  Si25  1  0.427720  0.218809  0.804091  1
  Si  Si26  1  0.577087  0.785141  0.307516  1
  Si  Si27  1  0.288016  0.921034  0.059839  1
  Si  Si28  1  0.841754  0.789741  0.806927  1
  Si  Si29  1  0.150863  0.209649  0.310350  1
  Si  Si30  1  0.791068  0.848933  0.190717  1
  Si  Si31  1  0.290635  0.652691  0.559798  1
  Si  Si32  1  0.708682  0.350278  0.061682  1
  Si  Si33  1  0.650664  0.289934  0.439043  1
  Si  Si34  1  0.350874  0.704595  0.943276  1
  Si  Si35  1  0.211952  0.153798  0.686822  1
