# generated using pymatgen
data_Er4Tc3B16W
_symmetry_space_group_name_H-M   'P 1'
_cell_length_a   3.58257000
_cell_length_b   5.96927770
_cell_length_c   11.54295735
_cell_angle_alpha   89.94449388
_cell_angle_beta   90.00000000
_cell_angle_gamma   90.00000000
_symmetry_Int_Tables_number   1
_chemical_formula_structural   Er4Tc3B16W
_chemical_formula_sum   'Er4 Tc3 B16 W1'
_cell_volume   246.85012736
_cell_formula_units_Z   1
loop_
 _symmetry_equiv_pos_site_id
 _symmetry_equiv_pos_as_xyz
  1  'x, y, z'
loop_
 _atom_site_type_symbol
 _atom_site_label
 _atom_site_symmetry_multiplicity
 _atom_site_fract_x
 _atom_site_fract_y
 _atom_site_fract_z
 _atom_site_occupancy
  Er  Er0  1  0.000000  0.625709  0.348029  1
  Er  Er1  1  0.000000  0.372527  0.651920  1
  Er  Er2  1  0.000000  0.127022  0.148126  1
  Er  Er3  1  0.000000  0.872509  0.852587  1
  Tc  Tc4  1  0.000000  0.635412  0.088907  1
  Tc  Tc5  1  0.000000  0.365629  0.912633  1
  Tc  Tc6  1  0.000000  0.130229  0.414390  1
  B  B7  1  0.500000  0.787260  0.185162  1
  B  B8  1  0.500000  0.213715  0.815465  1
  B  B9  1  0.500000  0.287354  0.314134  1
  B  B10  1  0.500000  0.709861  0.687428  1
  B  B11  1  0.500000  0.864600  0.031224  1
  B  B12  1  0.500000  0.135760  0.969068  1
  B  B13  1  0.500000  0.365331  0.466946  1
  B  B14  1  0.500000  0.632109  0.530598  1
  B  B15  1  0.500000  0.886507  0.450366  1
  B  B16  1  0.500000  0.117630  0.546445  1
  B  B17  1  0.500000  0.386375  0.047257  1
  B  B18  1  0.500000  0.613838  0.953002  1
  B  B19  1  0.500000  0.977687  0.306066  1
  B  B20  1  0.500000  0.025451  0.694401  1
  B  B21  1  0.500000  0.475427  0.192393  1
  B  B22  1  0.500000  0.522823  0.808228  1
  W  W23  1  0.000000  0.869235  0.585224  1
