# generated using pymatgen
data_CeLu(Si7Rh3)2
_symmetry_space_group_name_H-M   'P 1'
_cell_length_a   8.01334233
_cell_length_b   8.01334252
_cell_length_c   8.01334388
_cell_angle_alpha   56.96907522
_cell_angle_beta   56.96907105
_cell_angle_gamma   56.96907817
_symmetry_Int_Tables_number   1
_chemical_formula_structural   CeLu(Si7Rh3)2
_chemical_formula_sum   'Ce1 Lu1 Si14 Rh6'
_cell_volume   338.42099409
_cell_formula_units_Z   1
loop_
 _symmetry_equiv_pos_site_id
 _symmetry_equiv_pos_as_xyz
  1  'x, y, z'
loop_
 _atom_site_type_symbol
 _atom_site_label
 _atom_site_symmetry_multiplicity
 _atom_site_fract_x
 _atom_site_fract_y
 _atom_site_fract_z
 _atom_site_occupancy
  Ce  Ce0  1  0.500000  0.500000  0.500000  1
  Lu  Lu1  1  0.000000  0.000000  0.000000  1
  Si  Si2  1  0.749797  0.749797  0.749797  1
  Si  Si3  1  0.250203  0.250203  0.250203  1
  Si  Si4  1  0.852797  0.064636  0.672480  1
  Si  Si5  1  0.672480  0.852797  0.064636  1
  Si  Si6  1  0.064636  0.672480  0.852797  1
  Si  Si7  1  0.649983  0.828119  0.434675  1
  Si  Si8  1  0.434675  0.649983  0.828119  1
  Si  Si9  1  0.828119  0.434675  0.649983  1
  Si  Si10  1  0.171881  0.565325  0.350017  1
  Si  Si11  1  0.565325  0.350017  0.171881  1
  Si  Si12  1  0.350017  0.171881  0.565325  1
  Si  Si13  1  0.935364  0.327520  0.147203  1
  Si  Si14  1  0.327520  0.147203  0.935364  1
  Si  Si15  1  0.147203  0.935364  0.327520  1
  Rh  Rh16  1  0.067735  0.428624  0.752061  1
  Rh  Rh17  1  0.247939  0.932265  0.571376  1
  Rh  Rh18  1  0.571376  0.247939  0.932265  1
  Rh  Rh19  1  0.932265  0.571376  0.247939  1
  Rh  Rh20  1  0.428624  0.752061  0.067735  1
  Rh  Rh21  1  0.752061  0.067735  0.428624  1
