# generated using pymatgen
data_NdSmY4CoI10
_symmetry_space_group_name_H-M   'P 1'
_cell_length_a   7.76293218
_cell_length_b   9.76861240
_cell_length_c   9.72951769
_cell_angle_alpha   106.90232735
_cell_angle_beta   96.44952282
_cell_angle_gamma   104.97831785
_symmetry_Int_Tables_number   1
_chemical_formula_structural   NdSmY4CoI10
_chemical_formula_sum   'Nd1 Sm1 Y4 Co1 I10'
_cell_volume   667.78657422
_cell_formula_units_Z   1
loop_
 _symmetry_equiv_pos_site_id
 _symmetry_equiv_pos_as_xyz
  1  'x, y, z'
loop_
 _atom_site_type_symbol
 _atom_site_label
 _atom_site_symmetry_multiplicity
 _atom_site_fract_x
 _atom_site_fract_y
 _atom_site_fract_z
 _atom_site_occupancy
  Nd  Nd0  1  0.887646  0.958512  0.231006  1
  Sm  Sm1  1  0.111244  0.040905  0.770730  1
  Y  Y2  1  0.030333  0.717493  0.914767  1
  Y  Y3  1  0.970031  0.282629  0.084248  1
  Y  Y4  1  0.656379  0.877321  0.836142  1
  Y  Y5  1  0.344165  0.122987  0.163129  1
  Co  Co6  1  0.000138  0.999977  0.999554  1
  I  I7  1  0.649819  0.551145  0.728995  1
  I  I8  1  0.350110  0.448883  0.271041  1
  I  I9  1  0.738926  0.911864  0.541706  1
  I  I10  1  0.263717  0.089108  0.460487  1
  I  I11  1  0.085038  0.374118  0.820723  1
  I  I12  1  0.915339  0.623704  0.178368  1
  I  I13  1  0.450109  0.815552  0.091048  1
  I  I14  1  0.547649  0.183608  0.907875  1
  I  I15  1  0.223648  0.741853  0.655823  1
  I  I16  1  0.775710  0.260339  0.344357  1
