# generated using pymatgen
data_SmTh3(B10Rh)2
_symmetry_space_group_name_H-M   'P 1'
_cell_length_a   4.19585100
_cell_length_b   5.72880709
_cell_length_c   11.44046117
_cell_angle_alpha   90.02002766
_cell_angle_beta   90.00000000
_cell_angle_gamma   90.00000000
_symmetry_Int_Tables_number   1
_chemical_formula_structural   SmTh3(B10Rh)2
_chemical_formula_sum   'Sm1 Th3 B20 Rh2'
_cell_volume   274.99687619
_cell_formula_units_Z   1
loop_
 _symmetry_equiv_pos_site_id
 _symmetry_equiv_pos_as_xyz
  1  'x, y, z'
loop_
 _atom_site_type_symbol
 _atom_site_label
 _atom_site_symmetry_multiplicity
 _atom_site_fract_x
 _atom_site_fract_y
 _atom_site_fract_z
 _atom_site_occupancy
  Sm  Sm0  1  0.500000  0.700470  0.137205  1
  Th  Th1  1  0.500000  0.201807  0.363127  1
  Th  Th2  1  0.500000  0.798068  0.636778  1
  Th  Th3  1  0.500000  0.296325  0.864657  1
  B  B4  1  0.000000  0.381906  0.043185  1
  B  B5  1  0.000000  0.618097  0.956851  1
  B  B6  1  0.000000  0.117967  0.542896  1
  B  B7  1  0.000000  0.881828  0.456859  1
  B  B8  1  0.000000  0.362296  0.197745  1
  B  B9  1  0.000000  0.636295  0.802706  1
  B  B10  1  0.000000  0.136638  0.697771  1
  B  B11  1  0.000000  0.863462  0.302317  1
  B  B12  1  0.000000  0.054596  0.192436  1
  B  B13  1  0.000000  0.945731  0.807419  1
  B  B14  1  0.000000  0.445495  0.693008  1
  B  B15  1  0.000000  0.553905  0.307370  1
  B  B16  1  0.301708  0.219807  0.118521  1
  B  B17  1  0.698682  0.782579  0.881175  1
  B  B18  1  0.301318  0.782579  0.881175  1
  B  B19  1  0.697989  0.281954  0.619019  1
  B  B20  1  0.698292  0.219807  0.118521  1
  B  B21  1  0.301970  0.718148  0.380329  1
  B  B22  1  0.698030  0.718148  0.380329  1
  B  B23  1  0.302011  0.281954  0.619019  1
  Rh  Rh24  1  0.000000  0.000732  0.000035  1
  Rh  Rh25  1  0.000000  0.499404  0.499546  1
