# generated using pymatgen
data_Er5BiRuO12
_symmetry_space_group_name_H-M   'P 1'
_cell_length_a   6.45259771
_cell_length_b   6.41725218
_cell_length_c   6.43092644
_cell_angle_alpha   98.47025365
_cell_angle_beta   98.94448505
_cell_angle_gamma   99.11791191
_symmetry_Int_Tables_number   1
_chemical_formula_structural   Er5BiRuO12
_chemical_formula_sum   'Er5 Bi1 Ru1 O12'
_cell_volume   255.66210562
_cell_formula_units_Z   1
loop_
 _symmetry_equiv_pos_site_id
 _symmetry_equiv_pos_as_xyz
  1  'x, y, z'
loop_
 _atom_site_type_symbol
 _atom_site_label
 _atom_site_symmetry_multiplicity
 _atom_site_fract_x
 _atom_site_fract_y
 _atom_site_fract_z
 _atom_site_occupancy
  Er  Er0  1  0.143951  0.614920  0.311406  1
  Er  Er1  1  0.693966  0.860017  0.395437  1
  Er  Er2  1  0.300472  0.140744  0.609067  1
  Er  Er3  1  0.863535  0.392208  0.693205  1
  Er  Er4  1  0.384035  0.694528  0.854186  1
  Bi  Bi5  1  0.607357  0.307503  0.138288  1
  Ru  Ru6  1  0.995890  0.998744  0.002968  1
  O  O7  1  0.700259  0.925696  0.039197  1
  O  O8  1  0.967156  0.297183  0.073769  1
  O  O9  1  0.433324  0.580545  0.177667  1
  O  O10  1  0.069262  0.958488  0.304333  1
  O  O11  1  0.824756  0.568282  0.411903  1
  O  O12  1  0.584616  0.181017  0.433752  1
  O  O13  1  0.412645  0.825494  0.563822  1
  O  O14  1  0.178218  0.436513  0.590088  1
  O  O15  1  0.926023  0.042911  0.697459  1
  O  O16  1  0.565928  0.414700  0.818411  1
  O  O17  1  0.044849  0.695698  0.930688  1
  O  O18  1  0.303759  0.064809  0.954354  1
