# generated using pymatgen
data_Y8Ho4Zn(InFe)2
_symmetry_space_group_name_H-M   'P 1'
_cell_length_a   8.43446590
_cell_length_b   8.43446052
_cell_length_c   8.43446519
_cell_angle_alpha   109.77450194
_cell_angle_beta   109.77489657
_cell_angle_gamma   108.86598691
_symmetry_Int_Tables_number   1
_chemical_formula_structural   Y8Ho4Zn(InFe)2
_chemical_formula_sum   'Y8 Ho4 Zn1 In2 Fe2'
_cell_volume   461.86395917
_cell_formula_units_Z   1
loop_
 _symmetry_equiv_pos_site_id
 _symmetry_equiv_pos_as_xyz
  1  'x, y, z'
loop_
 _atom_site_type_symbol
 _atom_site_label
 _atom_site_symmetry_multiplicity
 _atom_site_fract_x
 _atom_site_fract_y
 _atom_site_fract_z
 _atom_site_occupancy
  Y  Y0  1  0.445436  0.201438  0.243994  1
  Y  Y1  1  0.554564  0.798562  0.756006  1
  Y  Y2  1  0.957444  0.201438  0.756002  1
  Y  Y3  1  0.201441  0.957445  0.756003  1
  Y  Y4  1  0.042556  0.798562  0.243998  1
  Y  Y5  1  0.798559  0.042555  0.243997  1
  Y  Y6  1  0.201443  0.445443  0.244000  1
  Y  Y7  1  0.798557  0.554557  0.756000  1
  Ho  Ho8  1  0.306790  0.306790  0.613578  1
  Ho  Ho9  1  0.693210  0.693210  0.386422  1
  Ho  Ho10  1  0.306788  0.693210  0.000001  1
  Ho  Ho11  1  0.693212  0.306790  0.999999  1
  Zn  Zn12  1  0.000000  0.000000  0.000000  1
  In  In13  1  0.500000  0.000000  0.500000  1
  In  In14  1  0.000000  0.500000  0.500000  1
  Fe  Fe15  1  0.388481  0.388481  0.000001  1
  Fe  Fe16  1  0.611519  0.611519  0.999999  1
