# generated using pymatgen
data_Ti3Si3Rh2W
_symmetry_space_group_name_H-M   'P 1'
_cell_length_a   7.43368415
_cell_length_b   7.43368476
_cell_length_c   7.43368408
_cell_angle_alpha   126.34746655
_cell_angle_beta   124.56824579
_cell_angle_gamma   80.78915190
_symmetry_Int_Tables_number   1
_chemical_formula_structural   Ti3Si3Rh2W
_chemical_formula_sum   'Ti6 Si6 Rh4 W2'
_cell_volume   262.65529246
_cell_formula_units_Z   2
loop_
 _symmetry_equiv_pos_site_id
 _symmetry_equiv_pos_as_xyz
  1  'x, y, z'
loop_
 _atom_site_type_symbol
 _atom_site_label
 _atom_site_symmetry_multiplicity
 _atom_site_fract_x
 _atom_site_fract_y
 _atom_site_fract_z
 _atom_site_occupancy
  Ti  Ti0  1  0.960951  0.729918  0.268966  1
  Ti  Ti1  1  0.039049  0.308016  0.768966  1
  Ti  Ti2  1  0.245490  0.165296  0.419807  1
  Ti  Ti3  1  0.754510  0.174319  0.919807  1
  Ti  Ti4  1  0.560962  0.346634  0.285671  1
  Ti  Ti5  1  0.439038  0.724709  0.785671  1
  Si  Si6  1  0.780609  0.802730  0.522122  1
  Si  Si7  1  0.219391  0.741513  0.022122  1
  Si  Si8  1  0.337872  0.068724  0.746289  1
  Si  Si9  1  0.662128  0.408416  0.730851  1
  Si  Si10  1  0.177565  0.408416  0.246289  1
  Si  Si11  1  0.822435  0.068724  0.230851  1
  Rh  Rh12  1  0.163890  0.002791  0.910501  1
  Rh  Rh13  1  0.836110  0.746610  0.838901  1
  Rh  Rh14  1  0.407709  0.746610  0.410501  1
  Rh  Rh15  1  0.592291  0.002791  0.338901  1
  W  W16  1  0.500000  0.497093  0.997093  1
  W  W17  1  0.000000  0.497093  0.497093  1
