# generated using pymatgen
data_Dy3ThAlRu
_symmetry_space_group_name_H-M   'P 1'
_cell_length_a   9.61869506
_cell_length_b   9.61869528
_cell_length_c   9.61869500
_cell_angle_alpha   59.99999753
_cell_angle_beta   59.99999676
_cell_angle_gamma   60.00000457
_symmetry_Int_Tables_number   1
_chemical_formula_structural   Dy3ThAlRu
_chemical_formula_sum   'Dy12 Th4 Al4 Ru4'
_cell_volume   629.26485320
_cell_formula_units_Z   4
loop_
 _symmetry_equiv_pos_site_id
 _symmetry_equiv_pos_as_xyz
  1  'x, y, z'
loop_
 _atom_site_type_symbol
 _atom_site_label
 _atom_site_symmetry_multiplicity
 _atom_site_fract_x
 _atom_site_fract_y
 _atom_site_fract_z
 _atom_site_occupancy
  Dy  Dy0  1  0.808566  0.191434  0.191434  1
  Dy  Dy1  1  0.191434  0.808566  0.808566  1
  Dy  Dy2  1  0.191434  0.808566  0.191434  1
  Dy  Dy3  1  0.808566  0.191434  0.808566  1
  Dy  Dy4  1  0.191434  0.191434  0.808566  1
  Dy  Dy5  1  0.808566  0.808566  0.191434  1
  Dy  Dy6  1  0.936733  0.563267  0.563267  1
  Dy  Dy7  1  0.563267  0.936733  0.936733  1
  Dy  Dy8  1  0.563267  0.936733  0.563267  1
  Dy  Dy9  1  0.936733  0.563267  0.936733  1
  Dy  Dy10  1  0.563267  0.563267  0.936733  1
  Dy  Dy11  1  0.936733  0.936733  0.563267  1
  Th  Th12  1  0.349795  0.349795  0.349795  1
  Th  Th13  1  0.349795  0.349795  0.950614  1
  Th  Th14  1  0.349795  0.950614  0.349795  1
  Th  Th15  1  0.950614  0.349795  0.349795  1
  Al  Al16  1  0.578350  0.578350  0.578350  1
  Al  Al17  1  0.578350  0.578350  0.264949  1
  Al  Al18  1  0.578350  0.264949  0.578350  1
  Al  Al19  1  0.264949  0.578350  0.578350  1
  Ru  Ru20  1  0.143468  0.143468  0.143468  1
  Ru  Ru21  1  0.143468  0.143468  0.569595  1
  Ru  Ru22  1  0.143468  0.569595  0.143468  1
  Ru  Ru23  1  0.569595  0.143468  0.143468  1
