# generated using pymatgen
data_Zr6Be14GaCu8
_symmetry_space_group_name_H-M   'P 1'
_cell_length_a   7.95246103
_cell_length_b   7.95246115
_cell_length_c   7.95246100
_cell_angle_alpha   59.99999645
_cell_angle_beta   59.99999598
_cell_angle_gamma   59.99999538
_symmetry_Int_Tables_number   1
_chemical_formula_structural   Zr6Be14GaCu8
_chemical_formula_sum   'Zr6 Be14 Ga1 Cu8'
_cell_volume   355.62281538
_cell_formula_units_Z   1
loop_
 _symmetry_equiv_pos_site_id
 _symmetry_equiv_pos_as_xyz
  1  'x, y, z'
loop_
 _atom_site_type_symbol
 _atom_site_label
 _atom_site_symmetry_multiplicity
 _atom_site_fract_x
 _atom_site_fract_y
 _atom_site_fract_z
 _atom_site_occupancy
  Zr  Zr0  1  0.703296  0.296704  0.296704  1
  Zr  Zr1  1  0.296704  0.703296  0.703296  1
  Zr  Zr2  1  0.296704  0.703296  0.296704  1
  Zr  Zr3  1  0.703296  0.296704  0.703296  1
  Zr  Zr4  1  0.296704  0.296704  0.703296  1
  Zr  Zr5  1  0.703296  0.703296  0.296704  1
  Be  Be6  1  0.324126  0.324126  0.324126  1
  Be  Be7  1  0.675874  0.675874  0.675874  1
  Be  Be8  1  0.324126  0.324126  0.027622  1
  Be  Be9  1  0.324126  0.027622  0.324126  1
  Be  Be10  1  0.675874  0.675874  0.972378  1
  Be  Be11  1  0.675874  0.972378  0.675874  1
  Be  Be12  1  0.027622  0.324126  0.324126  1
  Be  Be13  1  0.972378  0.675874  0.675874  1
  Be  Be14  1  0.500000  0.000000  0.000000  1
  Be  Be15  1  0.000000  0.500000  0.500000  1
  Be  Be16  1  0.000000  0.500000  0.000000  1
  Be  Be17  1  0.500000  0.000000  0.500000  1
  Be  Be18  1  0.000000  0.000000  0.500000  1
  Be  Be19  1  0.500000  0.500000  0.000000  1
  Ga  Ga20  1  0.000000  0.000000  0.000000  1
  Cu  Cu21  1  0.127747  0.127747  0.127747  1
  Cu  Cu22  1  0.872253  0.872253  0.872253  1
  Cu  Cu23  1  0.127747  0.127747  0.616761  1
  Cu  Cu24  1  0.127747  0.616761  0.127747  1
  Cu  Cu25  1  0.872253  0.872253  0.383239  1
  Cu  Cu26  1  0.872253  0.383239  0.872253  1
  Cu  Cu27  1  0.616761  0.127747  0.127747  1
  Cu  Cu28  1  0.383239  0.872253  0.872253  1
