# generated using pymatgen
data_NaMg(B2Rh3)2
_symmetry_space_group_name_H-M   'P 1'
_cell_length_a   2.87851900
_cell_length_b   5.60728500
_cell_length_c   9.63693300
_cell_angle_alpha   90.00000000
_cell_angle_beta   90.00000000
_cell_angle_gamma   90.00000000
_symmetry_Int_Tables_number   1
_chemical_formula_structural   NaMg(B2Rh3)2
_chemical_formula_sum   'Na1 Mg1 B4 Rh6'
_cell_volume   155.54661715
_cell_formula_units_Z   1
loop_
 _symmetry_equiv_pos_site_id
 _symmetry_equiv_pos_as_xyz
  1  'x, y, z'
loop_
 _atom_site_type_symbol
 _atom_site_label
 _atom_site_symmetry_multiplicity
 _atom_site_fract_x
 _atom_site_fract_y
 _atom_site_fract_z
 _atom_site_occupancy
  Na  Na0  1  0.000000  0.500416  0.500000  1
  Mg  Mg1  1  0.000000  0.999212  0.000000  1
  B  B2  1  0.000000  0.999964  0.334553  1
  B  B3  1  0.000000  0.499754  0.830687  1
  B  B4  1  0.000000  0.499754  0.169313  1
  B  B5  1  0.000000  0.999964  0.665447  1
  Rh  Rh6  1  0.500000  0.502055  0.000000  1
  Rh  Rh7  1  0.500000  0.001250  0.500000  1
  Rh  Rh8  1  0.500000  0.242292  0.239819  1
  Rh  Rh9  1  0.500000  0.756423  0.758795  1
  Rh  Rh10  1  0.500000  0.756423  0.241205  1
  Rh  Rh11  1  0.500000  0.242292  0.760181  1
