# generated using pymatgen
data_Sr2As2S5
_symmetry_space_group_name_H-M   'P 1'
_cell_length_a   11.71098500
_cell_length_b   8.93044804
_cell_length_c   9.64717681
_cell_angle_alpha   63.12398037
_cell_angle_beta   90.00000000
_cell_angle_gamma   90.00000000
_symmetry_Int_Tables_number   1
_chemical_formula_structural   Sr2As2S5
_chemical_formula_sum   'Sr8 As8 S20'
_cell_volume   899.96442833
_cell_formula_units_Z   4
loop_
 _symmetry_equiv_pos_site_id
 _symmetry_equiv_pos_as_xyz
  1  'x, y, z'
loop_
 _atom_site_type_symbol
 _atom_site_label
 _atom_site_symmetry_multiplicity
 _atom_site_fract_x
 _atom_site_fract_y
 _atom_site_fract_z
 _atom_site_occupancy
  Sr  Sr0  1  0.065962  0.821588  0.348372  1
  Sr  Sr1  1  0.565962  0.178412  0.651628  1
  Sr  Sr2  1  0.064768  0.329493  0.358685  1
  Sr  Sr3  1  0.564768  0.670507  0.641315  1
  Sr  Sr4  1  0.221203  0.578594  0.841306  1
  Sr  Sr5  1  0.721203  0.421406  0.158694  1
  Sr  Sr6  1  0.227846  0.075627  0.857788  1
  Sr  Sr7  1  0.727846  0.924373  0.142212  1
  As  As8  1  0.377776  0.237134  0.246202  1
  As  As9  1  0.490957  0.219359  0.991718  1
  As  As10  1  0.990957  0.780641  0.008282  1
  As  As11  1  0.877776  0.762866  0.753798  1
  As  As12  1  0.915908  0.390302  0.738834  1
  As  As13  1  0.415908  0.609698  0.261166  1
  As  As14  1  0.299451  0.964448  0.512821  1
  As  As15  1  0.799451  0.035552  0.487179  1
  S  S16  1  0.831709  0.657076  0.573090  1
  S  S17  1  0.331709  0.342924  0.426910  1
  S  S18  1  0.453465  0.510106  0.075835  1
  S  S19  1  0.953465  0.489894  0.924165  1
  S  S20  1  0.617029  0.046714  0.394825  1
  S  S21  1  0.172130  0.703728  0.094669  1
  S  S22  1  0.117029  0.953286  0.605175  1
  S  S23  1  0.672130  0.296272  0.905331  1
  S  S24  1  0.896979  0.631597  0.236185  1
  S  S25  1  0.396979  0.368403  0.763815  1
  S  S26  1  0.395738  0.885585  0.735725  1
  S  S27  1  0.895738  0.114415  0.264275  1
  S  S28  1  0.207305  0.226621  0.136902  1
  S  S29  1  0.707305  0.773379  0.863098  1
  S  S30  1  0.592076  0.568767  0.369658  1
  S  S31  1  0.092076  0.431233  0.630342  1
  S  S32  1  0.808653  0.267652  0.518516  1
  S  S33  1  0.308653  0.732348  0.481484  1
  S  S34  1  0.486346  0.960596  0.009478  1
  S  S35  1  0.986346  0.039404  0.990522  1
