# generated using pymatgen
data_Sc10CuBi6P
_symmetry_space_group_name_H-M   'P 1'
_cell_length_a   8.78843400
_cell_length_b   8.78843391
_cell_length_c   6.12529600
_cell_angle_alpha   90.00000000
_cell_angle_beta   90.00000000
_cell_angle_gamma   120.00000034
_symmetry_Int_Tables_number   1
_chemical_formula_structural   Sc10CuBi6P
_chemical_formula_sum   'Sc10 Cu1 Bi6 P1'
_cell_volume   409.71389934
_cell_formula_units_Z   1
loop_
 _symmetry_equiv_pos_site_id
 _symmetry_equiv_pos_as_xyz
  1  'x, y, z'
loop_
 _atom_site_type_symbol
 _atom_site_label
 _atom_site_symmetry_multiplicity
 _atom_site_fract_x
 _atom_site_fract_y
 _atom_site_fract_z
 _atom_site_occupancy
  Sc  Sc0  1  0.666667  0.333333  0.000000  1
  Sc  Sc1  1  0.333333  0.666667  0.000000  1
  Sc  Sc2  1  0.333333  0.666667  0.500000  1
  Sc  Sc3  1  0.666667  0.333333  0.500000  1
  Sc  Sc4  1  0.752603  0.752603  0.756594  1
  Sc  Sc5  1  0.247397  0.000000  0.756594  1
  Sc  Sc6  1  0.000000  0.247397  0.756594  1
  Sc  Sc7  1  0.247397  0.247397  0.243406  1
  Sc  Sc8  1  0.752603  0.000000  0.243406  1
  Sc  Sc9  1  0.000000  0.752603  0.243406  1
  Cu  Cu10  1  0.000000  0.000000  0.500000  1
  Bi  Bi11  1  0.391308  0.391308  0.746643  1
  Bi  Bi12  1  0.608692  0.000000  0.746643  1
  Bi  Bi13  1  0.000000  0.608692  0.746643  1
  Bi  Bi14  1  0.608692  0.608692  0.253357  1
  Bi  Bi15  1  0.391308  0.000000  0.253357  1
  Bi  Bi16  1  0.000000  0.391308  0.253357  1
  P  P17  1  0.000000  0.000000  0.000000  1
