# generated using pymatgen
data_HfZrSiPIr2
_symmetry_space_group_name_H-M   'P 1'
_cell_length_a   3.89751100
_cell_length_b   6.53466400
_cell_length_c   7.43588700
_cell_angle_alpha   90.00000000
_cell_angle_beta   90.00000000
_cell_angle_gamma   90.00000000
_symmetry_Int_Tables_number   1
_chemical_formula_structural   HfZrSiPIr2
_chemical_formula_sum   'Hf2 Zr2 Si2 P2 Ir4'
_cell_volume   189.38404698
_cell_formula_units_Z   2
loop_
 _symmetry_equiv_pos_site_id
 _symmetry_equiv_pos_as_xyz
  1  'x, y, z'
loop_
 _atom_site_type_symbol
 _atom_site_label
 _atom_site_symmetry_multiplicity
 _atom_site_fract_x
 _atom_site_fract_y
 _atom_site_fract_z
 _atom_site_occupancy
  Hf  Hf0  1  0.250000  0.023266  0.324075  1
  Hf  Hf1  1  0.250000  0.523266  0.175925  1
  Zr  Zr2  1  0.750000  0.979412  0.680441  1
  Zr  Zr3  1  0.750000  0.479412  0.819559  1
  Si  Si4  1  0.750000  0.728854  0.378764  1
  Si  Si5  1  0.750000  0.228854  0.121236  1
  P  P6  1  0.250000  0.268835  0.620979  1
  P  P7  1  0.250000  0.768835  0.879021  1
  Ir  Ir8  1  0.250000  0.148557  0.939788  1
  Ir  Ir9  1  0.250000  0.648557  0.560212  1
  Ir  Ir10  1  0.750000  0.851077  0.066335  1
  Ir  Ir11  1  0.750000  0.351077  0.433665  1
