# generated using pymatgen
data_Lu3Sn3IrRuPt
_symmetry_space_group_name_H-M   'P 1'
_cell_length_a   7.69010000
_cell_length_b   7.69010040
_cell_length_c   3.60451100
_cell_angle_alpha   90.00000000
_cell_angle_beta   90.00000000
_cell_angle_gamma   119.99998966
_symmetry_Int_Tables_number   1
_chemical_formula_structural   Lu3Sn3IrRuPt
_chemical_formula_sum   'Lu3 Sn3 Ir1 Ru1 Pt1'
_cell_volume   184.60396700
_cell_formula_units_Z   1
loop_
 _symmetry_equiv_pos_site_id
 _symmetry_equiv_pos_as_xyz
  1  'x, y, z'
loop_
 _atom_site_type_symbol
 _atom_site_label
 _atom_site_symmetry_multiplicity
 _atom_site_fract_x
 _atom_site_fract_y
 _atom_site_fract_z
 _atom_site_occupancy
  Lu  Lu0  1  0.401730  0.394379  0.500000  1
  Lu  Lu1  1  0.605621  0.007351  0.500000  1
  Lu  Lu2  1  0.992649  0.598270  0.500000  1
  Sn  Sn3  1  0.732185  0.730962  0.000000  1
  Sn  Sn4  1  0.269038  0.001224  0.000000  1
  Sn  Sn5  1  0.998776  0.267815  0.000000  1
  Ir  Ir6  1  0.666667  0.333333  0.000000  1
  Ru  Ru7  1  0.000000  0.000000  0.500000  1
  Pt  Pt8  1  0.333333  0.666667  0.000000  1
