# generated using pymatgen
data_Pr3Nd2Ir2Rh
_symmetry_space_group_name_H-M   'P 1'
_cell_length_a   11.26970400
_cell_length_b   11.26970400
_cell_length_c   6.65555400
_cell_angle_alpha   90.00000000
_cell_angle_beta   90.00000000
_cell_angle_gamma   90.00000000
_symmetry_Int_Tables_number   1
_chemical_formula_structural   Pr3Nd2Ir2Rh
_chemical_formula_sum   'Pr12 Nd8 Ir8 Rh4'
_cell_volume   845.29681044
_cell_formula_units_Z   4
loop_
 _symmetry_equiv_pos_site_id
 _symmetry_equiv_pos_as_xyz
  1  'x, y, z'
loop_
 _atom_site_type_symbol
 _atom_site_label
 _atom_site_symmetry_multiplicity
 _atom_site_fract_x
 _atom_site_fract_y
 _atom_site_fract_z
 _atom_site_occupancy
  Pr  Pr0  1  0.090593  0.291070  0.115740  1
  Pr  Pr1  1  0.791070  0.409407  0.115740  1
  Pr  Pr2  1  0.208930  0.590593  0.115740  1
  Pr  Pr3  1  0.909407  0.708930  0.115740  1
  Pr  Pr4  1  0.409255  0.790911  0.384429  1
  Pr  Pr5  1  0.590745  0.209089  0.384429  1
  Pr  Pr6  1  0.290911  0.090745  0.384429  1
  Pr  Pr7  1  0.709089  0.909255  0.384429  1
  Pr  Pr8  1  0.409213  0.209172  0.884073  1
  Pr  Pr9  1  0.709172  0.090787  0.884073  1
  Pr  Pr10  1  0.290828  0.909213  0.884073  1
  Pr  Pr11  1  0.590787  0.790828  0.884073  1
  Nd  Nd12  1  0.090450  0.708388  0.615249  1
  Nd  Nd13  1  0.909550  0.291612  0.615249  1
  Nd  Nd14  1  0.208388  0.409550  0.615249  1
  Nd  Nd15  1  0.791612  0.590450  0.615249  1
  Nd  Nd16  1  0.000000  0.000000  0.999850  1
  Nd  Nd17  1  0.500000  0.500000  0.999850  1
  Nd  Nd18  1  0.500000  0.500000  0.500258  1
  Nd  Nd19  1  0.000000  0.000000  0.500258  1
  Ir  Ir20  1  0.153234  0.846367  0.250790  1
  Ir  Ir21  1  0.346367  0.346766  0.250790  1
  Ir  Ir22  1  0.653633  0.653234  0.250790  1
  Ir  Ir23  1  0.846766  0.153633  0.250790  1
  Ir  Ir24  1  0.346041  0.653236  0.749646  1
  Ir  Ir25  1  0.153236  0.153959  0.749646  1
  Ir  Ir26  1  0.846764  0.846041  0.749646  1
  Ir  Ir27  1  0.653959  0.346764  0.749646  1
  Rh  Rh28  1  0.000000  0.500000  0.380975  1
  Rh  Rh29  1  0.500000  0.000000  0.120370  1
  Rh  Rh30  1  0.500000  0.000000  0.620352  1
  Rh  Rh31  1  0.000000  0.500000  0.878379  1
