# generated using pymatgen
data_Ho8TaPd5Pt19
_symmetry_space_group_name_H-M   'P 1'
_cell_length_a   8.33799539
_cell_length_b   8.32837000
_cell_length_c   8.35211600
_cell_angle_alpha   90.00000000
_cell_angle_beta   90.04333950
_cell_angle_gamma   90.00000000
_symmetry_Int_Tables_number   1
_chemical_formula_structural   Ho8TaPd5Pt19
_chemical_formula_sum   'Ho8 Ta1 Pd5 Pt19'
_cell_volume   579.98672690
_cell_formula_units_Z   1
loop_
 _symmetry_equiv_pos_site_id
 _symmetry_equiv_pos_as_xyz
  1  'x, y, z'
loop_
 _atom_site_type_symbol
 _atom_site_label
 _atom_site_symmetry_multiplicity
 _atom_site_fract_x
 _atom_site_fract_y
 _atom_site_fract_z
 _atom_site_occupancy
  Ho  Ho0  1  0.251874  0.251415  0.252224  1
  Ho  Ho1  1  0.747148  0.746625  0.747132  1
  Ho  Ho2  1  0.748040  0.748147  0.252343  1
  Ho  Ho3  1  0.747148  0.253375  0.747132  1
  Ho  Ho4  1  0.252817  0.252621  0.747015  1
  Ho  Ho5  1  0.251874  0.748585  0.252224  1
  Ho  Ho6  1  0.252817  0.747379  0.747015  1
  Ho  Ho7  1  0.748040  0.251853  0.252343  1
  Ta  Ta8  1  0.000717  0.000000  0.007520  1
  Pd  Pd9  1  0.500352  0.000000  0.733868  1
  Pd  Pd10  1  0.735671  0.000000  0.500959  1
  Pd  Pd11  1  0.999986  0.500000  0.263761  1
  Pd  Pd12  1  0.000077  0.500000  0.734049  1
  Pd  Pd13  1  0.999324  0.000000  0.700197  1
  Pt  Pt14  1  0.264435  0.500000  0.000006  1
  Pt  Pt15  1  0.735709  0.500000  0.000113  1
  Pt  Pt16  1  0.999960  0.264423  0.500279  1
  Pt  Pt17  1  0.500041  0.264577  0.999970  1
  Pt  Pt18  1  0.999960  0.735577  0.500279  1
  Pt  Pt19  1  0.500041  0.735423  0.999970  1
  Pt  Pt20  1  0.500370  0.000000  0.263950  1
  Pt  Pt21  1  0.264112  0.000000  0.500704  1
  Pt  Pt22  1  0.253788  0.500000  0.499459  1
  Pt  Pt23  1  0.746039  0.500000  0.499496  1
  Pt  Pt24  1  0.499805  0.254150  0.499191  1
  Pt  Pt25  1  0.499805  0.745850  0.499191  1
  Pt  Pt26  1  0.499959  0.500000  0.254780  1
  Pt  Pt27  1  0.499976  0.500000  0.744693  1
  Pt  Pt28  1  0.304996  0.000000  0.997421  1
  Pt  Pt29  1  0.695996  0.000000  0.997652  1
  Pt  Pt30  1  0.999987  0.305040  0.998001  1
  Pt  Pt31  1  0.999987  0.694960  0.998001  1
  Pt  Pt32  1  0.999150  0.000000  0.309065  1
