# generated using pymatgen
data_Tm3Zr(Co5As3)4
_symmetry_space_group_name_H-M   'P 1'
_cell_length_a   3.75640200
_cell_length_b   12.13714700
_cell_length_c   10.63179400
_cell_angle_alpha   89.99884878
_cell_angle_beta   90.00000000
_cell_angle_gamma   90.00000000
_symmetry_Int_Tables_number   1
_chemical_formula_structural   Tm3Zr(Co5As3)4
_chemical_formula_sum   'Tm3 Zr1 Co20 As12'
_cell_volume   484.72478671
_cell_formula_units_Z   1
loop_
 _symmetry_equiv_pos_site_id
 _symmetry_equiv_pos_as_xyz
  1  'x, y, z'
loop_
 _atom_site_type_symbol
 _atom_site_label
 _atom_site_symmetry_multiplicity
 _atom_site_fract_x
 _atom_site_fract_y
 _atom_site_fract_z
 _atom_site_occupancy
  Tm  Tm0  1  0.250000  0.297988  0.918626  1
  Tm  Tm1  1  0.250000  0.798048  0.581355  1
  Tm  Tm2  1  0.750000  0.201623  0.418696  1
  Zr  Zr3  1  0.750000  0.700172  0.079271  1
  Co  Co4  1  0.750000  0.697567  0.383063  1
  Co  Co5  1  0.250000  0.303136  0.615590  1
  Co  Co6  1  0.250000  0.801194  0.887083  1
  Co  Co7  1  0.750000  0.197041  0.114994  1
  Co  Co8  1  0.750000  0.992169  0.213339  1
  Co  Co9  1  0.250000  0.007632  0.786831  1
  Co  Co10  1  0.250000  0.509339  0.714295  1
  Co  Co11  1  0.750000  0.492534  0.285224  1
  Co  Co12  1  0.750000  0.678682  0.784751  1
  Co  Co13  1  0.250000  0.322226  0.215285  1
  Co  Co14  1  0.250000  0.821098  0.282440  1
  Co  Co15  1  0.750000  0.178779  0.716527  1
  Co  Co16  1  0.750000  0.928939  0.971100  1
  Co  Co17  1  0.250000  0.066500  0.031164  1
  Co  Co18  1  0.250000  0.568908  0.467884  1
  Co  Co19  1  0.750000  0.432226  0.530499  1
  Co  Co20  1  0.750000  0.987197  0.592697  1
  Co  Co21  1  0.250000  0.012137  0.407204  1
  Co  Co22  1  0.250000  0.515361  0.092746  1
  Co  Co23  1  0.750000  0.489764  0.909976  1
  As  As24  1  0.750000  0.614724  0.584846  1
  As  As25  1  0.250000  0.385889  0.414587  1
  As  As26  1  0.250000  0.882946  0.085504  1
  As  As27  1  0.750000  0.112952  0.914915  1
  As  As28  1  0.750000  0.889860  0.399828  1
  As  As29  1  0.250000  0.110057  0.599967  1
  As  As30  1  0.250000  0.610814  0.901185  1
  As  As31  1  0.750000  0.389988  0.099712  1
  As  As32  1  0.750000  0.870328  0.768589  1
  As  As33  1  0.250000  0.129691  0.231652  1
  As  As34  1  0.250000  0.630818  0.266104  1
  As  As35  1  0.750000  0.371673  0.732471  1
