# generated using pymatgen
data_Tb5Ho11(TmBi3)4
_symmetry_space_group_name_H-M   'P 1'
_cell_length_a   8.22376395
_cell_length_b   9.49580567
_cell_length_c   12.00640076
_cell_angle_alpha   89.97970654
_cell_angle_beta   90.02786163
_cell_angle_gamma   90.01577909
_symmetry_Int_Tables_number   1
_chemical_formula_structural   Tb5Ho11(TmBi3)4
_chemical_formula_sum   'Tb5 Ho11 Tm4 Bi12'
_cell_volume   937.59481106
_cell_formula_units_Z   1
loop_
 _symmetry_equiv_pos_site_id
 _symmetry_equiv_pos_as_xyz
  1  'x, y, z'
loop_
 _atom_site_type_symbol
 _atom_site_label
 _atom_site_symmetry_multiplicity
 _atom_site_fract_x
 _atom_site_fract_y
 _atom_site_fract_z
 _atom_site_occupancy
  Tb  Tb0  1  0.192368  0.563049  0.440799  1
  Tb  Tb1  1  0.312959  0.250039  0.218723  1
  Tb  Tb2  1  0.813284  0.250005  0.281185  1
  Tb  Tb3  1  0.687027  0.750122  0.781457  1
  Tb  Tb4  1  0.186996  0.750388  0.719002  1
  Ho  Ho5  1  0.353519  0.750484  0.216623  1
  Ho  Ho6  1  0.852516  0.750319  0.283053  1
  Ho  Ho7  1  0.647163  0.250190  0.783207  1
  Ho  Ho8  1  0.147360  0.250425  0.716848  1
  Ho  Ho9  1  0.692860  0.564668  0.059100  1
  Ho  Ho10  1  0.192925  0.934890  0.440646  1
  Ho  Ho11  1  0.307068  0.064638  0.940970  1
  Ho  Ho12  1  0.807569  0.435334  0.559055  1
  Ho  Ho13  1  0.307243  0.435339  0.940822  1
  Ho  Ho14  1  0.806467  0.064496  0.559506  1
  Ho  Ho15  1  0.692901  0.935402  0.059022  1
  Tm  Tm16  1  0.475779  0.250143  0.488512  1
  Tm  Tm17  1  0.975644  0.250167  0.011309  1
  Tm  Tm18  1  0.524636  0.750137  0.511545  1
  Tm  Tm19  1  0.024379  0.750087  0.988466  1
  Bi  Bi20  1  0.405548  0.749947  0.958563  1
  Bi  Bi21  1  0.905279  0.750554  0.541605  1
  Bi  Bi22  1  0.594481  0.250030  0.041342  1
  Bi  Bi23  1  0.093768  0.247724  0.459019  1
  Bi  Bi24  1  0.565551  0.995152  0.326513  1
  Bi  Bi25  1  0.065287  0.505318  0.173042  1
  Bi  Bi26  1  0.434529  0.495034  0.673669  1
  Bi  Bi27  1  0.934465  0.005429  0.826639  1
  Bi  Bi28  1  0.434563  0.005343  0.673480  1
  Bi  Bi29  1  0.934299  0.494924  0.826672  1
  Bi  Bi30  1  0.566127  0.505287  0.326407  1
  Bi  Bi31  1  0.065438  0.994933  0.173197  1
