# generated using pymatgen
data_CeLu3Al4Ru3Pt
_symmetry_space_group_name_H-M   'P 1'
_cell_length_a   4.07664600
_cell_length_b   6.89224859
_cell_length_c   8.03695294
_cell_angle_alpha   89.63109372
_cell_angle_beta   90.00000000
_cell_angle_gamma   90.00000000
_symmetry_Int_Tables_number   1
_chemical_formula_structural   CeLu3Al4Ru3Pt
_chemical_formula_sum   'Ce1 Lu3 Al4 Ru3 Pt1'
_cell_volume   225.81165695
_cell_formula_units_Z   1
loop_
 _symmetry_equiv_pos_site_id
 _symmetry_equiv_pos_as_xyz
  1  'x, y, z'
loop_
 _atom_site_type_symbol
 _atom_site_label
 _atom_site_symmetry_multiplicity
 _atom_site_fract_x
 _atom_site_fract_y
 _atom_site_fract_z
 _atom_site_occupancy
  Ce  Ce0  1  0.750000  0.967474  0.324819  1
  Lu  Lu1  1  0.250000  0.031450  0.679504  1
  Lu  Lu2  1  0.250000  0.542896  0.819438  1
  Lu  Lu3  1  0.750000  0.466402  0.179534  1
  Al  Al4  1  0.250000  0.138947  0.058483  1
  Al  Al5  1  0.250000  0.628448  0.443640  1
  Al  Al6  1  0.750000  0.856114  0.939337  1
  Al  Al7  1  0.750000  0.365578  0.559635  1
  Ru  Ru8  1  0.250000  0.259961  0.372892  1
  Ru  Ru9  1  0.250000  0.766157  0.126042  1
  Ru  Ru10  1  0.750000  0.740933  0.622000  1
  Pt  Pt11  1  0.750000  0.235643  0.874676  1
