# generated using pymatgen
data_Ho2UTc2Ru
_symmetry_space_group_name_H-M   'P 1'
_cell_length_a   5.78543456
_cell_length_b   5.78982702
_cell_length_c   8.15957500
_cell_angle_alpha   90.00000000
_cell_angle_beta   90.00000000
_cell_angle_gamma   120.02513066
_symmetry_Int_Tables_number   1
_chemical_formula_structural   Ho2UTc2Ru
_chemical_formula_sum   'Ho4 U2 Tc4 Ru2'
_cell_volume   236.64084687
_cell_formula_units_Z   2
loop_
 _symmetry_equiv_pos_site_id
 _symmetry_equiv_pos_as_xyz
  1  'x, y, z'
loop_
 _atom_site_type_symbol
 _atom_site_label
 _atom_site_symmetry_multiplicity
 _atom_site_fract_x
 _atom_site_fract_y
 _atom_site_fract_z
 _atom_site_occupancy
  Ho  Ho0  1  0.333673  0.666837  0.439161  1
  Ho  Ho1  1  0.667521  0.333760  0.556937  1
  Ho  Ho2  1  0.667521  0.333760  0.943063  1
  Ho  Ho3  1  0.333673  0.666837  0.060839  1
  U  U4  1  0.004163  0.002081  0.499738  1
  U  U5  1  0.004163  0.002081  0.000262  1
  Tc  Tc6  1  0.325412  0.162706  0.250000  1
  Tc  Tc7  1  0.164336  0.836775  0.750000  1
  Tc  Tc8  1  0.164336  0.327562  0.750000  1
  Tc  Tc9  1  0.671402  0.835701  0.750000  1
  Ru  Ru10  1  0.831900  0.165086  0.250000  1
  Ru  Ru11  1  0.831900  0.666813  0.250000  1
