# generated using pymatgen
data_Nb12Co12MoW
_symmetry_space_group_name_H-M   'P 1'
_cell_length_a   4.94836470
_cell_length_b   4.94831606
_cell_length_c   17.80362221
_cell_angle_alpha   97.96899591
_cell_angle_beta   97.96553372
_cell_angle_gamma   60.06472866
_symmetry_Int_Tables_number   1
_chemical_formula_structural   Nb12Co12MoW
_chemical_formula_sum   'Nb12 Co12 Mo1 W1'
_cell_volume   372.90858408
_cell_formula_units_Z   1
loop_
 _symmetry_equiv_pos_site_id
 _symmetry_equiv_pos_as_xyz
  1  'x, y, z'
loop_
 _atom_site_type_symbol
 _atom_site_label
 _atom_site_symmetry_multiplicity
 _atom_site_fract_x
 _atom_site_fract_y
 _atom_site_fract_z
 _atom_site_occupancy
  Nb  Nb0  1  0.416802  0.416827  0.250731  1
  Nb  Nb1  1  0.916944  0.916950  0.751443  1
  Nb  Nb2  1  0.083056  0.083050  0.248557  1
  Nb  Nb3  1  0.583198  0.583173  0.749269  1
  Nb  Nb4  1  0.774402  0.774405  0.325289  1
  Nb  Nb5  1  0.274529  0.274511  0.825027  1
  Nb  Nb6  1  0.725471  0.725489  0.174973  1
  Nb  Nb7  1  0.225598  0.225595  0.674711  1
  Nb  Nb8  1  0.827225  0.827250  0.480275  1
  Nb  Nb9  1  0.326932  0.326897  0.979371  1
  Nb  Nb10  1  0.673068  0.673103  0.020629  1
  Nb  Nb11  1  0.172775  0.172750  0.519725  1
  Co  Co12  1  0.698894  0.209237  0.115903  1
  Co  Co13  1  0.199837  0.709406  0.616429  1
  Co  Co14  1  0.208603  0.208598  0.116160  1
  Co  Co15  1  0.708632  0.708624  0.616690  1
  Co  Co16  1  0.209252  0.698883  0.115903  1
  Co  Co17  1  0.709400  0.199852  0.616429  1
  Co  Co18  1  0.800163  0.290594  0.383571  1
  Co  Co19  1  0.301106  0.790763  0.884097  1
  Co  Co20  1  0.291368  0.291376  0.383310  1
  Co  Co21  1  0.791397  0.791402  0.883840  1
  Co  Co22  1  0.290600  0.800148  0.383571  1
  Co  Co23  1  0.790748  0.301117  0.884097  1
  Mo  Mo24  1  0.500000  0.500000  0.500000  1
  W  W25  1  0.000000  0.000000  0.000000  1
