# generated using pymatgen
data_La2Dy3(GaSn)2
_symmetry_space_group_name_H-M   'P 1'
_cell_length_a   7.77075700
_cell_length_b   8.29984200
_cell_length_c   15.62313200
_cell_angle_alpha   90.00000000
_cell_angle_beta   90.00000000
_cell_angle_gamma   90.00000000
_symmetry_Int_Tables_number   1
_chemical_formula_structural   La2Dy3(GaSn)2
_chemical_formula_sum   'La8 Dy12 Ga8 Sn8'
_cell_volume   1007.63038575
_cell_formula_units_Z   4
loop_
 _symmetry_equiv_pos_site_id
 _symmetry_equiv_pos_as_xyz
  1  'x, y, z'
loop_
 _atom_site_type_symbol
 _atom_site_label
 _atom_site_symmetry_multiplicity
 _atom_site_fract_x
 _atom_site_fract_y
 _atom_site_fract_z
 _atom_site_occupancy
  La  La0  1  0.498586  0.318582  0.901930  1
  La  La1  1  0.998586  0.181418  0.598070  1
  La  La2  1  0.501414  0.681418  0.401930  1
  La  La3  1  0.001414  0.818582  0.098070  1
  La  La4  1  0.501414  0.681418  0.098070  1
  La  La5  1  0.001414  0.818582  0.401930  1
  La  La6  1  0.498586  0.318582  0.598070  1
  La  La7  1  0.998586  0.181418  0.901930  1
  Dy  Dy8  1  0.334881  0.827393  0.868178  1
  Dy  Dy9  1  0.834881  0.672607  0.631822  1
  Dy  Dy10  1  0.665119  0.172607  0.368178  1
  Dy  Dy11  1  0.165119  0.327393  0.131822  1
  Dy  Dy12  1  0.665119  0.172607  0.131822  1
  Dy  Dy13  1  0.165119  0.327393  0.368178  1
  Dy  Dy14  1  0.334881  0.827393  0.631822  1
  Dy  Dy15  1  0.834881  0.672607  0.868178  1
  Dy  Dy16  1  0.177538  0.480611  0.750000  1
  Dy  Dy17  1  0.677538  0.019389  0.750000  1
  Dy  Dy18  1  0.822462  0.519389  0.250000  1
  Dy  Dy19  1  0.322462  0.980611  0.250000  1
  Ga  Ga20  1  0.537979  0.607891  0.750000  1
  Ga  Ga21  1  0.037979  0.892109  0.750000  1
  Ga  Ga22  1  0.462021  0.392109  0.250000  1
  Ga  Ga23  1  0.962021  0.107891  0.250000  1
  Ga  Ga24  1  0.287605  0.122281  0.750000  1
  Ga  Ga25  1  0.787605  0.377719  0.750000  1
  Ga  Ga26  1  0.712395  0.877719  0.250000  1
  Ga  Ga27  1  0.212395  0.622281  0.250000  1
  Sn  Sn28  1  0.325960  0.038574  0.038202  1
  Sn  Sn29  1  0.825960  0.461426  0.461798  1
  Sn  Sn30  1  0.674040  0.961426  0.538202  1
  Sn  Sn31  1  0.174040  0.538574  0.961798  1
  Sn  Sn32  1  0.674040  0.961426  0.961798  1
  Sn  Sn33  1  0.174040  0.538574  0.538202  1
  Sn  Sn34  1  0.325960  0.038574  0.461798  1
  Sn  Sn35  1  0.825960  0.461426  0.038202  1
