# generated using pymatgen
data_CoB2MoW
_symmetry_space_group_name_H-M   'P 1'
_cell_length_a   4.52623261
_cell_length_b   4.52623177
_cell_length_c   4.52623305
_cell_angle_alpha   138.87569702
_cell_angle_beta   119.24681585
_cell_angle_gamma   76.00381981
_symmetry_Int_Tables_number   1
_chemical_formula_structural   CoB2MoW
_chemical_formula_sum   'Co1 B2 Mo1 W1'
_cell_volume   51.91006317
_cell_formula_units_Z   1
loop_
 _symmetry_equiv_pos_site_id
 _symmetry_equiv_pos_as_xyz
  1  'x, y, z'
loop_
 _atom_site_type_symbol
 _atom_site_label
 _atom_site_symmetry_multiplicity
 _atom_site_fract_x
 _atom_site_fract_y
 _atom_site_fract_z
 _atom_site_occupancy
  Co  Co0  1  0.999186  0.999186  0.000000  1
  B  B1  1  0.704561  0.499984  0.204578  1
  B  B2  1  0.295406  0.499984  0.795422  1
  Mo  Mo3  1  0.299366  0.799366  0.500000  1
  W  W4  1  0.701481  0.201481  0.500000  1
