# generated using pymatgen
data_Lu8Ta9Nb3Ge16
_symmetry_space_group_name_H-M   'P 1'
_cell_length_a   6.94426514
_cell_length_b   7.11390613
_cell_length_c   13.46631606
_cell_angle_alpha   89.99335953
_cell_angle_beta   90.00813031
_cell_angle_gamma   89.97873360
_symmetry_Int_Tables_number   1
_chemical_formula_structural   Lu8Ta9Nb3Ge16
_chemical_formula_sum   'Lu8 Ta9 Nb3 Ge16'
_cell_volume   665.24740739
_cell_formula_units_Z   1
loop_
 _symmetry_equiv_pos_site_id
 _symmetry_equiv_pos_as_xyz
  1  'x, y, z'
loop_
 _atom_site_type_symbol
 _atom_site_label
 _atom_site_symmetry_multiplicity
 _atom_site_fract_x
 _atom_site_fract_y
 _atom_site_fract_z
 _atom_site_occupancy
  Lu  Lu0  1  0.493725  0.675748  0.593635  1
  Lu  Lu1  1  0.993766  0.824246  0.906361  1
  Lu  Lu2  1  0.506178  0.324303  0.093683  1
  Lu  Lu3  1  0.006223  0.175590  0.406342  1
  Lu  Lu4  1  0.506391  0.324174  0.406367  1
  Lu  Lu5  1  0.006350  0.175789  0.093672  1
  Lu  Lu6  1  0.493669  0.675815  0.906368  1
  Lu  Lu7  1  0.993640  0.824242  0.593630  1
  Ta  Ta8  1  0.841112  0.669589  0.373942  1
  Ta  Ta9  1  0.341052  0.830402  0.373962  1
  Ta  Ta10  1  0.841157  0.669596  0.126077  1
  Ta  Ta11  1  0.658833  0.169622  0.873934  1
  Ta  Ta12  1  0.158818  0.330468  0.626060  1
  Ta  Ta13  1  0.835976  0.486631  0.749903  1
  Ta  Ta14  1  0.335942  0.013355  0.750040  1
  Ta  Ta15  1  0.163784  0.513334  0.250070  1
  Ta  Ta16  1  0.664272  0.986521  0.250115  1
  Nb  Nb17  1  0.658905  0.169402  0.625906  1
  Nb  Nb18  1  0.159146  0.330527  0.874064  1
  Nb  Nb19  1  0.340913  0.830530  0.125973  1
  Ge  Ge20  1  0.679709  0.963341  0.458548  1
  Ge  Ge21  1  0.179395  0.536444  0.041405  1
  Ge  Ge22  1  0.320618  0.036488  0.958596  1
  Ge  Ge23  1  0.820577  0.463588  0.541241  1
  Ge  Ge24  1  0.320118  0.036725  0.541219  1
  Ge  Ge25  1  0.820208  0.463400  0.958814  1
  Ge  Ge26  1  0.679801  0.963322  0.041200  1
  Ge  Ge27  1  0.179677  0.536697  0.458773  1
  Ge  Ge28  1  0.459657  0.382325  0.749877  1
  Ge  Ge29  1  0.959647  0.117665  0.750101  1
  Ge  Ge30  1  0.540383  0.617607  0.249969  1
  Ge  Ge31  1  0.040342  0.882397  0.250081  1
  Ge  Ge32  1  0.694756  0.854760  0.750012  1
  Ge  Ge33  1  0.194775  0.645255  0.749983  1
  Ge  Ge34  1  0.305275  0.145320  0.249999  1
  Ge  Ge35  1  0.805208  0.354780  0.250076  1
