# generated using pymatgen
data_Hf3Ta2Nb(B2Ru5)2
_symmetry_space_group_name_H-M   'P 1'
_cell_length_a   9.47489255
_cell_length_b   9.47489314
_cell_length_c   3.08626600
_cell_angle_alpha   90.00000000
_cell_angle_beta   90.00000000
_cell_angle_gamma   89.99012506
_symmetry_Int_Tables_number   1
_chemical_formula_structural   Hf3Ta2Nb(B2Ru5)2
_chemical_formula_sum   'Hf3 Ta2 Nb1 B4 Ru10'
_cell_volume   277.06518803
_cell_formula_units_Z   1
loop_
 _symmetry_equiv_pos_site_id
 _symmetry_equiv_pos_as_xyz
  1  'x, y, z'
loop_
 _atom_site_type_symbol
 _atom_site_label
 _atom_site_symmetry_multiplicity
 _atom_site_fract_x
 _atom_site_fract_y
 _atom_site_fract_z
 _atom_site_occupancy
  Hf  Hf0  1  0.824329  0.676641  0.000000  1
  Hf  Hf1  1  0.176641  0.324329  0.000000  1
  Hf  Hf2  1  0.323896  0.823896  0.000000  1
  Ta  Ta3  1  0.499712  0.500536  0.000000  1
  Ta  Ta4  1  0.000536  0.999712  0.000000  1
  Nb  Nb5  1  0.676769  0.176769  0.000000  1
  B  B6  1  0.621216  0.878673  0.000000  1
  B  B7  1  0.378673  0.121216  0.000000  1
  B  B8  1  0.120803  0.620803  0.000000  1
  B  B9  1  0.878440  0.378440  0.000000  1
  Ru  Ru10  1  0.571107  0.718754  0.500000  1
  Ru  Ru11  1  0.432404  0.281062  0.500000  1
  Ru  Ru12  1  0.069959  0.781407  0.500000  1
  Ru  Ru13  1  0.925732  0.216791  0.500000  1
  Ru  Ru14  1  0.281407  0.569959  0.500000  1
  Ru  Ru15  1  0.716791  0.425732  0.500000  1
  Ru  Ru16  1  0.218754  0.071107  0.500000  1
  Ru  Ru17  1  0.781062  0.932404  0.500000  1
  Ru  Ru18  1  0.502695  0.002695  0.500000  1
  Ru  Ru19  1  0.999076  0.499076  0.500000  1
