# generated using pymatgen
data_Li12La11Sm(RuO6)8
_symmetry_space_group_name_H-M   'P 1'
_cell_length_a   10.97702394
_cell_length_b   10.96651549
_cell_length_c   10.96652000
_cell_angle_alpha   109.38688283
_cell_angle_beta   109.49417005
_cell_angle_gamma   109.49400970
_symmetry_Int_Tables_number   1
_chemical_formula_structural   Li12La11Sm(RuO6)8
_chemical_formula_sum   'Li12 La11 Sm1 Ru8 O48'
_cell_volume   1016.73211904
_cell_formula_units_Z   1
loop_
 _symmetry_equiv_pos_site_id
 _symmetry_equiv_pos_as_xyz
  1  'x, y, z'
loop_
 _atom_site_type_symbol
 _atom_site_label
 _atom_site_symmetry_multiplicity
 _atom_site_fract_x
 _atom_site_fract_y
 _atom_site_fract_z
 _atom_site_occupancy
  Li  Li0  1  0.250001  0.875030  0.124936  1
  Li  Li1  1  0.375574  0.249638  0.124742  1
  Li  Li2  1  0.124515  0.375377  0.250567  1
  Li  Li3  1  0.625185  0.874916  0.249739  1
  Li  Li4  1  0.124305  0.749050  0.374072  1
  Li  Li5  1  0.749976  0.623824  0.373813  1
  Li  Li6  1  0.249980  0.374980  0.624965  1
  Li  Li7  1  0.874988  0.250209  0.624975  1
  Li  Li8  1  0.375555  0.125973  0.750964  1
  Li  Li9  1  0.874797  0.624650  0.749608  1
  Li  Li10  1  0.625104  0.750183  0.875301  1
  Li  Li11  1  0.750016  0.126220  0.876280  1
  La  La12  1  0.874041  0.748474  0.126107  1
  La  La13  1  0.375369  0.625246  0.250123  1
  La  La14  1  0.874174  0.125987  0.248303  1
  La  La15  1  0.249985  0.125220  0.375022  1
  La  La16  1  0.626010  0.252099  0.374180  1
  La  La17  1  0.750008  0.874780  0.624984  1
  La  La18  1  0.374895  0.749363  0.625063  1
  La  La19  1  0.124904  0.874751  0.750210  1
  La  La20  1  0.625582  0.374199  0.751551  1
  La  La21  1  0.250115  0.625014  0.874896  1
  La  La22  1  0.125047  0.249877  0.874455  1
  Sm  Sm23  1  0.749889  0.374926  0.125108  1
  Ru  Ru24  1  0.999927  0.999887  0.000113  1
  Ru  Ru25  1  0.500604  0.001753  0.000125  1
  Ru  Ru26  1  0.500617  0.498853  0.000499  1
  Ru  Ru27  1  0.999393  0.499504  0.001150  1
  Ru  Ru28  1  0.999934  0.000054  0.499822  1
  Ru  Ru29  1  0.500074  0.000181  0.499952  1
  Ru  Ru30  1  0.999388  0.499883  0.498251  1
  Ru  Ru31  1  0.500072  0.499890  0.500117  1
  O  O32  1  0.828435  0.908853  0.022728  1
  O  O33  1  0.695591  0.119199  0.025102  1
  O  O34  1  0.193688  0.671294  0.080858  1
  O  O35  1  0.387015  0.409026  0.080768  1
  O  O36  1  0.478614  0.671237  0.091623  1
  O  O37  1  0.113033  0.419188  0.090981  1
  O  O38  1  0.525735  0.198172  0.114060  1
  O  O39  1  0.090705  0.919078  0.113595  1
  O  O40  1  0.974373  0.588288  0.172339  1
  O  O41  1  0.695372  0.576403  0.170402  1
  O  O42  1  0.080769  0.171664  0.194013  1
  O  O43  1  0.612901  0.022599  0.193527  1
  O  O44  1  0.828553  0.919609  0.305927  1
  O  O45  1  0.974371  0.386068  0.302043  1
  O  O46  1  0.409307  0.022737  0.328447  1
  O  O47  1  0.419234  0.306073  0.328398  1
  O  O48  1  0.080698  0.909187  0.387008  1
  O  O49  1  0.804536  0.475025  0.380926  1
  O  O50  1  0.328521  0.522645  0.408950  1
  O  O51  1  0.580812  0.887013  0.409282  1
  O  O52  1  0.590883  0.613559  0.419069  1
  O  O53  1  0.328557  0.805970  0.419567  1
  O  O54  1  0.090650  0.171562  0.477275  1
  O  O55  1  0.887344  0.306680  0.477549  1
  O  O56  1  0.112999  0.693870  0.521994  1
  O  O57  1  0.909190  0.828313  0.522562  1
  O  O58  1  0.409273  0.386428  0.580952  1
  O  O59  1  0.671513  0.194126  0.580420  1
  O  O60  1  0.671543  0.477324  0.591120  1
  O  O61  1  0.419211  0.113073  0.590839  1
  O  O62  1  0.193771  0.522350  0.612900  1
  O  O63  1  0.919288  0.090700  0.612905  1
  O  O64  1  0.580770  0.693854  0.671498  1
  O  O65  1  0.590847  0.977426  0.671687  1
  O  O66  1  0.171386  0.080410  0.693976  1
  O  O67  1  0.021419  0.613072  0.692719  1
  O  O68  1  0.386760  0.977852  0.805907  1
  O  O69  1  0.919232  0.828452  0.806061  1
  O  O70  1  0.306299  0.419097  0.828663  1
  O  O71  1  0.021396  0.408334  0.828680  1
  O  O72  1  0.478473  0.807077  0.886796  1
  O  O73  1  0.909145  0.080914  0.886420  1
  O  O74  1  0.525592  0.327734  0.911740  1
  O  O75  1  0.887313  0.580591  0.909798  1
  O  O76  1  0.612646  0.590182  0.919448  1
  O  O77  1  0.804609  0.329645  0.923645  1
  O  O78  1  0.306106  0.886985  0.977527  1
  O  O79  1  0.171500  0.091077  0.977309  1
