# generated using pymatgen
data_Dy3Al3SiPt2
_symmetry_space_group_name_H-M   'P 1'
_cell_length_a   7.02991700
_cell_length_b   7.02991750
_cell_length_c   4.15118300
_cell_angle_alpha   90.00000000
_cell_angle_beta   90.00000000
_cell_angle_gamma   120.00000234
_symmetry_Int_Tables_number   1
_chemical_formula_structural   Dy3Al3SiPt2
_chemical_formula_sum   'Dy3 Al3 Si1 Pt2'
_cell_volume   177.66542806
_cell_formula_units_Z   1
loop_
 _symmetry_equiv_pos_site_id
 _symmetry_equiv_pos_as_xyz
  1  'x, y, z'
loop_
 _atom_site_type_symbol
 _atom_site_label
 _atom_site_symmetry_multiplicity
 _atom_site_fract_x
 _atom_site_fract_y
 _atom_site_fract_z
 _atom_site_occupancy
  Dy  Dy0  1  0.997060  0.416066  0.500000  1
  Dy  Dy1  1  0.583934  0.580994  0.500000  1
  Dy  Dy2  1  0.419006  0.002940  0.500000  1
  Al  Al3  1  0.989731  0.755793  0.000000  1
  Al  Al4  1  0.244207  0.233939  0.000000  1
  Al  Al5  1  0.766061  0.010269  0.000000  1
  Si  Si6  1  0.333333  0.666667  0.000000  1
  Pt  Pt7  1  0.666667  0.333333  0.000000  1
  Pt  Pt8  1  0.000000  0.000000  0.500000  1
