# generated using pymatgen
data_Rb2Cu3NiF10
_symmetry_space_group_name_H-M   'P 1'
_cell_length_a   6.54252944
_cell_length_b   6.62228659
_cell_length_c   7.13796041
_cell_angle_alpha   63.45321111
_cell_angle_beta   63.36565346
_cell_angle_gamma   68.54883897
_symmetry_Int_Tables_number   1
_chemical_formula_structural   Rb2Cu3NiF10
_chemical_formula_sum   'Rb2 Cu3 Ni1 F10'
_cell_volume   241.95499177
_cell_formula_units_Z   1
loop_
 _symmetry_equiv_pos_site_id
 _symmetry_equiv_pos_as_xyz
  1  'x, y, z'
loop_
 _atom_site_type_symbol
 _atom_site_label
 _atom_site_symmetry_multiplicity
 _atom_site_fract_x
 _atom_site_fract_y
 _atom_site_fract_z
 _atom_site_occupancy
  Rb  Rb0  1  0.621630  0.612003  0.634228  1
  Rb  Rb1  1  0.378370  0.387997  0.365772  1
  Cu  Cu2  1  0.000000  0.500000  0.000000  1
  Cu  Cu3  1  0.500000  0.000000  0.000000  1
  Cu  Cu4  1  0.000000  0.000000  0.000000  1
  Ni  Ni5  1  0.000000  0.000000  0.500000  1
  F  F6  1  0.281931  0.277664  0.914698  1
  F  F7  1  0.718069  0.722336  0.085302  1
  F  F8  1  0.076923  0.096490  0.684068  1
  F  F9  1  0.923077  0.903510  0.315932  1
  F  F10  1  0.054518  0.659875  0.689355  1
  F  F11  1  0.347216  0.961374  0.308126  1
  F  F12  1  0.945482  0.340125  0.310645  1
  F  F13  1  0.652784  0.038626  0.691874  1
  F  F14  1  0.759165  0.268323  0.004876  1
  F  F15  1  0.240835  0.731677  0.995124  1
