# generated using pymatgen
data_Tb3Nd2Ho(RuO7)2
_symmetry_space_group_name_H-M   'P 1'
_cell_length_a   6.46964247
_cell_length_b   6.46938790
_cell_length_c   7.51312600
_cell_angle_alpha   90.00000000
_cell_angle_beta   90.00000000
_cell_angle_gamma   110.15241230
_symmetry_Int_Tables_number   1
_chemical_formula_structural   Tb3Nd2Ho(RuO7)2
_chemical_formula_sum   'Tb3 Nd2 Ho1 Ru2 O14'
_cell_volume   295.20773897
_cell_formula_units_Z   1
loop_
 _symmetry_equiv_pos_site_id
 _symmetry_equiv_pos_as_xyz
  1  'x, y, z'
loop_
 _atom_site_type_symbol
 _atom_site_label
 _atom_site_symmetry_multiplicity
 _atom_site_fract_x
 _atom_site_fract_y
 _atom_site_fract_z
 _atom_site_occupancy
  Tb  Tb0  1  0.481313  0.928525  0.750000  1
  Tb  Tb1  1  0.518535  0.071052  0.250000  1
  Tb  Tb2  1  0.928727  0.481435  0.750000  1
  Nd  Nd3  1  0.000222  0.999971  0.499697  1
  Nd  Nd4  1  0.000222  0.999971  0.000303  1
  Ho  Ho5  1  0.068924  0.517822  0.250000  1
  Ru  Ru6  1  0.500023  0.500197  0.499591  1
  Ru  Ru7  1  0.500023  0.500197  0.000409  1
  O  O8  1  0.588948  0.588699  0.750000  1
  O  O9  1  0.410131  0.411398  0.250000  1
  O  O10  1  0.839542  0.115782  0.750000  1
  O  O11  1  0.160517  0.880873  0.250000  1
  O  O12  1  0.115849  0.839563  0.750000  1
  O  O13  1  0.885364  0.163145  0.250000  1
  O  O14  1  0.439893  0.182337  0.962749  1
  O  O15  1  0.560632  0.817968  0.462616  1
  O  O16  1  0.182318  0.440800  0.964221  1
  O  O17  1  0.817987  0.559581  0.461711  1
  O  O18  1  0.439893  0.182337  0.537251  1
  O  O19  1  0.560632  0.817968  0.037384  1
  O  O20  1  0.817987  0.559581  0.038289  1
  O  O21  1  0.182318  0.440800  0.535779  1
