# generated using pymatgen
data_HoLu4Th3(MgRu)2
_symmetry_space_group_name_H-M   'P 1'
_cell_length_a   9.66729817
_cell_length_b   9.72751031
_cell_length_c   9.72066854
_cell_angle_alpha   59.61397499
_cell_angle_beta   60.22820370
_cell_angle_gamma   60.15781703
_symmetry_Int_Tables_number   1
_chemical_formula_structural   HoLu4Th3(MgRu)2
_chemical_formula_sum   'Ho2 Lu8 Th6 Mg4 Ru4'
_cell_volume   646.33570447
_cell_formula_units_Z   2
loop_
 _symmetry_equiv_pos_site_id
 _symmetry_equiv_pos_as_xyz
  1  'x, y, z'
loop_
 _atom_site_type_symbol
 _atom_site_label
 _atom_site_symmetry_multiplicity
 _atom_site_fract_x
 _atom_site_fract_y
 _atom_site_fract_z
 _atom_site_occupancy
  Ho  Ho0  1  0.565287  0.565287  0.934713  1
  Ho  Ho1  1  0.934713  0.934713  0.565287  1
  Lu  Lu2  1  0.189246  0.810754  0.189246  1
  Lu  Lu3  1  0.810754  0.189246  0.810754  1
  Lu  Lu4  1  0.189272  0.189272  0.810728  1
  Lu  Lu5  1  0.810728  0.810728  0.189272  1
  Lu  Lu6  1  0.933066  0.566934  0.566934  1
  Lu  Lu7  1  0.566934  0.933066  0.933066  1
  Lu  Lu8  1  0.564228  0.935772  0.564228  1
  Lu  Lu9  1  0.935772  0.564228  0.935772  1
  Th  Th10  1  0.342720  0.349613  0.350178  1
  Th  Th11  1  0.349613  0.342720  0.957489  1
  Th  Th12  1  0.350178  0.957489  0.342720  1
  Th  Th13  1  0.957489  0.350178  0.349613  1
  Th  Th14  1  0.817144  0.182856  0.182856  1
  Th  Th15  1  0.182856  0.817144  0.817144  1
  Mg  Mg16  1  0.582865  0.579904  0.579137  1
  Mg  Mg17  1  0.579904  0.582865  0.258094  1
  Mg  Mg18  1  0.579137  0.258094  0.582865  1
  Mg  Mg19  1  0.258094  0.579137  0.579904  1
  Ru  Ru20  1  0.130378  0.147204  0.146043  1
  Ru  Ru21  1  0.147204  0.130378  0.576373  1
  Ru  Ru22  1  0.146043  0.576373  0.130378  1
  Ru  Ru23  1  0.576373  0.146043  0.147204  1
