# generated using pymatgen
data_UPIrN
_symmetry_space_group_name_H-M   'P 1'
_cell_length_a   3.88849100
_cell_length_b   3.88849100
_cell_length_c   7.93814500
_cell_angle_alpha   90.00000000
_cell_angle_beta   90.00000000
_cell_angle_gamma   90.00000000
_symmetry_Int_Tables_number   1
_chemical_formula_structural   UPIrN
_chemical_formula_sum   'U2 P2 Ir2 N2'
_cell_volume   120.02762805
_cell_formula_units_Z   2
loop_
 _symmetry_equiv_pos_site_id
 _symmetry_equiv_pos_as_xyz
  1  'x, y, z'
loop_
 _atom_site_type_symbol
 _atom_site_label
 _atom_site_symmetry_multiplicity
 _atom_site_fract_x
 _atom_site_fract_y
 _atom_site_fract_z
 _atom_site_occupancy
  U  U0  1  0.000000  0.500000  0.146619  1
  U  U1  1  0.500000  0.000000  0.853381  1
  P  P2  1  0.500000  0.000000  0.326919  1
  P  P3  1  0.000000  0.500000  0.673081  1
  Ir  Ir4  1  0.000000  0.000000  0.500001  1
  Ir  Ir5  1  0.500000  0.500000  0.500001  1
  N  N6  1  0.000000  0.000000  0.000000  1
  N  N7  1  0.500000  0.500000  0.000000  1
