# generated using pymatgen
data_Dy7Tm5Tc3Ir
_symmetry_space_group_name_H-M   'P 1'
_cell_length_a   6.25911834
_cell_length_b   7.37573055
_cell_length_c   9.06859492
_cell_angle_alpha   90.05755673
_cell_angle_beta   89.87058411
_cell_angle_gamma   89.94320049
_symmetry_Int_Tables_number   1
_chemical_formula_structural   Dy7Tm5Tc3Ir
_chemical_formula_sum   'Dy7 Tm5 Tc3 Ir1'
_cell_volume   418.65537085
_cell_formula_units_Z   1
loop_
 _symmetry_equiv_pos_site_id
 _symmetry_equiv_pos_as_xyz
  1  'x, y, z'
loop_
 _atom_site_type_symbol
 _atom_site_label
 _atom_site_symmetry_multiplicity
 _atom_site_fract_x
 _atom_site_fract_y
 _atom_site_fract_z
 _atom_site_occupancy
  Dy  Dy0  1  0.836479  0.825483  0.562573  1
  Dy  Dy1  1  0.333769  0.676127  0.435799  1
  Dy  Dy2  1  0.161430  0.175834  0.062915  1
  Dy  Dy3  1  0.874245  0.540982  0.249119  1
  Dy  Dy4  1  0.625017  0.039298  0.249490  1
  Dy  Dy5  1  0.129420  0.457082  0.750730  1
  Dy  Dy6  1  0.373249  0.959926  0.750463  1
  Tm  Tm7  1  0.334721  0.675869  0.063009  1
  Tm  Tm8  1  0.161837  0.175997  0.437125  1
  Tm  Tm9  1  0.663399  0.322698  0.562541  1
  Tm  Tm10  1  0.835976  0.824985  0.937776  1
  Tm  Tm11  1  0.663443  0.323257  0.937884  1
  Tc  Tc12  1  0.040307  0.884091  0.248202  1
  Tc  Tc13  1  0.463355  0.386605  0.250467  1
  Tc  Tc14  1  0.958509  0.117067  0.748724  1
  Ir  Ir15  1  0.544845  0.614699  0.753184  1
