# generated using pymatgen
data_Zn13Ir
_symmetry_space_group_name_H-M   'P 1'
_cell_length_a   6.61785886
_cell_length_b   6.61785833
_cell_length_c   5.23657125
_cell_angle_alpha   80.73523169
_cell_angle_beta   80.73523389
_cell_angle_gamma   69.83490778
_symmetry_Int_Tables_number   1
_chemical_formula_structural   Zn13Ir
_chemical_formula_sum   'Zn13 Ir1'
_cell_volume   211.09284113
_cell_formula_units_Z   1
loop_
 _symmetry_equiv_pos_site_id
 _symmetry_equiv_pos_as_xyz
  1  'x, y, z'
loop_
 _atom_site_type_symbol
 _atom_site_label
 _atom_site_symmetry_multiplicity
 _atom_site_fract_x
 _atom_site_fract_y
 _atom_site_fract_z
 _atom_site_occupancy
  Zn  Zn0  1  0.363669  0.997321  0.199407  1
  Zn  Zn1  1  0.636331  0.002679  0.800593  1
  Zn  Zn2  1  0.002679  0.636331  0.800593  1
  Zn  Zn3  1  0.997321  0.363669  0.199407  1
  Zn  Zn4  1  0.616431  0.223573  0.320836  1
  Zn  Zn5  1  0.383569  0.776427  0.679164  1
  Zn  Zn6  1  0.776427  0.383569  0.679164  1
  Zn  Zn7  1  0.223573  0.616431  0.320836  1
  Zn  Zn8  1  0.000000  0.000000  0.000000  1
  Zn  Zn9  1  0.611200  0.611200  0.069747  1
  Zn  Zn10  1  0.388800  0.388800  0.930253  1
  Zn  Zn11  1  0.774030  0.774030  0.368057  1
  Zn  Zn12  1  0.225970  0.225970  0.631943  1
  Ir  Ir13  1  0.000000  0.000000  0.500000  1
