# generated using pymatgen
data_Sr2Ta4CdHgO14
_symmetry_space_group_name_H-M   'P 1'
_cell_length_a   7.56383108
_cell_length_b   7.42967751
_cell_length_c   7.56383214
_cell_angle_alpha   60.07008558
_cell_angle_beta   60.76473595
_cell_angle_gamma   60.07008499
_symmetry_Int_Tables_number   1
_chemical_formula_structural   Sr2Ta4CdHgO14
_chemical_formula_sum   'Sr2 Ta4 Cd1 Hg1 O14'
_cell_volume   302.58722732
_cell_formula_units_Z   1
loop_
 _symmetry_equiv_pos_site_id
 _symmetry_equiv_pos_as_xyz
  1  'x, y, z'
loop_
 _atom_site_type_symbol
 _atom_site_label
 _atom_site_symmetry_multiplicity
 _atom_site_fract_x
 _atom_site_fract_y
 _atom_site_fract_z
 _atom_site_occupancy
  Sr  Sr0  1  0.625000  0.125000  0.125000  1
  Sr  Sr1  1  0.125000  0.125000  0.625000  1
  Ta  Ta2  1  0.625000  0.625000  0.625000  1
  Ta  Ta3  1  0.125000  0.625000  0.625000  1
  Ta  Ta4  1  0.625000  0.625000  0.125000  1
  Ta  Ta5  1  0.625000  0.125000  0.625000  1
  Cd  Cd6  1  0.125000  0.125000  0.125000  1
  Hg  Hg7  1  0.125000  0.625000  0.125000  1
  O  O8  1  0.570316  0.556913  0.934924  1
  O  O9  1  0.313037  0.308131  0.686066  1
  O  O10  1  0.933258  0.562656  0.933258  1
  O  O11  1  0.934924  0.556913  0.570316  1
  O  O12  1  0.563934  0.941869  0.936963  1
  O  O13  1  0.556336  0.944655  0.556336  1
  O  O14  1  0.316742  0.687344  0.316742  1
  O  O15  1  0.693664  0.305345  0.693664  1
  O  O16  1  0.226840  0.274565  0.226840  1
  O  O17  1  0.023160  0.975435  0.023160  1
  O  O18  1  0.936963  0.941869  0.563934  1
  O  O19  1  0.686066  0.308131  0.313037  1
  O  O20  1  0.315076  0.693087  0.679684  1
  O  O21  1  0.679684  0.693087  0.315076  1
