# generated using pymatgen
data_Ho11Er(Si3Pt)4
_symmetry_space_group_name_H-M   'P 1'
_cell_length_a   4.24203400
_cell_length_b   10.63866603
_cell_length_c   12.29298304
_cell_angle_alpha   89.99092958
_cell_angle_beta   90.00000000
_cell_angle_gamma   90.00000000
_symmetry_Int_Tables_number   1
_chemical_formula_structural   Ho11Er(Si3Pt)4
_chemical_formula_sum   'Ho11 Er1 Si12 Pt4'
_cell_volume   554.77719175
_cell_formula_units_Z   1
loop_
 _symmetry_equiv_pos_site_id
 _symmetry_equiv_pos_as_xyz
  1  'x, y, z'
loop_
 _atom_site_type_symbol
 _atom_site_label
 _atom_site_symmetry_multiplicity
 _atom_site_fract_x
 _atom_site_fract_y
 _atom_site_fract_z
 _atom_site_occupancy
  Ho  Ho0  1  0.250000  0.879039  0.020836  1
  Ho  Ho1  1  0.250000  0.621025  0.520914  1
  Ho  Ho2  1  0.750000  0.121018  0.978811  1
  Ho  Ho3  1  0.750000  0.378863  0.479113  1
  Ho  Ho4  1  0.250000  0.919396  0.601638  1
  Ho  Ho5  1  0.250000  0.580826  0.101677  1
  Ho  Ho6  1  0.750000  0.080696  0.398739  1
  Ho  Ho7  1  0.750000  0.419075  0.898206  1
  Ho  Ho8  1  0.250000  0.660808  0.801757  1
  Ho  Ho9  1  0.250000  0.839406  0.301800  1
  Ho  Ho10  1  0.750000  0.339086  0.198291  1
  Er  Er11  1  0.750000  0.160907  0.698462  1
  Si  Si12  1  0.250000  0.015855  0.822528  1
  Si  Si13  1  0.250000  0.484268  0.322778  1
  Si  Si14  1  0.750000  0.984541  0.177295  1
  Si  Si15  1  0.750000  0.515613  0.677222  1
  Si  Si16  1  0.250000  0.245381  0.842762  1
  Si  Si17  1  0.250000  0.254359  0.343223  1
  Si  Si18  1  0.750000  0.754593  0.157006  1
  Si  Si19  1  0.750000  0.745471  0.656951  1
  Si  Si20  1  0.250000  0.194555  0.541524  1
  Si  Si21  1  0.250000  0.305302  0.040746  1
  Si  Si22  1  0.750000  0.805201  0.459179  1
  Si  Si23  1  0.750000  0.694671  0.959155  1
  Pt  Pt24  1  0.250000  0.389446  0.681211  1
  Pt  Pt25  1  0.250000  0.110241  0.181277  1
  Pt  Pt26  1  0.750000  0.610066  0.318633  1
  Pt  Pt27  1  0.750000  0.890293  0.818268  1
