# generated using pymatgen
data_EuPd(SO4)2
_symmetry_space_group_name_H-M   'P 1'
_cell_length_a   5.66885463
_cell_length_b   4.76724239
_cell_length_c   7.99441517
_cell_angle_alpha   77.14824874
_cell_angle_beta   89.05729394
_cell_angle_gamma   64.49511358
_symmetry_Int_Tables_number   1
_chemical_formula_structural   EuPd(SO4)2
_chemical_formula_sum   'Eu1 Pd1 S2 O8'
_cell_volume   189.33454430
_cell_formula_units_Z   1
loop_
 _symmetry_equiv_pos_site_id
 _symmetry_equiv_pos_as_xyz
  1  'x, y, z'
loop_
 _atom_site_type_symbol
 _atom_site_label
 _atom_site_symmetry_multiplicity
 _atom_site_fract_x
 _atom_site_fract_y
 _atom_site_fract_z
 _atom_site_occupancy
  Eu  Eu0  1  0.499998  0.000000  0.999999  1
  Pd  Pd1  1  0.000000  0.499999  0.500000  1
  S  S2  1  0.092723  0.849513  0.762902  1
  S  S3  1  0.907276  0.150491  0.237099  1
  O  O4  1  0.812591  0.936846  0.779714  1
  O  O5  1  0.147399  0.142940  0.737225  1
  O  O6  1  0.187410  0.063154  0.220285  1
  O  O7  1  0.852601  0.857060  0.262776  1
  O  O8  1  0.811985  0.292433  0.387927  1
  O  O9  1  0.741381  0.369765  0.076382  1
  O  O10  1  0.188016  0.707567  0.612072  1
  O  O11  1  0.258620  0.630235  0.923620  1
