# generated using pymatgen
data_Th4Ga9SiRh6
_symmetry_space_group_name_H-M   'P 1'
_cell_length_a   8.67680107
_cell_length_b   8.59169233
_cell_length_c   8.59169277
_cell_angle_alpha   140.52805548
_cell_angle_beta   108.07732769
_cell_angle_gamma   85.15426057
_symmetry_Int_Tables_number   1
_chemical_formula_structural   Th4Ga9SiRh6
_chemical_formula_sum   'Th4 Ga9 Si1 Rh6'
_cell_volume   374.10781659
_cell_formula_units_Z   1
loop_
 _symmetry_equiv_pos_site_id
 _symmetry_equiv_pos_as_xyz
  1  'x, y, z'
loop_
 _atom_site_type_symbol
 _atom_site_label
 _atom_site_symmetry_multiplicity
 _atom_site_fract_x
 _atom_site_fract_y
 _atom_site_fract_z
 _atom_site_occupancy
  Th  Th0  1  0.636580  0.863519  0.773063  1
  Th  Th1  1  0.361956  0.140487  0.221470  1
  Th  Th2  1  0.911616  0.636270  0.275346  1
  Th  Th3  1  0.082513  0.359908  0.722605  1
  Ga  Ga4  1  0.998788  0.248033  0.249879  1
  Ga  Ga5  1  0.998788  0.748909  0.750754  1
  Ga  Ga6  1  0.291500  0.538802  0.249227  1
  Ga  Ga7  1  0.708126  0.962647  0.249943  1
  Ga  Ga8  1  0.708126  0.458183  0.745479  1
  Ga  Ga9  1  0.291500  0.042272  0.752697  1
  Ga  Ga10  1  0.430864  0.593037  0.837827  1
  Ga  Ga11  1  0.763370  0.098200  0.665172  1
  Ga  Ga12  1  0.246785  0.908324  0.338462  1
  Si  Si13  1  0.565022  0.405222  0.159800  1
  Rh  Rh14  1  0.049049  0.146858  0.902190  1
  Rh  Rh15  1  0.506576  0.745735  0.256586  1
  Rh  Rh16  1  0.244367  0.645572  0.598796  1
  Rh  Rh17  1  0.743606  0.356517  0.387087  1
  Rh  Rh18  1  0.954289  0.851516  0.102774  1
  Rh  Rh19  1  0.506576  0.249991  0.760841  1
