# generated using pymatgen
data_Ho8Tm4AlCo4Rh
_symmetry_space_group_name_H-M   'P 1'
_cell_length_a   8.20517697
_cell_length_b   8.20519983
_cell_length_c   8.20517759
_cell_angle_alpha   110.95781328
_cell_angle_beta   110.66742163
_cell_angle_gamma   106.82052529
_symmetry_Int_Tables_number   1
_chemical_formula_structural   Ho8Tm4AlCo4Rh
_chemical_formula_sum   'Ho8 Tm4 Al1 Co4 Rh1'
_cell_volume   424.56803699
_cell_formula_units_Z   1
loop_
 _symmetry_equiv_pos_site_id
 _symmetry_equiv_pos_as_xyz
  1  'x, y, z'
loop_
 _atom_site_type_symbol
 _atom_site_label
 _atom_site_symmetry_multiplicity
 _atom_site_fract_x
 _atom_site_fract_y
 _atom_site_fract_z
 _atom_site_occupancy
  Ho  Ho0  1  0.187627  0.291538  0.479165  1
  Ho  Ho1  1  0.812373  0.708462  0.520835  1
  Ho  Ho2  1  0.187627  0.708462  0.896090  1
  Ho  Ho3  1  0.812373  0.291538  0.103910  1
  Ho  Ho4  1  0.410159  0.216162  0.193995  1
  Ho  Ho5  1  0.589841  0.783838  0.806005  1
  Ho  Ho6  1  0.022167  0.216162  0.806005  1
  Ho  Ho7  1  0.977833  0.783838  0.193995  1
  Tm  Tm8  1  0.315869  0.620153  0.304283  1
  Tm  Tm9  1  0.684131  0.379847  0.695717  1
  Tm  Tm10  1  0.315867  0.011584  0.695717  1
  Tm  Tm11  1  0.684133  0.988416  0.304283  1
  Al  Al12  1  0.500000  0.500000  0.000000  1
  Co  Co13  1  0.113173  0.613175  0.500001  1
  Co  Co14  1  0.886827  0.386825  0.499999  1
  Co  Co15  1  0.378412  0.000000  0.378412  1
  Co  Co16  1  0.621588  0.000000  0.621588  1
  Rh  Rh17  1  0.000000  0.000000  0.000000  1
