# generated using pymatgen
data_Dy6Tm10Cd4TcNi3
_symmetry_space_group_name_H-M   'P 1'
_cell_length_a   9.52111710
_cell_length_b   9.52111775
_cell_length_c   9.52111757
_cell_angle_alpha   59.42422190
_cell_angle_beta   59.42422112
_cell_angle_gamma   59.42421044
_symmetry_Int_Tables_number   1
_chemical_formula_structural   Dy6Tm10Cd4TcNi3
_chemical_formula_sum   'Dy6 Tm10 Cd4 Tc1 Ni3'
_cell_volume   602.31205314
_cell_formula_units_Z   1
loop_
 _symmetry_equiv_pos_site_id
 _symmetry_equiv_pos_as_xyz
  1  'x, y, z'
loop_
 _atom_site_type_symbol
 _atom_site_label
 _atom_site_symmetry_multiplicity
 _atom_site_fract_x
 _atom_site_fract_y
 _atom_site_fract_z
 _atom_site_occupancy
  Dy  Dy0  1  0.186423  0.814389  0.814389  1
  Dy  Dy1  1  0.804064  0.190863  0.190863  1
  Dy  Dy2  1  0.814389  0.186423  0.814389  1
  Dy  Dy3  1  0.190863  0.804064  0.190863  1
  Dy  Dy4  1  0.814389  0.814389  0.186423  1
  Dy  Dy5  1  0.190863  0.190863  0.804064  1
  Tm  Tm6  1  0.596709  0.596709  0.596709  1
  Tm  Tm7  1  0.602326  0.602326  0.204812  1
  Tm  Tm8  1  0.602326  0.204812  0.602326  1
  Tm  Tm9  1  0.204812  0.602326  0.602326  1
  Tm  Tm10  1  0.061614  0.436338  0.436338  1
  Tm  Tm11  1  0.434737  0.062153  0.062153  1
  Tm  Tm12  1  0.436338  0.061614  0.436338  1
  Tm  Tm13  1  0.062153  0.434737  0.062153  1
  Tm  Tm14  1  0.436338  0.436338  0.061614  1
  Tm  Tm15  1  0.062153  0.062153  0.434737  1
  Cd  Cd16  1  0.829332  0.829332  0.829332  1
  Cd  Cd17  1  0.829251  0.829251  0.506900  1
  Cd  Cd18  1  0.829251  0.506900  0.829251  1
  Cd  Cd19  1  0.506900  0.829251  0.829251  1
  Tc  Tc20  1  0.394440  0.394440  0.394440  1
  Ni  Ni21  1  0.392143  0.392143  0.826043  1
  Ni  Ni22  1  0.392143  0.826043  0.392143  1
  Ni  Ni23  1  0.826043  0.392143  0.392143  1
