# generated using pymatgen
data_Na2LiTa(CoH6)2
_symmetry_space_group_name_H-M   'P 1'
_cell_length_a   6.53905600
_cell_length_b   6.53905600
_cell_length_c   6.47764700
_cell_angle_alpha   90.00000000
_cell_angle_beta   90.00000000
_cell_angle_gamma   90.00000000
_symmetry_Int_Tables_number   1
_chemical_formula_structural   Na2LiTa(CoH6)2
_chemical_formula_sum   'Na4 Li2 Ta2 Co4 H24'
_cell_volume   276.97934932
_cell_formula_units_Z   2
loop_
 _symmetry_equiv_pos_site_id
 _symmetry_equiv_pos_as_xyz
  1  'x, y, z'
loop_
 _atom_site_type_symbol
 _atom_site_label
 _atom_site_symmetry_multiplicity
 _atom_site_fract_x
 _atom_site_fract_y
 _atom_site_fract_z
 _atom_site_occupancy
  Na  Na0  1  0.000000  0.000000  0.500000  1
  Na  Na1  1  0.000000  0.500000  0.000000  1
  Na  Na2  1  0.500000  0.000000  0.000000  1
  Na  Na3  1  0.000000  0.000000  0.000000  1
  Li  Li4  1  0.000000  0.500000  0.500000  1
  Li  Li5  1  0.500000  0.000000  0.500000  1
  Ta  Ta6  1  0.500000  0.500000  0.500000  1
  Ta  Ta7  1  0.500000  0.500000  0.000000  1
  Co  Co8  1  0.274683  0.725317  0.741565  1
  Co  Co9  1  0.725317  0.274683  0.741565  1
  Co  Co10  1  0.725317  0.725317  0.258435  1
  Co  Co11  1  0.274683  0.274683  0.258435  1
  H  H12  1  0.718374  0.718374  0.498391  1
  H  H13  1  0.281626  0.281626  0.498391  1
  H  H14  1  0.041171  0.738581  0.736901  1
  H  H15  1  0.261419  0.958829  0.736901  1
  H  H16  1  0.738581  0.041171  0.736901  1
  H  H17  1  0.958829  0.261419  0.736901  1
  H  H18  1  0.723883  0.515585  0.745367  1
  H  H19  1  0.515585  0.723883  0.745367  1
  H  H20  1  0.484415  0.276117  0.745367  1
  H  H21  1  0.276117  0.484415  0.745367  1
  H  H22  1  0.282438  0.717562  0.984821  1
  H  H23  1  0.717562  0.282438  0.984821  1
  H  H24  1  0.717562  0.717562  0.015179  1
  H  H25  1  0.282438  0.282438  0.015179  1
  H  H26  1  0.276117  0.515585  0.254633  1
  H  H27  1  0.484415  0.723883  0.254633  1
  H  H28  1  0.515585  0.276117  0.254633  1
  H  H29  1  0.723883  0.484415  0.254633  1
  H  H30  1  0.958829  0.738581  0.263099  1
  H  H31  1  0.738581  0.958829  0.263099  1
  H  H32  1  0.261419  0.041171  0.263099  1
  H  H33  1  0.041171  0.261419  0.263099  1
  H  H34  1  0.281626  0.718374  0.501609  1
  H  H35  1  0.718374  0.281626  0.501609  1
