# generated using pymatgen
data_Ho3ErLu2FeBi2
_symmetry_space_group_name_H-M   'P 1'
_cell_length_a   8.25498554
_cell_length_b   8.24058617
_cell_length_c   4.15695100
_cell_angle_alpha   90.00000000
_cell_angle_beta   90.00000000
_cell_angle_gamma   119.94232013
_symmetry_Int_Tables_number   1
_chemical_formula_structural   Ho3ErLu2FeBi2
_chemical_formula_sum   'Ho3 Er1 Lu2 Fe1 Bi2'
_cell_volume   245.03723680
_cell_formula_units_Z   1
loop_
 _symmetry_equiv_pos_site_id
 _symmetry_equiv_pos_as_xyz
  1  'x, y, z'
loop_
 _atom_site_type_symbol
 _atom_site_label
 _atom_site_symmetry_multiplicity
 _atom_site_fract_x
 _atom_site_fract_y
 _atom_site_fract_z
 _atom_site_occupancy
  Ho  Ho0  1  0.000000  0.613848  0.500000  1
  Ho  Ho1  1  0.388210  0.388073  0.500000  1
  Ho  Ho2  1  0.611790  0.999862  0.500000  1
  Er  Er3  1  0.000000  0.227828  0.000000  1
  Lu  Lu4  1  0.227454  0.999783  0.000000  1
  Lu  Lu5  1  0.772546  0.772328  0.000000  1
  Fe  Fe6  1  0.000000  0.996995  0.500000  1
  Bi  Bi7  1  0.334604  0.667944  0.000000  1
  Bi  Bi8  1  0.665396  0.333337  0.000000  1
