# generated using pymatgen
data_Zr2Si6Tc2Ni10P
_symmetry_space_group_name_H-M   'P 1'
_cell_length_a   9.12292988
_cell_length_b   9.13448451
_cell_length_c   3.63810400
_cell_angle_alpha   90.00000000
_cell_angle_beta   90.00000000
_cell_angle_gamma   120.15924697
_symmetry_Int_Tables_number   1
_chemical_formula_structural   Zr2Si6Tc2Ni10P
_chemical_formula_sum   'Zr2 Si6 Tc2 Ni10 P1'
_cell_volume   262.13498105
_cell_formula_units_Z   1
loop_
 _symmetry_equiv_pos_site_id
 _symmetry_equiv_pos_as_xyz
  1  'x, y, z'
loop_
 _atom_site_type_symbol
 _atom_site_label
 _atom_site_symmetry_multiplicity
 _atom_site_fract_x
 _atom_site_fract_y
 _atom_site_fract_z
 _atom_site_occupancy
  Zr  Zr0  1  0.996063  0.998701  0.000000  1
  Zr  Zr1  1  0.333267  0.664996  0.500000  1
  Si  Si2  1  0.664214  0.328720  0.000000  1
  Si  Si3  1  0.077947  0.452783  0.000000  1
  Si  Si4  1  0.255464  0.213298  0.500000  1
  Si  Si5  1  0.779846  0.043209  0.500000  1
  Si  Si6  1  0.547421  0.624403  0.000000  1
  Si  Si7  1  0.381610  0.926467  0.000000  1
  Tc  Tc8  1  0.885906  0.458274  0.500000  1
  Tc  Tc9  1  0.550487  0.431462  0.500000  1
  Ni  Ni10  1  0.288472  0.389929  0.000000  1
  Ni  Ni11  1  0.104787  0.714099  0.000000  1
  Ni  Ni12  1  0.377969  0.169031  0.000000  1
  Ni  Ni13  1  0.796816  0.626109  0.000000  1
  Ni  Ni14  1  0.826768  0.208663  0.000000  1
  Ni  Ni15  1  0.226889  0.943932  0.500000  1
  Ni  Ni16  1  0.049785  0.278579  0.500000  1
  Ni  Ni17  1  0.722525  0.771896  0.500000  1
  Ni  Ni18  1  0.566929  0.114477  0.500000  1
  Ni  Ni19  1  0.608608  0.895225  0.000000  1
  P  P20  1  0.958227  0.745747  0.500000  1
