# generated using pymatgen
data_Ac10Se19
_symmetry_space_group_name_H-M   'P 1'
_cell_length_a   9.71922900
_cell_length_b   9.71922900
_cell_length_c   17.59554300
_cell_angle_alpha   90.00000000
_cell_angle_beta   90.00000000
_cell_angle_gamma   90.00000000
_symmetry_Int_Tables_number   1
_chemical_formula_structural   Ac10Se19
_chemical_formula_sum   'Ac20 Se38'
_cell_volume   1662.13503401
_cell_formula_units_Z   2
loop_
 _symmetry_equiv_pos_site_id
 _symmetry_equiv_pos_as_xyz
  1  'x, y, z'
loop_
 _atom_site_type_symbol
 _atom_site_label
 _atom_site_symmetry_multiplicity
 _atom_site_fract_x
 _atom_site_fract_y
 _atom_site_fract_z
 _atom_site_occupancy
  Ac  Ac0  1  0.054974  0.149234  0.102814  1
  Ac  Ac1  1  0.445026  0.350766  0.102814  1
  Ac  Ac2  1  0.250000  0.750000  0.114807  1
  Ac  Ac3  1  0.846526  0.542946  0.121373  1
  Ac  Ac4  1  0.653473  0.957054  0.121373  1
  Ac  Ac5  1  0.542946  0.653473  0.378627  1
  Ac  Ac6  1  0.957054  0.846526  0.378627  1
  Ac  Ac7  1  0.750000  0.250000  0.385194  1
  Ac  Ac8  1  0.350766  0.054974  0.397187  1
  Ac  Ac9  1  0.149234  0.445026  0.397187  1
  Ac  Ac10  1  0.850766  0.554973  0.602814  1
  Ac  Ac11  1  0.649233  0.945026  0.602814  1
  Ac  Ac12  1  0.250000  0.750000  0.614806  1
  Ac  Ac13  1  0.042947  0.153473  0.621374  1
  Ac  Ac14  1  0.457054  0.346527  0.621374  1
  Ac  Ac15  1  0.346527  0.042947  0.878627  1
  Ac  Ac16  1  0.153473  0.457054  0.878627  1
  Ac  Ac17  1  0.750000  0.250000  0.885194  1
  Ac  Ac18  1  0.554973  0.649233  0.897187  1
  Ac  Ac19  1  0.945026  0.850766  0.897187  1
  Se  Se20  1  0.352084  0.051179  0.062928  1
  Se  Se21  1  0.147915  0.448822  0.062928  1
  Se  Se22  1  0.750000  0.250000  0.065999  1
  Se  Se23  1  0.549391  0.652099  0.074248  1
  Se  Se24  1  0.950609  0.847902  0.074248  1
  Se  Se25  1  0.889640  0.073112  0.249270  1
  Se  Se26  1  0.610360  0.426887  0.249270  1
  Se  Se27  1  0.321760  0.527499  0.249126  1
  Se  Se28  1  0.178240  0.972500  0.249126  1
  Se  Se29  1  0.750000  0.750000  0.250000  1
  Se  Se30  1  0.527499  0.178240  0.250873  1
  Se  Se31  1  0.972500  0.321760  0.250873  1
  Se  Se32  1  0.073112  0.610360  0.250730  1
  Se  Se33  1  0.426887  0.889640  0.250730  1
  Se  Se34  1  0.847902  0.549391  0.425752  1
  Se  Se35  1  0.652099  0.950609  0.425752  1
  Se  Se36  1  0.250000  0.750000  0.434001  1
  Se  Se37  1  0.051179  0.147915  0.437072  1
  Se  Se38  1  0.448822  0.352084  0.437072  1
  Se  Se39  1  0.551179  0.647916  0.562929  1
  Se  Se40  1  0.948821  0.852084  0.562929  1
  Se  Se41  1  0.750000  0.250000  0.565999  1
  Se  Se42  1  0.347902  0.049390  0.574248  1
  Se  Se43  1  0.152099  0.450610  0.574248  1
  Se  Se44  1  0.573113  0.110360  0.749270  1
  Se  Se45  1  0.926887  0.389640  0.749270  1
  Se  Se46  1  0.027499  0.678240  0.749126  1
  Se  Se47  1  0.472501  0.821759  0.749126  1
  Se  Se48  1  0.250000  0.250000  0.750000  1
  Se  Se49  1  0.821759  0.027499  0.750873  1
  Se  Se50  1  0.678240  0.472501  0.750873  1
  Se  Se51  1  0.389640  0.573113  0.750730  1
  Se  Se52  1  0.110360  0.926887  0.750730  1
  Se  Se53  1  0.049390  0.152099  0.925752  1
  Se  Se54  1  0.450610  0.347902  0.925752  1
  Se  Se55  1  0.250000  0.750000  0.934001  1
  Se  Se56  1  0.852084  0.551179  0.937072  1
  Se  Se57  1  0.647916  0.948821  0.937072  1
