# generated using pymatgen
data_Tb3Dy2In4CoPt
_symmetry_space_group_name_H-M   'P 1'
_cell_length_a   3.63309900
_cell_length_b   8.09565307
_cell_length_c   18.13008464
_cell_angle_alpha   89.91915789
_cell_angle_beta   90.00000000
_cell_angle_gamma   90.00000000
_symmetry_Int_Tables_number   1
_chemical_formula_structural   Tb3Dy2In4CoPt
_chemical_formula_sum   'Tb6 Dy4 In8 Co2 Pt2'
_cell_volume   533.24712231
_cell_formula_units_Z   2
loop_
 _symmetry_equiv_pos_site_id
 _symmetry_equiv_pos_as_xyz
  1  'x, y, z'
loop_
 _atom_site_type_symbol
 _atom_site_label
 _atom_site_symmetry_multiplicity
 _atom_site_fract_x
 _atom_site_fract_y
 _atom_site_fract_z
 _atom_site_occupancy
  Tb  Tb0  1  0.000000  0.233837  0.223631  1
  Tb  Tb1  1  0.000000  0.766163  0.776369  1
  Tb  Tb2  1  0.000000  0.245874  0.719293  1
  Tb  Tb3  1  0.000000  0.754126  0.280707  1
  Tb  Tb4  1  0.000000  0.000000  0.000000  1
  Tb  Tb5  1  0.000000  0.500000  0.500000  1
  Dy  Dy6  1  0.000000  0.112866  0.409979  1
  Dy  Dy7  1  0.000000  0.887134  0.590021  1
  Dy  Dy8  1  0.000000  0.381922  0.912740  1
  Dy  Dy9  1  0.000000  0.618078  0.087260  1
  In  In10  1  0.500000  0.423491  0.352046  1
  In  In11  1  0.500000  0.576509  0.647954  1
  In  In12  1  0.500000  0.070663  0.847573  1
  In  In13  1  0.500000  0.929337  0.152427  1
  In  In14  1  0.500000  0.292832  0.067026  1
  In  In15  1  0.500000  0.707168  0.932974  1
  In  In16  1  0.500000  0.203616  0.568534  1
  In  In17  1  0.500000  0.796384  0.431466  1
  Co  Co18  1  0.500000  0.017455  0.305748  1
  Co  Co19  1  0.500000  0.982545  0.694252  1
  Pt  Pt20  1  0.500000  0.479071  0.802648  1
  Pt  Pt21  1  0.500000  0.520929  0.197352  1
