# generated using pymatgen
data_Tm6Al7Pt16
_symmetry_space_group_name_H-M   'P 1'
_cell_length_a   8.93205702
_cell_length_b   8.93205703
_cell_length_c   8.93205700
_cell_angle_alpha   59.99999641
_cell_angle_beta   59.99999636
_cell_angle_gamma   60.00000190
_symmetry_Int_Tables_number   1
_chemical_formula_structural   Tm6Al7Pt16
_chemical_formula_sum   'Tm6 Al7 Pt16'
_cell_volume   503.89429865
_cell_formula_units_Z   1
loop_
 _symmetry_equiv_pos_site_id
 _symmetry_equiv_pos_as_xyz
  1  'x, y, z'
loop_
 _atom_site_type_symbol
 _atom_site_label
 _atom_site_symmetry_multiplicity
 _atom_site_fract_x
 _atom_site_fract_y
 _atom_site_fract_z
 _atom_site_occupancy
  Tm  Tm0  1  0.713026  0.286974  0.286974  1
  Tm  Tm1  1  0.286974  0.713026  0.713026  1
  Tm  Tm2  1  0.286974  0.713026  0.286974  1
  Tm  Tm3  1  0.286974  0.286974  0.713026  1
  Tm  Tm4  1  0.713026  0.286974  0.713026  1
  Tm  Tm5  1  0.713026  0.713026  0.286974  1
  Al  Al6  1  0.500000  0.000000  0.000000  1
  Al  Al7  1  0.000000  0.500000  0.500000  1
  Al  Al8  1  0.000000  0.500000  0.000000  1
  Al  Al9  1  0.000000  0.000000  0.500000  1
  Al  Al10  1  0.500000  0.000000  0.500000  1
  Al  Al11  1  0.500000  0.500000  0.000000  1
  Al  Al12  1  0.000000  0.000000  0.000000  1
  Pt  Pt13  1  0.338718  0.338718  0.338718  1
  Pt  Pt14  1  0.338718  0.338718  0.983847  1
  Pt  Pt15  1  0.983847  0.338718  0.338718  1
  Pt  Pt16  1  0.338718  0.983847  0.338718  1
  Pt  Pt17  1  0.661282  0.661282  0.661282  1
  Pt  Pt18  1  0.661282  0.661282  0.016153  1
  Pt  Pt19  1  0.661282  0.016153  0.661282  1
  Pt  Pt20  1  0.016153  0.661282  0.661282  1
  Pt  Pt21  1  0.118860  0.118860  0.118860  1
  Pt  Pt22  1  0.118860  0.118860  0.643419  1
  Pt  Pt23  1  0.643419  0.118860  0.118860  1
  Pt  Pt24  1  0.118860  0.643419  0.118860  1
  Pt  Pt25  1  0.881140  0.881140  0.881140  1
  Pt  Pt26  1  0.881140  0.881140  0.356581  1
  Pt  Pt27  1  0.881140  0.356581  0.881140  1
  Pt  Pt28  1  0.356581  0.881140  0.881140  1
