# generated using pymatgen
data_Nd7Y(TlPt2)4
_symmetry_space_group_name_H-M   'P 1'
_cell_length_a   8.09016700
_cell_length_b   8.09016774
_cell_length_c   7.49094600
_cell_angle_alpha   90.00000000
_cell_angle_beta   90.00000000
_cell_angle_gamma   89.42334747
_symmetry_Int_Tables_number   1
_chemical_formula_structural   Nd7Y(TlPt2)4
_chemical_formula_sum   'Nd7 Y1 Tl4 Pt8'
_cell_volume   490.26363747
_cell_formula_units_Z   1
loop_
 _symmetry_equiv_pos_site_id
 _symmetry_equiv_pos_as_xyz
  1  'x, y, z'
loop_
 _atom_site_type_symbol
 _atom_site_label
 _atom_site_symmetry_multiplicity
 _atom_site_fract_x
 _atom_site_fract_y
 _atom_site_fract_z
 _atom_site_occupancy
  Nd  Nd0  1  0.675532  0.674554  0.000000  1
  Nd  Nd1  1  0.328151  0.330222  0.500000  1
  Nd  Nd2  1  0.826651  0.173349  0.500000  1
  Nd  Nd3  1  0.669778  0.671849  0.500000  1
  Nd  Nd4  1  0.325446  0.324468  0.000000  1
  Nd  Nd5  1  0.175490  0.824510  0.500000  1
  Nd  Nd6  1  0.829285  0.170715  0.000000  1
  Y  Y7  1  0.167953  0.832047  0.000000  1
  Tl  Tl8  1  0.498904  0.998559  0.751988  1
  Tl  Tl9  1  0.498904  0.998559  0.248012  1
  Tl  Tl10  1  0.001441  0.501096  0.751988  1
  Tl  Tl11  1  0.001441  0.501096  0.248012  1
  Pt  Pt12  1  0.878633  0.874492  0.749090  1
  Pt  Pt13  1  0.125508  0.121367  0.749090  1
  Pt  Pt14  1  0.623120  0.376880  0.751641  1
  Pt  Pt15  1  0.623120  0.376880  0.248359  1
  Pt  Pt16  1  0.373252  0.626748  0.238710  1
  Pt  Pt17  1  0.125508  0.121367  0.250910  1
  Pt  Pt18  1  0.878633  0.874492  0.250910  1
  Pt  Pt19  1  0.373252  0.626748  0.761290  1
