# generated using pymatgen
data_Ba5NaMo2N7Cl2
_symmetry_space_group_name_H-M   'P 1'
_cell_length_a   11.43927044
_cell_length_b   6.23410200
_cell_length_c   11.38819621
_cell_angle_alpha   90.00000000
_cell_angle_beta   94.05122583
_cell_angle_gamma   90.00000000
_symmetry_Int_Tables_number   1
_chemical_formula_structural   Ba5NaMo2N7Cl2
_chemical_formula_sum   'Ba10 Na2 Mo4 N14 Cl4'
_cell_volume   810.10373806
_cell_formula_units_Z   2
loop_
 _symmetry_equiv_pos_site_id
 _symmetry_equiv_pos_as_xyz
  1  'x, y, z'
loop_
 _atom_site_type_symbol
 _atom_site_label
 _atom_site_symmetry_multiplicity
 _atom_site_fract_x
 _atom_site_fract_y
 _atom_site_fract_z
 _atom_site_occupancy
  Ba  Ba0  1  0.196784  0.250000  0.114339  1
  Ba  Ba1  1  0.503138  0.750000  0.121922  1
  Ba  Ba2  1  0.806089  0.250000  0.303916  1
  Ba  Ba3  1  0.021405  0.750000  0.366687  1
  Ba  Ba4  1  0.378622  0.750000  0.438644  1
  Ba  Ba5  1  0.621379  0.250000  0.561356  1
  Ba  Ba6  1  0.978596  0.250000  0.633313  1
  Ba  Ba7  1  0.193911  0.750000  0.696083  1
  Ba  Ba8  1  0.496862  0.250000  0.878077  1
  Ba  Ba9  1  0.803216  0.750000  0.885661  1
  Na  Na10  1  0.684916  0.750000  0.375608  1
  Na  Na11  1  0.315084  0.250000  0.624392  1
  Mo  Mo12  1  0.465990  0.250000  0.272294  1
  Mo  Mo13  1  0.169337  0.250000  0.411475  1
  Mo  Mo14  1  0.830663  0.750000  0.588524  1
  Mo  Mo15  1  0.534009  0.750000  0.727706  1
  N  N16  1  0.436402  0.250000  0.107898  1
  N  N17  1  0.047522  0.250000  0.294144  1
  N  N18  1  0.546849  0.008619  0.325412  1
  N  N19  1  0.546849  0.491381  0.325412  1
  N  N20  1  0.312570  0.250000  0.333528  1
  N  N21  1  0.836856  0.509064  0.492037  1
  N  N22  1  0.836856  0.990937  0.492037  1
  N  N23  1  0.163144  0.009064  0.507964  1
  N  N24  1  0.163144  0.490938  0.507964  1
  N  N25  1  0.687430  0.750000  0.666471  1
  N  N26  1  0.453151  0.508619  0.674588  1
  N  N27  1  0.453151  0.991380  0.674588  1
  N  N28  1  0.952479  0.750000  0.705856  1
  N  N29  1  0.563598  0.750000  0.892101  1
  Cl  Cl30  1  0.213111  0.750000  0.141112  1
  Cl  Cl31  1  0.800573  0.750000  0.166518  1
  Cl  Cl32  1  0.199427  0.250000  0.833482  1
  Cl  Cl33  1  0.786889  0.250000  0.858888  1
