# generated using pymatgen
data_HoSc11(Si3Os)4
_symmetry_space_group_name_H-M   'P 1'
_cell_length_a   4.01537000
_cell_length_b   10.35808362
_cell_length_c   11.75806843
_cell_angle_alpha   89.88041524
_cell_angle_beta   90.00000000
_cell_angle_gamma   90.00000000
_symmetry_Int_Tables_number   1
_chemical_formula_structural   HoSc11(Si3Os)4
_chemical_formula_sum   'Ho1 Sc11 Si12 Os4'
_cell_volume   489.03508721
_cell_formula_units_Z   1
loop_
 _symmetry_equiv_pos_site_id
 _symmetry_equiv_pos_as_xyz
  1  'x, y, z'
loop_
 _atom_site_type_symbol
 _atom_site_label
 _atom_site_symmetry_multiplicity
 _atom_site_fract_x
 _atom_site_fract_y
 _atom_site_fract_z
 _atom_site_occupancy
  Ho  Ho0  1  0.250000  0.877851  0.018376  1
  Sc  Sc1  1  0.250000  0.622048  0.518666  1
  Sc  Sc2  1  0.750000  0.125469  0.981253  1
  Sc  Sc3  1  0.750000  0.377312  0.481594  1
  Sc  Sc4  1  0.250000  0.920346  0.604634  1
  Sc  Sc5  1  0.250000  0.576637  0.106314  1
  Sc  Sc6  1  0.750000  0.080018  0.395601  1
  Sc  Sc7  1  0.750000  0.420192  0.894143  1
  Sc  Sc8  1  0.250000  0.657157  0.796380  1
  Sc  Sc9  1  0.250000  0.841141  0.300444  1
  Sc  Sc10  1  0.750000  0.341195  0.202411  1
  Sc  Sc11  1  0.750000  0.160027  0.701022  1
  Si  Si12  1  0.250000  0.018279  0.817157  1
  Si  Si13  1  0.250000  0.484284  0.322874  1
  Si  Si14  1  0.750000  0.987373  0.180414  1
  Si  Si15  1  0.750000  0.514699  0.677617  1
  Si  Si16  1  0.250000  0.252182  0.841898  1
  Si  Si17  1  0.250000  0.249768  0.344147  1
  Si  Si18  1  0.750000  0.746105  0.159934  1
  Si  Si19  1  0.750000  0.750148  0.656214  1
  Si  Si20  1  0.250000  0.195364  0.546031  1
  Si  Si21  1  0.250000  0.305180  0.046093  1
  Si  Si22  1  0.750000  0.804707  0.454302  1
  Si  Si23  1  0.750000  0.689338  0.952541  1
  Os  Os24  1  0.250000  0.390347  0.676351  1
  Os  Os25  1  0.250000  0.112844  0.179325  1
  Os  Os26  1  0.750000  0.609047  0.325473  1
  Os  Os27  1  0.750000  0.890945  0.818791  1
