# generated using pymatgen
data_Ba2CrH9
_symmetry_space_group_name_H-M   'P 1'
_cell_length_a   9.35668200
_cell_length_b   9.35668050
_cell_length_c   5.25822300
_cell_angle_alpha   90.00000000
_cell_angle_beta   90.00000000
_cell_angle_gamma   120.00001237
_symmetry_Int_Tables_number   1
_chemical_formula_structural   Ba2CrH9
_chemical_formula_sum   'Ba6 Cr3 H27'
_cell_volume   398.66971692
_cell_formula_units_Z   3
loop_
 _symmetry_equiv_pos_site_id
 _symmetry_equiv_pos_as_xyz
  1  'x, y, z'
loop_
 _atom_site_type_symbol
 _atom_site_label
 _atom_site_symmetry_multiplicity
 _atom_site_fract_x
 _atom_site_fract_y
 _atom_site_fract_z
 _atom_site_occupancy
  Ba  Ba0  1  0.000000  0.269166  0.500000  1
  Ba  Ba1  1  0.730834  0.730834  0.500000  1
  Ba  Ba2  1  0.269166  0.000000  0.500000  1
  Ba  Ba3  1  0.000000  0.605722  0.000000  1
  Ba  Ba4  1  0.394278  0.394278  0.000000  1
  Ba  Ba5  1  0.605722  0.000000  0.000000  1
  Cr  Cr6  1  0.666667  0.333333  0.500000  1
  Cr  Cr7  1  0.333333  0.666667  0.500000  1
  Cr  Cr8  1  0.000000  0.000000  0.000000  1
  H  H9  1  0.777542  0.314197  0.732563  1
  H  H10  1  0.685803  0.463344  0.732563  1
  H  H11  1  0.536656  0.222458  0.732563  1
  H  H12  1  0.222458  0.536656  0.267437  1
  H  H13  1  0.536656  0.222458  0.267437  1
  H  H14  1  0.777542  0.314197  0.267437  1
  H  H15  1  0.685803  0.463344  0.267437  1
  H  H16  1  0.314197  0.777542  0.732563  1
  H  H17  1  0.463344  0.685803  0.732563  1
  H  H18  1  0.181692  0.000000  0.000000  1
  H  H19  1  0.818308  0.818308  0.000000  1
  H  H20  1  0.000000  0.181692  0.000000  1
  H  H21  1  0.869922  0.000000  0.223330  1
  H  H22  1  0.130078  0.130078  0.776670  1
  H  H23  1  0.000000  0.869922  0.776670  1
  H  H24  1  0.000000  0.869922  0.223330  1
  H  H25  1  0.130078  0.130078  0.223330  1
  H  H26  1  0.869922  0.000000  0.776670  1
  H  H27  1  0.145996  0.640833  0.500000  1
  H  H28  1  0.494837  0.854004  0.500000  1
  H  H29  1  0.359167  0.505163  0.500000  1
  H  H30  1  0.505163  0.359167  0.500000  1
  H  H31  1  0.854004  0.494837  0.500000  1
  H  H32  1  0.640833  0.145996  0.500000  1
  H  H33  1  0.222458  0.536656  0.732563  1
  H  H34  1  0.314197  0.777542  0.267437  1
  H  H35  1  0.463344  0.685803  0.267437  1
