# generated using pymatgen
data_Er20IrOs4Au7
_symmetry_space_group_name_H-M   'P 1'
_cell_length_a   11.15801825
_cell_length_b   11.15801825
_cell_length_c   6.35562174
_cell_angle_alpha   89.80117268
_cell_angle_beta   89.80117268
_cell_angle_gamma   90.84115587
_symmetry_Int_Tables_number   1
_chemical_formula_structural   Er20IrOs4Au7
_chemical_formula_sum   'Er20 Ir1 Os4 Au7'
_cell_volume   791.18868140
_cell_formula_units_Z   1
loop_
 _symmetry_equiv_pos_site_id
 _symmetry_equiv_pos_as_xyz
  1  'x, y, z'
loop_
 _atom_site_type_symbol
 _atom_site_label
 _atom_site_symmetry_multiplicity
 _atom_site_fract_x
 _atom_site_fract_y
 _atom_site_fract_z
 _atom_site_occupancy
  Er  Er0  1  0.302944  0.079896  0.362104  1
  Er  Er1  1  0.301373  0.907735  0.863287  1
  Er  Er2  1  0.696733  0.082001  0.861855  1
  Er  Er3  1  0.696303  0.916088  0.361017  1
  Er  Er4  1  0.575116  0.796190  0.859766  1
  Er  Er5  1  0.582871  0.199519  0.363542  1
  Er  Er6  1  0.412041  0.795028  0.372769  1
  Er  Er7  1  0.416716  0.195871  0.864412  1
  Er  Er8  1  0.203810  0.424884  0.640234  1
  Er  Er9  1  0.204972  0.587959  0.127231  1
  Er  Er10  1  0.800481  0.417129  0.136458  1
  Er  Er11  1  0.804129  0.583284  0.635588  1
  Er  Er12  1  0.920104  0.697056  0.137896  1
  Er  Er13  1  0.917999  0.303267  0.638145  1
  Er  Er14  1  0.092265  0.698627  0.636713  1
  Er  Er15  1  0.083912  0.303697  0.138983  1
  Er  Er16  1  0.998964  0.000369  0.499973  1
  Er  Er17  1  0.999631  0.001036  0.000027  1
  Er  Er18  1  0.492975  0.503991  0.998387  1
  Er  Er19  1  0.496009  0.507025  0.501613  1
  Ir  Ir20  1  0.348612  0.651388  0.750000  1
  Os  Os21  1  0.499439  0.998340  0.118665  1
  Os  Os22  1  0.499459  0.999469  0.616378  1
  Os  Os23  1  0.000531  0.500541  0.883622  1
  Os  Os24  1  0.001660  0.500561  0.381335  1
  Au  Au25  1  0.845391  0.154609  0.250000  1
  Au  Au26  1  0.844615  0.844769  0.751173  1
  Au  Au27  1  0.155231  0.155385  0.748827  1
  Au  Au28  1  0.153862  0.846138  0.250000  1
  Au  Au29  1  0.652240  0.347760  0.750000  1
  Au  Au30  1  0.655374  0.655762  0.247334  1
  Au  Au31  1  0.344238  0.344626  0.252666  1
