# generated using pymatgen
data_Zr10ZnCuHgBi5
_symmetry_space_group_name_H-M   'P 1'
_cell_length_a   8.80751311
_cell_length_b   8.82229266
_cell_length_c   5.92618007
_cell_angle_alpha   90.00889995
_cell_angle_beta   89.98216373
_cell_angle_gamma   119.94460236
_symmetry_Int_Tables_number   1
_chemical_formula_structural   Zr10ZnCuHgBi5
_chemical_formula_sum   'Zr10 Zn1 Cu1 Hg1 Bi5'
_cell_volume   399.00870962
_cell_formula_units_Z   1
loop_
 _symmetry_equiv_pos_site_id
 _symmetry_equiv_pos_as_xyz
  1  'x, y, z'
loop_
 _atom_site_type_symbol
 _atom_site_label
 _atom_site_symmetry_multiplicity
 _atom_site_fract_x
 _atom_site_fract_y
 _atom_site_fract_z
 _atom_site_occupancy
  Zr  Zr0  1  0.733201  0.000000  0.247586  1
  Zr  Zr1  1  0.007651  0.741736  0.247695  1
  Zr  Zr2  1  0.265915  0.258264  0.247695  1
  Zr  Zr3  1  0.261599  0.000000  0.752639  1
  Zr  Zr4  1  0.998453  0.262006  0.752223  1
  Zr  Zr5  1  0.736448  0.737994  0.752223  1
  Zr  Zr6  1  0.332641  0.667023  0.498451  1
  Zr  Zr7  1  0.665619  0.332977  0.498451  1
  Zr  Zr8  1  0.665149  0.332267  0.001564  1
  Zr  Zr9  1  0.332882  0.667733  0.001564  1
  Zn  Zn10  1  0.000201  0.000000  0.497071  1
  Cu  Cu11  1  0.000971  0.000000  0.003367  1
  Hg  Hg12  1  0.387339  0.000000  0.250085  1
  Bi  Bi13  1  0.000891  0.384455  0.249810  1
  Bi  Bi14  1  0.616436  0.615545  0.249810  1
  Bi  Bi15  1  0.609959  0.000000  0.750160  1
  Bi  Bi16  1  0.999708  0.614773  0.749803  1
  Bi  Bi17  1  0.384934  0.385227  0.749803  1
