# generated using pymatgen
data_TbBi3Ru2O11
_symmetry_space_group_name_H-M   'P 1'
_cell_length_a   6.53812065
_cell_length_b   7.53499201
_cell_length_c   9.82638914
_cell_angle_alpha   100.99625960
_cell_angle_beta   91.28881096
_cell_angle_gamma   90.16756794
_symmetry_Int_Tables_number   1
_chemical_formula_structural   TbBi3Ru2O11
_chemical_formula_sum   'Tb2 Bi6 Ru4 O22'
_cell_volume   475.07278732
_cell_formula_units_Z   2
loop_
 _symmetry_equiv_pos_site_id
 _symmetry_equiv_pos_as_xyz
  1  'x, y, z'
loop_
 _atom_site_type_symbol
 _atom_site_label
 _atom_site_symmetry_multiplicity
 _atom_site_fract_x
 _atom_site_fract_y
 _atom_site_fract_z
 _atom_site_occupancy
  Tb  Tb0  1  0.749547  0.370951  0.478210  1
  Tb  Tb1  1  0.250453  0.629049  0.521790  1
  Bi  Bi2  1  0.756852  0.870449  0.489426  1
  Bi  Bi3  1  0.243148  0.129551  0.510574  1
  Bi  Bi4  1  0.472719  0.952978  0.820587  1
  Bi  Bi5  1  0.527281  0.047022  0.179413  1
  Bi  Bi6  1  0.396457  0.453257  0.825917  1
  Bi  Bi7  1  0.603543  0.546743  0.174083  1
  Ru  Ru8  1  0.933146  0.702476  0.810723  1
  Ru  Ru9  1  0.066854  0.297524  0.189277  1
  Ru  Ru10  1  0.930689  0.203201  0.812473  1
  Ru  Ru11  1  0.069311  0.796799  0.187527  1
  O  O12  1  0.229451  0.720741  0.761869  1
  O  O13  1  0.770549  0.279259  0.238131  1
  O  O14  1  0.637001  0.673550  0.832933  1
  O  O15  1  0.362999  0.326450  0.167067  1
  O  O16  1  0.635744  0.243675  0.847277  1
  O  O17  1  0.364256  0.756325  0.152723  1
  O  O18  1  0.884674  0.181820  0.608612  1
  O  O19  1  0.115326  0.818180  0.391388  1
  O  O20  1  0.225395  0.157381  0.761387  1
  O  O21  1  0.774605  0.842619  0.238613  1
  O  O22  1  0.903712  0.628811  0.602029  1
  O  O23  1  0.096288  0.371189  0.397971  1
  O  O24  1  0.003597  0.543214  0.172885  1
  O  O25  1  0.996403  0.456786  0.827115  1
  O  O26  1  0.997282  0.784375  0.999346  1
  O  O27  1  0.002718  0.215625  0.000654  1
  O  O28  1  0.570733  0.602401  0.396637  1
  O  O29  1  0.429267  0.397599  0.603363  1
  O  O30  1  0.157746  0.054795  0.220267  1
  O  O31  1  0.842254  0.945205  0.779733  1
  O  O32  1  0.548143  0.101914  0.400970  1
  O  O33  1  0.451857  0.898086  0.599030  1
