# generated using pymatgen
data_CaTh3(Ga8Pd3)3
_symmetry_space_group_name_H-M   'P 1'
_cell_length_a   7.63348106
_cell_length_b   7.65532080
_cell_length_c   13.37974400
_cell_angle_alpha   84.54130061
_cell_angle_beta   79.10463577
_cell_angle_gamma   59.91083564
_symmetry_Int_Tables_number   1
_chemical_formula_structural   CaTh3(Ga8Pd3)3
_chemical_formula_sum   'Ca1 Th3 Ga24 Pd9'
_cell_volume   664.31415988
_cell_formula_units_Z   1
loop_
 _symmetry_equiv_pos_site_id
 _symmetry_equiv_pos_as_xyz
  1  'x, y, z'
loop_
 _atom_site_type_symbol
 _atom_site_label
 _atom_site_symmetry_multiplicity
 _atom_site_fract_x
 _atom_site_fract_y
 _atom_site_fract_z
 _atom_site_occupancy
  Ca  Ca0  1  0.266546  0.501811  0.192686  1
  Th  Th1  1  0.394794  0.169020  0.808005  1
  Th  Th2  1  0.603593  0.832017  0.192049  1
  Th  Th3  1  0.732913  0.497853  0.807959  1
  Ga  Ga4  1  0.689252  0.834198  0.941611  1
  Ga  Ga5  1  0.309413  0.171263  0.058947  1
  Ga  Ga6  1  0.143304  0.835657  0.559101  1
  Ga  Ga7  1  0.855738  0.164570  0.439803  1
  Ga  Ga8  1  0.479499  0.167489  0.557191  1
  Ga  Ga9  1  0.519965  0.833292  0.442949  1
  Ga  Ga10  1  0.216998  0.168696  0.330848  1
  Ga  Ga11  1  0.783176  0.834255  0.668651  1
  Ga  Ga12  1  0.435717  0.507371  0.668755  1
  Ga  Ga13  1  0.561834  0.491794  0.330446  1
  Ga  Ga14  1  0.109616  0.159348  0.667558  1
  Ga  Ga15  1  0.893723  0.837885  0.333085  1
  Ga  Ga16  1  0.349854  0.502858  0.944431  1
  Ga  Ga17  1  0.645723  0.496374  0.058561  1
  Ga  Ga18  1  0.016962  0.165126  0.949654  1
  Ga  Ga19  1  0.985679  0.832178  0.052421  1
  Ga  Ga20  1  0.187121  0.501172  0.441671  1
  Ga  Ga21  1  0.814400  0.497853  0.557171  1
  Ga  Ga22  1  0.739621  0.157033  0.183128  1
  Ga  Ga23  1  0.263210  0.836724  0.816981  1
  Ga  Ga24  1  0.062711  0.634068  0.815456  1
  Ga  Ga25  1  0.933752  0.368927  0.184203  1
  Ga  Ga26  1  0.862854  0.036129  0.816142  1
  Ga  Ga27  1  0.140773  0.964089  0.183403  1
  Pd  Pd28  1  0.119734  0.496393  0.637599  1
  Pd  Pd29  1  0.880276  0.504245  0.362584  1
  Pd  Pd30  1  0.659153  0.169780  0.998295  1
  Pd  Pd31  1  0.343070  0.830626  0.999385  1
  Pd  Pd32  1  0.541454  0.166692  0.362492  1
  Pd  Pd33  1  0.458542  0.832330  0.637884  1
  Pd  Pd34  1  0.780379  0.171928  0.638183  1
  Pd  Pd35  1  0.220080  0.828099  0.362030  1
  Pd  Pd36  1  0.998575  0.500855  0.998682  1
