# generated using pymatgen
data_BaTb(NbSe2)6
_symmetry_space_group_name_H-M   'P 1'
_cell_length_a   6.14383900
_cell_length_b   6.14383955
_cell_length_c   15.60142300
_cell_angle_alpha   90.00000000
_cell_angle_beta   90.00000000
_cell_angle_gamma   120.00000241
_symmetry_Int_Tables_number   1
_chemical_formula_structural   BaTb(NbSe2)6
_chemical_formula_sum   'Ba1 Tb1 Nb6 Se12'
_cell_volume   510.00510711
_cell_formula_units_Z   1
loop_
 _symmetry_equiv_pos_site_id
 _symmetry_equiv_pos_as_xyz
  1  'x, y, z'
loop_
 _atom_site_type_symbol
 _atom_site_label
 _atom_site_symmetry_multiplicity
 _atom_site_fract_x
 _atom_site_fract_y
 _atom_site_fract_z
 _atom_site_occupancy
  Ba  Ba0  1  0.000000  0.000000  0.500000  1
  Tb  Tb1  1  0.000000  0.000000  0.000000  1
  Nb  Nb2  1  0.000000  0.000000  0.768280  1
  Nb  Nb3  1  0.000000  0.000000  0.231720  1
  Nb  Nb4  1  0.333333  0.666667  0.231263  1
  Nb  Nb5  1  0.666667  0.333333  0.768737  1
  Nb  Nb6  1  0.666667  0.333333  0.231263  1
  Nb  Nb7  1  0.333333  0.666667  0.768737  1
  Se  Se8  1  0.338121  0.000000  0.124828  1
  Se  Se9  1  0.000000  0.338121  0.124828  1
  Se  Se10  1  0.661879  0.661879  0.124828  1
  Se  Se11  1  0.338220  0.338220  0.662260  1
  Se  Se12  1  0.661780  0.661780  0.337740  1
  Se  Se13  1  0.661780  0.000000  0.662260  1
  Se  Se14  1  0.000000  0.661780  0.662260  1
  Se  Se15  1  0.000000  0.661879  0.875172  1
  Se  Se16  1  0.338121  0.338121  0.875172  1
  Se  Se17  1  0.000000  0.338220  0.337740  1
  Se  Se18  1  0.338220  0.000000  0.337740  1
  Se  Se19  1  0.661879  0.000000  0.875172  1
