# generated using pymatgen
data_PrCu5Au
_symmetry_space_group_name_H-M   'P 1'
_cell_length_a   5.09912400
_cell_length_b   8.27580600
_cell_length_c   10.39576600
_cell_angle_alpha   90.00000000
_cell_angle_beta   90.00000000
_cell_angle_gamma   90.00000000
_symmetry_Int_Tables_number   1
_chemical_formula_structural   PrCu5Au
_chemical_formula_sum   'Pr4 Cu20 Au4'
_cell_volume   438.69468224
_cell_formula_units_Z   4
loop_
 _symmetry_equiv_pos_site_id
 _symmetry_equiv_pos_as_xyz
  1  'x, y, z'
loop_
 _atom_site_type_symbol
 _atom_site_label
 _atom_site_symmetry_multiplicity
 _atom_site_fract_x
 _atom_site_fract_y
 _atom_site_fract_z
 _atom_site_occupancy
  Pr  Pr0  1  0.250000  0.259484  0.564053  1
  Pr  Pr1  1  0.750000  0.740516  0.435947  1
  Pr  Pr2  1  0.250000  0.759484  0.935947  1
  Pr  Pr3  1  0.750000  0.240516  0.064053  1
  Cu  Cu4  1  0.500594  0.565882  0.186917  1
  Cu  Cu5  1  0.000594  0.434118  0.813083  1
  Cu  Cu6  1  0.999406  0.065882  0.313083  1
  Cu  Cu7  1  0.499406  0.934118  0.686917  1
  Cu  Cu8  1  0.499406  0.434118  0.813083  1
  Cu  Cu9  1  0.999406  0.565882  0.186917  1
  Cu  Cu10  1  0.000594  0.934118  0.686917  1
  Cu  Cu11  1  0.500594  0.065882  0.313083  1
  Cu  Cu12  1  0.750000  0.944847  0.893079  1
  Cu  Cu13  1  0.250000  0.055153  0.106921  1
  Cu  Cu14  1  0.750000  0.444847  0.606921  1
  Cu  Cu15  1  0.250000  0.555153  0.393079  1
  Cu  Cu16  1  0.750000  0.685454  0.752881  1
  Cu  Cu17  1  0.250000  0.314546  0.247119  1
  Cu  Cu18  1  0.750000  0.185454  0.747119  1
  Cu  Cu19  1  0.250000  0.814546  0.252881  1
  Cu  Cu20  1  0.750000  0.589399  0.983440  1
  Cu  Cu21  1  0.250000  0.410601  0.016560  1
  Cu  Cu22  1  0.750000  0.089399  0.516560  1
  Cu  Cu23  1  0.250000  0.910601  0.483440  1
  Au  Au24  1  0.250000  0.140497  0.862032  1
  Au  Au25  1  0.750000  0.859503  0.137968  1
  Au  Au26  1  0.250000  0.640497  0.637968  1
  Au  Au27  1  0.750000  0.359503  0.362032  1
