# generated using pymatgen
data_Nd6Er3Tm7(CdIr)4
_symmetry_space_group_name_H-M   'P 1'
_cell_length_a   9.68363966
_cell_length_b   9.68008455
_cell_length_c   9.68008400
_cell_angle_alpha   60.00000187
_cell_angle_beta   60.01214554
_cell_angle_gamma   60.01214778
_symmetry_Int_Tables_number   1
_chemical_formula_structural   Nd6Er3Tm7(CdIr)4
_chemical_formula_sum   'Nd6 Er3 Tm7 Cd4 Ir4'
_cell_volume   641.74370286
_cell_formula_units_Z   1
loop_
 _symmetry_equiv_pos_site_id
 _symmetry_equiv_pos_as_xyz
  1  'x, y, z'
loop_
 _atom_site_type_symbol
 _atom_site_label
 _atom_site_symmetry_multiplicity
 _atom_site_fract_x
 _atom_site_fract_y
 _atom_site_fract_z
 _atom_site_occupancy
  Nd  Nd0  1  0.941323  0.558544  0.558544  1
  Nd  Nd1  1  0.558723  0.941299  0.941299  1
  Nd  Nd2  1  0.558723  0.941299  0.558679  1
  Nd  Nd3  1  0.941323  0.558544  0.941588  1
  Nd  Nd4  1  0.558723  0.558679  0.941299  1
  Nd  Nd5  1  0.941323  0.941588  0.558544  1
  Er  Er6  1  0.347292  0.347173  0.347173  1
  Er  Er7  1  0.347292  0.347173  0.958362  1
  Er  Er8  1  0.347292  0.958362  0.347173  1
  Tm  Tm9  1  0.959088  0.346971  0.346971  1
  Tm  Tm10  1  0.813321  0.186670  0.186670  1
  Tm  Tm11  1  0.186530  0.813431  0.813431  1
  Tm  Tm12  1  0.186530  0.813431  0.186608  1
  Tm  Tm13  1  0.813321  0.186670  0.813339  1
  Tm  Tm14  1  0.186530  0.186608  0.813431  1
  Tm  Tm15  1  0.813321  0.813339  0.186670  1
  Cd  Cd16  1  0.579584  0.579347  0.579347  1
  Cd  Cd17  1  0.579584  0.579347  0.261721  1
  Cd  Cd18  1  0.579584  0.261721  0.579347  1
  Cd  Cd19  1  0.261645  0.579451  0.579451  1
  Ir  Ir20  1  0.140487  0.141170  0.141170  1
  Ir  Ir21  1  0.140487  0.141170  0.577172  1
  Ir  Ir22  1  0.140487  0.577172  0.141170  1
  Ir  Ir23  1  0.577484  0.140839  0.140839  1
