# generated using pymatgen
data_SmHo18ErPb16
_symmetry_space_group_name_H-M   'P 1'
_cell_length_a   8.20382388
_cell_length_b   8.27105445
_cell_length_c   15.60723100
_cell_angle_alpha   90.05025199
_cell_angle_beta   89.66186779
_cell_angle_gamma   89.87616994
_symmetry_Int_Tables_number   1
_chemical_formula_structural   SmHo18ErPb16
_chemical_formula_sum   'Sm1 Ho18 Er1 Pb16'
_cell_volume   1058.99599566
_cell_formula_units_Z   1
loop_
 _symmetry_equiv_pos_site_id
 _symmetry_equiv_pos_as_xyz
  1  'x, y, z'
loop_
 _atom_site_type_symbol
 _atom_site_label
 _atom_site_symmetry_multiplicity
 _atom_site_fract_x
 _atom_site_fract_y
 _atom_site_fract_z
 _atom_site_occupancy
  Sm  Sm0  1  0.966238  0.822239  0.598244  1
  Ho  Ho1  1  0.624012  0.157650  0.621422  1
  Ho  Ho2  1  0.121611  0.341455  0.879609  1
  Ho  Ho3  1  0.377816  0.842589  0.121118  1
  Ho  Ho4  1  0.875395  0.657561  0.377589  1
  Ho  Ho5  1  0.375985  0.842779  0.378423  1
  Ho  Ho6  1  0.878544  0.657980  0.121263  1
  Ho  Ho7  1  0.621574  0.157819  0.879212  1
  Ho  Ho8  1  0.122873  0.341994  0.621615  1
  Ho  Ho9  1  0.462808  0.675161  0.599535  1
  Ho  Ho10  1  0.959457  0.825008  0.898982  1
  Ho  Ho11  1  0.539418  0.324474  0.100574  1
  Ho  Ho12  1  0.037816  0.176405  0.399647  1
  Ho  Ho13  1  0.536351  0.324222  0.400349  1
  Ho  Ho14  1  0.039665  0.175248  0.100824  1
  Ho  Ho15  1  0.461240  0.675207  0.900583  1
  Ho  Ho16  1  0.790237  0.495820  0.750628  1
  Ho  Ho17  1  0.290966  0.004702  0.750771  1
  Ho  Ho18  1  0.209175  0.503970  0.249850  1
  Er  Er19  1  0.708981  0.995674  0.249204  1
  Pb  Pb20  1  0.717269  0.968112  0.455469  1
  Pb  Pb21  1  0.220149  0.532032  0.043387  1
  Pb  Pb22  1  0.279280  0.031660  0.957156  1
  Pb  Pb23  1  0.780205  0.464587  0.542311  1
  Pb  Pb24  1  0.285441  0.037640  0.542245  1
  Pb  Pb25  1  0.780069  0.467507  0.957323  1
  Pb  Pb26  1  0.720100  0.967450  0.042853  1
  Pb  Pb27  1  0.217458  0.534758  0.457229  1
  Pb  Pb28  1  0.428135  0.373981  0.750199  1
  Pb  Pb29  1  0.927695  0.126526  0.750394  1
  Pb  Pb30  1  0.571223  0.625825  0.249744  1
  Pb  Pb31  1  0.071809  0.874169  0.249819  1
  Pb  Pb32  1  0.649188  0.844642  0.750137  1
  Pb  Pb33  1  0.152464  0.652983  0.751530  1
  Pb  Pb34  1  0.349877  0.155436  0.250429  1
  Pb  Pb35  1  0.849472  0.344736  0.250332  1
