# generated using pymatgen
data_Ce4Sm2Co15(P4Rh)3
_symmetry_space_group_name_H-M   'P 1'
_cell_length_a   3.77221500
_cell_length_b   10.65849200
_cell_length_c   12.41654700
_cell_angle_alpha   90.00000000
_cell_angle_beta   90.00000000
_cell_angle_gamma   90.00000000
_symmetry_Int_Tables_number   1
_chemical_formula_structural   Ce4Sm2Co15(P4Rh)3
_chemical_formula_sum   'Ce4 Sm2 Co15 P12 Rh3'
_cell_volume   499.22122088
_cell_formula_units_Z   1
loop_
 _symmetry_equiv_pos_site_id
 _symmetry_equiv_pos_as_xyz
  1  'x, y, z'
loop_
 _atom_site_type_symbol
 _atom_site_label
 _atom_site_symmetry_multiplicity
 _atom_site_fract_x
 _atom_site_fract_y
 _atom_site_fract_z
 _atom_site_occupancy
  Ce  Ce0  1  0.000000  0.500000  0.523869  1
  Ce  Ce1  1  0.500000  0.000000  0.473123  1
  Ce  Ce2  1  0.500000  0.818591  0.207975  1
  Ce  Ce3  1  0.500000  0.181409  0.207975  1
  Sm  Sm4  1  0.000000  0.687660  0.794889  1
  Sm  Sm5  1  0.000000  0.312340  0.794889  1
  Co  Co6  1  0.000000  0.000000  0.295701  1
  Co  Co7  1  0.000000  0.500000  0.988466  1
  Co  Co8  1  0.500000  0.000000  0.015090  1
  Co  Co9  1  0.500000  0.331877  0.995703  1
  Co  Co10  1  0.500000  0.668123  0.995703  1
  Co  Co11  1  0.000000  0.166077  0.007501  1
  Co  Co12  1  0.000000  0.833923  0.007501  1
  Co  Co13  1  0.500000  0.299623  0.427259  1
  Co  Co14  1  0.500000  0.700377  0.427259  1
  Co  Co15  1  0.000000  0.195344  0.569036  1
  Co  Co16  1  0.000000  0.804656  0.569036  1
  Co  Co17  1  0.500000  0.883127  0.710980  1
  Co  Co18  1  0.500000  0.116873  0.710980  1
  Co  Co19  1  0.000000  0.620669  0.287858  1
  Co  Co20  1  0.000000  0.379331  0.287858  1
  P  P21  1  0.500000  0.500000  0.890389  1
  P  P22  1  0.000000  0.000000  0.113897  1
  P  P23  1  0.500000  0.500000  0.348064  1
  P  P24  1  0.000000  0.000000  0.651685  1
  P  P25  1  0.500000  0.297039  0.611137  1
  P  P26  1  0.500000  0.702961  0.611137  1
  P  P27  1  0.000000  0.193956  0.386295  1
  P  P28  1  0.000000  0.806044  0.386295  1
  P  P29  1  0.500000  0.845986  0.897402  1
  P  P30  1  0.500000  0.154014  0.897402  1
  P  P31  1  0.000000  0.655783  0.103394  1
  P  P32  1  0.000000  0.344217  0.103394  1
  Rh  Rh33  1  0.500000  0.500000  0.159826  1
  Rh  Rh34  1  0.000000  0.000000  0.841437  1
  Rh  Rh35  1  0.500000  0.500000  0.699594  1
