# generated using pymatgen
data_Yb5HgIrPd
_symmetry_space_group_name_H-M   'P 1'
_cell_length_a   8.88058537
_cell_length_b   8.88056085
_cell_length_c   8.88848593
_cell_angle_alpha   128.21892651
_cell_angle_beta   128.21899590
_cell_angle_gamma   76.20559504
_symmetry_Int_Tables_number   1
_chemical_formula_structural   Yb5HgIrPd
_chemical_formula_sum   'Yb10 Hg2 Ir2 Pd2'
_cell_volume   420.69180247
_cell_formula_units_Z   2
loop_
 _symmetry_equiv_pos_site_id
 _symmetry_equiv_pos_as_xyz
  1  'x, y, z'
loop_
 _atom_site_type_symbol
 _atom_site_label
 _atom_site_symmetry_multiplicity
 _atom_site_fract_x
 _atom_site_fract_y
 _atom_site_fract_z
 _atom_site_occupancy
  Yb  Yb0  1  0.000000  0.000000  0.000000  1
  Yb  Yb1  1  0.500000  0.500000  0.000000  1
  Yb  Yb2  1  0.800885  0.300885  0.835061  1
  Yb  Yb3  1  0.199115  0.699115  0.164939  1
  Yb  Yb4  1  0.465824  0.965825  0.164940  1
  Yb  Yb5  1  0.285857  0.472891  0.500001  1
  Yb  Yb6  1  0.027110  0.214142  0.500000  1
  Yb  Yb7  1  0.534176  0.034175  0.835060  1
  Yb  Yb8  1  0.714143  0.527109  0.499999  1
  Yb  Yb9  1  0.972890  0.785858  0.500000  1
  Hg  Hg10  1  0.250000  0.250000  0.000000  1
  Hg  Hg11  1  0.750000  0.750000  0.000000  1
  Ir  Ir12  1  0.139560  0.639560  0.779121  1
  Ir  Ir13  1  0.860440  0.360440  0.220879  1
  Pd  Pd14  1  0.632269  0.867733  0.499999  1
  Pd  Pd15  1  0.367731  0.132267  0.500001  1
