# generated using pymatgen
data_Nd16Cd4Ru3Au
_symmetry_space_group_name_H-M   'P 1'
_cell_length_a   9.96455176
_cell_length_b   9.96455213
_cell_length_c   9.96455127
_cell_angle_alpha   60.08356755
_cell_angle_beta   60.08356861
_cell_angle_gamma   60.08356460
_symmetry_Int_Tables_number   1
_chemical_formula_structural   Nd16Cd4Ru3Au
_chemical_formula_sum   'Nd16 Cd4 Ru3 Au1'
_cell_volume   700.93852739
_cell_formula_units_Z   1
loop_
 _symmetry_equiv_pos_site_id
 _symmetry_equiv_pos_as_xyz
  1  'x, y, z'
loop_
 _atom_site_type_symbol
 _atom_site_label
 _atom_site_symmetry_multiplicity
 _atom_site_fract_x
 _atom_site_fract_y
 _atom_site_fract_z
 _atom_site_occupancy
  Nd  Nd0  1  0.595602  0.595602  0.595602  1
  Nd  Nd1  1  0.605285  0.605285  0.198298  1
  Nd  Nd2  1  0.605285  0.198298  0.605285  1
  Nd  Nd3  1  0.198298  0.605285  0.605285  1
  Nd  Nd4  1  0.046170  0.442304  0.442304  1
  Nd  Nd5  1  0.439318  0.059267  0.059267  1
  Nd  Nd6  1  0.442304  0.046170  0.442304  1
  Nd  Nd7  1  0.059267  0.439318  0.059267  1
  Nd  Nd8  1  0.442304  0.442304  0.046170  1
  Nd  Nd9  1  0.059267  0.059267  0.439318  1
  Nd  Nd10  1  0.191529  0.812049  0.812049  1
  Nd  Nd11  1  0.813814  0.189805  0.189805  1
  Nd  Nd12  1  0.812049  0.191529  0.812049  1
  Nd  Nd13  1  0.189805  0.813814  0.189805  1
  Nd  Nd14  1  0.812049  0.812049  0.191529  1
  Nd  Nd15  1  0.189805  0.189805  0.813814  1
  Cd  Cd16  1  0.829901  0.829901  0.829901  1
  Cd  Cd17  1  0.829384  0.829384  0.510620  1
  Cd  Cd18  1  0.829384  0.510620  0.829384  1
  Cd  Cd19  1  0.510620  0.829384  0.829384  1
  Ru  Ru20  1  0.388651  0.388651  0.829008  1
  Ru  Ru21  1  0.388651  0.829008  0.388651  1
  Ru  Ru22  1  0.829008  0.388651  0.388651  1
  Au  Au23  1  0.392248  0.392248  0.392248  1
