# generated using pymatgen
data_Hf3Sc5P12IrRh15
_symmetry_space_group_name_H-M   'P 1'
_cell_length_a   12.80244600
_cell_length_b   12.80244510
_cell_length_c   3.85278100
_cell_angle_alpha   90.00000000
_cell_angle_beta   90.00000000
_cell_angle_gamma   119.99999717
_symmetry_Int_Tables_number   1
_chemical_formula_structural   Hf3Sc5P12IrRh15
_chemical_formula_sum   'Hf3 Sc5 P12 Ir1 Rh15'
_cell_volume   546.87849051
_cell_formula_units_Z   1
loop_
 _symmetry_equiv_pos_site_id
 _symmetry_equiv_pos_as_xyz
  1  'x, y, z'
loop_
 _atom_site_type_symbol
 _atom_site_label
 _atom_site_symmetry_multiplicity
 _atom_site_fract_x
 _atom_site_fract_y
 _atom_site_fract_z
 _atom_site_occupancy
  Hf  Hf0  1  0.447912  0.000000  0.000000  1
  Hf  Hf1  1  0.000000  0.447912  0.000000  1
  Hf  Hf2  1  0.552088  0.552088  0.000000  1
  Sc  Sc3  1  0.333333  0.666667  0.000000  1
  Sc  Sc4  1  0.666667  0.333333  0.000000  1
  Sc  Sc5  1  0.817115  0.000000  0.500000  1
  Sc  Sc6  1  0.000000  0.817115  0.500000  1
  Sc  Sc7  1  0.182885  0.182885  0.500000  1
  P  P8  1  0.173739  0.000000  0.000000  1
  P  P9  1  0.000000  0.173739  0.000000  1
  P  P10  1  0.826261  0.826261  0.000000  1
  P  P11  1  0.171331  0.484695  0.500000  1
  P  P12  1  0.515305  0.686635  0.500000  1
  P  P13  1  0.313365  0.828669  0.500000  1
  P  P14  1  0.686635  0.515305  0.500000  1
  P  P15  1  0.828669  0.313365  0.500000  1
  P  P16  1  0.484695  0.171331  0.500000  1
  P  P17  1  0.653111  0.000000  0.000000  1
  P  P18  1  0.000000  0.653111  0.000000  1
  P  P19  1  0.346889  0.346889  0.000000  1
  Ir  Ir20  1  0.000000  0.000000  0.000000  1
  Rh  Rh21  1  0.357420  0.489827  0.500000  1
  Rh  Rh22  1  0.510173  0.867593  0.500000  1
  Rh  Rh23  1  0.132407  0.642580  0.500000  1
  Rh  Rh24  1  0.867593  0.510173  0.500000  1
  Rh  Rh25  1  0.642580  0.132407  0.500000  1
  Rh  Rh26  1  0.489827  0.357420  0.500000  1
  Rh  Rh27  1  0.177218  0.370738  0.000000  1
  Rh  Rh28  1  0.629262  0.806481  0.000000  1
  Rh  Rh29  1  0.193519  0.822782  0.000000  1
  Rh  Rh30  1  0.806481  0.629262  0.000000  1
  Rh  Rh31  1  0.822782  0.193519  0.000000  1
  Rh  Rh32  1  0.370738  0.177218  0.000000  1
  Rh  Rh33  1  0.278267  0.000000  0.500000  1
  Rh  Rh34  1  0.000000  0.278267  0.500000  1
  Rh  Rh35  1  0.721733  0.721733  0.500000  1
