# generated using pymatgen
data_Ba2CrPd2O9
_symmetry_space_group_name_H-M   'P 1'
_cell_length_a   5.39503180
_cell_length_b   8.18458261
_cell_length_c   10.78075899
_cell_angle_alpha   92.80873891
_cell_angle_beta   100.28474720
_cell_angle_gamma   109.03367778
_symmetry_Int_Tables_number   1
_chemical_formula_structural   Ba2CrPd2O9
_chemical_formula_sum   'Ba4 Cr2 Pd4 O18'
_cell_volume   439.82720230
_cell_formula_units_Z   2
loop_
 _symmetry_equiv_pos_site_id
 _symmetry_equiv_pos_as_xyz
  1  'x, y, z'
loop_
 _atom_site_type_symbol
 _atom_site_label
 _atom_site_symmetry_multiplicity
 _atom_site_fract_x
 _atom_site_fract_y
 _atom_site_fract_z
 _atom_site_occupancy
  Ba  Ba0  1  0.875695  0.952390  0.246124  1
  Ba  Ba1  1  0.124305  0.047610  0.753876  1
  Ba  Ba2  1  0.492912  0.390552  0.182964  1
  Ba  Ba3  1  0.507088  0.609448  0.817036  1
  Cr  Cr4  1  0.184068  0.769846  0.040842  1
  Cr  Cr5  1  0.815932  0.230154  0.959158  1
  Pd  Pd6  1  0.398806  0.800719  0.501341  1
  Pd  Pd7  1  0.601194  0.199281  0.498659  1
  Pd  Pd8  1  0.801330  0.601797  0.505802  1
  Pd  Pd9  1  0.198670  0.398203  0.494198  1
  O  O10  1  0.431642  0.687535  0.074256  1
  O  O11  1  0.568358  0.312465  0.925744  1
  O  O12  1  0.928765  0.663023  0.103519  1
  O  O13  1  0.071235  0.336977  0.896481  1
  O  O14  1  0.081325  0.748177  0.882288  1
  O  O15  1  0.918675  0.251823  0.117712  1
  O  O16  1  0.290391  0.978339  0.100079  1
  O  O17  1  0.709609  0.021661  0.899921  1
  O  O18  1  0.174606  0.612381  0.600223  1
  O  O19  1  0.825394  0.387619  0.399777  1
  O  O20  1  0.563506  0.413725  0.599055  1
  O  O21  1  0.436494  0.586275  0.400945  1
  O  O22  1  0.576018  0.982253  0.396658  1
  O  O23  1  0.423982  0.017747  0.603342  1
  O  O24  1  0.740606  0.787379  0.613121  1
  O  O25  1  0.259394  0.212621  0.386879  1
  O  O26  1  0.023983  0.764494  0.404629  1
  O  O27  1  0.976017  0.235506  0.595371  1
