# generated using pymatgen
data_FeTcP
_symmetry_space_group_name_H-M   'P 1'
_cell_length_a   3.74431400
_cell_length_b   5.76012900
_cell_length_c   6.59327900
_cell_angle_alpha   90.00000000
_cell_angle_beta   90.00000000
_cell_angle_gamma   90.00000000
_symmetry_Int_Tables_number   1
_chemical_formula_structural   FeTcP
_chemical_formula_sum   'Fe4 Tc4 P4'
_cell_volume   142.20207221
_cell_formula_units_Z   4
loop_
 _symmetry_equiv_pos_site_id
 _symmetry_equiv_pos_as_xyz
  1  'x, y, z'
loop_
 _atom_site_type_symbol
 _atom_site_label
 _atom_site_symmetry_multiplicity
 _atom_site_fract_x
 _atom_site_fract_y
 _atom_site_fract_z
 _atom_site_occupancy
  Fe  Fe0  1  0.250000  0.859791  0.933366  1
  Fe  Fe1  1  0.250000  0.359791  0.566634  1
  Fe  Fe2  1  0.750000  0.140209  0.066634  1
  Fe  Fe3  1  0.750000  0.640209  0.433366  1
  Tc  Tc4  1  0.250000  0.971562  0.333465  1
  Tc  Tc5  1  0.250000  0.471562  0.166535  1
  Tc  Tc6  1  0.750000  0.028438  0.666535  1
  Tc  Tc7  1  0.750000  0.528438  0.833465  1
  P  P8  1  0.250000  0.234744  0.881210  1
  P  P9  1  0.250000  0.734744  0.618790  1
  P  P10  1  0.750000  0.765256  0.118790  1
  P  P11  1  0.750000  0.265256  0.381210  1
