# generated using pymatgen
data_Li2Dy16In2IrPt3
_symmetry_space_group_name_H-M   'P 1'
_cell_length_a   9.71356834
_cell_length_b   9.67398491
_cell_length_c   9.66409500
_cell_angle_alpha   60.03380891
_cell_angle_beta   60.16833641
_cell_angle_gamma   60.02290790
_symmetry_Int_Tables_number   1
_chemical_formula_structural   Li2Dy16In2IrPt3
_chemical_formula_sum   'Li2 Dy16 In2 Ir1 Pt3'
_cell_volume   643.23009072
_cell_formula_units_Z   1
loop_
 _symmetry_equiv_pos_site_id
 _symmetry_equiv_pos_as_xyz
  1  'x, y, z'
loop_
 _atom_site_type_symbol
 _atom_site_label
 _atom_site_symmetry_multiplicity
 _atom_site_fract_x
 _atom_site_fract_y
 _atom_site_fract_z
 _atom_site_occupancy
  Li  Li0  1  0.822526  0.822688  0.825978  1
  Li  Li1  1  0.822526  0.822688  0.528806  1
  Dy  Dy2  1  0.602674  0.598824  0.599553  1
  Dy  Dy3  1  0.602674  0.598824  0.198950  1
  Dy  Dy4  1  0.602120  0.203011  0.597435  1
  Dy  Dy5  1  0.197273  0.601205  0.600761  1
  Dy  Dy6  1  0.058709  0.439279  0.440084  1
  Dy  Dy7  1  0.440711  0.061051  0.057860  1
  Dy  Dy8  1  0.440711  0.061051  0.440378  1
  Dy  Dy9  1  0.058709  0.439279  0.061928  1
  Dy  Dy10  1  0.444717  0.443814  0.055734  1
  Dy  Dy11  1  0.064108  0.069136  0.433378  1
  Dy  Dy12  1  0.185538  0.812937  0.815319  1
  Dy  Dy13  1  0.814387  0.185581  0.187114  1
  Dy  Dy14  1  0.814387  0.185581  0.812918  1
  Dy  Dy15  1  0.185538  0.812937  0.186207  1
  Dy  Dy16  1  0.814910  0.810948  0.187071  1
  Dy  Dy17  1  0.186051  0.185642  0.814153  1
  In  In18  1  0.834428  0.505372  0.830099  1
  In  In19  1  0.505447  0.834497  0.830027  1
  Ir  Ir20  1  0.823806  0.394668  0.390764  1
  Pt  Pt21  1  0.392642  0.394356  0.391524  1
  Pt  Pt22  1  0.392642  0.394356  0.821479  1
  Pt  Pt23  1  0.392766  0.822276  0.392480  1
