# generated using pymatgen
data_Tb(ErCu6)2
_symmetry_space_group_name_H-M   'P 1'
_cell_length_a   4.98963446
_cell_length_b   4.98963466
_cell_length_c   10.54195717
_cell_angle_alpha   94.92536700
_cell_angle_beta   94.92538020
_cell_angle_gamma   119.62395755
_symmetry_Int_Tables_number   1
_chemical_formula_structural   Tb(ErCu6)2
_chemical_formula_sum   'Tb1 Er2 Cu12'
_cell_volume   224.80069208
_cell_formula_units_Z   1
loop_
 _symmetry_equiv_pos_site_id
 _symmetry_equiv_pos_as_xyz
  1  'x, y, z'
loop_
 _atom_site_type_symbol
 _atom_site_label
 _atom_site_symmetry_multiplicity
 _atom_site_fract_x
 _atom_site_fract_y
 _atom_site_fract_z
 _atom_site_occupancy
  Tb  Tb0  1  0.000000  0.000000  0.000000  1
  Er  Er1  1  0.136291  0.136291  0.358948  1
  Er  Er2  1  0.863709  0.863709  0.641052  1
  Cu  Cu3  1  0.662441  0.337560  0.000000  1
  Cu  Cu4  1  0.337560  0.662441  0.000000  1
  Cu  Cu5  1  0.569646  0.068905  0.196749  1
  Cu  Cu6  1  0.068905  0.569646  0.196749  1
  Cu  Cu7  1  0.573026  0.573026  0.203685  1
  Cu  Cu8  1  0.810929  0.474596  0.406075  1
  Cu  Cu9  1  0.474596  0.810929  0.406075  1
  Cu  Cu10  1  0.525406  0.189072  0.593925  1
  Cu  Cu11  1  0.189072  0.525406  0.593925  1
  Cu  Cu12  1  0.426973  0.426973  0.796315  1
  Cu  Cu13  1  0.931094  0.430353  0.803252  1
  Cu  Cu14  1  0.430353  0.931094  0.803252  1
