# generated using pymatgen
data_Ca4V4Si3AsO20
_symmetry_space_group_name_H-M   'P 1'
_cell_length_a   5.53784744
_cell_length_b   7.54417110
_cell_length_c   9.98654391
_cell_angle_alpha   76.03957515
_cell_angle_beta   91.14326493
_cell_angle_gamma   72.05372899
_symmetry_Int_Tables_number   1
_chemical_formula_structural   Ca4V4Si3AsO20
_chemical_formula_sum   'Ca4 V4 Si3 As1 O20'
_cell_volume   383.18479005
_cell_formula_units_Z   1
loop_
 _symmetry_equiv_pos_site_id
 _symmetry_equiv_pos_as_xyz
  1  'x, y, z'
loop_
 _atom_site_type_symbol
 _atom_site_label
 _atom_site_symmetry_multiplicity
 _atom_site_fract_x
 _atom_site_fract_y
 _atom_site_fract_z
 _atom_site_occupancy
  Ca  Ca0  1  0.135606  0.530665  0.219281  1
  Ca  Ca1  1  0.628019  0.048036  0.704090  1
  Ca  Ca2  1  0.876378  0.453244  0.783878  1
  Ca  Ca3  1  0.364040  0.964417  0.298553  1
  V  V4  1  0.499862  0.502104  0.500536  1
  V  V5  1  0.232980  0.753370  0.745776  1
  V  V6  1  0.997699  0.011076  0.996308  1
  V  V7  1  0.752941  0.239024  0.255591  1
  Si  Si8  1  0.103674  0.215309  0.535340  1
  Si  Si9  1  0.396488  0.287995  0.965165  1
  Si  Si10  1  0.895449  0.781610  0.464213  1
  As  As11  1  0.604467  0.715007  0.034296  1
  O  O12  1  0.529923  0.409142  0.343023  1
  O  O13  1  0.028783  0.903899  0.835891  1
  O  O14  1  0.474188  0.593410  0.654503  1
  O  O15  1  0.970353  0.096002  0.165919  1
  O  O16  1  0.797050  0.830085  0.088663  1
  O  O17  1  0.292205  0.328208  0.579216  1
  O  O18  1  0.210643  0.172831  0.919963  1
  O  O19  1  0.706339  0.672359  0.416676  1
  O  O20  1  0.783314  0.477123  0.101566  1
  O  O21  1  0.264694  0.985670  0.603540  1
  O  O22  1  0.231870  0.515657  0.892365  1
  O  O23  1  0.731285  0.012246  0.399181  1
  O  O24  1  0.566394  0.756634  0.856028  1
  O  O25  1  0.061241  0.252701  0.365297  1
  O  O26  1  0.436892  0.249125  0.136746  1
  O  O27  1  0.937353  0.740515  0.634797  1
  O  O28  1  0.321814  0.780996  0.107169  1
  O  O29  1  0.827027  0.285600  0.599744  1
  O  O30  1  0.668635  0.220711  0.897010  1
  O  O31  1  0.172396  0.715229  0.399676  1
