# generated using pymatgen
data_Y2Ho2ScBi3
_symmetry_space_group_name_H-M   'P 1'
_cell_length_a   8.12203700
_cell_length_b   9.41681700
_cell_length_c   11.98099500
_cell_angle_alpha   90.00000000
_cell_angle_beta   90.00000000
_cell_angle_gamma   90.00000000
_symmetry_Int_Tables_number   1
_chemical_formula_structural   Y2Ho2ScBi3
_chemical_formula_sum   'Y8 Ho8 Sc4 Bi12'
_cell_volume   916.35125975
_cell_formula_units_Z   4
loop_
 _symmetry_equiv_pos_site_id
 _symmetry_equiv_pos_as_xyz
  1  'x, y, z'
loop_
 _atom_site_type_symbol
 _atom_site_label
 _atom_site_symmetry_multiplicity
 _atom_site_fract_x
 _atom_site_fract_y
 _atom_site_fract_z
 _atom_site_occupancy
  Y  Y0  1  0.185368  0.750000  0.720407  1
  Y  Y1  1  0.685368  0.750000  0.779593  1
  Y  Y2  1  0.814632  0.250000  0.279593  1
  Y  Y3  1  0.314632  0.250000  0.220407  1
  Y  Y4  1  0.354067  0.750000  0.215221  1
  Y  Y5  1  0.854067  0.750000  0.284779  1
  Y  Y6  1  0.645933  0.250000  0.784779  1
  Y  Y7  1  0.145933  0.250000  0.715221  1
  Ho  Ho8  1  0.302984  0.436260  0.941226  1
  Ho  Ho9  1  0.802984  0.063740  0.558774  1
  Ho  Ho10  1  0.697016  0.936260  0.058774  1
  Ho  Ho11  1  0.197016  0.563740  0.441226  1
  Ho  Ho12  1  0.697016  0.563740  0.058774  1
  Ho  Ho13  1  0.197016  0.936260  0.441226  1
  Ho  Ho14  1  0.302984  0.063740  0.941226  1
  Ho  Ho15  1  0.802984  0.436260  0.558774  1
  Sc  Sc16  1  0.025625  0.750000  0.988386  1
  Sc  Sc17  1  0.525625  0.750000  0.511614  1
  Sc  Sc18  1  0.974375  0.250000  0.011614  1
  Sc  Sc19  1  0.474375  0.250000  0.488386  1
  Bi  Bi20  1  0.434664  0.003580  0.668409  1
  Bi  Bi21  1  0.934664  0.496420  0.831591  1
  Bi  Bi22  1  0.565336  0.503580  0.331591  1
  Bi  Bi23  1  0.065336  0.996420  0.168409  1
  Bi  Bi24  1  0.565336  0.996420  0.331591  1
  Bi  Bi25  1  0.065336  0.503580  0.168409  1
  Bi  Bi26  1  0.434664  0.496420  0.668409  1
  Bi  Bi27  1  0.934664  0.003580  0.831591  1
  Bi  Bi28  1  0.404631  0.750000  0.957988  1
  Bi  Bi29  1  0.904631  0.750000  0.542012  1
  Bi  Bi30  1  0.595369  0.250000  0.042012  1
  Bi  Bi31  1  0.095369  0.250000  0.457988  1
