# generated using pymatgen
data_YZr5Fe7Co16
_symmetry_space_group_name_H-M   'P 1'
_cell_length_a   8.21592588
_cell_length_b   8.19733312
_cell_length_c   8.19436000
_cell_angle_alpha   60.13737234
_cell_angle_beta   59.94295470
_cell_angle_gamma   59.88580375
_symmetry_Int_Tables_number   1
_chemical_formula_structural   YZr5Fe7Co16
_chemical_formula_sum   'Y1 Zr5 Fe7 Co16'
_cell_volume   390.13358911
_cell_formula_units_Z   1
loop_
 _symmetry_equiv_pos_site_id
 _symmetry_equiv_pos_as_xyz
  1  'x, y, z'
loop_
 _atom_site_type_symbol
 _atom_site_label
 _atom_site_symmetry_multiplicity
 _atom_site_fract_x
 _atom_site_fract_y
 _atom_site_fract_z
 _atom_site_occupancy
  Y  Y0  1  0.704520  0.295669  0.295553  1
  Zr  Zr1  1  0.285789  0.287874  0.714290  1
  Zr  Zr2  1  0.290304  0.709589  0.709571  1
  Zr  Zr3  1  0.711668  0.714655  0.288157  1
  Zr  Zr4  1  0.285273  0.714354  0.288227  1
  Zr  Zr5  1  0.712271  0.288175  0.714251  1
  Fe  Fe6  1  0.001410  0.501910  0.998332  1
  Fe  Fe7  1  0.001594  0.998409  0.501796  1
  Fe  Fe8  1  0.999455  0.000533  0.000554  1
  Fe  Fe9  1  0.498328  0.501872  0.998368  1
  Fe  Fe10  1  0.498250  0.998396  0.501824  1
  Fe  Fe11  1  0.499829  0.000130  0.000188  1
  Fe  Fe12  1  0.999692  0.500275  0.500342  1
  Co  Co13  1  0.122264  0.120525  0.635352  1
  Co  Co14  1  0.674840  0.973133  0.676862  1
  Co  Co15  1  0.364591  0.877865  0.878157  1
  Co  Co16  1  0.027016  0.324804  0.325163  1
  Co  Co17  1  0.976827  0.674421  0.674165  1
  Co  Co18  1  0.325813  0.325554  0.022779  1
  Co  Co19  1  0.675044  0.676982  0.972925  1
  Co  Co20  1  0.633927  0.119984  0.119668  1
  Co  Co21  1  0.674546  0.674248  0.674186  1
  Co  Co22  1  0.879813  0.873549  0.366357  1
  Co  Co23  1  0.126811  0.119508  0.119784  1
  Co  Co24  1  0.880648  0.366260  0.873155  1
  Co  Co25  1  0.878943  0.878305  0.878090  1
  Co  Co26  1  0.323081  0.324908  0.325224  1
  Co  Co27  1  0.121457  0.635507  0.120969  1
  Co  Co28  1  0.325995  0.022604  0.325710  1
