# generated using pymatgen
data_Sm7Th(SiI6)2
_symmetry_space_group_name_H-M   'P 1'
_cell_length_a   4.30670300
_cell_length_b   14.27510436
_cell_length_c   15.07710154
_cell_angle_alpha   89.92144100
_cell_angle_beta   90.00000000
_cell_angle_gamma   90.00000000
_symmetry_Int_Tables_number   1
_chemical_formula_structural   Sm7Th(SiI6)2
_chemical_formula_sum   'Sm7 Th1 Si2 I12'
_cell_volume   926.91874756
_cell_formula_units_Z   1
loop_
 _symmetry_equiv_pos_site_id
 _symmetry_equiv_pos_as_xyz
  1  'x, y, z'
loop_
 _atom_site_type_symbol
 _atom_site_label
 _atom_site_symmetry_multiplicity
 _atom_site_fract_x
 _atom_site_fract_y
 _atom_site_fract_z
 _atom_site_occupancy
  Sm  Sm0  1  0.500000  0.113791  0.347986  1
  Sm  Sm1  1  0.500000  0.886302  0.652133  1
  Sm  Sm2  1  0.500000  0.614806  0.153350  1
  Sm  Sm3  1  0.500000  0.386291  0.847911  1
  Sm  Sm4  1  0.000000  0.888919  0.425649  1
  Sm  Sm5  1  0.000000  0.612683  0.924720  1
  Sm  Sm6  1  0.000000  0.387386  0.075337  1
  Th  Th7  1  0.000000  0.109037  0.572751  1
  Si  Si8  1  0.500000  0.999860  0.499995  1
  Si  Si9  1  0.500000  0.500133  0.000225  1
  I  I10  1  0.500000  0.244481  0.161766  1
  I  I11  1  0.500000  0.755711  0.838371  1
  I  I12  1  0.500000  0.744079  0.338256  1
  I  I13  1  0.500000  0.256746  0.661769  1
  I  I14  1  0.000000  0.259737  0.413061  1
  I  I15  1  0.000000  0.741067  0.585955  1
  I  I16  1  0.000000  0.758517  0.085830  1
  I  I17  1  0.000000  0.241417  0.913992  1
  I  I18  1  0.000000  0.998876  0.240173  1
  I  I19  1  0.000000  0.000363  0.760879  1
  I  I20  1  0.000000  0.498865  0.259441  1
  I  I21  1  0.000000  0.500933  0.740451  1
