# generated using pymatgen
data_YHo5Al24(Os3Au)2
_symmetry_space_group_name_H-M   'P 1'
_cell_length_a   8.86689749
_cell_length_b   8.89583330
_cell_length_c   9.56881100
_cell_angle_alpha   90.00062935
_cell_angle_beta   90.00052313
_cell_angle_gamma   120.10356218
_symmetry_Int_Tables_number   1
_chemical_formula_structural   YHo5Al24(Os3Au)2
_chemical_formula_sum   'Y1 Ho5 Al24 Os6 Au2'
_cell_volume   652.96931411
_cell_formula_units_Z   1
loop_
 _symmetry_equiv_pos_site_id
 _symmetry_equiv_pos_as_xyz
  1  'x, y, z'
loop_
 _atom_site_type_symbol
 _atom_site_label
 _atom_site_symmetry_multiplicity
 _atom_site_fract_x
 _atom_site_fract_y
 _atom_site_fract_z
 _atom_site_occupancy
  Y  Y0  1  0.804483  0.187272  0.749993  1
  Ho  Ho1  1  0.197669  0.384459  0.249999  1
  Ho  Ho2  1  0.801797  0.615112  0.749997  1
  Ho  Ho3  1  0.609545  0.804862  0.250000  1
  Ho  Ho4  1  0.390215  0.195416  0.750003  1
  Ho  Ho5  1  0.197820  0.813208  0.249998  1
  Al  Al6  1  0.342471  0.671185  0.027895  1
  Al  Al7  1  0.657137  0.328430  0.972468  1
  Al  Al8  1  0.657120  0.328418  0.527527  1
  Al  Al9  1  0.342466  0.671179  0.472101  1
  Al  Al10  1  0.171796  0.322660  0.578065  1
  Al  Al11  1  0.828552  0.677578  0.421623  1
  Al  Al12  1  0.671231  0.835616  0.577087  1
  Al  Al13  1  0.828551  0.677574  0.078379  1
  Al  Al14  1  0.328337  0.164238  0.422450  1
  Al  Al15  1  0.171793  0.322653  0.921936  1
  Al  Al16  1  0.171390  0.849035  0.578249  1
  Al  Al17  1  0.328336  0.164235  0.077553  1
  Al  Al18  1  0.828311  0.150908  0.421155  1
  Al  Al19  1  0.671241  0.835623  0.922911  1
  Al  Al20  1  0.828321  0.150910  0.078831  1
  Al  Al21  1  0.171396  0.849035  0.921755  1
  Al  Al22  1  0.560051  0.122222  0.250002  1
  Al  Al23  1  0.440076  0.878412  0.750000  1
  Al  Al24  1  0.868250  0.434236  0.249999  1
  Al  Al25  1  0.132240  0.566684  0.749999  1
  Al  Al26  1  0.560145  0.438151  0.250005  1
  Al  Al27  1  0.439726  0.562130  0.750004  1
  Al  Al28  1  0.003294  0.001566  0.249995  1
  Al  Al29  1  0.997617  0.997222  0.749996  1
  Os  Os30  1  0.499365  0.999616  0.000432  1
  Os  Os31  1  0.499388  0.999645  0.499529  1
  Os  Os32  1  0.499997  0.500057  0.999962  1
  Os  Os33  1  0.500033  0.500061  0.500025  1
  Os  Os34  1  0.999856  0.000163  0.000081  1
  Os  Os35  1  0.999857  0.000147  0.499952  1
  Au  Au36  1  0.000016  0.499982  0.999914  1
  Au  Au37  1  0.000107  0.500101  0.500128  1
