# generated using pymatgen
data_SmTh2CoSn3Rh2
_symmetry_space_group_name_H-M   'P 1'
_cell_length_a   7.56900670
_cell_length_b   7.56900577
_cell_length_c   4.02579400
_cell_angle_alpha   90.00000000
_cell_angle_beta   90.00000000
_cell_angle_gamma   120.31004057
_symmetry_Int_Tables_number   1
_chemical_formula_structural   SmTh2CoSn3Rh2
_chemical_formula_sum   'Sm1 Th2 Co1 Sn3 Rh2'
_cell_volume   199.11069990
_cell_formula_units_Z   1
loop_
 _symmetry_equiv_pos_site_id
 _symmetry_equiv_pos_as_xyz
  1  'x, y, z'
loop_
 _atom_site_type_symbol
 _atom_site_label
 _atom_site_symmetry_multiplicity
 _atom_site_fract_x
 _atom_site_fract_y
 _atom_site_fract_z
 _atom_site_occupancy
  Sm  Sm0  1  0.407710  0.407710  0.500000  1
  Th  Th1  1  0.589893  0.000480  0.500000  1
  Th  Th2  1  0.000480  0.589893  0.500000  1
  Co  Co3  1  0.990485  0.990485  0.500000  1
  Sn  Sn4  1  0.748262  0.748262  0.000000  1
  Sn  Sn5  1  0.245021  0.007721  0.000000  1
  Sn  Sn6  1  0.007721  0.245021  0.000000  1
  Rh  Rh7  1  0.678972  0.331455  0.000000  1
  Rh  Rh8  1  0.331455  0.678972  0.000000  1
