# generated using pymatgen
data_YEr4Mg(P2Ru3)6
_symmetry_space_group_name_H-M   'P 1'
_cell_length_a   12.61941719
_cell_length_b   12.45958231
_cell_length_c   3.97390900
_cell_angle_alpha   90.00000000
_cell_angle_beta   90.00000000
_cell_angle_gamma   119.58620503
_symmetry_Int_Tables_number   1
_chemical_formula_structural   YEr4Mg(P2Ru3)6
_chemical_formula_sum   'Y1 Er4 Mg1 P12 Ru18'
_cell_volume   543.35934039
_cell_formula_units_Z   1
loop_
 _symmetry_equiv_pos_site_id
 _symmetry_equiv_pos_as_xyz
  1  'x, y, z'
loop_
 _atom_site_type_symbol
 _atom_site_label
 _atom_site_symmetry_multiplicity
 _atom_site_fract_x
 _atom_site_fract_y
 _atom_site_fract_z
 _atom_site_occupancy
  Y  Y0  1  0.339829  0.668693  0.000000  1
  Er  Er1  1  0.999990  0.180996  0.500000  1
  Er  Er2  1  0.816184  0.817500  0.500000  1
  Er  Er3  1  0.183822  0.001327  0.500000  1
  Er  Er4  1  0.660066  0.328722  0.000000  1
  Mg  Mg5  1  0.999951  0.561421  0.000000  1
  P  P6  1  0.999948  0.811911  0.000000  1
  P  P7  1  0.182359  0.183183  0.000000  1
  P  P8  1  0.817694  0.000930  0.000000  1
  P  P9  1  0.691075  0.172360  0.500000  1
  P  P10  1  0.818207  0.517996  0.500000  1
  P  P11  1  0.474948  0.307087  0.500000  1
  P  P12  1  0.181355  0.699934  0.500000  1
  P  P13  1  0.525532  0.832533  0.500000  1
  P  P14  1  0.308871  0.480733  0.500000  1
  P  P15  1  0.000039  0.359846  0.000000  1
  P  P16  1  0.625541  0.625704  0.000000  1
  P  P17  1  0.374407  0.000079  0.000000  1
  Ru  Ru18  1  0.444224  0.444623  0.000000  1
  Ru  Ru19  1  0.555801  0.000450  0.000000  1
  Ru  Ru20  1  0.999917  0.716599  0.500000  1
  Ru  Ru21  1  0.281104  0.282784  0.500000  1
  Ru  Ru22  1  0.719025  0.001963  0.500000  1
  Ru  Ru23  1  0.805525  0.184661  0.000000  1
  Ru  Ru24  1  0.813047  0.619914  0.000000  1
  Ru  Ru25  1  0.372957  0.188915  0.000000  1
  Ru  Ru26  1  0.186657  0.807051  0.000000  1
  Ru  Ru27  1  0.627485  0.816223  0.000000  1
  Ru  Ru28  1  0.194296  0.378685  0.000000  1
  Ru  Ru29  1  0.874480  0.365550  0.500000  1
  Ru  Ru30  1  0.630866  0.509053  0.500000  1
  Ru  Ru31  1  0.492638  0.129168  0.500000  1
  Ru  Ru32  1  0.369167  0.878850  0.500000  1
  Ru  Ru33  1  0.508073  0.636452  0.500000  1
  Ru  Ru34  1  0.124914  0.490508  0.500000  1
  Ru  Ru35  1  0.000004  0.997592  0.000000  1
