# generated using pymatgen
data_CeEu3(BeSi3)2
_symmetry_space_group_name_H-M   'P 1'
_cell_length_a   7.91939700
_cell_length_b   7.91939726
_cell_length_c   8.70109400
_cell_angle_alpha   90.00000000
_cell_angle_beta   90.00000000
_cell_angle_gamma   120.00000308
_symmetry_Int_Tables_number   1
_chemical_formula_structural   CeEu3(BeSi3)2
_chemical_formula_sum   'Ce2 Eu6 Be4 Si12'
_cell_volume   472.59456479
_cell_formula_units_Z   2
loop_
 _symmetry_equiv_pos_site_id
 _symmetry_equiv_pos_as_xyz
  1  'x, y, z'
loop_
 _atom_site_type_symbol
 _atom_site_label
 _atom_site_symmetry_multiplicity
 _atom_site_fract_x
 _atom_site_fract_y
 _atom_site_fract_z
 _atom_site_occupancy
  Ce  Ce0  1  0.000000  0.000000  0.750000  1
  Ce  Ce1  1  0.000000  0.000000  0.250000  1
  Eu  Eu2  1  0.499796  0.500204  0.750000  1
  Eu  Eu3  1  0.500204  0.499796  0.250000  1
  Eu  Eu4  1  0.000409  0.500204  0.750000  1
  Eu  Eu5  1  0.999591  0.499796  0.250000  1
  Eu  Eu6  1  0.499796  0.999591  0.750000  1
  Eu  Eu7  1  0.500204  0.000409  0.250000  1
  Be  Be8  1  0.666667  0.333333  0.998067  1
  Be  Be9  1  0.333333  0.666667  0.001933  1
  Be  Be10  1  0.333333  0.666667  0.498067  1
  Be  Be11  1  0.666667  0.333333  0.501933  1
  Si  Si12  1  0.828730  0.171270  0.000128  1
  Si  Si13  1  0.171270  0.828730  0.999872  1
  Si  Si14  1  0.342538  0.171270  0.000128  1
  Si  Si15  1  0.171270  0.828730  0.500128  1
  Si  Si16  1  0.657462  0.828730  0.999872  1
  Si  Si17  1  0.828730  0.171270  0.499872  1
  Si  Si18  1  0.828730  0.657462  0.000128  1
  Si  Si19  1  0.657462  0.828730  0.500128  1
  Si  Si20  1  0.171270  0.342538  0.999872  1
  Si  Si21  1  0.342538  0.171270  0.499872  1
  Si  Si22  1  0.171270  0.342538  0.500128  1
  Si  Si23  1  0.828730  0.657462  0.499872  1
