# generated using pymatgen
data_YHoCo4(GeC)2
_symmetry_space_group_name_H-M   'P 1'
_cell_length_a   5.64511718
_cell_length_b   5.64511662
_cell_length_c   6.84205100
_cell_angle_alpha   90.00000000
_cell_angle_beta   90.00000000
_cell_angle_gamma   141.06762679
_symmetry_Int_Tables_number   1
_chemical_formula_structural   YHoCo4(GeC)2
_chemical_formula_sum   'Y1 Ho1 Co4 Ge2 C2'
_cell_volume   137.01566249
_cell_formula_units_Z   1
loop_
 _symmetry_equiv_pos_site_id
 _symmetry_equiv_pos_as_xyz
  1  'x, y, z'
loop_
 _atom_site_type_symbol
 _atom_site_label
 _atom_site_symmetry_multiplicity
 _atom_site_fract_x
 _atom_site_fract_y
 _atom_site_fract_z
 _atom_site_occupancy
  Y  Y0  1  0.450629  0.549371  0.750000  1
  Ho  Ho1  1  0.549350  0.450650  0.250000  1
  Co  Co2  1  0.839531  0.160469  0.056315  1
  Co  Co3  1  0.160411  0.839589  0.944914  1
  Co  Co4  1  0.160411  0.839589  0.555086  1
  Co  Co5  1  0.839531  0.160469  0.443685  1
  Ge  Ge6  1  0.270905  0.729095  0.250000  1
  Ge  Ge7  1  0.728861  0.271139  0.750000  1
  C  C8  1  0.000185  0.999815  0.001964  1
  C  C9  1  0.000185  0.999815  0.498036  1
