# generated using pymatgen
data_TbZn9Cu2
_symmetry_space_group_name_H-M   'P 1'
_cell_length_a   8.16967926
_cell_length_b   8.16941941
_cell_length_c   8.16965177
_cell_angle_alpha   99.58426110
_cell_angle_beta   99.59977858
_cell_angle_gamma   131.81631968
_symmetry_Int_Tables_number   1
_chemical_formula_structural   TbZn9Cu2
_chemical_formula_sum   'Tb2 Zn18 Cu4'
_cell_volume   370.97132691
_cell_formula_units_Z   2
loop_
 _symmetry_equiv_pos_site_id
 _symmetry_equiv_pos_as_xyz
  1  'x, y, z'
loop_
 _atom_site_type_symbol
 _atom_site_label
 _atom_site_symmetry_multiplicity
 _atom_site_fract_x
 _atom_site_fract_y
 _atom_site_fract_z
 _atom_site_occupancy
  Tb  Tb0  1  0.249997  0.749999  0.499998  1
  Tb  Tb1  1  0.000002  0.000003  0.000001  1
  Zn  Zn2  1  0.427099  0.102549  0.917214  1
  Zn  Zn3  1  0.185326  0.509876  0.082778  1
  Zn  Zn4  1  0.499992  0.499989  0.999993  1
  Zn  Zn5  1  0.750007  0.250011  0.500007  1
  Zn  Zn6  1  0.185335  0.102553  0.675453  1
  Zn  Zn7  1  0.759889  0.935335  0.582795  1
  Zn  Zn8  1  0.352546  0.177097  0.417216  1
  Zn  Zn9  1  0.427096  0.509877  0.324550  1
  Zn  Zn10  1  0.897459  0.814667  0.324554  1
  Zn  Zn11  1  0.490116  0.572901  0.675451  1
  Zn  Zn12  1  0.064673  0.240124  0.417222  1
  Zn  Zn13  1  0.822900  0.647451  0.582786  1
  Zn  Zn14  1  0.064664  0.647446  0.824548  1
  Zn  Zn15  1  0.490110  0.814664  0.917206  1
  Zn  Zn16  1  0.897454  0.572903  0.082785  1
  Zn  Zn17  1  0.822903  0.240123  0.175450  1
  Zn  Zn18  1  0.352540  0.935332  0.175446  1
  Zn  Zn19  1  0.759884  0.177099  0.824549  1
  Cu  Cu20  1  0.625001  0.374997  0.749997  1
  Cu  Cu21  1  0.124999  0.374999  0.750005  1
  Cu  Cu22  1  0.625002  0.375000  0.249996  1
  Cu  Cu23  1  0.625003  0.875006  0.250000  1
