# generated using pymatgen
data_LaCoCuO5
_symmetry_space_group_name_H-M   'P 1'
_cell_length_a   5.65223400
_cell_length_b   7.97817700
_cell_length_c   8.60211000
_cell_angle_alpha   90.00000000
_cell_angle_beta   90.00000000
_cell_angle_gamma   90.00000000
_symmetry_Int_Tables_number   1
_chemical_formula_structural   LaCoCuO5
_chemical_formula_sum   'La4 Co4 Cu4 O20'
_cell_volume   387.90804980
_cell_formula_units_Z   4
loop_
 _symmetry_equiv_pos_site_id
 _symmetry_equiv_pos_as_xyz
  1  'x, y, z'
loop_
 _atom_site_type_symbol
 _atom_site_label
 _atom_site_symmetry_multiplicity
 _atom_site_fract_x
 _atom_site_fract_y
 _atom_site_fract_z
 _atom_site_occupancy
  La  La0  1  0.000000  0.342773  0.676292  1
  La  La1  1  0.000000  0.657227  0.323708  1
  La  La2  1  0.000000  0.842773  0.823708  1
  La  La3  1  0.000000  0.157227  0.176292  1
  Co  Co4  1  0.261942  0.500000  0.000000  1
  Co  Co5  1  0.738058  0.000000  0.500000  1
  Co  Co6  1  0.738058  0.500000  0.000000  1
  Co  Co7  1  0.261942  0.000000  0.500000  1
  Cu  Cu8  1  0.500000  0.061546  0.845440  1
  Cu  Cu9  1  0.500000  0.938454  0.154560  1
  Cu  Cu10  1  0.500000  0.561546  0.654560  1
  Cu  Cu11  1  0.500000  0.438454  0.345440  1
  O  O12  1  0.249724  0.913951  0.291281  1
  O  O13  1  0.249724  0.086049  0.708719  1
  O  O14  1  0.750276  0.413951  0.208719  1
  O  O15  1  0.750276  0.586049  0.791281  1
  O  O16  1  0.750276  0.086049  0.708719  1
  O  O17  1  0.750276  0.913951  0.291281  1
  O  O18  1  0.249724  0.586049  0.791281  1
  O  O19  1  0.249724  0.413951  0.208719  1
  O  O20  1  0.500000  0.361010  0.944593  1
  O  O21  1  0.500000  0.638990  0.055407  1
  O  O22  1  0.500000  0.861010  0.555407  1
  O  O23  1  0.500000  0.138990  0.444593  1
  O  O24  1  0.280469  0.000000  0.000000  1
  O  O25  1  0.719531  0.500000  0.500000  1
  O  O26  1  0.719531  0.000000  0.000000  1
  O  O27  1  0.280469  0.500000  0.500000  1
  O  O28  1  0.000000  0.149837  0.452971  1
  O  O29  1  0.000000  0.850163  0.547029  1
  O  O30  1  0.000000  0.649837  0.047029  1
  O  O31  1  0.000000  0.350163  0.952971  1
