# generated using pymatgen
data_TbY5(SiI3)2
_symmetry_space_group_name_H-M   'P 1'
_cell_length_a   10.52568559
_cell_length_b   10.52568631
_cell_length_c   10.52531821
_cell_angle_alpha   109.49269836
_cell_angle_beta   109.45515252
_cell_angle_gamma   109.46722366
_symmetry_Int_Tables_number   1
_chemical_formula_structural   TbY5(SiI3)2
_chemical_formula_sum   'Tb2 Y10 Si4 I12'
_cell_volume   897.64900018
_cell_formula_units_Z   2
loop_
 _symmetry_equiv_pos_site_id
 _symmetry_equiv_pos_as_xyz
  1  'x, y, z'
loop_
 _atom_site_type_symbol
 _atom_site_label
 _atom_site_symmetry_multiplicity
 _atom_site_fract_x
 _atom_site_fract_y
 _atom_site_fract_z
 _atom_site_occupancy
  Tb  Tb0  1  0.460461  0.480112  0.230294  1
  Tb  Tb1  1  0.749819  0.230166  0.269706  1
  Y  Y2  1  0.750002  0.019933  0.479994  1
  Y  Y3  1  0.229956  0.459960  0.479886  1
  Y  Y4  1  0.270028  0.750057  0.230081  1
  Y  Y5  1  0.039938  0.270008  0.020006  1
  Y  Y6  1  0.019976  0.039946  0.269919  1
  Y  Y7  1  0.480073  0.750070  0.020114  1
  Y  Y8  1  0.480115  0.230055  0.460107  1
  Y  Y9  1  0.019743  0.480027  0.749863  1
  Y  Y10  1  0.269948  0.020008  0.039893  1
  Y  Y11  1  0.230164  0.269881  0.750137  1
  Si  Si12  1  0.249843  0.249878  0.250000  1
  Si  Si13  1  0.499878  0.999843  0.250000  1
  Si  Si14  1  0.000140  0.250003  0.500160  1
  Si  Si15  1  0.249842  0.499980  0.999840  1
  I  I16  1  0.249942  0.756605  0.743304  1
  I  I17  1  0.513302  0.506638  0.756696  1
  I  I18  1  0.986693  0.743385  0.993306  1
  I  I19  1  0.743404  0.250015  0.756651  1
  I  I20  1  0.993364  0.986753  0.743349  1
  I  I21  1  0.250079  0.993389  0.506694  1
  I  I22  1  0.756701  0.513300  0.506885  1
  I  I23  1  0.506414  0.249816  0.993115  1
  I  I24  1  0.756773  0.743465  0.250019  1
  I  I25  1  0.743305  0.993226  0.986576  1
  I  I26  1  0.993446  0.506754  0.249981  1
  I  I27  1  0.506649  0.756728  0.513424  1
