# generated using pymatgen
data_Sr(HfSe2)8
_symmetry_space_group_name_H-M   'P 1'
_cell_length_a   7.53460500
_cell_length_b   7.53460432
_cell_length_c   14.89941800
_cell_angle_alpha   90.00000000
_cell_angle_beta   90.00000000
_cell_angle_gamma   119.99998102
_symmetry_Int_Tables_number   1
_chemical_formula_structural   Sr(HfSe2)8
_chemical_formula_sum   'Sr1 Hf8 Se16'
_cell_volume   732.52248337
_cell_formula_units_Z   1
loop_
 _symmetry_equiv_pos_site_id
 _symmetry_equiv_pos_as_xyz
  1  'x, y, z'
loop_
 _atom_site_type_symbol
 _atom_site_label
 _atom_site_symmetry_multiplicity
 _atom_site_fract_x
 _atom_site_fract_y
 _atom_site_fract_z
 _atom_site_occupancy
  Sr  Sr0  1  0.000000  0.000000  0.000000  1
  Hf  Hf1  1  0.502214  0.497786  0.741821  1
  Hf  Hf2  1  0.497786  0.502214  0.258179  1
  Hf  Hf3  1  0.502214  0.004425  0.741821  1
  Hf  Hf4  1  0.497786  0.995575  0.258179  1
  Hf  Hf5  1  0.995575  0.497786  0.741821  1
  Hf  Hf6  1  0.004425  0.502214  0.258179  1
  Hf  Hf7  1  0.000000  0.000000  0.735803  1
  Hf  Hf8  1  0.000000  0.000000  0.264197  1
  Se  Se9  1  0.833733  0.667467  0.150874  1
  Se  Se10  1  0.831986  0.663974  0.634782  1
  Se  Se11  1  0.833733  0.166267  0.150874  1
  Se  Se12  1  0.831986  0.168014  0.634782  1
  Se  Se13  1  0.333333  0.666667  0.149237  1
  Se  Se14  1  0.333333  0.666667  0.639352  1
  Se  Se15  1  0.332533  0.166267  0.150874  1
  Se  Se16  1  0.336026  0.168014  0.634782  1
  Se  Se17  1  0.667467  0.833733  0.849126  1
  Se  Se18  1  0.663974  0.831986  0.365218  1
  Se  Se19  1  0.666667  0.333333  0.850763  1
  Se  Se20  1  0.666667  0.333333  0.360648  1
  Se  Se21  1  0.166267  0.833733  0.849126  1
  Se  Se22  1  0.168014  0.831986  0.365218  1
  Se  Se23  1  0.166267  0.332533  0.849126  1
  Se  Se24  1  0.168014  0.336026  0.365218  1
