# generated using pymatgen
data_La2Tb(YRh6)3
_symmetry_space_group_name_H-M   'P 1'
_cell_length_a   5.31778604
_cell_length_b   5.31494245
_cell_length_c   17.58045701
_cell_angle_alpha   89.99658723
_cell_angle_beta   90.00225978
_cell_angle_gamma   120.00133259
_symmetry_Int_Tables_number   1
_chemical_formula_structural   La2Tb(YRh6)3
_chemical_formula_sum   'La2 Tb1 Y3 Rh18'
_cell_volume   430.31291992
_cell_formula_units_Z   1
loop_
 _symmetry_equiv_pos_site_id
 _symmetry_equiv_pos_as_xyz
  1  'x, y, z'
loop_
 _atom_site_type_symbol
 _atom_site_label
 _atom_site_symmetry_multiplicity
 _atom_site_fract_x
 _atom_site_fract_y
 _atom_site_fract_z
 _atom_site_occupancy
  La  La0  1  0.333336  0.666660  0.750002  1
  La  La1  1  0.666669  0.333332  0.250016  1
  Tb  Tb2  1  0.333312  0.666651  0.958413  1
  Y  Y3  1  0.666665  0.333339  0.041520  1
  Y  Y4  1  0.666680  0.333364  0.458494  1
  Y  Y5  1  0.333336  0.666662  0.541532  1
  Rh  Rh6  1  0.167231  0.832770  0.375133  1
  Rh  Rh7  1  0.167223  0.334463  0.375123  1
  Rh  Rh8  1  0.665527  0.832771  0.375124  1
  Rh  Rh9  1  0.832773  0.167173  0.624822  1
  Rh  Rh10  1  0.832754  0.665500  0.624812  1
  Rh  Rh11  1  0.334421  0.167181  0.624831  1
  Rh  Rh12  1  0.832811  0.167196  0.875115  1
  Rh  Rh13  1  0.832797  0.665567  0.875106  1
  Rh  Rh14  1  0.334420  0.167201  0.875106  1
  Rh  Rh15  1  0.167233  0.832789  0.124955  1
  Rh  Rh16  1  0.167238  0.334466  0.124966  1
  Rh  Rh17  1  0.665585  0.832798  0.124976  1
  Rh  Rh18  1  0.333383  0.666757  0.250001  1
  Rh  Rh19  1  0.666629  0.333148  0.749949  1
  Rh  Rh20  1  0.999929  0.999921  0.250009  1
  Rh  Rh21  1  0.000059  0.000191  0.749951  1
  Rh  Rh22  1  0.000072  0.000131  0.500020  1
  Rh  Rh23  1  0.999919  0.999969  0.000025  1
