# generated using pymatgen
data_Er3Mn3Al6Si6Ru
_symmetry_space_group_name_H-M   'P 1'
_cell_length_a   8.54879268
_cell_length_b   8.54879381
_cell_length_c   9.16082800
_cell_angle_alpha   90.00000000
_cell_angle_beta   90.00000000
_cell_angle_gamma   120.26398625
_symmetry_Int_Tables_number   1
_chemical_formula_structural   Er3Mn3Al6Si6Ru
_chemical_formula_sum   'Er6 Mn6 Al12 Si12 Ru2'
_cell_volume   578.24723396
_cell_formula_units_Z   2
loop_
 _symmetry_equiv_pos_site_id
 _symmetry_equiv_pos_as_xyz
  1  'x, y, z'
loop_
 _atom_site_type_symbol
 _atom_site_label
 _atom_site_symmetry_multiplicity
 _atom_site_fract_x
 _atom_site_fract_y
 _atom_site_fract_z
 _atom_site_occupancy
  Er  Er0  1  0.190802  0.386706  0.250000  1
  Er  Er1  1  0.809198  0.613294  0.750000  1
  Er  Er2  1  0.613294  0.809198  0.250000  1
  Er  Er3  1  0.386706  0.190802  0.750000  1
  Er  Er4  1  0.192834  0.807166  0.250000  1
  Er  Er5  1  0.807166  0.192834  0.750000  1
  Mn  Mn6  1  0.500000  0.000000  0.000000  1
  Mn  Mn7  1  0.000000  0.500000  0.000000  1
  Mn  Mn8  1  0.500000  0.000000  0.500000  1
  Mn  Mn9  1  0.000000  0.500000  0.500000  1
  Mn  Mn10  1  0.000000  0.000000  0.000000  1
  Mn  Mn11  1  0.000000  0.000000  0.500000  1
  Al  Al12  1  0.160032  0.329345  0.578331  1
  Al  Al13  1  0.839968  0.670655  0.421669  1
  Al  Al14  1  0.670655  0.839968  0.578331  1
  Al  Al15  1  0.839968  0.670655  0.078331  1
  Al  Al16  1  0.329345  0.160032  0.421669  1
  Al  Al17  1  0.160032  0.329345  0.921669  1
  Al  Al18  1  0.165899  0.834101  0.577570  1
  Al  Al19  1  0.329345  0.160032  0.078331  1
  Al  Al20  1  0.834101  0.165899  0.422430  1
  Al  Al21  1  0.670655  0.839968  0.921669  1
  Al  Al22  1  0.834101  0.165899  0.077570  1
  Al  Al23  1  0.165899  0.834101  0.922430  1
  Si  Si24  1  0.329324  0.670676  0.038228  1
  Si  Si25  1  0.670676  0.329324  0.961772  1
  Si  Si26  1  0.670676  0.329324  0.538228  1
  Si  Si27  1  0.329324  0.670676  0.461772  1
  Si  Si28  1  0.557243  0.116214  0.250000  1
  Si  Si29  1  0.442757  0.883786  0.750000  1
  Si  Si30  1  0.883786  0.442757  0.250000  1
  Si  Si31  1  0.116214  0.557243  0.750000  1
  Si  Si32  1  0.562718  0.437282  0.250000  1
  Si  Si33  1  0.437282  0.562718  0.750000  1
  Si  Si34  1  0.999984  0.000016  0.250000  1
  Si  Si35  1  0.000016  0.999984  0.750000  1
  Ru  Ru36  1  0.500000  0.500000  0.000000  1
  Ru  Ru37  1  0.500000  0.500000  0.500000  1
