# generated using pymatgen
data_Li12SiOsN8
_symmetry_space_group_name_H-M   'P 1'
_cell_length_a   6.57955800
_cell_length_b   6.57955800
_cell_length_c   4.88927000
_cell_angle_alpha   90.00000000
_cell_angle_beta   90.00000000
_cell_angle_gamma   90.00000000
_symmetry_Int_Tables_number   1
_chemical_formula_structural   Li12SiOsN8
_chemical_formula_sum   'Li12 Si1 Os1 N8'
_cell_volume   211.65935107
_cell_formula_units_Z   1
loop_
 _symmetry_equiv_pos_site_id
 _symmetry_equiv_pos_as_xyz
  1  'x, y, z'
loop_
 _atom_site_type_symbol
 _atom_site_label
 _atom_site_symmetry_multiplicity
 _atom_site_fract_x
 _atom_site_fract_y
 _atom_site_fract_z
 _atom_site_occupancy
  Li  Li0  1  0.500000  0.000000  0.583957  1
  Li  Li1  1  0.000000  0.500000  0.872631  1
  Li  Li2  1  0.000000  0.500000  0.416043  1
  Li  Li3  1  0.500000  0.000000  0.127369  1
  Li  Li4  1  0.230585  0.230585  0.500000  1
  Li  Li5  1  0.769415  0.769415  0.500000  1
  Li  Li6  1  0.696233  0.696233  0.000000  1
  Li  Li7  1  0.303767  0.303767  0.000000  1
  Li  Li8  1  0.230585  0.769415  0.500000  1
  Li  Li9  1  0.769415  0.230585  0.500000  1
  Li  Li10  1  0.696233  0.303767  0.000000  1
  Li  Li11  1  0.303767  0.696233  0.000000  1
  Si  Si12  1  0.500000  0.500000  0.500000  1
  Os  Os13  1  0.000000  0.000000  0.000000  1
  N  N14  1  0.500000  0.263647  0.313006  1
  N  N15  1  0.500000  0.736353  0.313006  1
  N  N16  1  0.000000  0.767082  0.198381  1
  N  N17  1  0.000000  0.232918  0.198381  1
  N  N18  1  0.263647  0.500000  0.686994  1
  N  N19  1  0.736353  0.500000  0.686994  1
  N  N20  1  0.767082  0.000000  0.801619  1
  N  N21  1  0.232918  0.000000  0.801619  1
