# generated using pymatgen
data_TbPr4NdEr2(Si3Pd)4
_symmetry_space_group_name_H-M   'P 1'
_cell_length_a   8.23468400
_cell_length_b   8.24296022
_cell_length_c   8.39006500
_cell_angle_alpha   90.00000000
_cell_angle_beta   90.00000000
_cell_angle_gamma   119.96727237
_symmetry_Int_Tables_number   1
_chemical_formula_structural   TbPr4NdEr2(Si3Pd)4
_chemical_formula_sum   'Tb1 Pr4 Nd1 Er2 Si12 Pd4'
_cell_volume   493.36601335
_cell_formula_units_Z   1
loop_
 _symmetry_equiv_pos_site_id
 _symmetry_equiv_pos_as_xyz
  1  'x, y, z'
loop_
 _atom_site_type_symbol
 _atom_site_label
 _atom_site_symmetry_multiplicity
 _atom_site_fract_x
 _atom_site_fract_y
 _atom_site_fract_z
 _atom_site_occupancy
  Tb  Tb0  1  0.499142  0.998270  0.750000  1
  Pr  Pr1  1  0.500168  0.499739  0.250000  1
  Pr  Pr2  1  0.999580  0.499722  0.250000  1
  Pr  Pr3  1  0.500211  0.000397  0.250000  1
  Pr  Pr4  1  0.000000  0.999995  0.750000  1
  Nd  Nd5  1  0.999990  0.999983  0.250000  1
  Er  Er6  1  0.498533  0.501291  0.750000  1
  Er  Er7  1  0.002581  0.501115  0.750000  1
  Si  Si8  1  0.834083  0.166280  0.994907  1
  Si  Si9  1  0.165836  0.833692  0.995750  1
  Si  Si10  1  0.332208  0.166284  0.994898  1
  Si  Si11  1  0.165836  0.833692  0.504250  1
  Si  Si12  1  0.667862  0.833696  0.995754  1
  Si  Si13  1  0.834083  0.166280  0.505093  1
  Si  Si14  1  0.833939  0.667870  0.994651  1
  Si  Si15  1  0.667862  0.833696  0.504246  1
  Si  Si16  1  0.165984  0.331960  0.995492  1
  Si  Si17  1  0.332208  0.166284  0.505102  1
  Si  Si18  1  0.165984  0.331960  0.504508  1
  Si  Si19  1  0.833939  0.667870  0.505349  1
  Pd  Pd20  1  0.667235  0.334451  0.980354  1
  Pd  Pd21  1  0.332750  0.665510  0.983648  1
  Pd  Pd22  1  0.332750  0.665510  0.516352  1
  Pd  Pd23  1  0.667235  0.334451  0.519646  1
