# generated using pymatgen
data_HoEr6Sn23Ir6
_symmetry_space_group_name_H-M   'P 1'
_cell_length_a   9.85424500
_cell_length_b   9.85424481
_cell_length_c   10.07463100
_cell_angle_alpha   90.00000000
_cell_angle_beta   90.00000000
_cell_angle_gamma   120.00000399
_symmetry_Int_Tables_number   1
_chemical_formula_structural   HoEr6Sn23Ir6
_chemical_formula_sum   'Ho1 Er6 Sn23 Ir6'
_cell_volume   847.24002757
_cell_formula_units_Z   1
loop_
 _symmetry_equiv_pos_site_id
 _symmetry_equiv_pos_as_xyz
  1  'x, y, z'
loop_
 _atom_site_type_symbol
 _atom_site_label
 _atom_site_symmetry_multiplicity
 _atom_site_fract_x
 _atom_site_fract_y
 _atom_site_fract_z
 _atom_site_occupancy
  Ho  Ho0  1  0.000000  0.000000  0.000000  1
  Er  Er1  1  0.481356  0.518644  0.306525  1
  Er  Er2  1  0.518644  0.481356  0.693475  1
  Er  Er3  1  0.481356  0.962712  0.306525  1
  Er  Er4  1  0.518644  0.037288  0.693475  1
  Er  Er5  1  0.037288  0.518644  0.306525  1
  Er  Er6  1  0.962712  0.481356  0.693475  1
  Sn  Sn7  1  0.119365  0.880635  0.284219  1
  Sn  Sn8  1  0.880635  0.119365  0.715781  1
  Sn  Sn9  1  0.119365  0.238728  0.284219  1
  Sn  Sn10  1  0.880635  0.761272  0.715781  1
  Sn  Sn11  1  0.761272  0.880635  0.284219  1
  Sn  Sn12  1  0.238728  0.119365  0.715781  1
  Sn  Sn13  1  0.777018  0.222982  0.457837  1
  Sn  Sn14  1  0.222982  0.777018  0.542163  1
  Sn  Sn15  1  0.777018  0.554037  0.457837  1
  Sn  Sn16  1  0.222982  0.445963  0.542163  1
  Sn  Sn17  1  0.445963  0.222982  0.457837  1
  Sn  Sn18  1  0.554037  0.777018  0.542163  1
  Sn  Sn19  1  0.352487  0.000000  0.000000  1
  Sn  Sn20  1  0.647513  0.000000  0.000000  1
  Sn  Sn21  1  0.000000  0.352487  0.000000  1
  Sn  Sn22  1  0.000000  0.647513  0.000000  1
  Sn  Sn23  1  0.647513  0.647513  0.000000  1
  Sn  Sn24  1  0.352487  0.352487  0.000000  1
  Sn  Sn25  1  0.333333  0.666667  0.125688  1
  Sn  Sn26  1  0.666667  0.333333  0.874312  1
  Sn  Sn27  1  0.333333  0.666667  0.827458  1
  Sn  Sn28  1  0.666667  0.333333  0.172542  1
  Sn  Sn29  1  0.000000  0.000000  0.500000  1
  Ir  Ir30  1  0.830613  0.169387  0.199198  1
  Ir  Ir31  1  0.169387  0.830613  0.800802  1
  Ir  Ir32  1  0.830613  0.661229  0.199198  1
  Ir  Ir33  1  0.169387  0.338771  0.800802  1
  Ir  Ir34  1  0.338771  0.169387  0.199198  1
  Ir  Ir35  1  0.661229  0.830613  0.800802  1
