# generated using pymatgen
data_Na4Eu2GaP4
_symmetry_space_group_name_H-M   'P 1'
_cell_length_a   9.28336057
_cell_length_b   9.28336079
_cell_length_c   7.14668066
_cell_angle_alpha   88.96371639
_cell_angle_beta   88.96371797
_cell_angle_gamma   119.71715630
_symmetry_Int_Tables_number   1
_chemical_formula_structural   Na4Eu2GaP4
_chemical_formula_sum   'Na8 Eu4 Ga2 P8'
_cell_volume   534.55738125
_cell_formula_units_Z   2
loop_
 _symmetry_equiv_pos_site_id
 _symmetry_equiv_pos_as_xyz
  1  'x, y, z'
loop_
 _atom_site_type_symbol
 _atom_site_label
 _atom_site_symmetry_multiplicity
 _atom_site_fract_x
 _atom_site_fract_y
 _atom_site_fract_z
 _atom_site_occupancy
  Na  Na0  1  0.472392  0.939557  0.386385  1
  Na  Na1  1  0.939557  0.472392  0.886385  1
  Na  Na2  1  0.870469  0.732909  0.190678  1
  Na  Na3  1  0.280002  0.130448  0.232359  1
  Na  Na4  1  0.853662  0.133408  0.216504  1
  Na  Na5  1  0.130448  0.280002  0.732359  1
  Na  Na6  1  0.732909  0.870469  0.690678  1
  Na  Na7  1  0.133408  0.853662  0.716504  1
  Eu  Eu8  1  0.047637  0.526931  0.386827  1
  Eu  Eu9  1  0.485363  0.528798  0.379328  1
  Eu  Eu10  1  0.526931  0.047637  0.886827  1
  Eu  Eu11  1  0.528798  0.485363  0.879328  1
  Ga  Ga12  1  0.660732  0.324875  0.503546  1
  Ga  Ga13  1  0.324875  0.660732  0.003546  1
  P  P14  1  0.198667  0.381792  0.129802  1
  P  P15  1  0.619470  0.806974  0.090220  1
  P  P16  1  0.198610  0.813681  0.107960  1
  P  P17  1  0.806974  0.619470  0.590220  1
  P  P18  1  0.381792  0.198667  0.629802  1
  P  P19  1  0.813681  0.198610  0.607960  1
  P  P20  1  0.655366  0.338271  0.158687  1
  P  P21  1  0.338271  0.655366  0.658687  1
