# generated using pymatgen
data_Ho3GeS2
_symmetry_space_group_name_H-M   'P 1'
_cell_length_a   6.88707003
_cell_length_b   6.88706931
_cell_length_c   6.88706905
_cell_angle_alpha   146.28322439
_cell_angle_beta   131.86307946
_cell_angle_gamma   60.05658540
_symmetry_Int_Tables_number   1
_chemical_formula_structural   Ho3GeS2
_chemical_formula_sum   'Ho3 Ge1 S2'
_cell_volume   133.79992413
_cell_formula_units_Z   1
loop_
 _symmetry_equiv_pos_site_id
 _symmetry_equiv_pos_as_xyz
  1  'x, y, z'
loop_
 _atom_site_type_symbol
 _atom_site_label
 _atom_site_symmetry_multiplicity
 _atom_site_fract_x
 _atom_site_fract_y
 _atom_site_fract_z
 _atom_site_occupancy
  Ho  Ho0  1  0.833479  0.333479  0.500000  1
  Ho  Ho1  1  0.500000  0.000000  0.500000  1
  Ho  Ho2  1  0.166521  0.666521  0.500000  1
  Ge  Ge3  1  0.000000  0.000000  0.000000  1
  S  S4  1  0.666555  0.666555  0.000000  1
  S  S5  1  0.333445  0.333445  0.000000  1
