# generated using pymatgen
data_TbHoAl6(GaIr)3
_symmetry_space_group_name_H-M   'P 1'
_cell_length_a   7.53305200
_cell_length_b   7.53604820
_cell_length_c   9.58742200
_cell_angle_alpha   90.00000000
_cell_angle_beta   90.00000000
_cell_angle_gamma   119.65398964
_symmetry_Int_Tables_number   1
_chemical_formula_structural   TbHoAl6(GaIr)3
_chemical_formula_sum   'Tb2 Ho2 Al12 Ga6 Ir6'
_cell_volume   472.98873527
_cell_formula_units_Z   2
loop_
 _symmetry_equiv_pos_site_id
 _symmetry_equiv_pos_as_xyz
  1  'x, y, z'
loop_
 _atom_site_type_symbol
 _atom_site_label
 _atom_site_symmetry_multiplicity
 _atom_site_fract_x
 _atom_site_fract_y
 _atom_site_fract_z
 _atom_site_occupancy
  Tb  Tb0  1  0.996394  0.669498  0.250000  1
  Tb  Tb1  1  0.003606  0.330502  0.750000  1
  Ho  Ho2  1  0.669500  0.996415  0.250000  1
  Ho  Ho3  1  0.330500  0.003585  0.750000  1
  Al  Al4  1  0.001643  0.334053  0.072590  1
  Al  Al5  1  0.998357  0.665947  0.927410  1
  Al  Al6  1  0.998357  0.665947  0.572590  1
  Al  Al7  1  0.334921  0.002029  0.427835  1
  Al  Al8  1  0.001643  0.334053  0.427410  1
  Al  Al9  1  0.665079  0.997971  0.572165  1
  Al  Al10  1  0.665079  0.997971  0.927835  1
  Al  Al11  1  0.334921  0.002029  0.072165  1
  Al  Al12  1  0.334281  0.333880  0.555282  1
  Al  Al13  1  0.665719  0.666120  0.444718  1
  Al  Al14  1  0.665719  0.666120  0.055282  1
  Al  Al15  1  0.334281  0.333880  0.944718  1
  Ga  Ga16  1  0.127842  0.128083  0.250000  1
  Ga  Ga17  1  0.872158  0.871917  0.750000  1
  Ga  Ga18  1  0.338856  0.547026  0.250000  1
  Ga  Ga19  1  0.661144  0.452974  0.750000  1
  Ga  Ga20  1  0.546408  0.337922  0.250000  1
  Ga  Ga21  1  0.453592  0.662078  0.750000  1
  Ir  Ir22  1  0.671613  0.328110  0.999998  1
  Ir  Ir23  1  0.328387  0.671890  0.000002  1
  Ir  Ir24  1  0.328387  0.671890  0.499998  1
  Ir  Ir25  1  0.671613  0.328110  0.500002  1
  Ir  Ir26  1  0.000000  0.000000  0.000000  1
  Ir  Ir27  1  0.000000  0.000000  0.500000  1
