# generated using pymatgen
data_Tm6Sc2Nb12Si15As
_symmetry_space_group_name_H-M   'P 1'
_cell_length_a   6.81461250
_cell_length_b   7.00725874
_cell_length_c   13.31469421
_cell_angle_alpha   90.08186998
_cell_angle_beta   90.18436406
_cell_angle_gamma   90.07977687
_symmetry_Int_Tables_number   1
_chemical_formula_structural   Tm6Sc2Nb12Si15As
_chemical_formula_sum   'Tm6 Sc2 Nb12 Si15 As1'
_cell_volume   635.79542840
_cell_formula_units_Z   1
loop_
 _symmetry_equiv_pos_site_id
 _symmetry_equiv_pos_as_xyz
  1  'x, y, z'
loop_
 _atom_site_type_symbol
 _atom_site_label
 _atom_site_symmetry_multiplicity
 _atom_site_fract_x
 _atom_site_fract_y
 _atom_site_fract_z
 _atom_site_occupancy
  Tm  Tm0  1  0.500867  0.673706  0.595505  1
  Tm  Tm1  1  0.002291  0.827314  0.904039  1
  Tm  Tm2  1  0.497798  0.328182  0.094106  1
  Tm  Tm3  1  0.001565  0.173643  0.404652  1
  Tm  Tm4  1  0.497162  0.327270  0.405162  1
  Tm  Tm5  1  0.997116  0.172446  0.094748  1
  Sc  Sc6  1  0.501977  0.675185  0.901550  1
  Sc  Sc7  1  0.002452  0.823608  0.599955  1
  Nb  Nb8  1  0.660358  0.175131  0.626312  1
  Nb  Nb9  1  0.161692  0.325741  0.874350  1
  Nb  Nb10  1  0.338993  0.824382  0.124711  1
  Nb  Nb11  1  0.841255  0.672520  0.374649  1
  Nb  Nb12  1  0.337828  0.826200  0.375522  1
  Nb  Nb13  1  0.837410  0.674301  0.125324  1
  Nb  Nb14  1  0.663354  0.173848  0.873930  1
  Nb  Nb15  1  0.162048  0.327095  0.626015  1
  Nb  Nb16  1  0.837373  0.494307  0.749910  1
  Nb  Nb17  1  0.337146  0.004946  0.749492  1
  Nb  Nb18  1  0.163220  0.506715  0.250153  1
  Nb  Nb19  1  0.663825  0.992994  0.249078  1
  Si  Si20  1  0.164897  0.536430  0.038934  1
  Si  Si21  1  0.338029  0.032528  0.957906  1
  Si  Si22  1  0.837335  0.467471  0.542051  1
  Si  Si23  1  0.318512  0.034986  0.543409  1
  Si  Si24  1  0.829865  0.467154  0.958428  1
  Si  Si25  1  0.663675  0.960811  0.038747  1
  Si  Si26  1  0.164818  0.539382  0.461445  1
  Si  Si27  1  0.458257  0.381247  0.751691  1
  Si  Si28  1  0.958824  0.117937  0.748786  1
  Si  Si29  1  0.541641  0.620504  0.250120  1
  Si  Si30  1  0.042479  0.879198  0.249485  1
  Si  Si31  1  0.704557  0.867020  0.750496  1
  Si  Si32  1  0.204751  0.632411  0.750255  1
  Si  Si33  1  0.296437  0.130893  0.249348  1
  Si  Si34  1  0.796818  0.369287  0.249745  1
  As  As35  1  0.673379  0.963207  0.459993  1
