# generated using pymatgen
data_TbEr3(CO)2
_symmetry_space_group_name_H-M   'P 1'
_cell_length_a   6.05120372
_cell_length_b   6.05120355
_cell_length_c   6.05120300
_cell_angle_alpha   132.17294748
_cell_angle_beta   132.15639060
_cell_angle_gamma   69.96906814
_symmetry_Int_Tables_number   1
_chemical_formula_structural   TbEr3(CO)2
_chemical_formula_sum   'Tb1 Er3 C2 O2'
_cell_volume   119.35745476
_cell_formula_units_Z   1
loop_
 _symmetry_equiv_pos_site_id
 _symmetry_equiv_pos_as_xyz
  1  'x, y, z'
loop_
 _atom_site_type_symbol
 _atom_site_label
 _atom_site_symmetry_multiplicity
 _atom_site_fract_x
 _atom_site_fract_y
 _atom_site_fract_z
 _atom_site_occupancy
  Tb  Tb0  1  0.503237  0.003237  0.500000  1
  Er  Er1  1  0.753864  0.753864  0.000000  1
  Er  Er2  1  0.246271  0.246271  0.000000  1
  Er  Er3  1  0.995994  0.495994  0.500000  1
  C  C4  1  0.999951  0.999951  0.000000  1
  C  C5  1  0.751724  0.251724  0.500000  1
  O  O6  1  0.499856  0.499856  0.000000  1
  O  O7  1  0.249102  0.749102  0.500000  1
