# generated using pymatgen
data_Sm8Sc12Sn13Au3
_symmetry_space_group_name_H-M   'P 1'
_cell_length_a   7.65818833
_cell_length_b   8.05537349
_cell_length_c   14.85041300
_cell_angle_alpha   90.00000000
_cell_angle_beta   90.00000000
_cell_angle_gamma   89.66322375
_symmetry_Int_Tables_number   1
_chemical_formula_structural   Sm8Sc12Sn13Au3
_chemical_formula_sum   'Sm8 Sc12 Sn13 Au3'
_cell_volume   916.09972613
_cell_formula_units_Z   1
loop_
 _symmetry_equiv_pos_site_id
 _symmetry_equiv_pos_as_xyz
  1  'x, y, z'
loop_
 _atom_site_type_symbol
 _atom_site_label
 _atom_site_symmetry_multiplicity
 _atom_site_fract_x
 _atom_site_fract_y
 _atom_site_fract_z
 _atom_site_occupancy
  Sm  Sm0  1  0.509054  0.321427  0.905303  1
  Sm  Sm1  1  0.008588  0.179587  0.594615  1
  Sm  Sm2  1  0.491288  0.678175  0.408276  1
  Sm  Sm3  1  0.991151  0.821006  0.093301  1
  Sm  Sm4  1  0.491288  0.678175  0.091724  1
  Sm  Sm5  1  0.991151  0.821006  0.406699  1
  Sm  Sm6  1  0.509054  0.321427  0.594697  1
  Sm  Sm7  1  0.008588  0.179587  0.905385  1
  Sc  Sc8  1  0.347753  0.829749  0.866435  1
  Sc  Sc9  1  0.842930  0.667838  0.633478  1
  Sc  Sc10  1  0.643489  0.171282  0.371062  1
  Sc  Sc11  1  0.167408  0.337284  0.127490  1
  Sc  Sc12  1  0.643489  0.171282  0.128938  1
  Sc  Sc13  1  0.167408  0.337284  0.372510  1
  Sc  Sc14  1  0.347753  0.829749  0.633565  1
  Sc  Sc15  1  0.842930  0.667838  0.866522  1
  Sc  Sc16  1  0.189504  0.505735  0.750000  1
  Sc  Sc17  1  0.689582  0.993813  0.750000  1
  Sc  Sc18  1  0.808253  0.494003  0.250000  1
  Sc  Sc19  1  0.316656  0.004095  0.250000  1
  Sn  Sn20  1  0.316264  0.040438  0.039047  1
  Sn  Sn21  1  0.820237  0.457867  0.458583  1
  Sn  Sn22  1  0.684943  0.958311  0.542229  1
  Sn  Sn23  1  0.181720  0.541968  0.956296  1
  Sn  Sn24  1  0.684943  0.958311  0.957771  1
  Sn  Sn25  1  0.181720  0.541968  0.543704  1
  Sn  Sn26  1  0.316264  0.040438  0.460953  1
  Sn  Sn27  1  0.820237  0.457867  0.041417  1
  Sn  Sn28  1  0.954275  0.128706  0.250000  1
  Sn  Sn29  1  0.307931  0.134253  0.750000  1
  Sn  Sn30  1  0.807790  0.362757  0.750000  1
  Sn  Sn31  1  0.683077  0.858539  0.250000  1
  Sn  Sn32  1  0.191575  0.637811  0.250000  1
  Au  Au33  1  0.543514  0.624193  0.750000  1
  Au  Au34  1  0.043205  0.873701  0.750000  1
  Au  Au35  1  0.454987  0.372533  0.250000  1
