# generated using pymatgen
data_Ce3Dy6Th3Co4
_symmetry_space_group_name_H-M   'P 1'
_cell_length_a   6.25767893
_cell_length_b   6.77348058
_cell_length_c   9.61793710
_cell_angle_alpha   89.98257438
_cell_angle_beta   90.13675816
_cell_angle_gamma   90.97024060
_symmetry_Int_Tables_number   1
_chemical_formula_structural   Ce3Dy6Th3Co4
_chemical_formula_sum   'Ce3 Dy6 Th3 Co4'
_cell_volume   407.60882221
_cell_formula_units_Z   1
loop_
 _symmetry_equiv_pos_site_id
 _symmetry_equiv_pos_as_xyz
  1  'x, y, z'
loop_
 _atom_site_type_symbol
 _atom_site_label
 _atom_site_symmetry_multiplicity
 _atom_site_fract_x
 _atom_site_fract_y
 _atom_site_fract_z
 _atom_site_occupancy
  Ce  Ce0  1  0.159112  0.439567  0.748815  1
  Ce  Ce1  1  0.351832  0.947664  0.744778  1
  Ce  Ce2  1  0.846642  0.549770  0.246398  1
  Dy  Dy3  1  0.834439  0.830684  0.570272  1
  Dy  Dy4  1  0.169082  0.170206  0.066287  1
  Dy  Dy5  1  0.826907  0.827941  0.932237  1
  Dy  Dy6  1  0.671933  0.330618  0.564884  1
  Dy  Dy7  1  0.331328  0.669561  0.068239  1
  Dy  Dy8  1  0.327463  0.673616  0.434218  1
  Th  Th9  1  0.669797  0.335726  0.928991  1
  Th  Th10  1  0.661095  0.050535  0.249550  1
  Th  Th11  1  0.171535  0.166454  0.428250  1
  Co  Co12  1  0.520677  0.636714  0.749292  1
  Co  Co13  1  0.969300  0.140404  0.758426  1
  Co  Co14  1  0.029998  0.859645  0.249576  1
  Co  Co15  1  0.458862  0.370898  0.259786  1
