# generated using pymatgen
data_La2TbCu7(Ni3B)2
_symmetry_space_group_name_H-M   'P 1'
_cell_length_a   5.12958073
_cell_length_b   5.13348717
_cell_length_c   11.04283702
_cell_angle_alpha   89.98311968
_cell_angle_beta   90.03378634
_cell_angle_gamma   119.97481751
_symmetry_Int_Tables_number   1
_chemical_formula_structural   La2TbCu7(Ni3B)2
_chemical_formula_sum   'La2 Tb1 Cu7 Ni6 B2'
_cell_volume   251.89277869
_cell_formula_units_Z   1
loop_
 _symmetry_equiv_pos_site_id
 _symmetry_equiv_pos_as_xyz
  1  'x, y, z'
loop_
 _atom_site_type_symbol
 _atom_site_label
 _atom_site_symmetry_multiplicity
 _atom_site_fract_x
 _atom_site_fract_y
 _atom_site_fract_z
 _atom_site_occupancy
  La  La0  1  0.000106  0.000000  0.313018  1
  La  La1  1  0.999680  0.000000  0.687058  1
  Tb  Tb2  1  0.000114  0.000000  0.000071  1
  Cu  Cu3  1  0.500030  0.000000  0.499900  1
  Cu  Cu4  1  0.499895  0.500089  0.499895  1
  Cu  Cu5  1  0.999806  0.499911  0.499895  1
  Cu  Cu6  1  0.333419  0.666678  0.313189  1
  Cu  Cu7  1  0.666742  0.333322  0.313189  1
  Cu  Cu8  1  0.666301  0.333260  0.686724  1
  Cu  Cu9  1  0.333042  0.666740  0.686724  1
  Ni  Ni10  1  0.500591  0.000000  0.125862  1
  Ni  Ni11  1  0.500570  0.499924  0.125852  1
  Ni  Ni12  1  0.000646  0.500076  0.125852  1
  Ni  Ni13  1  0.499894  0.000000  0.874238  1
  Ni  Ni14  1  0.499630  0.500266  0.874244  1
  Ni  Ni15  1  0.999364  0.499734  0.874244  1
  B  B16  1  0.333316  0.666558  0.000020  1
  B  B17  1  0.666757  0.333442  0.000020  1
