# generated using pymatgen
data_PrNd9(In3Br)2
_symmetry_space_group_name_H-M   'P 1'
_cell_length_a   9.59659300
_cell_length_b   9.59659261
_cell_length_c   6.84165100
_cell_angle_alpha   90.00000000
_cell_angle_beta   90.00000000
_cell_angle_gamma   119.99416051
_symmetry_Int_Tables_number   1
_chemical_formula_structural   PrNd9(In3Br)2
_chemical_formula_sum   'Pr1 Nd9 In6 Br2'
_cell_volume   545.69658462
_cell_formula_units_Z   1
loop_
 _symmetry_equiv_pos_site_id
 _symmetry_equiv_pos_as_xyz
  1  'x, y, z'
loop_
 _atom_site_type_symbol
 _atom_site_label
 _atom_site_symmetry_multiplicity
 _atom_site_fract_x
 _atom_site_fract_y
 _atom_site_fract_z
 _atom_site_occupancy
  Pr  Pr0  1  0.265239  0.265239  0.250000  1
  Nd  Nd1  1  0.264775  0.999921  0.750000  1
  Nd  Nd2  1  0.735060  0.000147  0.250000  1
  Nd  Nd3  1  0.999921  0.264775  0.750000  1
  Nd  Nd4  1  0.000147  0.735060  0.250000  1
  Nd  Nd5  1  0.734431  0.734431  0.750000  1
  Nd  Nd6  1  0.333514  0.667218  0.500388  1
  Nd  Nd7  1  0.667218  0.333514  0.500388  1
  Nd  Nd8  1  0.667218  0.333514  0.999612  1
  Nd  Nd9  1  0.333514  0.667218  0.999612  1
  In  In10  1  0.608148  0.999961  0.750000  1
  In  In11  1  0.392013  0.999378  0.250000  1
  In  In12  1  0.999961  0.608148  0.750000  1
  In  In13  1  0.999378  0.392013  0.250000  1
  In  In14  1  0.392081  0.392081  0.750000  1
  In  In15  1  0.608884  0.608884  0.250000  1
  Br  Br16  1  0.999250  0.999250  0.500495  1
  Br  Br17  1  0.999250  0.999250  0.999505  1
