# generated using pymatgen
data_Zr2TiRe2W
_symmetry_space_group_name_H-M   'P 1'
_cell_length_a   5.33189902
_cell_length_b   5.33112056
_cell_length_c   8.85315200
_cell_angle_alpha   90.00000000
_cell_angle_beta   90.00000000
_cell_angle_gamma   119.99517162
_symmetry_Int_Tables_number   1
_chemical_formula_structural   Zr2TiRe2W
_chemical_formula_sum   'Zr4 Ti2 Re4 W2'
_cell_volume   217.94660098
_cell_formula_units_Z   2
loop_
 _symmetry_equiv_pos_site_id
 _symmetry_equiv_pos_as_xyz
  1  'x, y, z'
loop_
 _atom_site_type_symbol
 _atom_site_label
 _atom_site_symmetry_multiplicity
 _atom_site_fract_x
 _atom_site_fract_y
 _atom_site_fract_z
 _atom_site_occupancy
  Zr  Zr0  1  0.333207  0.666604  0.436097  1
  Zr  Zr1  1  0.666793  0.333396  0.936097  1
  Zr  Zr2  1  0.666793  0.333396  0.563903  1
  Zr  Zr3  1  0.333207  0.666604  0.063903  1
  Ti  Ti4  1  0.000000  0.000000  0.500000  1
  Ti  Ti5  1  0.000000  0.000000  0.000000  1
  Re  Re6  1  0.833646  0.170369  0.250000  1
  Re  Re7  1  0.166354  0.336723  0.750000  1
  Re  Re8  1  0.166354  0.829631  0.750000  1
  Re  Re9  1  0.833646  0.663277  0.250000  1
  W  W10  1  0.657962  0.828981  0.750000  1
  W  W11  1  0.342038  0.171019  0.250000  1
