# generated using pymatgen
data_LuZn7Ga3Cu2
_symmetry_space_group_name_H-M   'P 1'
_cell_length_a   6.73625930
_cell_length_b   6.74298000
_cell_length_c   6.74298016
_cell_angle_alpha   98.77341976
_cell_angle_beta   98.38767214
_cell_angle_gamma   134.62373571
_symmetry_Int_Tables_number   1
_chemical_formula_structural   LuZn7Ga3Cu2
_chemical_formula_sum   'Lu1 Zn7 Ga3 Cu2'
_cell_volume   201.02192950
_cell_formula_units_Z   1
loop_
 _symmetry_equiv_pos_site_id
 _symmetry_equiv_pos_as_xyz
  1  'x, y, z'
loop_
 _atom_site_type_symbol
 _atom_site_label
 _atom_site_symmetry_multiplicity
 _atom_site_fract_x
 _atom_site_fract_y
 _atom_site_fract_z
 _atom_site_occupancy
  Lu  Lu0  1  0.999048  0.999897  0.999152  1
  Zn  Zn1  1  0.497078  0.493604  0.497038  1
  Zn  Zn2  1  0.497078  0.000041  0.003475  1
  Zn  Zn3  1  0.335510  0.985538  0.349972  1
  Zn  Zn4  1  0.499321  0.281437  0.781280  1
  Zn  Zn5  1  0.499321  0.718041  0.217884  1
  Zn  Zn6  1  0.717738  0.511489  0.206249  1
  Zn  Zn7  1  0.286672  0.493219  0.793453  1
  Ga  Ga8  1  0.000751  0.352259  0.350675  1
  Ga  Ga9  1  0.000751  0.650076  0.648492  1
  Ga  Ga10  1  0.666343  0.014363  0.651980  1
  Cu  Cu11  1  0.000193  0.999217  0.499374  1
  Cu  Cu12  1  0.000193  0.500820  0.000977  1
