# generated using pymatgen
data_CeHo2Sn3Ir2Rh
_symmetry_space_group_name_H-M   'P 1'
_cell_length_a   7.57317800
_cell_length_b   7.52796490
_cell_length_c   3.91098600
_cell_angle_alpha   90.00000000
_cell_angle_beta   90.00000000
_cell_angle_gamma   120.19888598
_symmetry_Int_Tables_number   1
_chemical_formula_structural   CeHo2Sn3Ir2Rh
_chemical_formula_sum   'Ce1 Ho2 Sn3 Ir2 Rh1'
_cell_volume   192.70757098
_cell_formula_units_Z   1
loop_
 _symmetry_equiv_pos_site_id
 _symmetry_equiv_pos_as_xyz
  1  'x, y, z'
loop_
 _atom_site_type_symbol
 _atom_site_label
 _atom_site_symmetry_multiplicity
 _atom_site_fract_x
 _atom_site_fract_y
 _atom_site_fract_z
 _atom_site_occupancy
  Ce  Ce0  1  0.414322  0.000000  0.000000  1
  Ho  Ho1  1  0.999847  0.408103  0.000000  1
  Ho  Ho2  1  0.591743  0.591897  0.000000  1
  Sn  Sn3  1  0.257835  0.266361  0.500000  1
  Sn  Sn4  1  0.991474  0.733639  0.500000  1
  Sn  Sn5  1  0.749557  0.000000  0.500000  1
  Ir  Ir6  1  0.656201  0.321183  0.500000  1
  Ir  Ir7  1  0.335017  0.678817  0.500000  1
  Rh  Rh8  1  0.004003  0.000000  0.000000  1
