# generated using pymatgen
data_TmPuPCl2
_symmetry_space_group_name_H-M   'P 1'
_cell_length_a   3.97261900
_cell_length_b   3.97261927
_cell_length_c   9.96703700
_cell_angle_alpha   90.00000000
_cell_angle_beta   90.00000000
_cell_angle_gamma   120.00000605
_symmetry_Int_Tables_number   1
_chemical_formula_structural   TmPuPCl2
_chemical_formula_sum   'Tm1 Pu1 P1 Cl2'
_cell_volume   136.22303007
_cell_formula_units_Z   1
loop_
 _symmetry_equiv_pos_site_id
 _symmetry_equiv_pos_as_xyz
  1  'x, y, z'
loop_
 _atom_site_type_symbol
 _atom_site_label
 _atom_site_symmetry_multiplicity
 _atom_site_fract_x
 _atom_site_fract_y
 _atom_site_fract_z
 _atom_site_occupancy
  Tm  Tm0  1  0.333333  0.666666  0.842860  1
  Pu  Pu1  1  0.666667  0.333333  0.156810  1
  P  P2  1  0.000000  0.000000  0.992349  1
  Cl  Cl3  1  0.333333  0.666666  0.324024  1
  Cl  Cl4  1  0.666667  0.333333  0.683957  1
