# generated using pymatgen
data_YEr7(TcBr4)2
_symmetry_space_group_name_H-M   'P 1'
_cell_length_a   8.93245389
_cell_length_b   8.90911798
_cell_length_c   6.58716640
_cell_angle_alpha   89.35048383
_cell_angle_beta   89.41371153
_cell_angle_gamma   89.13431737
_symmetry_Int_Tables_number   1
_chemical_formula_structural   YEr7(TcBr4)2
_chemical_formula_sum   'Y1 Er7 Tc2 Br8'
_cell_volume   524.08853395
_cell_formula_units_Z   1
loop_
 _symmetry_equiv_pos_site_id
 _symmetry_equiv_pos_as_xyz
  1  'x, y, z'
loop_
 _atom_site_type_symbol
 _atom_site_label
 _atom_site_symmetry_multiplicity
 _atom_site_fract_x
 _atom_site_fract_y
 _atom_site_fract_z
 _atom_site_occupancy
  Y  Y0  1  0.750059  0.901960  0.507809  1
  Er  Er1  1  0.753121  0.098919  0.988702  1
  Er  Er2  1  0.098855  0.753055  0.488754  1
  Er  Er3  1  0.096851  0.246744  0.992068  1
  Er  Er4  1  0.246638  0.096860  0.492103  1
  Er  Er5  1  0.903920  0.753423  0.007812  1
  Er  Er6  1  0.902151  0.247359  0.511360  1
  Er  Er7  1  0.247360  0.901613  0.011104  1
  Tc  Tc8  1  0.994719  0.006236  0.249299  1
  Tc  Tc9  1  0.006655  0.994247  0.750741  1
  Br  Br10  1  0.579471  0.184685  0.591202  1
  Br  Br11  1  0.809708  0.583361  0.405905  1
  Br  Br12  1  0.415741  0.190630  0.093688  1
  Br  Br13  1  0.190632  0.415947  0.593559  1
  Br  Br14  1  0.584324  0.809087  0.907144  1
  Br  Br15  1  0.419854  0.815824  0.408758  1
  Br  Br16  1  0.183729  0.579596  0.091077  1
  Br  Br17  1  0.816211  0.420454  0.908916  1
