# generated using pymatgen
data_Y5Lu3(Si3Pd)4
_symmetry_space_group_name_H-M   'P 1'
_cell_length_a   8.15329700
_cell_length_b   8.15299460
_cell_length_c   7.83718800
_cell_angle_alpha   90.00000000
_cell_angle_beta   90.00000000
_cell_angle_gamma   120.00394141
_symmetry_Int_Tables_number   1
_chemical_formula_structural   Y5Lu3(Si3Pd)4
_chemical_formula_sum   'Y5 Lu3 Si12 Pd4'
_cell_volume   451.15322269
_cell_formula_units_Z   1
loop_
 _symmetry_equiv_pos_site_id
 _symmetry_equiv_pos_as_xyz
  1  'x, y, z'
loop_
 _atom_site_type_symbol
 _atom_site_label
 _atom_site_symmetry_multiplicity
 _atom_site_fract_x
 _atom_site_fract_y
 _atom_site_fract_z
 _atom_site_occupancy
  Y  Y0  1  0.999991  0.000004  0.250000  1
  Y  Y1  1  0.999994  0.000004  0.750000  1
  Y  Y2  1  0.509062  0.490932  0.250000  1
  Y  Y3  1  0.509063  0.018149  0.250000  1
  Y  Y4  1  0.981855  0.490938  0.250000  1
  Lu  Lu5  1  0.489798  0.510187  0.750000  1
  Lu  Lu6  1  0.489735  0.979474  0.750000  1
  Lu  Lu7  1  0.020559  0.510266  0.750000  1
  Si  Si8  1  0.165408  0.834583  0.501907  1
  Si  Si9  1  0.165407  0.330830  0.501909  1
  Si  Si10  1  0.669170  0.834589  0.501907  1
  Si  Si11  1  0.833885  0.166117  0.503185  1
  Si  Si12  1  0.833881  0.667786  0.503185  1
  Si  Si13  1  0.332214  0.166119  0.503187  1
  Si  Si14  1  0.833885  0.166117  0.996815  1
  Si  Si15  1  0.833881  0.667786  0.996815  1
  Si  Si16  1  0.332214  0.166119  0.996813  1
  Si  Si17  1  0.165408  0.834583  0.998093  1
  Si  Si18  1  0.165407  0.330830  0.998091  1
  Si  Si19  1  0.669170  0.834589  0.998093  1
  Pd  Pd20  1  0.333335  0.666675  0.480147  1
  Pd  Pd21  1  0.666670  0.333324  0.546059  1
  Pd  Pd22  1  0.666670  0.333324  0.953941  1
  Pd  Pd23  1  0.333335  0.666675  0.019853  1
