# generated using pymatgen
data_Tb16Er4Ir7Ru5
_symmetry_space_group_name_H-M   'P 1'
_cell_length_a   10.84666794
_cell_length_b   10.84666794
_cell_length_c   6.41838563
_cell_angle_alpha   89.96388039
_cell_angle_beta   89.96388039
_cell_angle_gamma   90.05811055
_symmetry_Int_Tables_number   1
_chemical_formula_structural   Tb16Er4Ir7Ru5
_chemical_formula_sum   'Tb16 Er4 Ir7 Ru5'
_cell_volume   755.12369905
_cell_formula_units_Z   1
loop_
 _symmetry_equiv_pos_site_id
 _symmetry_equiv_pos_as_xyz
  1  'x, y, z'
loop_
 _atom_site_type_symbol
 _atom_site_label
 _atom_site_symmetry_multiplicity
 _atom_site_fract_x
 _atom_site_fract_y
 _atom_site_fract_z
 _atom_site_occupancy
  Tb  Tb0  1  0.292689  0.086139  0.378633  1
  Tb  Tb1  1  0.291982  0.913403  0.878111  1
  Tb  Tb2  1  0.708019  0.086623  0.878586  1
  Tb  Tb3  1  0.707885  0.913714  0.377169  1
  Tb  Tb4  1  0.586082  0.792909  0.878042  1
  Tb  Tb5  1  0.587174  0.207385  0.378392  1
  Tb  Tb6  1  0.413411  0.792507  0.378518  1
  Tb  Tb7  1  0.413363  0.207156  0.877242  1
  Tb  Tb8  1  0.207091  0.413918  0.621958  1
  Tb  Tb9  1  0.207493  0.586589  0.121482  1
  Tb  Tb10  1  0.792615  0.412826  0.121608  1
  Tb  Tb11  1  0.792844  0.586637  0.622758  1
  Tb  Tb12  1  0.913861  0.707311  0.121367  1
  Tb  Tb13  1  0.913377  0.291981  0.621414  1
  Tb  Tb14  1  0.086597  0.708018  0.621889  1
  Tb  Tb15  1  0.086286  0.292115  0.122831  1
  Er  Er16  1  0.999729  0.000952  0.499659  1
  Er  Er17  1  0.999048  0.000271  0.000341  1
  Er  Er18  1  0.500125  0.500214  0.000195  1
  Er  Er19  1  0.499786  0.499875  0.499805  1
  Ir  Ir20  1  0.848605  0.848377  0.749849  1
  Ir  Ir21  1  0.151623  0.151395  0.750151  1
  Ir  Ir22  1  0.151542  0.848458  0.250000  1
  Ir  Ir23  1  0.650130  0.349870  0.750000  1
  Ir  Ir24  1  0.651692  0.651076  0.249771  1
  Ir  Ir25  1  0.348924  0.348308  0.250229  1
  Ir  Ir26  1  0.349296  0.650704  0.750000  1
  Ru  Ru27  1  0.848984  0.151016  0.250000  1
  Ru  Ru28  1  0.500269  0.000138  0.121947  1
  Ru  Ru29  1  0.499689  0.000074  0.621378  1
  Ru  Ru30  1  0.999926  0.500311  0.878622  1
  Ru  Ru31  1  0.999862  0.499731  0.378053  1
