# generated using pymatgen
data_CsAcF4
_symmetry_space_group_name_H-M   'P 1'
_cell_length_a   4.02582800
_cell_length_b   6.66361700
_cell_length_c   16.61214900
_cell_angle_alpha   90.00000000
_cell_angle_beta   90.00000000
_cell_angle_gamma   90.00000000
_symmetry_Int_Tables_number   1
_chemical_formula_structural   CsAcF4
_chemical_formula_sum   'Cs4 Ac4 F16'
_cell_volume   445.64707601
_cell_formula_units_Z   4
loop_
 _symmetry_equiv_pos_site_id
 _symmetry_equiv_pos_as_xyz
  1  'x, y, z'
loop_
 _atom_site_type_symbol
 _atom_site_label
 _atom_site_symmetry_multiplicity
 _atom_site_fract_x
 _atom_site_fract_y
 _atom_site_fract_z
 _atom_site_occupancy
  Cs  Cs0  1  0.250000  0.727873  0.698806  1
  Cs  Cs1  1  0.750000  0.272127  0.301194  1
  Cs  Cs2  1  0.750000  0.772127  0.198806  1
  Cs  Cs3  1  0.250000  0.227873  0.801194  1
  Ac  Ac4  1  0.250000  0.252791  0.057391  1
  Ac  Ac5  1  0.750000  0.747209  0.942609  1
  Ac  Ac6  1  0.750000  0.247209  0.557391  1
  Ac  Ac7  1  0.250000  0.752791  0.442609  1
  F  F8  1  0.250000  0.613503  0.871415  1
  F  F9  1  0.750000  0.386497  0.128585  1
  F  F10  1  0.750000  0.886497  0.371415  1
  F  F11  1  0.250000  0.113503  0.628585  1
  F  F12  1  0.250000  0.633817  0.039018  1
  F  F13  1  0.750000  0.366183  0.960982  1
  F  F14  1  0.750000  0.866183  0.539018  1
  F  F15  1  0.250000  0.133817  0.460982  1
  F  F16  1  0.250000  0.494321  0.554143  1
  F  F17  1  0.750000  0.505679  0.445857  1
  F  F18  1  0.750000  0.005679  0.054143  1
  F  F19  1  0.250000  0.994321  0.945857  1
  F  F20  1  0.250000  0.597421  0.312395  1
  F  F21  1  0.750000  0.402579  0.687605  1
  F  F22  1  0.750000  0.902579  0.812395  1
  F  F23  1  0.250000  0.097421  0.187605  1
