# generated using pymatgen
data_Hf18Re4GeW4Se
_symmetry_space_group_name_H-M   'P 1'
_cell_length_a   8.71079413
_cell_length_b   8.67904558
_cell_length_c   8.60519300
_cell_angle_alpha   90.00000000
_cell_angle_beta   90.00000000
_cell_angle_gamma   119.87950288
_symmetry_Int_Tables_number   1
_chemical_formula_structural   Hf18Re4GeW4Se
_chemical_formula_sum   'Hf18 Re4 Ge1 W4 Se1'
_cell_volume   564.08819467
_cell_formula_units_Z   1
loop_
 _symmetry_equiv_pos_site_id
 _symmetry_equiv_pos_as_xyz
  1  'x, y, z'
loop_
 _atom_site_type_symbol
 _atom_site_label
 _atom_site_symmetry_multiplicity
 _atom_site_fract_x
 _atom_site_fract_y
 _atom_site_fract_z
 _atom_site_occupancy
  Hf  Hf0  1  0.193803  0.806006  0.452132  1
  Hf  Hf1  1  0.193803  0.387797  0.452132  1
  Hf  Hf2  1  0.611385  0.805692  0.450948  1
  Hf  Hf3  1  0.806589  0.193896  0.547047  1
  Hf  Hf4  1  0.806589  0.612696  0.547047  1
  Hf  Hf5  1  0.387985  0.193993  0.548362  1
  Hf  Hf6  1  0.806589  0.193896  0.952953  1
  Hf  Hf7  1  0.806589  0.612696  0.952953  1
  Hf  Hf8  1  0.387985  0.193993  0.951638  1
  Hf  Hf9  1  0.193803  0.806006  0.047868  1
  Hf  Hf10  1  0.193803  0.387797  0.047868  1
  Hf  Hf11  1  0.611385  0.805692  0.049052  1
  Hf  Hf12  1  0.540257  0.460308  0.250000  1
  Hf  Hf13  1  0.540257  0.079949  0.250000  1
  Hf  Hf14  1  0.919987  0.459994  0.250000  1
  Hf  Hf15  1  0.455743  0.543591  0.750000  1
  Hf  Hf16  1  0.455743  0.912151  0.750000  1
  Hf  Hf17  1  0.088022  0.544010  0.750000  1
  Re  Re18  1  0.889767  0.111434  0.250000  1
  Re  Re19  1  0.889767  0.778332  0.250000  1
  Re  Re20  1  0.109928  0.888078  0.750000  1
  Re  Re21  1  0.109928  0.221849  0.750000  1
  Ge  Ge22  1  0.333400  0.666701  0.250000  1
  W  W23  1  0.219763  0.109881  0.250000  1
  W  W24  1  0.780357  0.890178  0.750000  1
  W  W25  1  0.000135  0.000067  0.499489  1
  W  W26  1  0.000135  0.000067  0.000511  1
  Se  Se27  1  0.666499  0.333249  0.750000  1
