# generated using pymatgen
data_LiDyY15Cd3Ni4
_symmetry_space_group_name_H-M   'P 1'
_cell_length_a   9.60053708
_cell_length_b   9.60027920
_cell_length_c   9.60039500
_cell_angle_alpha   59.87551625
_cell_angle_beta   59.87509545
_cell_angle_gamma   59.87454790
_symmetry_Int_Tables_number   1
_chemical_formula_structural   LiDyY15Cd3Ni4
_chemical_formula_sum   'Li1 Dy1 Y15 Cd3 Ni4'
_cell_volume   623.90790910
_cell_formula_units_Z   1
loop_
 _symmetry_equiv_pos_site_id
 _symmetry_equiv_pos_as_xyz
  1  'x, y, z'
loop_
 _atom_site_type_symbol
 _atom_site_label
 _atom_site_symmetry_multiplicity
 _atom_site_fract_x
 _atom_site_fract_y
 _atom_site_fract_z
 _atom_site_occupancy
  Li  Li0  1  0.820520  0.820508  0.820514  1
  Dy  Dy1  1  0.597098  0.597161  0.597107  1
  Y  Y2  1  0.598972  0.598970  0.203033  1
  Y  Y3  1  0.598967  0.203035  0.598980  1
  Y  Y4  1  0.203041  0.598963  0.598976  1
  Y  Y5  1  0.061134  0.441427  0.441426  1
  Y  Y6  1  0.437304  0.063863  0.063852  1
  Y  Y7  1  0.441431  0.061122  0.441428  1
  Y  Y8  1  0.063874  0.437297  0.063852  1
  Y  Y9  1  0.441428  0.441424  0.061123  1
  Y  Y10  1  0.063865  0.063851  0.437303  1
  Y  Y11  1  0.186815  0.813979  0.813990  1
  Y  Y12  1  0.813545  0.186724  0.186732  1
  Y  Y13  1  0.813984  0.186812  0.813988  1
  Y  Y14  1  0.186726  0.813539  0.186735  1
  Y  Y15  1  0.813994  0.813985  0.186813  1
  Y  Y16  1  0.186734  0.186734  0.813542  1
  Cd  Cd17  1  0.831558  0.831550  0.506085  1
  Cd  Cd18  1  0.831556  0.506085  0.831554  1
  Cd  Cd19  1  0.506087  0.831551  0.831556  1
  Ni  Ni20  1  0.393466  0.393484  0.393482  1
  Ni  Ni21  1  0.392618  0.392640  0.822662  1
  Ni  Ni22  1  0.392629  0.822660  0.392638  1
  Ni  Ni23  1  0.822653  0.392636  0.392627  1
