# generated using pymatgen
data_PrNd11(GaIr)8
_symmetry_space_group_name_H-M   'P 1'
_cell_length_a   5.75807667
_cell_length_b   8.15534095
_cell_length_c   13.66613501
_cell_angle_alpha   89.99590272
_cell_angle_beta   90.00056272
_cell_angle_gamma   89.94487119
_symmetry_Int_Tables_number   1
_chemical_formula_structural   PrNd11(GaIr)8
_chemical_formula_sum   'Pr1 Nd11 Ga8 Ir8'
_cell_volume   641.74880692
_cell_formula_units_Z   1
loop_
 _symmetry_equiv_pos_site_id
 _symmetry_equiv_pos_as_xyz
  1  'x, y, z'
loop_
 _atom_site_type_symbol
 _atom_site_label
 _atom_site_symmetry_multiplicity
 _atom_site_fract_x
 _atom_site_fract_y
 _atom_site_fract_z
 _atom_site_occupancy
  Pr  Pr0  1  0.628482  0.752281  0.750005  1
  Nd  Nd1  1  0.144810  0.895189  0.598415  1
  Nd  Nd2  1  0.855085  0.105399  0.098667  1
  Nd  Nd3  1  0.144729  0.605163  0.401402  1
  Nd  Nd4  1  0.855375  0.394402  0.901573  1
  Nd  Nd5  1  0.855118  0.105396  0.401337  1
  Nd  Nd6  1  0.144836  0.895186  0.901587  1
  Nd  Nd7  1  0.855395  0.394394  0.598442  1
  Nd  Nd8  1  0.144742  0.605145  0.098594  1
  Nd  Nd9  1  0.372555  0.252865  0.750001  1
  Nd  Nd10  1  0.627579  0.746975  0.249997  1
  Nd  Nd11  1  0.372608  0.246965  0.249991  1
  Ga  Ga12  1  0.868437  0.103765  0.750010  1
  Ga  Ga13  1  0.132281  0.897275  0.249990  1
  Ga  Ga14  1  0.867758  0.397523  0.249990  1
  Ga  Ga15  1  0.131987  0.601187  0.750008  1
  Ga  Ga16  1  0.377739  0.250039  0.499923  1
  Ga  Ga17  1  0.621948  0.750048  0.000407  1
  Ga  Ga18  1  0.622003  0.750045  0.499568  1
  Ga  Ga19  1  0.377805  0.250022  0.000074  1
  Ir  Ir20  1  0.646320  0.032182  0.591745  1
  Ir  Ir21  1  0.353805  0.968737  0.092165  1
  Ir  Ir22  1  0.646034  0.468553  0.407771  1
  Ir  Ir23  1  0.353234  0.530904  0.908271  1
  Ir  Ir24  1  0.353775  0.968723  0.407845  1
  Ir  Ir25  1  0.646325  0.032182  0.908251  1
  Ir  Ir26  1  0.353222  0.530899  0.591742  1
  Ir  Ir27  1  0.646014  0.468557  0.092228  1
