# generated using pymatgen
data_Er8Zr11NbSi16
_symmetry_space_group_name_H-M   'P 1'
_cell_length_a   7.29990382
_cell_length_b   7.29990353
_cell_length_c   13.42214994
_cell_angle_alpha   90.03342214
_cell_angle_beta   89.96657963
_cell_angle_gamma   90.06408582
_symmetry_Int_Tables_number   1
_chemical_formula_structural   Er8Zr11NbSi16
_chemical_formula_sum   'Er8 Zr11 Nb1 Si16'
_cell_volume   715.24680326
_cell_formula_units_Z   1
loop_
 _symmetry_equiv_pos_site_id
 _symmetry_equiv_pos_as_xyz
  1  'x, y, z'
loop_
 _atom_site_type_symbol
 _atom_site_label
 _atom_site_symmetry_multiplicity
 _atom_site_fract_x
 _atom_site_fract_y
 _atom_site_fract_z
 _atom_site_occupancy
  Er  Er0  1  0.344886  0.003340  0.464135  1
  Er  Er1  1  0.496474  0.844958  0.715450  1
  Er  Er2  1  0.501927  0.155059  0.212398  1
  Er  Er3  1  0.844958  0.496474  0.284550  1
  Er  Er4  1  0.155059  0.501927  0.787602  1
  Er  Er5  1  0.653360  0.998310  0.964614  1
  Er  Er6  1  0.003340  0.344886  0.535865  1
  Er  Er7  1  0.998310  0.653360  0.035386  1
  Zr  Zr8  1  0.175508  0.824876  0.249168  1
  Zr  Zr9  1  0.824876  0.175508  0.750832  1
  Zr  Zr10  1  0.674839  0.674839  0.500000  1
  Zr  Zr11  1  0.148974  0.004911  0.876011  1
  Zr  Zr12  1  0.495576  0.645895  0.123104  1
  Zr  Zr13  1  0.502919  0.353484  0.625795  1
  Zr  Zr14  1  0.645895  0.495576  0.876896  1
  Zr  Zr15  1  0.353484  0.502919  0.374205  1
  Zr  Zr16  1  0.852776  0.996623  0.374822  1
  Zr  Zr17  1  0.004911  0.148974  0.123989  1
  Zr  Zr18  1  0.996623  0.852776  0.625178  1
  Nb  Nb19  1  0.324787  0.324787  0.000000  1
  Si  Si20  1  0.206298  0.139926  0.683334  1
  Si  Si21  1  0.359274  0.703738  0.933332  1
  Si  Si22  1  0.639670  0.293775  0.432882  1
  Si  Si23  1  0.703738  0.359274  0.066668  1
  Si  Si24  1  0.293775  0.639670  0.567118  1
  Si  Si25  1  0.793720  0.860243  0.182049  1
  Si  Si26  1  0.139926  0.206298  0.316666  1
  Si  Si27  1  0.860243  0.793720  0.817951  1
  Si  Si28  1  0.298076  0.953439  0.062645  1
  Si  Si29  1  0.549696  0.797329  0.312550  1
  Si  Si30  1  0.448653  0.203819  0.815741  1
  Si  Si31  1  0.797329  0.549696  0.687450  1
  Si  Si32  1  0.203819  0.448653  0.184259  1
  Si  Si33  1  0.702692  0.050171  0.563492  1
  Si  Si34  1  0.953439  0.298076  0.937355  1
  Si  Si35  1  0.050171  0.702692  0.436508  1
