# generated using pymatgen
data_Pr3Dy2P12Ru16Pt3
_symmetry_space_group_name_H-M   'P 1'
_cell_length_a   12.69955600
_cell_length_b   12.69955590
_cell_length_c   4.00419800
_cell_angle_alpha   90.00000000
_cell_angle_beta   90.00000000
_cell_angle_gamma   119.99999574
_symmetry_Int_Tables_number   1
_chemical_formula_structural   Pr3Dy2P12Ru16Pt3
_chemical_formula_sum   'Pr3 Dy2 P12 Ru16 Pt3'
_cell_volume   559.27224396
_cell_formula_units_Z   1
loop_
 _symmetry_equiv_pos_site_id
 _symmetry_equiv_pos_as_xyz
  1  'x, y, z'
loop_
 _atom_site_type_symbol
 _atom_site_label
 _atom_site_symmetry_multiplicity
 _atom_site_fract_x
 _atom_site_fract_y
 _atom_site_fract_z
 _atom_site_occupancy
  Pr  Pr0  1  0.815187  0.000206  0.500000  1
  Pr  Pr1  1  0.185019  0.184813  0.500000  1
  Pr  Pr2  1  0.999794  0.814981  0.500000  1
  Dy  Dy3  1  0.666667  0.333333  0.000000  1
  Dy  Dy4  1  0.333333  0.666667  0.000000  1
  P  P5  1  0.623909  0.985824  0.000000  1
  P  P6  1  0.361915  0.376091  0.000000  1
  P  P7  1  0.014176  0.638085  0.000000  1
  P  P8  1  0.696657  0.527840  0.500000  1
  P  P9  1  0.831185  0.303343  0.500000  1
  P  P10  1  0.306929  0.826665  0.500000  1
  P  P11  1  0.519734  0.693071  0.500000  1
  P  P12  1  0.186800  0.000179  0.000000  1
  P  P13  1  0.813379  0.813200  0.000000  1
  P  P14  1  0.999821  0.186621  0.000000  1
  P  P15  1  0.472160  0.168815  0.500000  1
  P  P16  1  0.173335  0.480266  0.500000  1
  Ru  Ru17  1  0.617137  0.797050  0.000000  1
  Ru  Ru18  1  0.179912  0.382863  0.000000  1
  Ru  Ru19  1  0.382626  0.187753  0.000000  1
  Ru  Ru20  1  0.202950  0.820088  0.000000  1
  Ru  Ru21  1  0.805128  0.617374  0.000000  1
  Ru  Ru22  1  0.126460  0.634210  0.500000  1
  Ru  Ru23  1  0.365790  0.492249  0.500000  1
  Ru  Ru24  1  0.507751  0.873540  0.500000  1
  Ru  Ru25  1  0.000000  0.000000  0.000000  1
  Ru  Ru26  1  0.712914  0.712425  0.500000  1
  Ru  Ru27  1  0.999511  0.287086  0.500000  1
  Ru  Ru28  1  0.452690  0.004849  0.000000  1
  Ru  Ru29  1  0.552159  0.547310  0.000000  1
  Ru  Ru30  1  0.995151  0.447841  0.000000  1
  Ru  Ru31  1  0.812247  0.194872  0.000000  1
  Ru  Ru32  1  0.287575  0.000489  0.500000  1
  Pt  Pt33  1  0.868287  0.500728  0.500000  1
  Pt  Pt34  1  0.499272  0.367560  0.500000  1
  Pt  Pt35  1  0.632440  0.131713  0.500000  1
