# generated using pymatgen
data_Tm2Co2Ni7P7W3
_symmetry_space_group_name_H-M   'P 1'
_cell_length_a   9.15720192
_cell_length_b   9.16775126
_cell_length_c   3.70049800
_cell_angle_alpha   90.00000000
_cell_angle_beta   90.00000000
_cell_angle_gamma   120.19346421
_symmetry_Int_Tables_number   1
_chemical_formula_structural   Tm2Co2Ni7P7W3
_chemical_formula_sum   'Tm2 Co2 Ni7 P7 W3'
_cell_volume   268.51371093
_cell_formula_units_Z   1
loop_
 _symmetry_equiv_pos_site_id
 _symmetry_equiv_pos_as_xyz
  1  'x, y, z'
loop_
 _atom_site_type_symbol
 _atom_site_label
 _atom_site_symmetry_multiplicity
 _atom_site_fract_x
 _atom_site_fract_y
 _atom_site_fract_z
 _atom_site_occupancy
  Tm  Tm0  1  0.334864  0.666305  0.000000  1
  Tm  Tm1  1  0.666162  0.332114  0.500000  1
  Co  Co2  1  0.719065  0.874249  0.000000  1
  Co  Co3  1  0.155779  0.281601  0.000000  1
  Ni  Ni4  1  0.127029  0.842901  0.000000  1
  Ni  Ni5  1  0.630097  0.564540  0.000000  1
  Ni  Ni6  1  0.934867  0.369974  0.000000  1
  Ni  Ni7  1  0.434200  0.065323  0.000000  1
  Ni  Ni8  1  0.557940  0.942006  0.500000  1
  Ni  Ni9  1  0.384956  0.443258  0.500000  1
  Ni  Ni10  1  0.058550  0.614840  0.500000  1
  P  P11  1  0.592340  0.712756  0.500000  1
  P  P12  1  0.119993  0.408716  0.500000  1
  P  P13  1  0.291189  0.880962  0.500000  1
  P  P14  1  0.998921  0.000572  0.000000  1
  P  P15  1  0.886422  0.586814  0.000000  1
  P  P16  1  0.699812  0.111298  0.000000  1
  P  P17  1  0.410374  0.299337  0.000000  1
  W  W18  1  0.881026  0.780777  0.500000  1
  W  W19  1  0.897213  0.120569  0.500000  1
  W  W20  1  0.219199  0.101087  0.500000  1
