# generated using pymatgen
data_Hf4Zr12IrPd2Pt5N4
_symmetry_space_group_name_H-M   'P 1'
_cell_length_a   8.85061602
_cell_length_b   8.85061608
_cell_length_c   8.85061500
_cell_angle_alpha   60.05421755
_cell_angle_beta   60.05422480
_cell_angle_gamma   60.05421335
_symmetry_Int_Tables_number   1
_chemical_formula_structural   Hf4Zr12IrPd2Pt5N4
_chemical_formula_sum   'Hf4 Zr12 Ir1 Pd2 Pt5 N4'
_cell_volume   490.83871321
_cell_formula_units_Z   1
loop_
 _symmetry_equiv_pos_site_id
 _symmetry_equiv_pos_as_xyz
  1  'x, y, z'
loop_
 _atom_site_type_symbol
 _atom_site_label
 _atom_site_symmetry_multiplicity
 _atom_site_fract_x
 _atom_site_fract_y
 _atom_site_fract_z
 _atom_site_occupancy
  Hf  Hf0  1  0.121350  0.627127  0.627167  1
  Hf  Hf1  1  0.627127  0.121350  0.627167  1
  Hf  Hf2  1  0.627371  0.627371  0.120535  1
  Hf  Hf3  1  0.625425  0.625425  0.625588  1
  Zr  Zr4  1  0.818392  0.818392  0.178674  1
  Zr  Zr5  1  0.182561  0.182561  0.817281  1
  Zr  Zr6  1  0.817923  0.179512  0.817789  1
  Zr  Zr7  1  0.182148  0.818051  0.181591  1
  Zr  Zr8  1  0.179512  0.817923  0.817789  1
  Zr  Zr9  1  0.818051  0.182148  0.181591  1
  Zr  Zr10  1  0.432413  0.432413  0.067789  1
  Zr  Zr11  1  0.067680  0.067680  0.432433  1
  Zr  Zr12  1  0.432236  0.068581  0.432203  1
  Zr  Zr13  1  0.067856  0.432865  0.066892  1
  Zr  Zr14  1  0.068581  0.432236  0.432203  1
  Zr  Zr15  1  0.432865  0.067856  0.066892  1
  Ir  Ir16  1  0.843537  0.843537  0.843751  1
  Pd  Pd17  1  0.767329  0.411199  0.410655  1
  Pd  Pd18  1  0.411199  0.767329  0.410655  1
  Pt  Pt19  1  0.408879  0.408879  0.773886  1
  Pt  Pt20  1  0.409124  0.409124  0.408552  1
  Pt  Pt21  1  0.474941  0.841692  0.841855  1
  Pt  Pt22  1  0.841692  0.474941  0.841855  1
  Pt  Pt23  1  0.842230  0.842230  0.473481  1
  N  N24  1  0.623759  0.125461  0.125807  1
  N  N25  1  0.125461  0.623759  0.125807  1
  N  N26  1  0.125231  0.125231  0.624725  1
  N  N27  1  0.125125  0.125125  0.125386  1
