# generated using pymatgen
data_Ca3Sn2IrPt
_symmetry_space_group_name_H-M   'P 1'
_cell_length_a   5.91650100
_cell_length_b   8.39703900
_cell_length_c   14.10121600
_cell_angle_alpha   90.00000000
_cell_angle_beta   90.00000000
_cell_angle_gamma   90.00000000
_symmetry_Int_Tables_number   1
_chemical_formula_structural   Ca3Sn2IrPt
_chemical_formula_sum   'Ca12 Sn8 Ir4 Pt4'
_cell_volume   700.56377614
_cell_formula_units_Z   4
loop_
 _symmetry_equiv_pos_site_id
 _symmetry_equiv_pos_as_xyz
  1  'x, y, z'
loop_
 _atom_site_type_symbol
 _atom_site_label
 _atom_site_symmetry_multiplicity
 _atom_site_fract_x
 _atom_site_fract_y
 _atom_site_fract_z
 _atom_site_occupancy
  Ca  Ca0  1  0.150916  0.390983  0.592905  1
  Ca  Ca1  1  0.849084  0.609017  0.092905  1
  Ca  Ca2  1  0.150916  0.109017  0.407095  1
  Ca  Ca3  1  0.849084  0.890983  0.907095  1
  Ca  Ca4  1  0.843114  0.599405  0.403110  1
  Ca  Ca5  1  0.156886  0.400595  0.903110  1
  Ca  Ca6  1  0.843114  0.900595  0.596890  1
  Ca  Ca7  1  0.156886  0.099405  0.096890  1
  Ca  Ca8  1  0.627320  0.251544  0.750733  1
  Ca  Ca9  1  0.372680  0.748456  0.250733  1
  Ca  Ca10  1  0.627320  0.248456  0.249267  1
  Ca  Ca11  1  0.372680  0.751544  0.749267  1
  Sn  Sn12  1  0.632251  0.250000  0.500000  1
  Sn  Sn13  1  0.367749  0.750000  0.000000  1
  Sn  Sn14  1  0.351696  0.750000  0.500000  1
  Sn  Sn15  1  0.648304  0.250000  0.000000  1
  Sn  Sn16  1  0.131576  0.098913  0.748913  1
  Sn  Sn17  1  0.868424  0.901087  0.248913  1
  Sn  Sn18  1  0.131576  0.401087  0.251087  1
  Sn  Sn19  1  0.868424  0.598913  0.751087  1
  Ir  Ir20  1  0.367246  0.034188  0.591630  1
  Ir  Ir21  1  0.632754  0.965812  0.091630  1
  Ir  Ir22  1  0.367246  0.465812  0.408370  1
  Ir  Ir23  1  0.632754  0.534188  0.908370  1
  Pt  Pt24  1  0.629963  0.960627  0.407115  1
  Pt  Pt25  1  0.370037  0.039373  0.907115  1
  Pt  Pt26  1  0.629963  0.539373  0.592885  1
  Pt  Pt27  1  0.370037  0.460627  0.092885  1
