# generated using pymatgen
data_Y15HoIn4RuRh3
_symmetry_space_group_name_H-M   'P 1'
_cell_length_a   9.69524858
_cell_length_b   9.70366521
_cell_length_c   9.69524952
_cell_angle_alpha   59.87189521
_cell_angle_beta   59.81394652
_cell_angle_gamma   59.87189836
_symmetry_Int_Tables_number   1
_chemical_formula_structural   Y15HoIn4RuRh3
_chemical_formula_sum   'Y15 Ho1 In4 Ru1 Rh3'
_cell_volume   642.81069639
_cell_formula_units_Z   1
loop_
 _symmetry_equiv_pos_site_id
 _symmetry_equiv_pos_as_xyz
  1  'x, y, z'
loop_
 _atom_site_type_symbol
 _atom_site_label
 _atom_site_symmetry_multiplicity
 _atom_site_fract_x
 _atom_site_fract_y
 _atom_site_fract_z
 _atom_site_occupancy
  Y  Y0  1  0.188404  0.189258  0.811453  1
  Y  Y1  1  0.600302  0.601517  0.200853  1
  Y  Y2  1  0.440324  0.056275  0.440324  1
  Y  Y3  1  0.440350  0.440598  0.058291  1
  Y  Y4  1  0.811627  0.188959  0.811627  1
  Y  Y5  1  0.190195  0.812330  0.190195  1
  Y  Y6  1  0.438851  0.057444  0.061847  1
  Y  Y7  1  0.189484  0.812741  0.808493  1
  Y  Y8  1  0.059377  0.439324  0.059377  1
  Y  Y9  1  0.808493  0.812741  0.189484  1
  Y  Y10  1  0.200853  0.601517  0.600302  1
  Y  Y11  1  0.058291  0.440598  0.440350  1
  Y  Y12  1  0.061847  0.057444  0.438851  1
  Y  Y13  1  0.811453  0.189258  0.188404  1
  Y  Y14  1  0.600950  0.199920  0.600950  1
  Ho  Ho15  1  0.597500  0.599133  0.597500  1
  In  In16  1  0.833070  0.833151  0.833070  1
  In  In17  1  0.832752  0.833100  0.500942  1
  In  In18  1  0.500942  0.833100  0.832752  1
  In  In19  1  0.832470  0.501827  0.832470  1
  Ru  Ru20  1  0.393465  0.823091  0.393465  1
  Rh  Rh21  1  0.392104  0.391043  0.392104  1
  Rh  Rh22  1  0.823738  0.392817  0.393158  1
  Rh  Rh23  1  0.393158  0.392817  0.823738  1
