# generated using pymatgen
data_Sr2LiNpO6
_symmetry_space_group_name_H-M   'P 1'
_cell_length_a   5.83875093
_cell_length_b   5.83875126
_cell_length_c   5.83875025
_cell_angle_alpha   120.33816413
_cell_angle_beta   120.33816657
_cell_angle_gamma   89.41527692
_symmetry_Int_Tables_number   1
_chemical_formula_structural   Sr2LiNpO6
_chemical_formula_sum   'Sr2 Li1 Np1 O6'
_cell_volume   140.02151084
_cell_formula_units_Z   1
loop_
 _symmetry_equiv_pos_site_id
 _symmetry_equiv_pos_as_xyz
  1  'x, y, z'
loop_
 _atom_site_type_symbol
 _atom_site_label
 _atom_site_symmetry_multiplicity
 _atom_site_fract_x
 _atom_site_fract_y
 _atom_site_fract_z
 _atom_site_occupancy
  Sr  Sr0  1  0.250000  0.750000  0.500000  1
  Sr  Sr1  1  0.750000  0.250000  0.500000  1
  Li  Li2  1  0.500000  0.500000  0.000000  1
  Np  Np3  1  0.000000  0.000000  0.000000  1
  O  O4  1  0.701483  0.821418  0.522901  1
  O  O5  1  0.298517  0.178582  0.477099  1
  O  O6  1  0.821418  0.298517  0.119935  1
  O  O7  1  0.178582  0.701483  0.880065  1
  O  O8  1  0.244328  0.244328  0.000000  1
  O  O9  1  0.755672  0.755672  0.000000  1
