# generated using pymatgen
data_Ba4AlH12Au
_symmetry_space_group_name_H-M   'P 1'
_cell_length_a   7.79918710
_cell_length_b   7.79918783
_cell_length_c   6.06090303
_cell_angle_alpha   89.99283316
_cell_angle_beta   89.99283012
_cell_angle_gamma   134.19574510
_symmetry_Int_Tables_number   1
_chemical_formula_structural   Ba4AlH12Au
_chemical_formula_sum   'Ba4 Al1 H12 Au1'
_cell_volume   264.32144475
_cell_formula_units_Z   1
loop_
 _symmetry_equiv_pos_site_id
 _symmetry_equiv_pos_as_xyz
  1  'x, y, z'
loop_
 _atom_site_type_symbol
 _atom_site_label
 _atom_site_symmetry_multiplicity
 _atom_site_fract_x
 _atom_site_fract_y
 _atom_site_fract_z
 _atom_site_occupancy
  Ba  Ba0  1  0.358354  0.641646  0.000000  1
  Ba  Ba1  1  0.854891  0.145109  0.500000  1
  Ba  Ba2  1  0.641646  0.358354  0.000000  1
  Ba  Ba3  1  0.145109  0.854891  0.500000  1
  Al  Al4  1  0.500000  0.500000  0.500000  1
  H  H5  1  0.000091  0.500411  0.245392  1
  H  H6  1  0.499589  0.999909  0.754608  1
  H  H7  1  0.999909  0.499589  0.754608  1
  H  H8  1  0.500411  0.000091  0.245392  1
  H  H9  1  0.117235  0.882765  0.000000  1
  H  H10  1  0.622730  0.377270  0.500000  1
  H  H11  1  0.882765  0.117235  0.000000  1
  H  H12  1  0.377270  0.622730  0.500000  1
  H  H13  1  0.706264  0.706264  0.292645  1
  H  H14  1  0.293736  0.293736  0.707355  1
  H  H15  1  0.706491  0.706491  0.706928  1
  H  H16  1  0.293509  0.293509  0.293072  1
  Au  Au17  1  0.000000  0.000000  0.000000  1
