# generated using pymatgen
data_PrCo4TcP3
_symmetry_space_group_name_H-M   'P 1'
_cell_length_a   3.74115600
_cell_length_b   10.48198600
_cell_length_c   11.91759600
_cell_angle_alpha   90.00000000
_cell_angle_beta   90.00000000
_cell_angle_gamma   90.00000000
_symmetry_Int_Tables_number   1
_chemical_formula_structural   PrCo4TcP3
_chemical_formula_sum   'Pr4 Co16 Tc4 P12'
_cell_volume   467.34548596
_cell_formula_units_Z   4
loop_
 _symmetry_equiv_pos_site_id
 _symmetry_equiv_pos_as_xyz
  1  'x, y, z'
loop_
 _atom_site_type_symbol
 _atom_site_label
 _atom_site_symmetry_multiplicity
 _atom_site_fract_x
 _atom_site_fract_y
 _atom_site_fract_z
 _atom_site_occupancy
  Pr  Pr0  1  0.250000  0.584004  0.703493  1
  Pr  Pr1  1  0.250000  0.915996  0.203493  1
  Pr  Pr2  1  0.750000  0.415996  0.296507  1
  Pr  Pr3  1  0.750000  0.084004  0.796507  1
  Co  Co4  1  0.250000  0.405233  0.490972  1
  Co  Co5  1  0.250000  0.094767  0.990972  1
  Co  Co6  1  0.750000  0.594767  0.509028  1
  Co  Co7  1  0.750000  0.905233  0.009028  1
  Co  Co8  1  0.250000  0.222046  0.174815  1
  Co  Co9  1  0.250000  0.277954  0.674815  1
  Co  Co10  1  0.750000  0.777954  0.825185  1
  Co  Co11  1  0.750000  0.722046  0.325185  1
  Co  Co12  1  0.250000  0.884812  0.701547  1
  Co  Co13  1  0.250000  0.615188  0.201547  1
  Co  Co14  1  0.750000  0.115188  0.298453  1
  Co  Co15  1  0.750000  0.384812  0.798453  1
  Co  Co16  1  0.250000  0.465100  0.932425  1
  Co  Co17  1  0.250000  0.034900  0.432425  1
  Co  Co18  1  0.750000  0.534900  0.067575  1
  Co  Co19  1  0.750000  0.965100  0.567575  1
  Tc  Tc20  1  0.250000  0.708219  0.989860  1
  Tc  Tc21  1  0.250000  0.791781  0.489860  1
  Tc  Tc22  1  0.750000  0.291781  0.010140  1
  Tc  Tc23  1  0.750000  0.208219  0.510140  1
  P  P24  1  0.250000  0.420465  0.110395  1
  P  P25  1  0.250000  0.079535  0.610395  1
  P  P26  1  0.750000  0.579535  0.889605  1
  P  P27  1  0.750000  0.920465  0.389605  1
  P  P28  1  0.250000  0.275449  0.864905  1
  P  P29  1  0.250000  0.224551  0.364905  1
  P  P30  1  0.750000  0.724551  0.135095  1
  P  P31  1  0.750000  0.775449  0.635095  1
  P  P32  1  0.250000  0.600976  0.393604  1
  P  P33  1  0.250000  0.899024  0.893604  1
  P  P34  1  0.750000  0.399024  0.606396  1
  P  P35  1  0.750000  0.100976  0.106396  1
