# generated using pymatgen
data_Ta2TiCrSi3Ru2
_symmetry_space_group_name_H-M   'P 1'
_cell_length_a   7.42507044
_cell_length_b   7.42506997
_cell_length_c   7.42507087
_cell_angle_alpha   127.62803029
_cell_angle_beta   124.08983515
_cell_angle_gamma   80.15258840
_symmetry_Int_Tables_number   1
_chemical_formula_structural   Ta2TiCrSi3Ru2
_chemical_formula_sum   'Ta4 Ti2 Cr2 Si6 Ru4'
_cell_volume   259.19023843
_cell_formula_units_Z   2
loop_
 _symmetry_equiv_pos_site_id
 _symmetry_equiv_pos_as_xyz
  1  'x, y, z'
loop_
 _atom_site_type_symbol
 _atom_site_label
 _atom_site_symmetry_multiplicity
 _atom_site_fract_x
 _atom_site_fract_y
 _atom_site_fract_z
 _atom_site_occupancy
  Ta  Ta0  1  0.537004  0.509810  0.472805  1
  Ta  Ta1  1  0.462996  0.935800  0.972805  1
  Ta  Ta2  1  0.744815  0.072741  0.827926  1
  Ta  Ta3  1  0.255185  0.083111  0.327926  1
  Ti  Ti4  1  0.940745  0.901147  0.460403  1
  Ti  Ti5  1  0.059255  0.519658  0.960403  1
  Cr  Cr6  1  0.500000  0.755921  0.255921  1
  Cr  Cr7  1  0.000000  0.755921  0.755921  1
  Si  Si8  1  0.723830  0.465784  0.241954  1
  Si  Si9  1  0.276170  0.518124  0.741954  1
  Si  Si10  1  0.680540  0.175162  0.517280  1
  Si  Si11  1  0.319460  0.836739  0.494621  1
  Si  Si12  1  0.157881  0.175162  0.994621  1
  Si  Si13  1  0.842119  0.836739  0.017280  1
  Ru  Ru14  1  0.907717  0.252370  0.413338  1
  Ru  Ru15  1  0.092283  0.505621  0.344653  1
  Ru  Ru16  1  0.339032  0.252370  0.844653  1
  Ru  Ru17  1  0.660968  0.505621  0.913338  1
