# generated using pymatgen
data_Y3Lu7Ag3Pd
_symmetry_space_group_name_H-M   'P 1'
_cell_length_a   9.35670700
_cell_length_b   9.35670765
_cell_length_c   9.49918000
_cell_angle_alpha   90.00000000
_cell_angle_beta   90.00000000
_cell_angle_gamma   119.99999416
_symmetry_Int_Tables_number   1
_chemical_formula_structural   Y3Lu7Ag3Pd
_chemical_formula_sum   'Y6 Lu14 Ag6 Pd2'
_cell_volume   720.21616505
_cell_formula_units_Z   2
loop_
 _symmetry_equiv_pos_site_id
 _symmetry_equiv_pos_as_xyz
  1  'x, y, z'
loop_
 _atom_site_type_symbol
 _atom_site_label
 _atom_site_symmetry_multiplicity
 _atom_site_fract_x
 _atom_site_fract_y
 _atom_site_fract_z
 _atom_site_occupancy
  Y  Y0  1  0.541917  0.458083  0.250000  1
  Y  Y1  1  0.541917  0.083834  0.250000  1
  Y  Y2  1  0.916166  0.458083  0.250000  1
  Y  Y3  1  0.458083  0.541917  0.750000  1
  Y  Y4  1  0.458083  0.916166  0.750000  1
  Y  Y5  1  0.083834  0.541917  0.750000  1
  Lu  Lu6  1  0.000000  0.000000  0.500000  1
  Lu  Lu7  1  0.000000  0.000000  0.000000  1
  Lu  Lu8  1  0.207013  0.792987  0.445229  1
  Lu  Lu9  1  0.207013  0.414027  0.445229  1
  Lu  Lu10  1  0.585973  0.792987  0.445229  1
  Lu  Lu11  1  0.792987  0.207013  0.554771  1
  Lu  Lu12  1  0.792987  0.585973  0.554771  1
  Lu  Lu13  1  0.414027  0.207013  0.554771  1
  Lu  Lu14  1  0.792987  0.207013  0.945229  1
  Lu  Lu15  1  0.792987  0.585973  0.945229  1
  Lu  Lu16  1  0.414027  0.207013  0.945229  1
  Lu  Lu17  1  0.207013  0.792987  0.054771  1
  Lu  Lu18  1  0.207013  0.414027  0.054771  1
  Lu  Lu19  1  0.585973  0.792987  0.054771  1
  Ag  Ag20  1  0.886041  0.113959  0.250000  1
  Ag  Ag21  1  0.886041  0.772084  0.250000  1
  Ag  Ag22  1  0.227916  0.113959  0.250000  1
  Ag  Ag23  1  0.113959  0.886041  0.750000  1
  Ag  Ag24  1  0.113959  0.227916  0.750000  1
  Ag  Ag25  1  0.772084  0.886041  0.750000  1
  Pd  Pd26  1  0.333333  0.666667  0.250000  1
  Pd  Pd27  1  0.666667  0.333333  0.750000  1
