# generated using pymatgen
data_Sr8Fe2PdN8
_symmetry_space_group_name_H-M   'P 1'
_cell_length_a   9.87786329
_cell_length_b   9.87786250
_cell_length_c   7.49797403
_cell_angle_alpha   74.84277180
_cell_angle_beta   105.15722658
_cell_angle_gamma   148.61982856
_symmetry_Int_Tables_number   1
_chemical_formula_structural   Sr8Fe2PdN8
_chemical_formula_sum   'Sr8 Fe2 Pd1 N8'
_cell_volume   366.63257075
_cell_formula_units_Z   1
loop_
 _symmetry_equiv_pos_site_id
 _symmetry_equiv_pos_as_xyz
  1  'x, y, z'
loop_
 _atom_site_type_symbol
 _atom_site_label
 _atom_site_symmetry_multiplicity
 _atom_site_fract_x
 _atom_site_fract_y
 _atom_site_fract_z
 _atom_site_occupancy
  Sr  Sr0  1  0.335472  0.664523  0.533405  1
  Sr  Sr1  1  0.664524  0.335472  0.466594  1
  Sr  Sr2  1  0.409035  0.590960  0.025255  1
  Sr  Sr3  1  0.590960  0.409035  0.974747  1
  Sr  Sr4  1  0.030644  0.969352  0.262002  1
  Sr  Sr5  1  0.969351  0.030644  0.737999  1
  Sr  Sr6  1  0.798413  0.201582  0.190375  1
  Sr  Sr7  1  0.201582  0.798413  0.809625  1
  Fe  Fe8  1  0.188071  0.811924  0.208401  1
  Fe  Fe9  1  0.811925  0.188070  0.791601  1
  Pd  Pd10  1  0.499998  0.499997  0.500001  1
  N  N11  1  0.111670  0.888325  0.016414  1
  N  N12  1  0.888327  0.111668  0.983587  1
  N  N13  1  0.178340  0.821656  0.431073  1
  N  N14  1  0.821656  0.178339  0.568927  1
  N  N15  1  0.274050  0.725945  0.171990  1
  N  N16  1  0.725945  0.274050  0.828010  1
  N  N17  1  0.532181  0.467814  0.251974  1
  N  N18  1  0.467814  0.532181  0.748028  1
