# generated using pymatgen
data_Li8Y7ErSn5Sb3
_symmetry_space_group_name_H-M   'P 1'
_cell_length_a   9.38310406
_cell_length_b   9.38137559
_cell_length_c   7.23076609
_cell_angle_alpha   90.08167280
_cell_angle_beta   89.92094714
_cell_angle_gamma   120.03020080
_symmetry_Int_Tables_number   1
_chemical_formula_structural   Li8Y7ErSn5Sb3
_chemical_formula_sum   'Li8 Y7 Er1 Sn5 Sb3'
_cell_volume   551.05530109
_cell_formula_units_Z   1
loop_
 _symmetry_equiv_pos_site_id
 _symmetry_equiv_pos_as_xyz
  1  'x, y, z'
loop_
 _atom_site_type_symbol
 _atom_site_label
 _atom_site_symmetry_multiplicity
 _atom_site_fract_x
 _atom_site_fract_y
 _atom_site_fract_z
 _atom_site_occupancy
  Li  Li0  1  0.165906  0.333147  0.214114  1
  Li  Li1  1  0.166912  0.833284  0.213561  1
  Li  Li2  1  0.666905  0.834192  0.214179  1
  Li  Li3  1  0.667121  0.332973  0.326233  1
  Li  Li4  1  0.832741  0.666180  0.714991  1
  Li  Li5  1  0.333798  0.167245  0.714964  1
  Li  Li6  1  0.833096  0.166924  0.714688  1
  Li  Li7  1  0.333419  0.666518  0.824397  1
  Y  Y8  1  0.999056  0.000970  0.996504  1
  Y  Y9  1  0.512653  0.023541  0.004530  1
  Y  Y10  1  0.510769  0.489199  0.004018  1
  Y  Y11  1  0.976582  0.487488  0.004543  1
  Y  Y12  1  0.999335  0.000709  0.501247  1
  Y  Y13  1  0.491050  0.978589  0.509397  1
  Y  Y14  1  0.021468  0.509157  0.509378  1
  Er  Er15  1  0.488989  0.511048  0.511153  1
  Sn  Sn16  1  0.833189  0.166756  0.267519  1
  Sn  Sn17  1  0.666147  0.333817  0.739740  1
  Sn  Sn18  1  0.167593  0.334041  0.765474  1
  Sn  Sn19  1  0.167045  0.832877  0.766524  1
  Sn  Sn20  1  0.665852  0.832232  0.765579  1
  Sb  Sb21  1  0.334031  0.665782  0.242372  1
  Sb  Sb22  1  0.831963  0.665472  0.266412  1
  Sb  Sb23  1  0.334378  0.167857  0.266468  1
