# generated using pymatgen
data_Pa2(AlAu3)3
_symmetry_space_group_name_H-M   'P 1'
_cell_length_a   7.95656843
_cell_length_b   7.95656786
_cell_length_c   10.94060662
_cell_angle_alpha   68.08530244
_cell_angle_beta   68.08530174
_cell_angle_gamma   60.01459744
_symmetry_Int_Tables_number   1
_chemical_formula_structural   Pa2(AlAu3)3
_chemical_formula_sum   'Pa4 Al6 Au18'
_cell_volume   541.33287875
_cell_formula_units_Z   2
loop_
 _symmetry_equiv_pos_site_id
 _symmetry_equiv_pos_as_xyz
  1  'x, y, z'
loop_
 _atom_site_type_symbol
 _atom_site_label
 _atom_site_symmetry_multiplicity
 _atom_site_fract_x
 _atom_site_fract_y
 _atom_site_fract_z
 _atom_site_occupancy
  Pa  Pa0  1  0.416692  0.247014  0.248407  1
  Pa  Pa1  1  0.583308  0.752986  0.751593  1
  Pa  Pa2  1  0.752986  0.583308  0.251593  1
  Pa  Pa3  1  0.247014  0.416692  0.748407  1
  Al  Al4  1  0.500000  0.000000  0.000000  1
  Al  Al5  1  0.000000  0.500000  0.500000  1
  Al  Al6  1  0.653550  0.175156  0.498172  1
  Al  Al7  1  0.346450  0.824844  0.501828  1
  Al  Al8  1  0.824844  0.346450  0.001828  1
  Al  Al9  1  0.175156  0.653550  0.998172  1
  Au  Au10  1  0.312693  0.917623  0.256250  1
  Au  Au11  1  0.687307  0.082377  0.743750  1
  Au  Au12  1  0.082377  0.687307  0.243750  1
  Au  Au13  1  0.917623  0.312693  0.756250  1
  Au  Au14  1  0.479482  0.639197  0.075641  1
  Au  Au15  1  0.520518  0.360803  0.924359  1
  Au  Au16  1  0.360803  0.520518  0.424359  1
  Au  Au17  1  0.639197  0.479482  0.575641  1
  Au  Au18  1  0.849533  0.150467  0.250000  1
  Au  Au19  1  0.150467  0.849533  0.750000  1
  Au  Au20  1  0.798674  0.979720  0.070327  1
  Au  Au21  1  0.201326  0.020280  0.929673  1
  Au  Au22  1  0.020280  0.201326  0.429673  1
  Au  Au23  1  0.979720  0.798674  0.570327  1
  Au  Au24  1  0.689432  0.856739  0.429533  1
  Au  Au25  1  0.310568  0.143261  0.570467  1
  Au  Au26  1  0.143261  0.310568  0.070467  1
  Au  Au27  1  0.856739  0.689432  0.929533  1
