# generated using pymatgen
data_TmLu3B12RhW
_symmetry_space_group_name_H-M   'P 1'
_cell_length_a   3.58791000
_cell_length_b   9.11279303
_cell_length_c   11.51821791
_cell_angle_alpha   90.38210813
_cell_angle_beta   90.00000000
_cell_angle_gamma   90.00000000
_symmetry_Int_Tables_number   1
_chemical_formula_structural   TmLu3B12RhW
_chemical_formula_sum   'Tm2 Lu6 B24 Rh2 W2'
_cell_volume   376.58991031
_cell_formula_units_Z   2
loop_
 _symmetry_equiv_pos_site_id
 _symmetry_equiv_pos_as_xyz
  1  'x, y, z'
loop_
 _atom_site_type_symbol
 _atom_site_label
 _atom_site_symmetry_multiplicity
 _atom_site_fract_x
 _atom_site_fract_y
 _atom_site_fract_z
 _atom_site_occupancy
  Tm  Tm0  1  0.500000  0.318973  0.412184  1
  Tm  Tm1  1  0.500000  0.681027  0.587816  1
  Lu  Lu2  1  0.500000  0.176075  0.916408  1
  Lu  Lu3  1  0.500000  0.823925  0.083592  1
  Lu  Lu4  1  0.500000  0.445099  0.126585  1
  Lu  Lu5  1  0.500000  0.554901  0.873415  1
  Lu  Lu6  1  0.500000  0.055119  0.627092  1
  Lu  Lu7  1  0.500000  0.944881  0.372908  1
  B  B8  1  0.000000  0.106203  0.472204  1
  B  B9  1  0.000000  0.893797  0.527796  1
  B  B10  1  0.000000  0.394683  0.970127  1
  B  B11  1  0.000000  0.605317  0.029873  1
  B  B12  1  0.000000  0.132454  0.318336  1
  B  B13  1  0.000000  0.867546  0.681664  1
  B  B14  1  0.000000  0.367604  0.816661  1
  B  B15  1  0.000000  0.632396  0.183339  1
  B  B16  1  0.000000  0.051405  0.065059  1
  B  B17  1  0.000000  0.948595  0.934941  1
  B  B18  1  0.000000  0.446467  0.565893  1
  B  B19  1  0.000000  0.553533  0.434107  1
  B  B20  1  0.000000  0.483099  0.287681  1
  B  B21  1  0.000000  0.516901  0.712319  1
  B  B22  1  0.000000  0.022072  0.786430  1
  B  B23  1  0.000000  0.977928  0.213570  1
  B  B24  1  0.000000  0.251775  0.077476  1
  B  B25  1  0.000000  0.748225  0.922524  1
  B  B26  1  0.000000  0.249510  0.579481  1
  B  B27  1  0.000000  0.750490  0.420519  1
  B  B28  1  0.000000  0.297823  0.236529  1
  B  B29  1  0.000000  0.702177  0.763471  1
  B  B30  1  0.000000  0.207832  0.734871  1
  B  B31  1  0.000000  0.792168  0.265129  1
  Rh  Rh32  1  0.500000  0.361046  0.678882  1
  Rh  Rh33  1  0.500000  0.638954  0.321118  1
  W  W34  1  0.500000  0.139548  0.180801  1
  W  W35  1  0.500000  0.860452  0.819199  1
