# generated using pymatgen
data_Yb5Cu2Au
_symmetry_space_group_name_H-M   'P 1'
_cell_length_a   8.85592928
_cell_length_b   8.85593029
_cell_length_c   8.85592889
_cell_angle_alpha   129.24787545
_cell_angle_beta   129.24788509
_cell_angle_gamma   74.61205118
_symmetry_Int_Tables_number   1
_chemical_formula_structural   Yb5Cu2Au
_chemical_formula_sum   'Yb10 Cu4 Au2'
_cell_volume   405.85589313
_cell_formula_units_Z   2
loop_
 _symmetry_equiv_pos_site_id
 _symmetry_equiv_pos_as_xyz
  1  'x, y, z'
loop_
 _atom_site_type_symbol
 _atom_site_label
 _atom_site_symmetry_multiplicity
 _atom_site_fract_x
 _atom_site_fract_y
 _atom_site_fract_z
 _atom_site_occupancy
  Yb  Yb0  1  0.500000  0.500000  0.000000  1
  Yb  Yb1  1  0.000000  0.000000  0.000000  1
  Yb  Yb2  1  0.529550  0.029550  0.840702  1
  Yb  Yb3  1  0.188849  0.688849  0.159298  1
  Yb  Yb4  1  0.029550  0.188849  0.500000  1
  Yb  Yb5  1  0.688849  0.529550  0.500000  1
  Yb  Yb6  1  0.470450  0.970450  0.159298  1
  Yb  Yb7  1  0.811151  0.311151  0.840702  1
  Yb  Yb8  1  0.970450  0.811151  0.500000  1
  Yb  Yb9  1  0.311151  0.470450  0.500000  1
  Cu  Cu10  1  0.118233  0.618233  0.736467  1
  Cu  Cu11  1  0.881767  0.381767  0.263533  1
  Cu  Cu12  1  0.618233  0.881767  0.500000  1
  Cu  Cu13  1  0.381767  0.118233  0.500000  1
  Au  Au14  1  0.250000  0.250000  0.000000  1
  Au  Au15  1  0.750000  0.750000  0.000000  1
