# generated using pymatgen
data_YbSm2NiSn3Pt2
_symmetry_space_group_name_H-M   'P 1'
_cell_length_a   7.53008200
_cell_length_b   7.52781979
_cell_length_c   4.00205600
_cell_angle_alpha   90.00000000
_cell_angle_beta   90.00000000
_cell_angle_gamma   120.00994139
_symmetry_Int_Tables_number   1
_chemical_formula_structural   YbSm2NiSn3Pt2
_chemical_formula_sum   'Yb1 Sm2 Ni1 Sn3 Pt2'
_cell_volume   196.44419415
_cell_formula_units_Z   1
loop_
 _symmetry_equiv_pos_site_id
 _symmetry_equiv_pos_as_xyz
  1  'x, y, z'
loop_
 _atom_site_type_symbol
 _atom_site_label
 _atom_site_symmetry_multiplicity
 _atom_site_fract_x
 _atom_site_fract_y
 _atom_site_fract_z
 _atom_site_occupancy
  Yb  Yb0  1  0.592079  0.000000  0.000000  1
  Sm  Sm1  1  0.000548  0.591377  0.000000  1
  Sm  Sm2  1  0.409170  0.408623  0.000000  1
  Ni  Ni3  1  0.001160  0.000000  0.000000  1
  Sn  Sn4  1  0.249033  0.000000  0.500000  1
  Sn  Sn5  1  0.995226  0.242493  0.500000  1
  Sn  Sn6  1  0.752733  0.757507  0.500000  1
  Pt  Pt7  1  0.333859  0.667667  0.500000  1
  Pt  Pt8  1  0.666192  0.332333  0.500000  1
