# generated using pymatgen
data_UHg2(PO5)2
_symmetry_space_group_name_H-M   'P 1'
_cell_length_a   6.33770762
_cell_length_b   11.41649501
_cell_length_c   6.83398016
_cell_angle_alpha   102.33176390
_cell_angle_beta   99.75001435
_cell_angle_gamma   83.74585091
_symmetry_Int_Tables_number   1
_chemical_formula_structural   UHg2(PO5)2
_chemical_formula_sum   'U2 Hg4 P4 O20'
_cell_volume   474.72081235
_cell_formula_units_Z   2
loop_
 _symmetry_equiv_pos_site_id
 _symmetry_equiv_pos_as_xyz
  1  'x, y, z'
loop_
 _atom_site_type_symbol
 _atom_site_label
 _atom_site_symmetry_multiplicity
 _atom_site_fract_x
 _atom_site_fract_y
 _atom_site_fract_z
 _atom_site_occupancy
  U  U0  1  0.616518  0.847084  0.112775  1
  U  U1  1  0.383700  0.152951  0.887247  1
  Hg  Hg2  1  0.298961  0.564257  0.295293  1
  Hg  Hg3  1  0.932747  0.265557  0.255454  1
  Hg  Hg4  1  0.067193  0.734433  0.744515  1
  Hg  Hg5  1  0.701014  0.435716  0.704711  1
  P  P6  1  0.791856  0.550464  0.219094  1
  P  P7  1  0.467197  0.168792  0.364778  1
  P  P8  1  0.532754  0.831205  0.635207  1
  P  P9  1  0.208112  0.449531  0.780907  1
  O  O10  1  0.336092  0.810789  0.042061  1
  O  O11  1  0.691574  0.643540  0.089818  1
  O  O12  1  0.891157  0.885518  0.164579  1
  O  O13  1  0.857742  0.429670  0.083896  1
  O  O14  1  0.495574  0.051840  0.200964  1
  O  O15  1  0.290628  0.245969  0.242517  1
  O  O16  1  0.630540  0.530591  0.356880  1
  O  O17  1  0.988848  0.601466  0.373626  1
  O  O18  1  0.678997  0.232100  0.427540  1
  O  O19  1  0.613139  0.853383  0.448034  1
  O  O20  1  0.386840  0.146618  0.551981  1
  O  O21  1  0.320938  0.767886  0.572442  1
  O  O22  1  0.011133  0.398524  0.626365  1
  O  O23  1  0.369434  0.469400  0.643133  1
  O  O24  1  0.709337  0.754030  0.757494  1
  O  O25  1  0.504407  0.948160  0.799060  1
  O  O26  1  0.142199  0.570331  0.916115  1
  O  O27  1  0.108972  0.114538  0.835388  1
  O  O28  1  0.308416  0.356459  0.910195  1
  O  O29  1  0.663984  0.189197  0.957934  1
