# generated using pymatgen
data_Tb4Al18FeTcPd4
_symmetry_space_group_name_H-M   'P 1'
_cell_length_a   7.60895771
_cell_length_b   7.60895774
_cell_length_c   9.51870397
_cell_angle_alpha   89.74833844
_cell_angle_beta   89.74833729
_cell_angle_gamma   119.26121451
_symmetry_Int_Tables_number   1
_chemical_formula_structural   Tb4Al18FeTcPd4
_chemical_formula_sum   'Tb4 Al18 Fe1 Tc1 Pd4'
_cell_volume   480.75920147
_cell_formula_units_Z   1
loop_
 _symmetry_equiv_pos_site_id
 _symmetry_equiv_pos_as_xyz
  1  'x, y, z'
loop_
 _atom_site_type_symbol
 _atom_site_label
 _atom_site_symmetry_multiplicity
 _atom_site_fract_x
 _atom_site_fract_y
 _atom_site_fract_z
 _atom_site_occupancy
  Tb  Tb0  1  0.993885  0.671034  0.249795  1
  Tb  Tb1  1  0.006115  0.328966  0.750205  1
  Tb  Tb2  1  0.671034  0.993885  0.249795  1
  Tb  Tb3  1  0.328966  0.006115  0.750205  1
  Al  Al4  1  0.122208  0.122208  0.254341  1
  Al  Al5  1  0.877792  0.877792  0.745659  1
  Al  Al6  1  0.002132  0.331060  0.076916  1
  Al  Al7  1  0.997868  0.668940  0.923084  1
  Al  Al8  1  0.000548  0.674643  0.574185  1
  Al  Al9  1  0.325357  0.999452  0.425815  1
  Al  Al10  1  0.999452  0.325357  0.425815  1
  Al  Al11  1  0.674643  0.000548  0.574185  1
  Al  Al12  1  0.668940  0.997868  0.923084  1
  Al  Al13  1  0.331060  0.002132  0.076916  1
  Al  Al14  1  0.323093  0.323093  0.548526  1
  Al  Al15  1  0.676907  0.676907  0.451474  1
  Al  Al16  1  0.670308  0.670308  0.052142  1
  Al  Al17  1  0.329692  0.329692  0.947858  1
  Al  Al18  1  0.342686  0.547366  0.251272  1
  Al  Al19  1  0.657314  0.452634  0.748728  1
  Al  Al20  1  0.547366  0.342686  0.251272  1
  Al  Al21  1  0.452634  0.657314  0.748728  1
  Fe  Fe22  1  0.000000  0.000000  0.500000  1
  Tc  Tc23  1  0.000000  0.000000  0.000000  1
  Pd  Pd24  1  0.672101  0.327899  0.000000  1
  Pd  Pd25  1  0.327899  0.672101  0.000000  1
  Pd  Pd26  1  0.327988  0.672012  0.500000  1
  Pd  Pd27  1  0.672012  0.327988  0.500000  1
