# generated using pymatgen
data_Y6Cd3Sn3Pd5Pt
_symmetry_space_group_name_H-M   'P 1'
_cell_length_a   7.74439932
_cell_length_b   7.77756699
_cell_length_c   7.57770803
_cell_angle_alpha   89.99300356
_cell_angle_beta   89.99608340
_cell_angle_gamma   119.82640064
_symmetry_Int_Tables_number   1
_chemical_formula_structural   Y6Cd3Sn3Pd5Pt
_chemical_formula_sum   'Y6 Cd3 Sn3 Pd5 Pt1'
_cell_volume   395.96522629
_cell_formula_units_Z   1
loop_
 _symmetry_equiv_pos_site_id
 _symmetry_equiv_pos_as_xyz
  1  'x, y, z'
loop_
 _atom_site_type_symbol
 _atom_site_label
 _atom_site_symmetry_multiplicity
 _atom_site_fract_x
 _atom_site_fract_y
 _atom_site_fract_z
 _atom_site_occupancy
  Y  Y0  1  0.405386  0.998950  0.247866  1
  Y  Y1  1  0.593473  0.594945  0.250544  1
  Y  Y2  1  0.000056  0.405153  0.250946  1
  Y  Y3  1  0.402487  0.993643  0.752291  1
  Y  Y4  1  0.591357  0.597574  0.749362  1
  Y  Y5  1  0.004923  0.407405  0.749207  1
  Cd  Cd6  1  0.733218  0.004038  0.000008  1
  Cd  Cd7  1  0.266355  0.263957  0.500011  1
  Cd  Cd8  1  0.999346  0.734858  0.500068  1
  Sn  Sn9  1  0.992626  0.733082  0.000087  1
  Sn  Sn10  1  0.262271  0.263388  0.000072  1
  Sn  Sn11  1  0.746044  0.001219  0.500036  1
  Pd  Pd12  1  0.338060  0.669689  0.496250  1
  Pd  Pd13  1  0.663192  0.334597  0.995260  1
  Pd  Pd14  1  0.668620  0.330081  0.504584  1
  Pd  Pd15  1  0.001170  0.000209  0.244868  1
  Pd  Pd16  1  0.001157  0.000178  0.755270  1
  Pt  Pt17  1  0.330262  0.667034  0.003272  1
