# generated using pymatgen
data_Gd2Y(CdIn)3
_symmetry_space_group_name_H-M   'P 1'
_cell_length_a   7.54660800
_cell_length_b   7.54660780
_cell_length_c   4.65374200
_cell_angle_alpha   90.00000000
_cell_angle_beta   90.00000000
_cell_angle_gamma   119.98250390
_symmetry_Int_Tables_number   1
_chemical_formula_structural   Gd2Y(CdIn)3
_chemical_formula_sum   'Gd2 Y1 Cd3 In3'
_cell_volume   229.56889644
_cell_formula_units_Z   1
loop_
 _symmetry_equiv_pos_site_id
 _symmetry_equiv_pos_as_xyz
  1  'x, y, z'
loop_
 _atom_site_type_symbol
 _atom_site_label
 _atom_site_symmetry_multiplicity
 _atom_site_fract_x
 _atom_site_fract_y
 _atom_site_fract_z
 _atom_site_occupancy
  Gd  Gd0  1  0.433468  0.000189  0.000000  1
  Gd  Gd1  1  0.000189  0.433469  0.000000  1
  Y  Y2  1  0.566722  0.566723  0.000000  1
  Cd  Cd3  1  0.753768  0.999904  0.500001  1
  Cd  Cd4  1  0.246560  0.246561  0.500001  1
  Cd  Cd5  1  0.999904  0.753768  0.500001  1
  In  In6  1  0.999495  0.999495  0.000000  1
  In  In7  1  0.666037  0.333855  0.500001  1
  In  In8  1  0.333855  0.666037  0.500001  1
