# generated using pymatgen
data_Tc4B8Mo3W5
_symmetry_space_group_name_H-M   'P 1'
_cell_length_a   3.11221700
_cell_length_b   7.54007513
_cell_length_c   9.67783316
_cell_angle_alpha   89.97885299
_cell_angle_beta   90.00000000
_cell_angle_gamma   90.00000000
_symmetry_Int_Tables_number   1
_chemical_formula_structural   Tc4B8Mo3W5
_chemical_formula_sum   'Tc4 B8 Mo3 W5'
_cell_volume   227.10340478
_cell_formula_units_Z   1
loop_
 _symmetry_equiv_pos_site_id
 _symmetry_equiv_pos_as_xyz
  1  'x, y, z'
loop_
 _atom_site_type_symbol
 _atom_site_label
 _atom_site_symmetry_multiplicity
 _atom_site_fract_x
 _atom_site_fract_y
 _atom_site_fract_z
 _atom_site_occupancy
  Tc  Tc0  1  0.500000  0.622954  0.395613  1
  Tc  Tc1  1  0.500000  0.376934  0.604263  1
  Tc  Tc2  1  0.000000  0.876703  0.895518  1
  Tc  Tc3  1  0.000000  0.122987  0.104488  1
  B  B4  1  0.500000  0.115152  0.459221  1
  B  B5  1  0.500000  0.884969  0.540647  1
  B  B6  1  0.000000  0.384770  0.959273  1
  B  B7  1  0.000000  0.615154  0.040716  1
  B  B8  1  0.500000  0.122181  0.266475  1
  B  B9  1  0.500000  0.877687  0.733511  1
  B  B10  1  0.000000  0.377900  0.766460  1
  B  B11  1  0.000000  0.622258  0.233581  1
  Mo  Mo12  1  0.500000  0.422404  0.138035  1
  Mo  Mo13  1  0.000000  0.922480  0.361951  1
  Mo  Mo14  1  0.000000  0.077384  0.638095  1
  W  W15  1  0.500000  0.811004  0.130537  1
  W  W16  1  0.500000  0.189266  0.869735  1
  W  W17  1  0.000000  0.688986  0.630246  1
  W  W18  1  0.000000  0.310896  0.369711  1
  W  W19  1  0.500000  0.577931  0.861926  1
