# generated using pymatgen
data_Yb4UZn2Ru5
_symmetry_space_group_name_H-M   'P 1'
_cell_length_a   5.60634428
_cell_length_b   5.32196886
_cell_length_c   8.91005700
_cell_angle_alpha   90.00000000
_cell_angle_beta   90.00000000
_cell_angle_gamma   122.72991189
_symmetry_Int_Tables_number   1
_chemical_formula_structural   Yb4UZn2Ru5
_chemical_formula_sum   'Yb4 U1 Zn2 Ru5'
_cell_volume   223.63852493
_cell_formula_units_Z   1
loop_
 _symmetry_equiv_pos_site_id
 _symmetry_equiv_pos_as_xyz
  1  'x, y, z'
loop_
 _atom_site_type_symbol
 _atom_site_label
 _atom_site_symmetry_multiplicity
 _atom_site_fract_x
 _atom_site_fract_y
 _atom_site_fract_z
 _atom_site_occupancy
  Yb  Yb0  1  0.668828  0.343960  0.551678  1
  Yb  Yb1  1  0.349773  0.688540  0.435564  1
  Yb  Yb2  1  0.349773  0.688540  0.064436  1
  Yb  Yb3  1  0.668828  0.343960  0.948322  1
  U  U4  1  0.132082  0.272228  0.750000  1
  Zn  Zn5  1  0.830473  0.676875  0.250000  1
  Zn  Zn6  1  0.834463  0.177882  0.250000  1
  Ru  Ru7  1  0.027382  0.024827  0.498362  1
  Ru  Ru8  1  0.027382  0.024827  0.001638  1
  Ru  Ru9  1  0.155344  0.789085  0.750000  1
  Ru  Ru10  1  0.619266  0.786299  0.750000  1
  Ru  Ru11  1  0.336407  0.182980  0.250000  1
