# generated using pymatgen
data_Y6Si4IrRh5
_symmetry_space_group_name_H-M   'P 1'
_cell_length_a   5.54382468
_cell_length_b   7.55441764
_cell_length_c   14.86246600
_cell_angle_alpha   90.00000000
_cell_angle_beta   90.00000000
_cell_angle_gamma   90.11258583
_symmetry_Int_Tables_number   1
_chemical_formula_structural   Y6Si4IrRh5
_chemical_formula_sum   'Y12 Si8 Ir2 Rh10'
_cell_volume   622.44432828
_cell_formula_units_Z   2
loop_
 _symmetry_equiv_pos_site_id
 _symmetry_equiv_pos_as_xyz
  1  'x, y, z'
loop_
 _atom_site_type_symbol
 _atom_site_label
 _atom_site_symmetry_multiplicity
 _atom_site_fract_x
 _atom_site_fract_y
 _atom_site_fract_z
 _atom_site_occupancy
  Y  Y0  1  0.895754  0.831057  0.750000  1
  Y  Y1  1  0.868392  0.523868  0.391271  1
  Y  Y2  1  0.367700  0.972082  0.608562  1
  Y  Y3  1  0.131608  0.476132  0.891271  1
  Y  Y4  1  0.632300  0.027919  0.108562  1
  Y  Y5  1  0.104246  0.168943  0.250000  1
  Y  Y6  1  0.131608  0.476132  0.608729  1
  Y  Y7  1  0.632300  0.027919  0.391438  1
  Y  Y8  1  0.390535  0.670007  0.250000  1
  Y  Y9  1  0.367700  0.972082  0.891438  1
  Y  Y10  1  0.609465  0.329993  0.750000  1
  Y  Y11  1  0.868392  0.523868  0.108729  1
  Si  Si12  1  0.623877  0.624652  0.896480  1
  Si  Si13  1  0.876344  0.125021  0.602605  1
  Si  Si14  1  0.123656  0.874979  0.102605  1
  Si  Si15  1  0.123656  0.874979  0.397395  1
  Si  Si16  1  0.623877  0.624652  0.603520  1
  Si  Si17  1  0.876344  0.125021  0.897395  1
  Si  Si18  1  0.376123  0.375348  0.103520  1
  Si  Si19  1  0.376123  0.375348  0.396480  1
  Ir  Ir20  1  0.409225  0.679772  0.750000  1
  Ir  Ir21  1  0.590775  0.320228  0.250000  1
  Rh  Rh22  1  0.598563  0.332434  0.961515  1
  Rh  Rh23  1  0.102464  0.166825  0.462337  1
  Rh  Rh24  1  0.102464  0.166825  0.037663  1
  Rh  Rh25  1  0.897536  0.833175  0.962337  1
  Rh  Rh26  1  0.897536  0.833175  0.537663  1
  Rh  Rh27  1  0.909072  0.818608  0.250000  1
  Rh  Rh28  1  0.598563  0.332434  0.538485  1
  Rh  Rh29  1  0.401437  0.667566  0.461515  1
  Rh  Rh30  1  0.090928  0.181392  0.750000  1
  Rh  Rh31  1  0.401437  0.667566  0.038485  1
