# generated using pymatgen
data_Ta12Al8Co3CuC4
_symmetry_space_group_name_H-M   'P 1'
_cell_length_a   8.22997353
_cell_length_b   8.22997339
_cell_length_c   8.22997302
_cell_angle_alpha   60.11247216
_cell_angle_beta   60.11247747
_cell_angle_gamma   60.11247142
_symmetry_Int_Tables_number   1
_chemical_formula_structural   Ta12Al8Co3CuC4
_chemical_formula_sum   'Ta12 Al8 Co3 Cu1 C4'
_cell_volume   395.17145377
_cell_formula_units_Z   1
loop_
 _symmetry_equiv_pos_site_id
 _symmetry_equiv_pos_as_xyz
  1  'x, y, z'
loop_
 _atom_site_type_symbol
 _atom_site_label
 _atom_site_symmetry_multiplicity
 _atom_site_fract_x
 _atom_site_fract_y
 _atom_site_fract_z
 _atom_site_occupancy
  Ta  Ta0  1  0.562452  0.936703  0.562452  1
  Ta  Ta1  1  0.313297  0.687548  0.687548  1
  Ta  Ta2  1  0.681779  0.314867  0.314867  1
  Ta  Ta3  1  0.314867  0.681779  0.314867  1
  Ta  Ta4  1  0.687548  0.687548  0.313297  1
  Ta  Ta5  1  0.314867  0.314867  0.681779  1
  Ta  Ta6  1  0.562452  0.562452  0.936703  1
  Ta  Ta7  1  0.936703  0.562452  0.562452  1
  Ta  Ta8  1  0.568221  0.935133  0.935133  1
  Ta  Ta9  1  0.935133  0.935133  0.568221  1
  Ta  Ta10  1  0.687548  0.313297  0.687548  1
  Ta  Ta11  1  0.935133  0.568221  0.935133  1
  Al  Al12  1  0.918992  0.918992  0.918992  1
  Al  Al13  1  0.002322  0.334850  0.334850  1
  Al  Al14  1  0.334850  0.002322  0.334850  1
  Al  Al15  1  0.334850  0.334850  0.002322  1
  Al  Al16  1  0.915150  0.247678  0.915150  1
  Al  Al17  1  0.915150  0.915150  0.247678  1
  Al  Al18  1  0.247678  0.915150  0.915150  1
  Al  Al19  1  0.331008  0.331008  0.331008  1
  Co  Co20  1  0.625000  0.125000  0.125000  1
  Co  Co21  1  0.125000  0.625000  0.125000  1
  Co  Co22  1  0.125000  0.125000  0.625000  1
  Cu  Cu23  1  0.125000  0.125000  0.125000  1
  C  C24  1  0.625000  0.625000  0.625000  1
  C  C25  1  0.125000  0.625000  0.625000  1
  C  C26  1  0.625000  0.125000  0.625000  1
  C  C27  1  0.625000  0.625000  0.125000  1
