# generated using pymatgen
data_NdSmEr4(RuO7)2
_symmetry_space_group_name_H-M   'P 1'
_cell_length_a   6.39899408
_cell_length_b   6.39899368
_cell_length_c   7.47346806
_cell_angle_alpha   90.00853734
_cell_angle_beta   90.00854399
_cell_angle_gamma   109.98403347
_symmetry_Int_Tables_number   1
_chemical_formula_structural   NdSmEr4(RuO7)2
_chemical_formula_sum   'Nd1 Sm1 Er4 Ru2 O14'
_cell_volume   287.59107533
_cell_formula_units_Z   1
loop_
 _symmetry_equiv_pos_site_id
 _symmetry_equiv_pos_as_xyz
  1  'x, y, z'
loop_
 _atom_site_type_symbol
 _atom_site_label
 _atom_site_symmetry_multiplicity
 _atom_site_fract_x
 _atom_site_fract_y
 _atom_site_fract_z
 _atom_site_occupancy
  Nd  Nd0  1  0.000000  0.000000  0.500000  1
  Sm  Sm1  1  0.000000  0.000000  0.000000  1
  Er  Er2  1  0.482890  0.932429  0.751024  1
  Er  Er3  1  0.517110  0.067571  0.248976  1
  Er  Er4  1  0.932429  0.482890  0.751024  1
  Er  Er5  1  0.067571  0.517110  0.248976  1
  Ru  Ru6  1  0.500000  0.500000  0.500000  1
  Ru  Ru7  1  0.500000  0.500000  0.000000  1
  O  O8  1  0.591009  0.591009  0.749923  1
  O  O9  1  0.408991  0.408991  0.250077  1
  O  O10  1  0.838009  0.117949  0.753157  1
  O  O11  1  0.161991  0.882051  0.246843  1
  O  O12  1  0.117949  0.838009  0.753157  1
  O  O13  1  0.882051  0.161991  0.246843  1
  O  O14  1  0.438823  0.179790  0.963074  1
  O  O15  1  0.559887  0.820377  0.463168  1
  O  O16  1  0.179790  0.438823  0.963074  1
  O  O17  1  0.820377  0.559887  0.463168  1
  O  O18  1  0.440113  0.179623  0.536832  1
  O  O19  1  0.561177  0.820210  0.036926  1
  O  O20  1  0.820210  0.561177  0.036926  1
  O  O21  1  0.179623  0.440113  0.536832  1
