# generated using pymatgen
data_MgSc(NiIr)2
_symmetry_space_group_name_H-M   'P 1'
_cell_length_a   5.02834608
_cell_length_b   5.02834689
_cell_length_c   5.02834683
_cell_angle_alpha   117.25113908
_cell_angle_beta   122.26319497
_cell_angle_gamma   90.47551561
_symmetry_Int_Tables_number   1
_chemical_formula_structural   MgSc(NiIr)2
_chemical_formula_sum   'Mg1 Sc1 Ni2 Ir2'
_cell_volume   90.01312334
_cell_formula_units_Z   1
loop_
 _symmetry_equiv_pos_site_id
 _symmetry_equiv_pos_as_xyz
  1  'x, y, z'
loop_
 _atom_site_type_symbol
 _atom_site_label
 _atom_site_symmetry_multiplicity
 _atom_site_fract_x
 _atom_site_fract_y
 _atom_site_fract_z
 _atom_site_occupancy
  Mg  Mg0  1  0.248801  0.748801  0.500000  1
  Sc  Sc1  1  0.001262  0.001262  0.000000  1
  Ni  Ni2  1  0.125252  0.375400  0.749854  1
  Ni  Ni3  1  0.625545  0.375400  0.250146  1
  Ir  Ir4  1  0.624570  0.873662  0.249093  1
  Ir  Ir5  1  0.624570  0.375477  0.750907  1
