# generated using pymatgen
data_Dy3Th(SiAu2)8
_symmetry_space_group_name_H-M   'P 1'
_cell_length_a   4.40712600
_cell_length_b   4.40295200
_cell_length_c   27.18697800
_cell_angle_alpha   90.00000000
_cell_angle_beta   90.00000000
_cell_angle_gamma   90.00000000
_symmetry_Int_Tables_number   1
_chemical_formula_structural   Dy3Th(SiAu2)8
_chemical_formula_sum   'Dy3 Th1 Si8 Au16'
_cell_volume   527.54602359
_cell_formula_units_Z   1
loop_
 _symmetry_equiv_pos_site_id
 _symmetry_equiv_pos_as_xyz
  1  'x, y, z'
loop_
 _atom_site_type_symbol
 _atom_site_label
 _atom_site_symmetry_multiplicity
 _atom_site_fract_x
 _atom_site_fract_y
 _atom_site_fract_z
 _atom_site_occupancy
  Dy  Dy0  1  0.500000  0.000000  0.250377  1
  Dy  Dy1  1  0.500000  0.500000  0.000409  1
  Dy  Dy2  1  0.500000  0.500000  0.499600  1
  Th  Th3  1  0.000000  0.500000  0.749613  1
  Si  Si4  1  0.000000  0.000000  0.957539  1
  Si  Si5  1  0.000000  0.000000  0.456745  1
  Si  Si6  1  0.500000  0.000000  0.792825  1
  Si  Si7  1  0.500000  0.000000  0.706425  1
  Si  Si8  1  0.000000  0.500000  0.207191  1
  Si  Si9  1  0.000000  0.500000  0.293523  1
  Si  Si10  1  0.000000  0.000000  0.043275  1
  Si  Si11  1  0.000000  0.000000  0.542403  1
  Au  Au12  1  0.500000  0.000000  0.085901  1
  Au  Au13  1  0.500000  0.500000  0.661659  1
  Au  Au14  1  0.500000  0.500000  0.837756  1
  Au  Au15  1  0.000000  0.500000  0.085628  1
  Au  Au16  1  0.500000  0.000000  0.916174  1
  Au  Au17  1  0.000000  0.000000  0.662208  1
  Au  Au18  1  0.000000  0.500000  0.414727  1
  Au  Au19  1  0.500000  0.500000  0.336317  1
  Au  Au20  1  0.500000  0.000000  0.414385  1
  Au  Au21  1  0.000000  0.000000  0.335607  1
  Au  Au22  1  0.000000  0.000000  0.165043  1
  Au  Au23  1  0.500000  0.000000  0.583509  1
  Au  Au24  1  0.000000  0.000000  0.837162  1
  Au  Au25  1  0.500000  0.500000  0.164365  1
  Au  Au26  1  0.000000  0.500000  0.585368  1
  Au  Au27  1  0.000000  0.500000  0.914264  1
