# generated using pymatgen
data_LaTh7(AlRu)8
_symmetry_space_group_name_H-M   'P 1'
_cell_length_a   4.16421800
_cell_length_b   7.29675296
_cell_length_c   16.18282944
_cell_angle_alpha   89.67602267
_cell_angle_beta   90.00000000
_cell_angle_gamma   90.00000000
_symmetry_Int_Tables_number   1
_chemical_formula_structural   LaTh7(AlRu)8
_chemical_formula_sum   'La1 Th7 Al8 Ru8'
_cell_volume   491.71178153
_cell_formula_units_Z   1
loop_
 _symmetry_equiv_pos_site_id
 _symmetry_equiv_pos_as_xyz
  1  'x, y, z'
loop_
 _atom_site_type_symbol
 _atom_site_label
 _atom_site_symmetry_multiplicity
 _atom_site_fract_x
 _atom_site_fract_y
 _atom_site_fract_z
 _atom_site_occupancy
  La  La0  1  0.250000  0.541257  0.717799  1
  Th  Th1  1  0.750000  0.958431  0.218000  1
  Th  Th2  1  0.250000  0.165846  0.561984  1
  Th  Th3  1  0.750000  0.834610  0.438808  1
  Th  Th4  1  0.750000  0.458344  0.281936  1
  Th  Th5  1  0.750000  0.334180  0.061397  1
  Th  Th6  1  0.250000  0.667302  0.937745  1
  Th  Th7  1  0.250000  0.040666  0.782137  1
  Al  Al8  1  0.750000  0.502432  0.562348  1
  Al  Al9  1  0.750000  0.364243  0.850482  1
  Al  Al10  1  0.750000  0.004982  0.938739  1
  Al  Al11  1  0.750000  0.864400  0.648328  1
  Al  Al12  1  0.250000  0.496953  0.438297  1
  Al  Al13  1  0.250000  0.996912  0.061479  1
  Al  Al14  1  0.250000  0.635939  0.148999  1
  Al  Al15  1  0.250000  0.136347  0.351195  1
  Ru  Ru16  1  0.750000  0.752530  0.820653  1
  Ru  Ru17  1  0.250000  0.240673  0.935973  1
  Ru  Ru18  1  0.750000  0.260860  0.435535  1
  Ru  Ru19  1  0.250000  0.755187  0.315033  1
  Ru  Ru20  1  0.750000  0.760812  0.064679  1
  Ru  Ru21  1  0.750000  0.231415  0.682941  1
  Ru  Ru22  1  0.250000  0.253322  0.183823  1
  Ru  Ru23  1  0.250000  0.742357  0.561689  1
