# generated using pymatgen
data_HoTm4(FeB3)2
_symmetry_space_group_name_H-M   'P 1'
_cell_length_a   8.18487761
_cell_length_b   8.18487735
_cell_length_c   8.18487646
_cell_angle_alpha   38.43921461
_cell_angle_beta   38.43921857
_cell_angle_gamma   38.43920782
_symmetry_Int_Tables_number   1
_chemical_formula_structural   HoTm4(FeB3)2
_chemical_formula_sum   'Ho1 Tm4 Fe2 B6'
_cell_volume   190.38508755
_cell_formula_units_Z   1
loop_
 _symmetry_equiv_pos_site_id
 _symmetry_equiv_pos_as_xyz
  1  'x, y, z'
loop_
 _atom_site_type_symbol
 _atom_site_label
 _atom_site_symmetry_multiplicity
 _atom_site_fract_x
 _atom_site_fract_y
 _atom_site_fract_z
 _atom_site_occupancy
  Ho  Ho0  1  0.000000  0.000000  0.000000  1
  Tm  Tm1  1  0.583061  0.583061  0.583061  1
  Tm  Tm2  1  0.416939  0.416939  0.416939  1
  Tm  Tm3  1  0.749236  0.749236  0.749236  1
  Tm  Tm4  1  0.250764  0.250764  0.250764  1
  Fe  Fe5  1  0.882923  0.882923  0.882923  1
  Fe  Fe6  1  0.117077  0.117077  0.117077  1
  B  B7  1  0.500000  0.831598  0.168402  1
  B  B8  1  0.168402  0.500000  0.831598  1
  B  B9  1  0.831598  0.168402  0.500000  1
  B  B10  1  0.500000  0.168402  0.831598  1
  B  B11  1  0.831598  0.500000  0.168402  1
  B  B12  1  0.168402  0.831598  0.500000  1
