# generated using pymatgen
data_Cs2TaCuS4
_symmetry_space_group_name_H-M   'P 1'
_cell_length_a   14.65366031
_cell_length_b   13.05524744
_cell_length_c   7.77797097
_cell_angle_alpha   85.42286789
_cell_angle_beta   62.63286882
_cell_angle_gamma   31.94426507
_symmetry_Int_Tables_number   1
_chemical_formula_structural   Cs2TaCuS4
_chemical_formula_sum   'Cs4 Ta2 Cu2 S8'
_cell_volume   525.05741114
_cell_formula_units_Z   2
loop_
 _symmetry_equiv_pos_site_id
 _symmetry_equiv_pos_as_xyz
  1  'x, y, z'
loop_
 _atom_site_type_symbol
 _atom_site_label
 _atom_site_symmetry_multiplicity
 _atom_site_fract_x
 _atom_site_fract_y
 _atom_site_fract_z
 _atom_site_occupancy
  Cs  Cs0  1  0.822550  0.822550  0.177450  1
  Cs  Cs1  1  0.177450  0.177450  0.822550  1
  Cs  Cs2  1  0.427450  0.427450  0.072550  1
  Cs  Cs3  1  0.072550  0.072550  0.427450  1
  Ta  Ta4  1  0.000000  0.000000  0.000000  1
  Ta  Ta5  1  0.250000  0.250000  0.250000  1
  Cu  Cu6  1  0.500000  0.500000  0.500000  1
  Cu  Cu7  1  0.750000  0.750000  0.750000  1
  S  S8  1  0.530039  0.867697  0.151222  1
  S  S9  1  0.451043  0.151222  0.867697  1
  S  S10  1  0.798957  0.098778  0.382303  1
  S  S11  1  0.719961  0.382303  0.098778  1
  S  S12  1  0.382303  0.719961  0.798957  1
  S  S13  1  0.098778  0.798957  0.719961  1
  S  S14  1  0.151222  0.451043  0.530039  1
  S  S15  1  0.867697  0.530039  0.451043  1
