# generated using pymatgen
data_Dy4Al6ReRh
_symmetry_space_group_name_H-M   'P 1'
_cell_length_a   5.52408600
_cell_length_b   5.52408530
_cell_length_c   8.85357800
_cell_angle_alpha   90.00000000
_cell_angle_beta   90.00000000
_cell_angle_gamma   120.00000419
_symmetry_Int_Tables_number   1
_chemical_formula_structural   Dy4Al6ReRh
_chemical_formula_sum   'Dy4 Al6 Re1 Rh1'
_cell_volume   233.97542151
_cell_formula_units_Z   1
loop_
 _symmetry_equiv_pos_site_id
 _symmetry_equiv_pos_as_xyz
  1  'x, y, z'
loop_
 _atom_site_type_symbol
 _atom_site_label
 _atom_site_symmetry_multiplicity
 _atom_site_fract_x
 _atom_site_fract_y
 _atom_site_fract_z
 _atom_site_occupancy
  Dy  Dy0  1  0.666667  0.333333  0.051342  1
  Dy  Dy1  1  0.666667  0.333333  0.446380  1
  Dy  Dy2  1  0.333333  0.666666  0.553620  1
  Dy  Dy3  1  0.333333  0.666666  0.948658  1
  Al  Al4  1  0.162455  0.324910  0.248760  1
  Al  Al5  1  0.162454  0.837544  0.248760  1
  Al  Al6  1  0.675091  0.837544  0.248760  1
  Al  Al7  1  0.324909  0.162455  0.751241  1
  Al  Al8  1  0.837544  0.162455  0.751241  1
  Al  Al9  1  0.837544  0.675089  0.751241  1
  Re  Re10  1  0.000000  0.000000  0.500000  1
  Rh  Rh11  1  0.000000  0.000000  0.000000  1
