# generated using pymatgen
data_Sc2Ti2Nb2Sn5
_symmetry_space_group_name_H-M   'P 1'
_cell_length_a   10.65490973
_cell_length_b   10.65491002
_cell_length_c   10.65490887
_cell_angle_alpha   149.11953803
_cell_angle_beta   131.74117863
_cell_angle_gamma   58.39859076
_symmetry_Int_Tables_number   1
_chemical_formula_structural   Sc2Ti2Nb2Sn5
_chemical_formula_sum   'Sc4 Ti4 Nb4 Sn10'
_cell_volume   459.68406257
_cell_formula_units_Z   2
loop_
 _symmetry_equiv_pos_site_id
 _symmetry_equiv_pos_as_xyz
  1  'x, y, z'
loop_
 _atom_site_type_symbol
 _atom_site_label
 _atom_site_symmetry_multiplicity
 _atom_site_fract_x
 _atom_site_fract_y
 _atom_site_fract_z
 _atom_site_occupancy
  Sc  Sc0  1  0.256256  0.144509  0.111748  1
  Sc  Sc1  1  0.743744  0.855491  0.888252  1
  Sc  Sc2  1  0.032761  0.644509  0.388252  1
  Sc  Sc3  1  0.967239  0.355491  0.611748  1
  Ti  Ti4  1  0.675458  0.435580  0.239878  1
  Ti  Ti5  1  0.324542  0.564420  0.760122  1
  Ti  Ti6  1  0.195702  0.935580  0.260122  1
  Ti  Ti7  1  0.804298  0.064420  0.739878  1
  Nb  Nb8  1  0.309726  0.559726  0.250000  1
  Nb  Nb9  1  0.690274  0.440274  0.750000  1
  Nb  Nb10  1  0.690274  0.940274  0.250000  1
  Nb  Nb11  1  0.309726  0.059726  0.750000  1
  Sn  Sn12  1  0.588347  0.289818  0.298529  1
  Sn  Sn13  1  0.411653  0.710182  0.701471  1
  Sn  Sn14  1  0.991289  0.789818  0.201471  1
  Sn  Sn15  1  0.008711  0.210182  0.798529  1
  Sn  Sn16  1  0.000000  0.250000  0.250000  1
  Sn  Sn17  1  0.000000  0.750000  0.750000  1
  Sn  Sn18  1  0.464206  0.066148  0.398058  1
  Sn  Sn19  1  0.535794  0.933852  0.601942  1
  Sn  Sn20  1  0.668090  0.566148  0.101942  1
  Sn  Sn21  1  0.331910  0.433852  0.898058  1
