# generated using pymatgen
data_LaNd4(Cd2Pt)2
_symmetry_space_group_name_H-M   'P 1'
_cell_length_a   3.82723300
_cell_length_b   8.23988290
_cell_length_c   18.78463305
_cell_angle_alpha   90.05354854
_cell_angle_beta   90.00000000
_cell_angle_gamma   90.00000000
_symmetry_Int_Tables_number   1
_chemical_formula_structural   LaNd4(Cd2Pt)2
_chemical_formula_sum   'La2 Nd8 Cd8 Pt4'
_cell_volume   592.39102281
_cell_formula_units_Z   2
loop_
 _symmetry_equiv_pos_site_id
 _symmetry_equiv_pos_as_xyz
  1  'x, y, z'
loop_
 _atom_site_type_symbol
 _atom_site_label
 _atom_site_symmetry_multiplicity
 _atom_site_fract_x
 _atom_site_fract_y
 _atom_site_fract_z
 _atom_site_occupancy
  La  La0  1  0.000000  0.258801  0.718821  1
  La  La1  1  0.000000  0.741199  0.281179  1
  Nd  Nd2  1  0.000000  0.116367  0.414645  1
  Nd  Nd3  1  0.000000  0.883633  0.585355  1
  Nd  Nd4  1  0.000000  0.384736  0.915044  1
  Nd  Nd5  1  0.000000  0.615264  0.084956  1
  Nd  Nd6  1  0.000000  0.240678  0.218272  1
  Nd  Nd7  1  0.000000  0.759322  0.781728  1
  Nd  Nd8  1  0.000000  0.000000  0.000000  1
  Nd  Nd9  1  0.000000  0.500000  0.500000  1
  Cd  Cd10  1  0.500000  0.426927  0.352657  1
  Cd  Cd11  1  0.500000  0.573073  0.647343  1
  Cd  Cd12  1  0.500000  0.069302  0.853031  1
  Cd  Cd13  1  0.500000  0.930698  0.146969  1
  Cd  Cd14  1  0.500000  0.286532  0.067455  1
  Cd  Cd15  1  0.500000  0.713468  0.932545  1
  Cd  Cd16  1  0.500000  0.212273  0.566551  1
  Cd  Cd17  1  0.500000  0.787727  0.433449  1
  Pt  Pt18  1  0.500000  0.024186  0.303277  1
  Pt  Pt19  1  0.500000  0.975814  0.696723  1
  Pt  Pt20  1  0.500000  0.476334  0.803195  1
  Pt  Pt21  1  0.500000  0.523666  0.196805  1
