# generated using pymatgen
data_BaSb12Os2RuRh
_symmetry_space_group_name_H-M   'P 1'
_cell_length_a   8.18164575
_cell_length_b   8.17968712
_cell_length_c   8.17551830
_cell_angle_alpha   109.44881109
_cell_angle_beta   109.46177318
_cell_angle_gamma   109.49281850
_symmetry_Int_Tables_number   1
_chemical_formula_structural   BaSb12Os2RuRh
_chemical_formula_sum   'Ba1 Sb12 Os2 Ru1 Rh1'
_cell_volume   421.23620449
_cell_formula_units_Z   1
loop_
 _symmetry_equiv_pos_site_id
 _symmetry_equiv_pos_as_xyz
  1  'x, y, z'
loop_
 _atom_site_type_symbol
 _atom_site_label
 _atom_site_symmetry_multiplicity
 _atom_site_fract_x
 _atom_site_fract_y
 _atom_site_fract_z
 _atom_site_occupancy
  Ba  Ba0  1  0.000000  0.000000  0.000000  1
  Sb  Sb1  1  0.342510  0.185604  0.840768  1
  Sb  Sb2  1  0.657490  0.814396  0.159232  1
  Sb  Sb3  1  0.658046  0.498419  0.841408  1
  Sb  Sb4  1  0.341954  0.501581  0.158592  1
  Sb  Sb5  1  0.183102  0.840297  0.341463  1
  Sb  Sb6  1  0.816898  0.159703  0.658537  1
  Sb  Sb7  1  0.498674  0.841288  0.655476  1
  Sb  Sb8  1  0.501326  0.158712  0.344524  1
  Sb  Sb9  1  0.843601  0.345557  0.185862  1
  Sb  Sb10  1  0.156399  0.654443  0.814138  1
  Sb  Sb11  1  0.841115  0.658009  0.499293  1
  Sb  Sb12  1  0.158885  0.341991  0.500707  1
  Os  Os13  1  0.000000  0.000000  0.500000  1
  Os  Os14  1  0.500000  0.500000  0.500000  1
  Ru  Ru15  1  0.000000  0.500000  0.000000  1
  Rh  Rh16  1  0.500000  0.000000  0.000000  1
