# generated using pymatgen
data_Tb17(YbIr4)3
_symmetry_space_group_name_H-M   'P 1'
_cell_length_a   6.32095500
_cell_length_b   10.95928300
_cell_length_c   10.95928300
_cell_angle_alpha   90.00000000
_cell_angle_beta   90.00000000
_cell_angle_gamma   90.00000000
_symmetry_Int_Tables_number   1
_chemical_formula_structural   Tb17(YbIr4)3
_chemical_formula_sum   'Tb17 Yb3 Ir12'
_cell_volume   759.18388720
_cell_formula_units_Z   1
loop_
 _symmetry_equiv_pos_site_id
 _symmetry_equiv_pos_as_xyz
  1  'x, y, z'
loop_
 _atom_site_type_symbol
 _atom_site_label
 _atom_site_symmetry_multiplicity
 _atom_site_fract_x
 _atom_site_fract_y
 _atom_site_fract_z
 _atom_site_occupancy
  Tb  Tb0  1  0.379385  0.839912  0.541509  1
  Tb  Tb1  1  0.879093  0.662315  0.538809  1
  Tb  Tb2  1  0.879093  0.837685  0.961191  1
  Tb  Tb3  1  0.379385  0.660088  0.958491  1
  Tb  Tb4  1  0.879114  0.539838  0.837028  1
  Tb  Tb5  1  0.379809  0.960752  0.839107  1
  Tb  Tb6  1  0.379809  0.539248  0.660893  1
  Tb  Tb7  1  0.879114  0.960162  0.662972  1
  Tb  Tb8  1  0.620191  0.160893  0.460753  1
  Tb  Tb9  1  0.120886  0.337028  0.460163  1
  Tb  Tb10  1  0.120886  0.162972  0.039838  1
  Tb  Tb11  1  0.620191  0.339107  0.039248  1
  Tb  Tb12  1  0.120907  0.461192  0.162315  1
  Tb  Tb13  1  0.620615  0.041509  0.160088  1
  Tb  Tb14  1  0.620615  0.458492  0.339912  1
  Tb  Tb15  1  0.120907  0.038809  0.337685  1
  Tb  Tb16  1  0.500000  0.750000  0.250000  1
  Yb  Yb17  1  0.000000  0.750000  0.250000  1
  Yb  Yb18  1  0.000000  0.250000  0.750000  1
  Yb  Yb19  1  0.500000  0.250000  0.750000  1
  Ir  Ir20  1  0.253750  0.905079  0.094066  1
  Ir  Ir21  1  0.746250  0.594066  0.094921  1
  Ir  Ir22  1  0.746250  0.905934  0.405079  1
  Ir  Ir23  1  0.253750  0.594921  0.405934  1
  Ir  Ir24  1  0.752139  0.091601  0.907483  1
  Ir  Ir25  1  0.247861  0.407483  0.908399  1
  Ir  Ir26  1  0.247861  0.092517  0.591601  1
  Ir  Ir27  1  0.752139  0.408399  0.592517  1
  Ir  Ir28  1  0.116964  0.750000  0.750000  1
  Ir  Ir29  1  0.618025  0.750000  0.750000  1
  Ir  Ir30  1  0.883036  0.250000  0.250000  1
  Ir  Ir31  1  0.381975  0.250000  0.250000  1
