# generated using pymatgen
data_HoEr3Th6(Ge3C)2
_symmetry_space_group_name_H-M   'P 1'
_cell_length_a   8.79958800
_cell_length_b   8.79958995
_cell_length_c   6.40804200
_cell_angle_alpha   90.00000000
_cell_angle_beta   90.00000000
_cell_angle_gamma   119.99999268
_symmetry_Int_Tables_number   1
_chemical_formula_structural   HoEr3Th6(Ge3C)2
_chemical_formula_sum   'Ho1 Er3 Th6 Ge6 C2'
_cell_volume   429.71527035
_cell_formula_units_Z   1
loop_
 _symmetry_equiv_pos_site_id
 _symmetry_equiv_pos_as_xyz
  1  'x, y, z'
loop_
 _atom_site_type_symbol
 _atom_site_label
 _atom_site_symmetry_multiplicity
 _atom_site_fract_x
 _atom_site_fract_y
 _atom_site_fract_z
 _atom_site_occupancy
  Ho  Ho0  1  0.666667  0.333333  0.000000  1
  Er  Er1  1  0.333333  0.666667  0.000000  1
  Er  Er2  1  0.333333  0.666667  0.500000  1
  Er  Er3  1  0.666667  0.333333  0.500000  1
  Th  Th4  1  0.768155  0.768221  0.749917  1
  Th  Th5  1  0.231779  0.999933  0.749917  1
  Th  Th6  1  0.000067  0.231845  0.749917  1
  Th  Th7  1  0.231779  0.231845  0.250083  1
  Th  Th8  1  0.768155  0.999933  0.250083  1
  Th  Th9  1  0.000067  0.768221  0.250083  1
  Ge  Ge10  1  0.402912  0.403336  0.749645  1
  Ge  Ge11  1  0.596664  0.999576  0.749645  1
  Ge  Ge12  1  0.000424  0.597088  0.749645  1
  Ge  Ge13  1  0.596664  0.597088  0.250355  1
  Ge  Ge14  1  0.402912  0.999576  0.250355  1
  Ge  Ge15  1  0.000424  0.403336  0.250355  1
  C  C16  1  0.000000  0.000000  0.000000  1
  C  C17  1  0.000000  0.000000  0.500000  1
