# generated using pymatgen
data_Na5Mg(NpBr6)3
_symmetry_space_group_name_H-M   'P 1'
_cell_length_a   12.56221667
_cell_length_b   12.53034012
_cell_length_c   6.65233700
_cell_angle_alpha   89.99999543
_cell_angle_beta   90.25423792
_cell_angle_gamma   119.91609186
_symmetry_Int_Tables_number   1
_chemical_formula_structural   Na5Mg(NpBr6)3
_chemical_formula_sum   'Na5 Mg1 Np3 Br18'
_cell_volume   907.60087003
_cell_formula_units_Z   1
loop_
 _symmetry_equiv_pos_site_id
 _symmetry_equiv_pos_as_xyz
  1  'x, y, z'
loop_
 _atom_site_type_symbol
 _atom_site_label
 _atom_site_symmetry_multiplicity
 _atom_site_fract_x
 _atom_site_fract_y
 _atom_site_fract_z
 _atom_site_occupancy
  Na  Na0  1  0.661920  0.661568  0.003328  1
  Na  Na1  1  0.338080  0.999648  0.996672  1
  Na  Na2  1  0.000000  0.663476  0.000000  1
  Na  Na3  1  0.341513  0.339837  0.997714  1
  Na  Na4  1  0.658487  0.998324  0.002286  1
  Mg  Mg5  1  0.000000  0.336279  0.000000  1
  Np  Np6  1  0.327493  0.660670  0.497697  1
  Np  Np7  1  0.672507  0.333176  0.502303  1
  Np  Np8  1  0.000000  0.002915  0.000000  1
  Br  Br9  1  0.437074  0.556453  0.262619  1
  Br  Br10  1  0.792333  0.236812  0.249435  1
  Br  Br11  1  0.220969  0.769495  0.726128  1
  Br  Br12  1  0.779031  0.548526  0.273872  1
  Br  Br13  1  0.211227  0.108574  0.765837  1
  Br  Br14  1  0.460494  0.228450  0.264657  1
  Br  Br15  1  0.539506  0.767957  0.735343  1
  Br  Br16  1  0.893158  0.791968  0.763786  1
  Br  Br17  1  0.567393  0.437963  0.746728  1
  Br  Br18  1  0.562926  0.119379  0.737381  1
  Br  Br19  1  0.888912  0.429899  0.763999  1
  Br  Br20  1  0.111088  0.540988  0.236001  1
  Br  Br21  1  0.432607  0.870567  0.253272  1
  Br  Br22  1  0.207667  0.444479  0.750565  1
  Br  Br23  1  0.100157  0.228299  0.224125  1
  Br  Br24  1  0.106842  0.898809  0.236214  1
  Br  Br25  1  0.788773  0.897346  0.234163  1
  Br  Br26  1  0.899843  0.128142  0.775875  1
