# generated using pymatgen
data_Lu8In2IrPt
_symmetry_space_group_name_H-M   'P 1'
_cell_length_a   9.49642328
_cell_length_b   9.49333339
_cell_length_c   9.49642240
_cell_angle_alpha   60.01075875
_cell_angle_beta   59.96931506
_cell_angle_gamma   60.01076766
_symmetry_Int_Tables_number   1
_chemical_formula_structural   Lu8In2IrPt
_chemical_formula_sum   'Lu16 In4 Ir2 Pt2'
_cell_volume   605.33196788
_cell_formula_units_Z   2
loop_
 _symmetry_equiv_pos_site_id
 _symmetry_equiv_pos_as_xyz
  1  'x, y, z'
loop_
 _atom_site_type_symbol
 _atom_site_label
 _atom_site_symmetry_multiplicity
 _atom_site_fract_x
 _atom_site_fract_y
 _atom_site_fract_z
 _atom_site_occupancy
  Lu  Lu0  1  0.808072  0.191928  0.808072  1
  Lu  Lu1  1  0.938231  0.562736  0.559542  1
  Lu  Lu2  1  0.561715  0.938285  0.561715  1
  Lu  Lu3  1  0.811921  0.191110  0.190886  1
  Lu  Lu4  1  0.190206  0.809794  0.190206  1
  Lu  Lu5  1  0.349159  0.948446  0.349159  1
  Lu  Lu6  1  0.938231  0.939491  0.559542  1
  Lu  Lu7  1  0.559542  0.939491  0.938231  1
  Lu  Lu8  1  0.190886  0.806082  0.811921  1
  Lu  Lu9  1  0.347385  0.350684  0.951248  1
  Lu  Lu10  1  0.559542  0.562736  0.938231  1
  Lu  Lu11  1  0.349159  0.353238  0.349159  1
  Lu  Lu12  1  0.190886  0.191110  0.811921  1
  Lu  Lu13  1  0.811921  0.806082  0.190886  1
  Lu  Lu14  1  0.939777  0.560223  0.939777  1
  Lu  Lu15  1  0.951248  0.350684  0.347385  1
  In  In16  1  0.583334  0.583415  0.583334  1
  In  In17  1  0.583334  0.249920  0.583334  1
  In  In18  1  0.583860  0.583012  0.250117  1
  In  In19  1  0.250117  0.583012  0.583860  1
  Ir  Ir20  1  0.142237  0.574624  0.142237  1
  Ir  Ir21  1  0.142237  0.140901  0.142237  1
  Pt  Pt22  1  0.142713  0.141500  0.574287  1
  Pt  Pt23  1  0.574287  0.141500  0.142713  1
