# generated using pymatgen
data_Th5Sn2BiTe
_symmetry_space_group_name_H-M   'P 1'
_cell_length_a   9.62558200
_cell_length_b   9.67069441
_cell_length_c   6.67068100
_cell_angle_alpha   90.00000000
_cell_angle_beta   90.00000000
_cell_angle_gamma   119.84580053
_symmetry_Int_Tables_number   1
_chemical_formula_structural   Th5Sn2BiTe
_chemical_formula_sum   'Th10 Sn4 Bi2 Te2'
_cell_volume   538.58987069
_cell_formula_units_Z   2
loop_
 _symmetry_equiv_pos_site_id
 _symmetry_equiv_pos_as_xyz
  1  'x, y, z'
loop_
 _atom_site_type_symbol
 _atom_site_label
 _atom_site_symmetry_multiplicity
 _atom_site_fract_x
 _atom_site_fract_y
 _atom_site_fract_z
 _atom_site_occupancy
  Th  Th0  1  0.003929  0.723177  0.750000  1
  Th  Th1  1  0.280751  0.276823  0.750000  1
  Th  Th2  1  0.333945  0.669813  0.496636  1
  Th  Th3  1  0.664133  0.330187  0.496636  1
  Th  Th4  1  0.720163  0.719827  0.250000  1
  Th  Th5  1  0.718094  0.000000  0.750000  1
  Th  Th6  1  0.000335  0.280173  0.250000  1
  Th  Th7  1  0.280911  0.000000  0.250000  1
  Th  Th8  1  0.333945  0.669813  0.003364  1
  Th  Th9  1  0.664133  0.330187  0.003364  1
  Sn  Sn10  1  0.381824  0.000000  0.750000  1
  Sn  Sn11  1  0.619899  0.000000  0.250000  1
  Sn  Sn12  1  0.380437  0.380570  0.250000  1
  Sn  Sn13  1  0.999867  0.619430  0.250000  1
  Bi  Bi14  1  0.618420  0.617893  0.750000  1
  Bi  Bi15  1  0.000526  0.382107  0.750000  1
  Te  Te16  1  0.999345  0.000000  0.000112  1
  Te  Te17  1  0.999345  0.000000  0.499888  1
