# generated using pymatgen
data_Cs4Ni3HgF12
_symmetry_space_group_name_H-M   'P 1'
_cell_length_a   10.84616497
_cell_length_b   10.84616451
_cell_length_c   10.84616553
_cell_angle_alpha   34.05659369
_cell_angle_beta   34.05659659
_cell_angle_gamma   34.05659641
_symmetry_Int_Tables_number   1
_chemical_formula_structural   Cs4Ni3HgF12
_chemical_formula_sum   'Cs4 Ni3 Hg1 F12'
_cell_volume   356.71757416
_cell_formula_units_Z   1
loop_
 _symmetry_equiv_pos_site_id
 _symmetry_equiv_pos_as_xyz
  1  'x, y, z'
loop_
 _atom_site_type_symbol
 _atom_site_label
 _atom_site_symmetry_multiplicity
 _atom_site_fract_x
 _atom_site_fract_y
 _atom_site_fract_z
 _atom_site_occupancy
  Cs  Cs0  1  0.714734  0.714734  0.714734  1
  Cs  Cs1  1  0.869928  0.869928  0.869928  1
  Cs  Cs2  1  0.285266  0.285266  0.285266  1
  Cs  Cs3  1  0.130072  0.130072  0.130072  1
  Ni  Ni4  1  0.411220  0.411220  0.411220  1
  Ni  Ni5  1  0.588780  0.588780  0.588780  1
  Ni  Ni6  1  0.500000  0.500000  0.500000  1
  Hg  Hg7  1  0.000000  0.000000  0.000000  1
  F  F8  1  0.176100  0.597014  0.597014  1
  F  F9  1  0.597014  0.597014  0.176100  1
  F  F10  1  0.687610  0.220082  0.220082  1
  F  F11  1  0.312390  0.779918  0.779918  1
  F  F12  1  0.220082  0.220082  0.687610  1
  F  F13  1  0.823900  0.402986  0.402986  1
  F  F14  1  0.779918  0.779918  0.312390  1
  F  F15  1  0.402986  0.402986  0.823900  1
  F  F16  1  0.402986  0.823900  0.402986  1
  F  F17  1  0.220082  0.687610  0.220082  1
  F  F18  1  0.779918  0.312390  0.779918  1
  F  F19  1  0.597014  0.176100  0.597014  1
