# generated using pymatgen
data_Tb11Cd9PdAu3
_symmetry_space_group_name_H-M   'P 1'
_cell_length_a   13.24705410
_cell_length_b   13.21397325
_cell_length_c   3.75263400
_cell_angle_alpha   90.00000000
_cell_angle_beta   90.00000000
_cell_angle_gamma   111.44322141
_symmetry_Int_Tables_number   1
_chemical_formula_structural   Tb11Cd9PdAu3
_chemical_formula_sum   'Tb11 Cd9 Pd1 Au3'
_cell_volume   611.41505343
_cell_formula_units_Z   1
loop_
 _symmetry_equiv_pos_site_id
 _symmetry_equiv_pos_as_xyz
  1  'x, y, z'
loop_
 _atom_site_type_symbol
 _atom_site_label
 _atom_site_symmetry_multiplicity
 _atom_site_fract_x
 _atom_site_fract_y
 _atom_site_fract_z
 _atom_site_occupancy
  Tb  Tb0  1  0.417678  0.073999  0.000000  1
  Tb  Tb1  1  0.583552  0.926841  0.000000  1
  Tb  Tb2  1  0.072676  0.417003  0.000000  1
  Tb  Tb3  1  0.923767  0.583249  0.000000  1
  Tb  Tb4  1  0.162897  0.836639  0.000000  1
  Tb  Tb5  1  0.835820  0.161963  0.000000  1
  Tb  Tb6  1  0.368340  0.631199  0.000000  1
  Tb  Tb7  1  0.634188  0.374423  0.000000  1
  Tb  Tb8  1  0.295711  0.295821  0.000000  1
  Tb  Tb9  1  0.703150  0.697517  0.000000  1
  Tb  Tb10  1  0.000304  0.999539  0.000000  1
  Cd  Cd11  1  0.365240  0.843750  0.500000  1
  Cd  Cd12  1  0.634586  0.157392  0.500000  1
  Cd  Cd13  1  0.842861  0.367001  0.500000  1
  Cd  Cd14  1  0.155734  0.634234  0.500000  1
  Cd  Cd15  1  0.212338  0.067964  0.500000  1
  Cd  Cd16  1  0.787474  0.931883  0.500000  1
  Cd  Cd17  1  0.066821  0.211996  0.500000  1
  Cd  Cd18  1  0.930240  0.785958  0.500000  1
  Cd  Cd19  1  0.501240  0.500674  0.500000  1
  Pd  Pd20  1  0.752796  0.551578  0.500000  1
  Au  Au21  1  0.450383  0.251382  0.500000  1
  Au  Au22  1  0.551918  0.748507  0.500000  1
  Au  Au23  1  0.250285  0.449487  0.500000  1
