# generated using pymatgen
data_Sm2B10Ir
_symmetry_space_group_name_H-M   'P 1'
_cell_length_a   4.20359300
_cell_length_b   5.72183800
_cell_length_c   11.41423100
_cell_angle_alpha   90.00000000
_cell_angle_beta   90.00000000
_cell_angle_gamma   90.00000000
_symmetry_Int_Tables_number   1
_chemical_formula_structural   Sm2B10Ir
_chemical_formula_sum   'Sm4 B20 Ir2'
_cell_volume   274.53825904
_cell_formula_units_Z   2
loop_
 _symmetry_equiv_pos_site_id
 _symmetry_equiv_pos_as_xyz
  1  'x, y, z'
loop_
 _atom_site_type_symbol
 _atom_site_label
 _atom_site_symmetry_multiplicity
 _atom_site_fract_x
 _atom_site_fract_y
 _atom_site_fract_z
 _atom_site_occupancy
  Sm  Sm0  1  0.500000  0.205819  0.366465  1
  Sm  Sm1  1  0.500000  0.794181  0.633535  1
  Sm  Sm2  1  0.500000  0.294181  0.866465  1
  Sm  Sm3  1  0.500000  0.705819  0.133535  1
  B  B4  1  0.000000  0.381201  0.043045  1
  B  B5  1  0.000000  0.618799  0.956955  1
  B  B6  1  0.000000  0.118799  0.543045  1
  B  B7  1  0.000000  0.881201  0.456955  1
  B  B8  1  0.000000  0.361920  0.197194  1
  B  B9  1  0.000000  0.638080  0.802806  1
  B  B10  1  0.000000  0.138080  0.697194  1
  B  B11  1  0.000000  0.861920  0.302806  1
  B  B12  1  0.000000  0.054929  0.192867  1
  B  B13  1  0.000000  0.945071  0.807133  1
  B  B14  1  0.000000  0.445071  0.692867  1
  B  B15  1  0.000000  0.554929  0.307133  1
  B  B16  1  0.300836  0.218869  0.118851  1
  B  B17  1  0.699164  0.781131  0.881149  1
  B  B18  1  0.300836  0.781131  0.881149  1
  B  B19  1  0.699164  0.281131  0.618851  1
  B  B20  1  0.699164  0.218869  0.118851  1
  B  B21  1  0.300836  0.718869  0.381149  1
  B  B22  1  0.699164  0.718869  0.381149  1
  B  B23  1  0.300836  0.281131  0.618851  1
  Ir  Ir24  1  0.000000  0.000000  0.000000  1
  Ir  Ir25  1  0.000000  0.500000  0.500000  1
