# generated using pymatgen
data_HfPa2(AlNi)3
_symmetry_space_group_name_H-M   'P 1'
_cell_length_a   6.68963468
_cell_length_b   6.52588545
_cell_length_c   4.05086200
_cell_angle_alpha   90.00000000
_cell_angle_beta   90.00000000
_cell_angle_gamma   119.19351600
_symmetry_Int_Tables_number   1
_chemical_formula_structural   HfPa2(AlNi)3
_chemical_formula_sum   'Hf1 Pa2 Al3 Ni3'
_cell_volume   154.38042703
_cell_formula_units_Z   1
loop_
 _symmetry_equiv_pos_site_id
 _symmetry_equiv_pos_as_xyz
  1  'x, y, z'
loop_
 _atom_site_type_symbol
 _atom_site_label
 _atom_site_symmetry_multiplicity
 _atom_site_fract_x
 _atom_site_fract_y
 _atom_site_fract_z
 _atom_site_occupancy
  Hf  Hf0  1  0.000000  0.583950  0.500000  1
  Pa  Pa1  1  0.422758  0.423852  0.500000  1
  Pa  Pa2  1  0.577242  0.001094  0.500000  1
  Al  Al3  1  0.770103  0.760841  0.000000  1
  Al  Al4  1  0.229897  0.990739  0.000000  1
  Al  Al5  1  0.000000  0.249811  0.000000  1
  Ni  Ni6  1  0.662447  0.327365  0.000000  1
  Ni  Ni7  1  0.337553  0.664918  0.000000  1
  Ni  Ni8  1  0.000000  0.997430  0.500000  1
