# generated using pymatgen
data_Pm2HfUO8
_symmetry_space_group_name_H-M   'P 1'
_cell_length_a   6.50391659
_cell_length_b   6.50391740
_cell_length_c   6.50391715
_cell_angle_alpha   131.02866501
_cell_angle_beta   131.02866344
_cell_angle_gamma   71.76753872
_symmetry_Int_Tables_number   1
_chemical_formula_structural   Pm2HfUO8
_chemical_formula_sum   'Pm2 Hf1 U1 O8'
_cell_volume   153.16458089
_cell_formula_units_Z   1
loop_
 _symmetry_equiv_pos_site_id
 _symmetry_equiv_pos_as_xyz
  1  'x, y, z'
loop_
 _atom_site_type_symbol
 _atom_site_label
 _atom_site_symmetry_multiplicity
 _atom_site_fract_x
 _atom_site_fract_y
 _atom_site_fract_z
 _atom_site_occupancy
  Pm  Pm0  1  0.000000  0.000000  0.000000  1
  Pm  Pm1  1  0.750000  0.250000  0.500000  1
  Hf  Hf2  1  0.500000  0.500000  0.000000  1
  U  U3  1  0.250000  0.750000  0.500000  1
  O  O4  1  0.374689  0.399984  0.524078  1
  O  O5  1  0.875906  0.850611  0.475922  1
  O  O6  1  0.149389  0.124094  0.524078  1
  O  O7  1  0.600016  0.124094  0.974705  1
  O  O8  1  0.875906  0.399984  0.025295  1
  O  O9  1  0.600016  0.625311  0.475922  1
  O  O10  1  0.149389  0.625311  0.025295  1
  O  O11  1  0.374689  0.850611  0.974705  1
