# generated using pymatgen
data_Y2AlSi3Ni4
_symmetry_space_group_name_H-M   'P 1'
_cell_length_a   3.97013600
_cell_length_b   3.97013600
_cell_length_c   9.43580600
_cell_angle_alpha   90.00000000
_cell_angle_beta   90.00000000
_cell_angle_gamma   90.00000000
_symmetry_Int_Tables_number   1
_chemical_formula_structural   Y2AlSi3Ni4
_chemical_formula_sum   'Y2 Al1 Si3 Ni4'
_cell_volume   148.72698412
_cell_formula_units_Z   1
loop_
 _symmetry_equiv_pos_site_id
 _symmetry_equiv_pos_as_xyz
  1  'x, y, z'
loop_
 _atom_site_type_symbol
 _atom_site_label
 _atom_site_symmetry_multiplicity
 _atom_site_fract_x
 _atom_site_fract_y
 _atom_site_fract_z
 _atom_site_occupancy
  Y  Y0  1  0.000000  0.500000  0.245613  1
  Y  Y1  1  0.500000  0.000000  0.754387  1
  Al  Al2  1  0.000000  0.000000  0.500000  1
  Si  Si3  1  0.500000  0.500000  0.500000  1
  Si  Si4  1  0.000000  0.500000  0.873733  1
  Si  Si5  1  0.500000  0.000000  0.126267  1
  Ni  Ni6  1  0.000000  0.000000  0.000000  1
  Ni  Ni7  1  0.500000  0.500000  0.000000  1
  Ni  Ni8  1  0.000000  0.500000  0.634090  1
  Ni  Ni9  1  0.500000  0.000000  0.365910  1
