# generated using pymatgen
data_Tb16MgIn2HgRh4
_symmetry_space_group_name_H-M   'P 1'
_cell_length_a   9.70942194
_cell_length_b   9.70942356
_cell_length_c   9.68871905
_cell_angle_alpha   59.89556336
_cell_angle_beta   59.89555816
_cell_angle_gamma   59.87935301
_symmetry_Int_Tables_number   1
_chemical_formula_structural   Tb16MgIn2HgRh4
_chemical_formula_sum   'Tb16 Mg1 In2 Hg1 Rh4'
_cell_volume   644.25011509
_cell_formula_units_Z   1
loop_
 _symmetry_equiv_pos_site_id
 _symmetry_equiv_pos_as_xyz
  1  'x, y, z'
loop_
 _atom_site_type_symbol
 _atom_site_label
 _atom_site_symmetry_multiplicity
 _atom_site_fract_x
 _atom_site_fract_y
 _atom_site_fract_z
 _atom_site_occupancy
  Tb  Tb0  1  0.808462  0.808462  0.192379  1
  Tb  Tb1  1  0.809795  0.191148  0.808457  1
  Tb  Tb2  1  0.187370  0.187370  0.812761  1
  Tb  Tb3  1  0.650417  0.047966  0.650183  1
  Tb  Tb4  1  0.062896  0.062896  0.436227  1
  Tb  Tb5  1  0.436584  0.436584  0.061469  1
  Tb  Tb6  1  0.650238  0.650238  0.649911  1
  Tb  Tb7  1  0.812538  0.188440  0.188643  1
  Tb  Tb8  1  0.191148  0.809795  0.808457  1
  Tb  Tb9  1  0.047966  0.650417  0.650183  1
  Tb  Tb10  1  0.437909  0.065591  0.058671  1
  Tb  Tb11  1  0.436710  0.063505  0.434986  1
  Tb  Tb12  1  0.065591  0.437909  0.058671  1
  Tb  Tb13  1  0.650831  0.650831  0.046963  1
  Tb  Tb14  1  0.188440  0.812538  0.188643  1
  Tb  Tb15  1  0.063505  0.436710  0.434986  1
  Mg  Mg16  1  0.422960  0.422960  0.426455  1
  In  In17  1  0.417351  0.746209  0.419287  1
  In  In18  1  0.746209  0.417351  0.419287  1
  Hg  Hg19  1  0.413970  0.413970  0.755128  1
  Rh  Rh20  1  0.857525  0.426592  0.857115  1
  Rh  Rh21  1  0.857780  0.857780  0.856748  1
  Rh  Rh22  1  0.857211  0.857211  0.427275  1
  Rh  Rh23  1  0.426592  0.857525  0.857115  1
