# generated using pymatgen
data_Dy2HoLu3FeBi2
_symmetry_space_group_name_H-M   'P 1'
_cell_length_a   8.22987800
_cell_length_b   8.23046481
_cell_length_c   4.15209700
_cell_angle_alpha   90.00000000
_cell_angle_beta   90.00000000
_cell_angle_gamma   119.99764153
_symmetry_Int_Tables_number   1
_chemical_formula_structural   Dy2HoLu3FeBi2
_chemical_formula_sum   'Dy2 Ho1 Lu3 Fe1 Bi2'
_cell_volume   243.57134982
_cell_formula_units_Z   1
loop_
 _symmetry_equiv_pos_site_id
 _symmetry_equiv_pos_as_xyz
  1  'x, y, z'
loop_
 _atom_site_type_symbol
 _atom_site_label
 _atom_site_symmetry_multiplicity
 _atom_site_fract_x
 _atom_site_fract_y
 _atom_site_fract_z
 _atom_site_occupancy
  Dy  Dy0  1  0.000016  0.611305  0.500000  1
  Dy  Dy1  1  0.388711  0.388695  0.500000  1
  Ho  Ho2  1  0.611346  0.000000  0.500000  1
  Lu  Lu3  1  0.228663  0.000000  0.000000  1
  Lu  Lu4  1  0.771324  0.771384  0.000000  1
  Lu  Lu5  1  0.999941  0.228616  0.000000  1
  Fe  Fe6  1  0.999924  0.000000  0.500000  1
  Bi  Bi7  1  0.333407  0.666740  0.000000  1
  Bi  Bi8  1  0.666668  0.333260  0.000000  1
