# generated using pymatgen
data_Tl3Ir4AuO14
_symmetry_space_group_name_H-M   'P 1'
_cell_length_a   7.27361525
_cell_length_b   7.38698457
_cell_length_c   7.38698500
_cell_angle_alpha   60.00000253
_cell_angle_beta   59.48305594
_cell_angle_gamma   59.48304750
_symmetry_Int_Tables_number   1
_chemical_formula_structural   Tl3Ir4AuO14
_chemical_formula_sum   'Tl3 Ir4 Au1 O14'
_cell_volume   278.44007654
_cell_formula_units_Z   1
loop_
 _symmetry_equiv_pos_site_id
 _symmetry_equiv_pos_as_xyz
  1  'x, y, z'
loop_
 _atom_site_type_symbol
 _atom_site_label
 _atom_site_symmetry_multiplicity
 _atom_site_fract_x
 _atom_site_fract_y
 _atom_site_fract_z
 _atom_site_occupancy
  Tl  Tl0  1  0.125000  0.625000  0.125000  1
  Tl  Tl1  1  0.125000  0.125000  0.625000  1
  Tl  Tl2  1  0.125000  0.125000  0.125000  1
  Ir  Ir3  1  0.125000  0.625000  0.625000  1
  Ir  Ir4  1  0.625000  0.125000  0.625000  1
  Ir  Ir5  1  0.625000  0.625000  0.125000  1
  Ir  Ir6  1  0.625000  0.625000  0.625000  1
  Au  Au7  1  0.625000  0.125000  0.125000  1
  O  O8  1  0.701264  0.689837  0.304450  1
  O  O9  1  0.295865  0.299776  0.702180  1
  O  O10  1  0.701264  0.304450  0.689837  1
  O  O11  1  0.295865  0.702180  0.299776  1
  O  O12  1  0.295865  0.702180  0.702180  1
  O  O13  1  0.701264  0.304450  0.304450  1
  O  O14  1  0.548736  0.560163  0.945550  1
  O  O15  1  0.954135  0.950224  0.547820  1
  O  O16  1  0.548736  0.945550  0.560163  1
  O  O17  1  0.954135  0.547820  0.950224  1
  O  O18  1  0.954135  0.547820  0.547820  1
  O  O19  1  0.548736  0.945550  0.945550  1
  O  O20  1  0.281365  0.239545  0.239545  1
  O  O21  1  0.968635  0.010455  0.010455  1
