# generated using pymatgen
data_Sr4Ta2CrRhO12
_symmetry_space_group_name_H-M   'P 1'
_cell_length_a   5.65585547
_cell_length_b   5.65098020
_cell_length_c   8.02221404
_cell_angle_alpha   89.90462906
_cell_angle_beta   90.01822934
_cell_angle_gamma   90.00701415
_symmetry_Int_Tables_number   1
_chemical_formula_structural   Sr4Ta2CrRhO12
_chemical_formula_sum   'Sr4 Ta2 Cr1 Rh1 O12'
_cell_volume   256.39863372
_cell_formula_units_Z   1
loop_
 _symmetry_equiv_pos_site_id
 _symmetry_equiv_pos_as_xyz
  1  'x, y, z'
loop_
 _atom_site_type_symbol
 _atom_site_label
 _atom_site_symmetry_multiplicity
 _atom_site_fract_x
 _atom_site_fract_y
 _atom_site_fract_z
 _atom_site_occupancy
  Sr  Sr0  1  0.000762  0.982873  0.749568  1
  Sr  Sr1  1  0.498480  0.483038  0.748751  1
  Sr  Sr2  1  0.501520  0.516962  0.251249  1
  Sr  Sr3  1  0.999238  0.017127  0.250432  1
  Ta  Ta4  1  0.000000  0.500000  0.500000  1
  Ta  Ta5  1  0.500000  0.000000  0.000000  1
  Cr  Cr6  1  0.500000  0.000000  0.500000  1
  Rh  Rh7  1  0.000000  0.500000  0.000000  1
  O  O8  1  0.722865  0.280499  0.479652  1
  O  O9  1  0.776775  0.785443  0.021573  1
  O  O10  1  0.219406  0.222657  0.520944  1
  O  O11  1  0.285877  0.722903  0.977996  1
  O  O12  1  0.277135  0.719501  0.520348  1
  O  O13  1  0.223225  0.214557  0.978427  1
  O  O14  1  0.780594  0.777343  0.479056  1
  O  O15  1  0.714123  0.277097  0.022004  1
  O  O16  1  0.042409  0.494557  0.254421  1
  O  O17  1  0.458746  0.994286  0.248743  1
  O  O18  1  0.541254  0.005714  0.751257  1
  O  O19  1  0.957591  0.505443  0.745579  1
