# generated using pymatgen
data_HoLuB6MoW
_symmetry_space_group_name_H-M   'P 1'
_cell_length_a   3.15250300
_cell_length_b   5.41297250
_cell_length_c   6.79013093
_cell_angle_alpha   78.41258565
_cell_angle_beta   90.00000000
_cell_angle_gamma   90.00000000
_symmetry_Int_Tables_number   1
_chemical_formula_structural   HoLuB6MoW
_chemical_formula_sum   'Ho1 Lu1 B6 Mo1 W1'
_cell_volume   113.50809970
_cell_formula_units_Z   1
loop_
 _symmetry_equiv_pos_site_id
 _symmetry_equiv_pos_as_xyz
  1  'x, y, z'
loop_
 _atom_site_type_symbol
 _atom_site_label
 _atom_site_symmetry_multiplicity
 _atom_site_fract_x
 _atom_site_fract_y
 _atom_site_fract_z
 _atom_site_occupancy
  Ho  Ho0  1  0.750000  0.675080  0.292989  1
  Lu  Lu1  1  0.250000  0.319949  0.712441  1
  B  B2  1  0.250000  0.921747  0.524598  1
  B  B3  1  0.750000  0.087243  0.477735  1
  B  B4  1  0.250000  0.912149  0.003338  1
  B  B5  1  0.750000  0.087049  0.993734  1
  B  B6  1  0.250000  0.582538  0.005716  1
  B  B7  1  0.750000  0.415721  0.990787  1
  Mo  Mo8  1  0.250000  0.189037  0.220466  1
  W  W9  1  0.750000  0.809487  0.778194  1
