# generated using pymatgen
data_LiLa2Pr4Rh17
_symmetry_space_group_name_H-M   'P 1'
_cell_length_a   5.38119500
_cell_length_b   5.38119289
_cell_length_c   17.59416400
_cell_angle_alpha   90.00000000
_cell_angle_beta   90.00000000
_cell_angle_gamma   119.99999454
_symmetry_Int_Tables_number   1
_chemical_formula_structural   LiLa2Pr4Rh17
_chemical_formula_sum   'Li1 La2 Pr4 Rh17'
_cell_volume   441.22141284
_cell_formula_units_Z   1
loop_
 _symmetry_equiv_pos_site_id
 _symmetry_equiv_pos_as_xyz
  1  'x, y, z'
loop_
 _atom_site_type_symbol
 _atom_site_label
 _atom_site_symmetry_multiplicity
 _atom_site_fract_x
 _atom_site_fract_y
 _atom_site_fract_z
 _atom_site_occupancy
  Li  Li0  1  0.000000  0.000000  0.250000  1
  La  La1  1  0.333333  0.666667  0.750000  1
  La  La2  1  0.666667  0.333333  0.250000  1
  Pr  Pr3  1  0.333333  0.666667  0.538479  1
  Pr  Pr4  1  0.666667  0.333333  0.043963  1
  Pr  Pr5  1  0.666667  0.333333  0.456037  1
  Pr  Pr6  1  0.333333  0.666667  0.961521  1
  Rh  Rh7  1  0.166499  0.332997  0.128203  1
  Rh  Rh8  1  0.833100  0.666198  0.626305  1
  Rh  Rh9  1  0.667003  0.833501  0.128203  1
  Rh  Rh10  1  0.166499  0.833501  0.128203  1
  Rh  Rh11  1  0.833100  0.166900  0.626305  1
  Rh  Rh12  1  0.333802  0.166900  0.626305  1
  Rh  Rh13  1  0.833100  0.666198  0.873695  1
  Rh  Rh14  1  0.833100  0.166900  0.873695  1
  Rh  Rh15  1  0.333802  0.166900  0.873695  1
  Rh  Rh16  1  0.667003  0.833501  0.371797  1
  Rh  Rh17  1  0.166499  0.833501  0.371797  1
  Rh  Rh18  1  0.166499  0.332997  0.371797  1
  Rh  Rh19  1  0.000000  0.000000  0.750000  1
  Rh  Rh20  1  0.333333  0.666667  0.250000  1
  Rh  Rh21  1  0.666667  0.333333  0.750000  1
  Rh  Rh22  1  0.000000  0.000000  0.001862  1
  Rh  Rh23  1  0.000000  0.000000  0.498138  1
