# generated using pymatgen
data_MnCo7PbO16
_symmetry_space_group_name_H-M   'P 1'
_cell_length_a   5.71747007
_cell_length_b   6.81849527
_cell_length_c   6.97659435
_cell_angle_alpha   89.72533248
_cell_angle_beta   78.26374886
_cell_angle_gamma   77.85440354
_symmetry_Int_Tables_number   1
_chemical_formula_structural   MnCo7PbO16
_chemical_formula_sum   'Mn1 Co7 Pb1 O16'
_cell_volume   260.12748234
_cell_formula_units_Z   1
loop_
 _symmetry_equiv_pos_site_id
 _symmetry_equiv_pos_as_xyz
  1  'x, y, z'
loop_
 _atom_site_type_symbol
 _atom_site_label
 _atom_site_symmetry_multiplicity
 _atom_site_fract_x
 _atom_site_fract_y
 _atom_site_fract_z
 _atom_site_occupancy
  Mn  Mn0  1  0.581906  0.512489  0.177452  1
  Co  Co1  1  0.083074  0.509437  0.180925  1
  Co  Co2  1  0.169464  0.816810  0.523302  1
  Co  Co3  1  0.668034  0.816312  0.528220  1
  Co  Co4  1  0.337808  0.183137  0.479314  1
  Co  Co5  1  0.836943  0.182357  0.486419  1
  Co  Co6  1  0.428562  0.487450  0.812558  1
  Co  Co7  1  0.930023  0.490548  0.812055  1
  Pb  Pb8  1  0.993600  0.006366  0.022188  1
  O  O9  1  0.834449  0.651031  0.051708  1
  O  O10  1  0.324248  0.650455  0.051517  1
  O  O11  1  0.982626  0.693844  0.388315  1
  O  O12  1  0.482583  0.695867  0.395230  1
  O  O13  1  0.854255  0.960740  0.653192  1
  O  O14  1  0.347657  0.964156  0.650533  1
  O  O15  1  0.344165  0.360992  0.272880  1
  O  O16  1  0.849254  0.353206  0.270187  1
  O  O17  1  0.166930  0.636931  0.717013  1
  O  O18  1  0.666116  0.633541  0.715916  1
  O  O19  1  0.151836  0.034430  0.357113  1
  O  O20  1  0.660094  0.033481  0.358585  1
  O  O21  1  0.025634  0.310165  0.609610  1
  O  O22  1  0.523679  0.309744  0.607249  1
  O  O23  1  0.177945  0.355410  0.941496  1
  O  O24  1  0.686213  0.351099  0.937018  1
