# generated using pymatgen
data_Pr8CdInRu2
_symmetry_space_group_name_H-M   'P 1'
_cell_length_a   9.99279964
_cell_length_b   9.99280008
_cell_length_c   10.03865000
_cell_angle_alpha   59.84810399
_cell_angle_beta   59.84810252
_cell_angle_gamma   59.72744609
_symmetry_Int_Tables_number   1
_chemical_formula_structural   Pr8CdInRu2
_chemical_formula_sum   'Pr16 Cd2 In2 Ru4'
_cell_volume   705.72469056
_cell_formula_units_Z   2
loop_
 _symmetry_equiv_pos_site_id
 _symmetry_equiv_pos_as_xyz
  1  'x, y, z'
loop_
 _atom_site_type_symbol
 _atom_site_label
 _atom_site_symmetry_multiplicity
 _atom_site_fract_x
 _atom_site_fract_y
 _atom_site_fract_z
 _atom_site_occupancy
  Pr  Pr0  1  0.346799  0.346799  0.347537  1
  Pr  Pr1  1  0.346799  0.346799  0.958864  1
  Pr  Pr2  1  0.347500  0.957901  0.347299  1
  Pr  Pr3  1  0.957901  0.347500  0.347299  1
  Pr  Pr4  1  0.808519  0.191365  0.191434  1
  Pr  Pr5  1  0.191365  0.808519  0.808682  1
  Pr  Pr6  1  0.191365  0.808519  0.191434  1
  Pr  Pr7  1  0.808519  0.191365  0.808682  1
  Pr  Pr8  1  0.189856  0.189856  0.810144  1
  Pr  Pr9  1  0.807330  0.807330  0.192670  1
  Pr  Pr10  1  0.941511  0.560240  0.559622  1
  Pr  Pr11  1  0.560240  0.941511  0.938627  1
  Pr  Pr12  1  0.560240  0.941511  0.559622  1
  Pr  Pr13  1  0.941511  0.560240  0.938627  1
  Pr  Pr14  1  0.560723  0.560723  0.939277  1
  Pr  Pr15  1  0.941547  0.941547  0.558453  1
  Cd  Cd16  1  0.578313  0.260896  0.580395  1
  Cd  Cd17  1  0.260896  0.578313  0.580395  1
  In  In18  1  0.579651  0.579651  0.581174  1
  In  In19  1  0.579651  0.579651  0.259523  1
  Ru  Ru20  1  0.137945  0.137945  0.137724  1
  Ru  Ru21  1  0.137945  0.137945  0.586385  1
  Ru  Ru22  1  0.138891  0.584982  0.138064  1
  Ru  Ru23  1  0.584982  0.138891  0.138064  1
