# generated using pymatgen
data_LuPaAl3Tc
_symmetry_space_group_name_H-M   'P 1'
_cell_length_a   5.36403700
_cell_length_b   5.36403821
_cell_length_c   9.07902000
_cell_angle_alpha   90.00000000
_cell_angle_beta   90.00000000
_cell_angle_gamma   119.99998634
_symmetry_Int_Tables_number   1
_chemical_formula_structural   LuPaAl3Tc
_chemical_formula_sum   'Lu2 Pa2 Al6 Tc2'
_cell_volume   226.23161318
_cell_formula_units_Z   2
loop_
 _symmetry_equiv_pos_site_id
 _symmetry_equiv_pos_as_xyz
  1  'x, y, z'
loop_
 _atom_site_type_symbol
 _atom_site_label
 _atom_site_symmetry_multiplicity
 _atom_site_fract_x
 _atom_site_fract_y
 _atom_site_fract_z
 _atom_site_occupancy
  Lu  Lu0  1  0.666667  0.333333  0.938584  1
  Lu  Lu1  1  0.333333  0.666667  0.061416  1
  Pa  Pa2  1  0.333333  0.666667  0.466129  1
  Pa  Pa3  1  0.666667  0.333333  0.533871  1
  Al  Al4  1  0.835457  0.164543  0.243963  1
  Al  Al5  1  0.835457  0.670914  0.243963  1
  Al  Al6  1  0.329086  0.164543  0.243963  1
  Al  Al7  1  0.164543  0.835457  0.756037  1
  Al  Al8  1  0.164543  0.329086  0.756037  1
  Al  Al9  1  0.670914  0.835457  0.756037  1
  Tc  Tc10  1  0.000000  0.000000  0.500000  1
  Tc  Tc11  1  0.000000  0.000000  0.000000  1
