# generated using pymatgen
data_Tc6IrPt
_symmetry_space_group_name_H-M   'P 1'
_cell_length_a   5.55887100
_cell_length_b   5.55887205
_cell_length_c   4.36971800
_cell_angle_alpha   90.00000000
_cell_angle_beta   90.00000000
_cell_angle_gamma   119.99998782
_symmetry_Int_Tables_number   1
_chemical_formula_structural   Tc6IrPt
_chemical_formula_sum   'Tc6 Ir1 Pt1'
_cell_volume   116.93845973
_cell_formula_units_Z   1
loop_
 _symmetry_equiv_pos_site_id
 _symmetry_equiv_pos_as_xyz
  1  'x, y, z'
loop_
 _atom_site_type_symbol
 _atom_site_label
 _atom_site_symmetry_multiplicity
 _atom_site_fract_x
 _atom_site_fract_y
 _atom_site_fract_z
 _atom_site_occupancy
  Tc  Tc0  1  0.840375  0.159625  0.750000  1
  Tc  Tc1  1  0.319251  0.159625  0.750000  1
  Tc  Tc2  1  0.840375  0.680749  0.750000  1
  Tc  Tc3  1  0.160193  0.839807  0.250000  1
  Tc  Tc4  1  0.679613  0.839807  0.250000  1
  Tc  Tc5  1  0.160193  0.320387  0.250000  1
  Ir  Ir6  1  0.333333  0.666667  0.750000  1
  Pt  Pt7  1  0.666667  0.333333  0.250000  1
