# generated using pymatgen
data_Tm9Lu(In3Hg)2
_symmetry_space_group_name_H-M   'P 1'
_cell_length_a   9.13936600
_cell_length_b   9.13936675
_cell_length_c   6.62805600
_cell_angle_alpha   90.00000000
_cell_angle_beta   90.00000000
_cell_angle_gamma   119.99999727
_symmetry_Int_Tables_number   1
_chemical_formula_structural   Tm9Lu(In3Hg)2
_chemical_formula_sum   'Tm9 Lu1 In6 Hg2'
_cell_volume   479.45625391
_cell_formula_units_Z   1
loop_
 _symmetry_equiv_pos_site_id
 _symmetry_equiv_pos_as_xyz
  1  'x, y, z'
loop_
 _atom_site_type_symbol
 _atom_site_label
 _atom_site_symmetry_multiplicity
 _atom_site_fract_x
 _atom_site_fract_y
 _atom_site_fract_z
 _atom_site_occupancy
  Tm  Tm0  1  0.333333  0.666667  0.500000  1
  Tm  Tm1  1  0.666667  0.333333  0.500000  1
  Tm  Tm2  1  0.666667  0.333333  0.000000  1
  Tm  Tm3  1  0.288000  0.999941  0.750050  1
  Tm  Tm4  1  0.711941  0.999941  0.249950  1
  Tm  Tm5  1  0.000059  0.288059  0.750050  1
  Tm  Tm6  1  0.000059  0.712000  0.249950  1
  Tm  Tm7  1  0.711941  0.712000  0.750050  1
  Tm  Tm8  1  0.288000  0.288059  0.249950  1
  Lu  Lu9  1  0.333333  0.666667  0.000000  1
  In  In10  1  0.625537  0.999933  0.750013  1
  In  In11  1  0.374396  0.999933  0.249987  1
  In  In12  1  0.000067  0.625604  0.750013  1
  In  In13  1  0.000067  0.374463  0.249987  1
  In  In14  1  0.374396  0.374463  0.750013  1
  In  In15  1  0.625537  0.625604  0.249987  1
  Hg  Hg16  1  0.000000  0.000000  0.500000  1
  Hg  Hg17  1  0.000000  0.000000  0.000000  1
