# generated using pymatgen
data_Nd8Sc12GaSi15
_symmetry_space_group_name_H-M   'P 1'
_cell_length_a   7.23307685
_cell_length_b   7.51320949
_cell_length_c   14.24849530
_cell_angle_alpha   89.95270395
_cell_angle_beta   89.95670436
_cell_angle_gamma   90.04526777
_symmetry_Int_Tables_number   1
_chemical_formula_structural   Nd8Sc12GaSi15
_chemical_formula_sum   'Nd8 Sc12 Ga1 Si15'
_cell_volume   774.31411117
_cell_formula_units_Z   1
loop_
 _symmetry_equiv_pos_site_id
 _symmetry_equiv_pos_as_xyz
  1  'x, y, z'
loop_
 _atom_site_type_symbol
 _atom_site_label
 _atom_site_symmetry_multiplicity
 _atom_site_fract_x
 _atom_site_fract_y
 _atom_site_fract_z
 _atom_site_occupancy
  Nd  Nd0  1  0.011579  0.172990  0.097484  1
  Nd  Nd1  1  0.988193  0.827517  0.903146  1
  Nd  Nd2  1  0.488053  0.673303  0.902932  1
  Nd  Nd3  1  0.987826  0.828667  0.597940  1
  Nd  Nd4  1  0.511685  0.326806  0.097194  1
  Nd  Nd5  1  0.010466  0.171690  0.401126  1
  Nd  Nd6  1  0.512810  0.325937  0.400722  1
  Nd  Nd7  1  0.490202  0.676034  0.598337  1
  Sc  Sc8  1  0.160483  0.499232  0.752266  1
  Sc  Sc9  1  0.839682  0.500977  0.249662  1
  Sc  Sc10  1  0.339566  0.998726  0.249287  1
  Sc  Sc11  1  0.661414  0.000028  0.750517  1
  Sc  Sc12  1  0.333479  0.173256  0.626868  1
  Sc  Sc13  1  0.667954  0.824198  0.373817  1
  Sc  Sc14  1  0.169573  0.676821  0.372747  1
  Sc  Sc15  1  0.669873  0.824333  0.125305  1
  Sc  Sc16  1  0.828031  0.324185  0.625996  1
  Sc  Sc17  1  0.330082  0.175156  0.874844  1
  Sc  Sc18  1  0.830255  0.323913  0.874929  1
  Sc  Sc19  1  0.168805  0.675858  0.125572  1
  Ga  Ga20  1  0.156908  0.459906  0.539373  1
  Si  Si21  1  0.034887  0.124473  0.750820  1
  Si  Si22  1  0.964737  0.876814  0.249473  1
  Si  Si23  1  0.465914  0.622904  0.249449  1
  Si  Si24  1  0.533721  0.378192  0.750231  1
  Si  Si25  1  0.287016  0.880474  0.750676  1
  Si  Si26  1  0.711899  0.119089  0.249175  1
  Si  Si27  1  0.211977  0.380374  0.249408  1
  Si  Si28  1  0.788236  0.619172  0.751019  1
  Si  Si29  1  0.845659  0.538764  0.459963  1
  Si  Si30  1  0.346689  0.962485  0.459987  1
  Si  Si31  1  0.847298  0.536879  0.039239  1
  Si  Si32  1  0.652772  0.037883  0.538937  1
  Si  Si33  1  0.152585  0.462874  0.961273  1
  Si  Si34  1  0.652505  0.037137  0.960529  1
  Si  Si35  1  0.347185  0.962953  0.039760  1
