# generated using pymatgen
data_K3P2Pd7
_symmetry_space_group_name_H-M   'P 1'
_cell_length_a   8.48809182
_cell_length_b   8.48809298
_cell_length_c   8.48809362
_cell_angle_alpha   42.60607193
_cell_angle_beta   42.60607501
_cell_angle_gamma   42.60606674
_symmetry_Int_Tables_number   1
_chemical_formula_structural   K3P2Pd7
_chemical_formula_sum   'K3 P2 Pd7'
_cell_volume   253.81732008
_cell_formula_units_Z   1
loop_
 _symmetry_equiv_pos_site_id
 _symmetry_equiv_pos_as_xyz
  1  'x, y, z'
loop_
 _atom_site_type_symbol
 _atom_site_label
 _atom_site_symmetry_multiplicity
 _atom_site_fract_x
 _atom_site_fract_y
 _atom_site_fract_z
 _atom_site_occupancy
  K  K0  1  0.357126  0.357126  0.357126  1
  K  K1  1  0.500000  0.500000  0.500000  1
  K  K2  1  0.642874  0.642874  0.642874  1
  P  P3  1  0.172006  0.172006  0.172006  1
  P  P4  1  0.827994  0.827994  0.827994  1
  Pd  Pd5  1  0.000000  0.000000  0.000000  1
  Pd  Pd6  1  0.578884  0.057302  0.057302  1
  Pd  Pd7  1  0.057302  0.578884  0.057302  1
  Pd  Pd8  1  0.942698  0.942698  0.421116  1
  Pd  Pd9  1  0.057302  0.057302  0.578884  1
  Pd  Pd10  1  0.942698  0.421116  0.942698  1
  Pd  Pd11  1  0.421116  0.942698  0.942698  1
