# generated using pymatgen
data_Hf18VRe7AsP
_symmetry_space_group_name_H-M   'P 1'
_cell_length_a   8.59127100
_cell_length_b   8.59127217
_cell_length_c   8.58720100
_cell_angle_alpha   90.00000000
_cell_angle_beta   90.00000000
_cell_angle_gamma   119.99999934
_symmetry_Int_Tables_number   1
_chemical_formula_structural   Hf18VRe7AsP
_chemical_formula_sum   'Hf18 V1 Re7 As1 P1'
_cell_volume   548.90496516
_cell_formula_units_Z   1
loop_
 _symmetry_equiv_pos_site_id
 _symmetry_equiv_pos_as_xyz
  1  'x, y, z'
loop_
 _atom_site_type_symbol
 _atom_site_label
 _atom_site_symmetry_multiplicity
 _atom_site_fract_x
 _atom_site_fract_y
 _atom_site_fract_z
 _atom_site_occupancy
  Hf  Hf0  1  0.193127  0.806873  0.453588  1
  Hf  Hf1  1  0.193127  0.386251  0.453588  1
  Hf  Hf2  1  0.613749  0.806873  0.453588  1
  Hf  Hf3  1  0.804210  0.195790  0.548880  1
  Hf  Hf4  1  0.804210  0.608422  0.548880  1
  Hf  Hf5  1  0.391578  0.195790  0.548880  1
  Hf  Hf6  1  0.804245  0.195755  0.950450  1
  Hf  Hf7  1  0.804245  0.608493  0.950450  1
  Hf  Hf8  1  0.391507  0.195755  0.950450  1
  Hf  Hf9  1  0.192829  0.807171  0.046702  1
  Hf  Hf10  1  0.192829  0.385656  0.046702  1
  Hf  Hf11  1  0.614344  0.807171  0.046702  1
  Hf  Hf12  1  0.540778  0.459222  0.248858  1
  Hf  Hf13  1  0.540778  0.081557  0.248858  1
  Hf  Hf14  1  0.918443  0.459222  0.248858  1
  Hf  Hf15  1  0.460112  0.539888  0.751086  1
  Hf  Hf16  1  0.460112  0.920224  0.751086  1
  Hf  Hf17  1  0.079776  0.539888  0.751086  1
  V  V18  1  0.000000  0.000000  0.500329  1
  Re  Re19  1  0.890676  0.109324  0.254294  1
  Re  Re20  1  0.890676  0.781351  0.254294  1
  Re  Re21  1  0.218649  0.109324  0.254294  1
  Re  Re22  1  0.109033  0.890967  0.746036  1
  Re  Re23  1  0.109033  0.218066  0.746036  1
  Re  Re24  1  0.781934  0.890967  0.746036  1
  Re  Re25  1  0.000000  0.000000  0.000308  1
  As  As26  1  0.333333  0.666667  0.249634  1
  P  P27  1  0.666667  0.333333  0.750050  1
