# generated using pymatgen
data_Tb3Th(AlRh)4
_symmetry_space_group_name_H-M   'P 1'
_cell_length_a   4.23385600
_cell_length_b   6.94607698
_cell_length_c   8.04623824
_cell_angle_alpha   90.08251215
_cell_angle_beta   90.00000000
_cell_angle_gamma   90.00000000
_symmetry_Int_Tables_number   1
_chemical_formula_structural   Tb3Th(AlRh)4
_chemical_formula_sum   'Tb3 Th1 Al4 Rh4'
_cell_volume   236.62907818
_cell_formula_units_Z   1
loop_
 _symmetry_equiv_pos_site_id
 _symmetry_equiv_pos_as_xyz
  1  'x, y, z'
loop_
 _atom_site_type_symbol
 _atom_site_label
 _atom_site_symmetry_multiplicity
 _atom_site_fract_x
 _atom_site_fract_y
 _atom_site_fract_z
 _atom_site_occupancy
  Tb  Tb0  1  0.750000  0.458046  0.814313  1
  Tb  Tb1  1  0.750000  0.958623  0.680080  1
  Tb  Tb2  1  0.250000  0.040380  0.322320  1
  Th  Th3  1  0.250000  0.539459  0.176518  1
  Al  Al4  1  0.250000  0.632782  0.564522  1
  Al  Al5  1  0.750000  0.361232  0.443877  1
  Al  Al6  1  0.750000  0.876854  0.058045  1
  Al  Al7  1  0.250000  0.131529  0.937095  1
  Rh  Rh8  1  0.250000  0.760705  0.883549  1
  Rh  Rh9  1  0.750000  0.245208  0.122788  1
  Rh  Rh10  1  0.750000  0.734231  0.376167  1
  Rh  Rh11  1  0.250000  0.260952  0.620726  1
