# generated using pymatgen
data_Ta12Ga8BPd4C3
_symmetry_space_group_name_H-M   'P 1'
_cell_length_a   8.35263876
_cell_length_b   8.38007943
_cell_length_c   8.35263700
_cell_angle_alpha   60.10825609
_cell_angle_beta   59.99999510
_cell_angle_gamma   60.10825771
_symmetry_Int_Tables_number   1
_chemical_formula_structural   Ta12Ga8BPd4C3
_chemical_formula_sum   'Ta12 Ga8 B1 Pd4 C3'
_cell_volume   414.08464879
_cell_formula_units_Z   1
loop_
 _symmetry_equiv_pos_site_id
 _symmetry_equiv_pos_as_xyz
  1  'x, y, z'
loop_
 _atom_site_type_symbol
 _atom_site_label
 _atom_site_symmetry_multiplicity
 _atom_site_fract_x
 _atom_site_fract_y
 _atom_site_fract_z
 _atom_site_occupancy
  Ta  Ta0  1  0.566130  0.930672  0.566130  1
  Ta  Ta1  1  0.317688  0.681949  0.682676  1
  Ta  Ta2  1  0.683870  0.319328  0.312934  1
  Ta  Ta3  1  0.317688  0.681949  0.317688  1
  Ta  Ta4  1  0.682676  0.681949  0.317688  1
  Ta  Ta5  1  0.312934  0.319328  0.683870  1
  Ta  Ta6  1  0.567324  0.568051  0.932312  1
  Ta  Ta7  1  0.932312  0.568051  0.567324  1
  Ta  Ta8  1  0.566130  0.930672  0.937066  1
  Ta  Ta9  1  0.937066  0.930672  0.566130  1
  Ta  Ta10  1  0.683870  0.319328  0.683870  1
  Ta  Ta11  1  0.932312  0.568051  0.932312  1
  Ga  Ga12  1  0.913602  0.914187  0.913602  1
  Ga  Ga13  1  0.991390  0.335813  0.336398  1
  Ga  Ga14  1  0.335964  0.992107  0.335964  1
  Ga  Ga15  1  0.336398  0.335813  0.991390  1
  Ga  Ga16  1  0.914036  0.257893  0.914036  1
  Ga  Ga17  1  0.913602  0.914187  0.258610  1
  Ga  Ga18  1  0.258610  0.914187  0.913602  1
  Ga  Ga19  1  0.336398  0.335813  0.336398  1
  B  B20  1  0.625000  0.125000  0.625000  1
  Pd  Pd21  1  0.125000  0.125000  0.125000  1
  Pd  Pd22  1  0.625000  0.125000  0.125000  1
  Pd  Pd23  1  0.125000  0.625000  0.125000  1
  Pd  Pd24  1  0.125000  0.125000  0.625000  1
  C  C25  1  0.625000  0.625000  0.625000  1
  C  C26  1  0.125000  0.625000  0.625000  1
  C  C27  1  0.625000  0.625000  0.125000  1
