# generated using pymatgen
data_LuCrF7
_symmetry_space_group_name_H-M   'P 1'
_cell_length_a   5.47692400
_cell_length_b   5.74840189
_cell_length_c   8.00043537
_cell_angle_alpha   103.34225244
_cell_angle_beta   90.00000000
_cell_angle_gamma   90.00000000
_symmetry_Int_Tables_number   1
_chemical_formula_structural   LuCrF7
_chemical_formula_sum   'Lu2 Cr2 F14'
_cell_volume   245.08362683
_cell_formula_units_Z   2
loop_
 _symmetry_equiv_pos_site_id
 _symmetry_equiv_pos_as_xyz
  1  'x, y, z'
loop_
 _atom_site_type_symbol
 _atom_site_label
 _atom_site_symmetry_multiplicity
 _atom_site_fract_x
 _atom_site_fract_y
 _atom_site_fract_z
 _atom_site_occupancy
  Lu  Lu0  1  0.698993  0.652872  0.691199  1
  Lu  Lu1  1  0.198993  0.347128  0.308801  1
  Cr  Cr2  1  0.708763  0.815046  0.224176  1
  Cr  Cr3  1  0.208763  0.184954  0.775824  1
  F  F4  1  0.901230  0.454264  0.484145  1
  F  F5  1  0.401230  0.545736  0.515855  1
  F  F6  1  0.422944  0.934262  0.769693  1
  F  F7  1  0.922944  0.065738  0.230307  1
  F  F8  1  0.945913  0.960605  0.759507  1
  F  F9  1  0.445913  0.039395  0.240493  1
  F  F10  1  0.999581  0.440947  0.793059  1
  F  F11  1  0.499581  0.559053  0.206941  1
  F  F12  1  0.702991  0.765547  0.988284  1
  F  F13  1  0.202991  0.234453  0.011716  1
  F  F14  1  0.709208  0.870772  0.457929  1
  F  F15  1  0.209208  0.129228  0.542071  1
  F  F16  1  0.486738  0.388684  0.789937  1
  F  F17  1  0.986738  0.611316  0.210063  1
