# generated using pymatgen
data_YLu15(In3Fe)2
_symmetry_space_group_name_H-M   'P 1'
_cell_length_a   10.15975400
_cell_length_b   10.15975445
_cell_length_c   6.90927000
_cell_angle_alpha   90.00000000
_cell_angle_beta   90.00000000
_cell_angle_gamma   120.00000505
_symmetry_Int_Tables_number   1
_chemical_formula_structural   YLu15(In3Fe)2
_chemical_formula_sum   'Y1 Lu15 In6 Fe2'
_cell_volume   617.63113088
_cell_formula_units_Z   1
loop_
 _symmetry_equiv_pos_site_id
 _symmetry_equiv_pos_as_xyz
  1  'x, y, z'
loop_
 _atom_site_type_symbol
 _atom_site_label
 _atom_site_symmetry_multiplicity
 _atom_site_fract_x
 _atom_site_fract_y
 _atom_site_fract_z
 _atom_site_occupancy
  Y  Y0  1  0.000000  0.000000  0.994893  1
  Lu  Lu1  1  0.465083  0.534917  0.481078  1
  Lu  Lu2  1  0.069833  0.534917  0.481078  1
  Lu  Lu3  1  0.465083  0.930167  0.481078  1
  Lu  Lu4  1  0.535054  0.464946  0.981453  1
  Lu  Lu5  1  0.929891  0.464946  0.981453  1
  Lu  Lu6  1  0.535054  0.070109  0.981453  1
  Lu  Lu7  1  0.820217  0.179783  0.278198  1
  Lu  Lu8  1  0.359565  0.179783  0.278198  1
  Lu  Lu9  1  0.820217  0.640435  0.278198  1
  Lu  Lu10  1  0.179976  0.820024  0.776010  1
  Lu  Lu11  1  0.640048  0.820024  0.776010  1
  Lu  Lu12  1  0.179976  0.359952  0.776010  1
  Lu  Lu13  1  0.333333  0.666667  0.091919  1
  Lu  Lu14  1  0.666667  0.333333  0.591106  1
  Lu  Lu15  1  0.000000  0.000000  0.495837  1
  In  In16  1  0.163067  0.836933  0.235827  1
  In  In17  1  0.673865  0.836933  0.235827  1
  In  In18  1  0.163067  0.326135  0.235827  1
  In  In19  1  0.837090  0.162910  0.734145  1
  In  In20  1  0.325819  0.162910  0.734145  1
  In  In21  1  0.837090  0.674181  0.734145  1
  Fe  Fe22  1  0.333333  0.666667  0.705509  1
  Fe  Fe23  1  0.666667  0.333333  0.205152  1
