# generated using pymatgen
data_YbEuH9W
_symmetry_space_group_name_H-M   'P 1'
_cell_length_a   8.68388900
_cell_length_b   8.68388797
_cell_length_c   5.06173800
_cell_angle_alpha   90.00000000
_cell_angle_beta   90.00000000
_cell_angle_gamma   120.00000773
_symmetry_Int_Tables_number   1
_chemical_formula_structural   YbEuH9W
_chemical_formula_sum   'Yb3 Eu3 H27 W3'
_cell_volume   330.56642071
_cell_formula_units_Z   3
loop_
 _symmetry_equiv_pos_site_id
 _symmetry_equiv_pos_as_xyz
  1  'x, y, z'
loop_
 _atom_site_type_symbol
 _atom_site_label
 _atom_site_symmetry_multiplicity
 _atom_site_fract_x
 _atom_site_fract_y
 _atom_site_fract_z
 _atom_site_occupancy
  Yb  Yb0  1  0.000000  0.264229  0.500000  1
  Yb  Yb1  1  0.735771  0.735771  0.500000  1
  Yb  Yb2  1  0.264229  0.000000  0.500000  1
  Eu  Eu3  1  0.000000  0.609918  0.000000  1
  Eu  Eu4  1  0.390082  0.390082  0.000000  1
  Eu  Eu5  1  0.609918  0.000000  0.000000  1
  H  H6  1  0.812469  0.331703  0.754627  1
  H  H7  1  0.668297  0.480765  0.754627  1
  H  H8  1  0.519235  0.187531  0.754627  1
  H  H9  1  0.187531  0.519235  0.245373  1
  H  H10  1  0.519235  0.187531  0.245373  1
  H  H11  1  0.812469  0.331703  0.245373  1
  H  H12  1  0.668297  0.480765  0.245373  1
  H  H13  1  0.331703  0.812469  0.754627  1
  H  H14  1  0.480765  0.668297  0.754627  1
  H  H15  1  0.210040  0.000000  0.000000  1
  H  H16  1  0.789960  0.789960  0.000000  1
  H  H17  1  0.000000  0.210040  0.000000  1
  H  H18  1  0.851807  0.000000  0.256175  1
  H  H19  1  0.148193  0.148193  0.743825  1
  H  H20  1  0.000000  0.851807  0.743825  1
  H  H21  1  0.000000  0.851807  0.256175  1
  H  H22  1  0.148193  0.148193  0.256175  1
  H  H23  1  0.851807  0.000000  0.743825  1
  H  H24  1  0.133183  0.677295  0.500000  1
  H  H25  1  0.544112  0.866817  0.500000  1
  H  H26  1  0.322705  0.455888  0.500000  1
  H  H27  1  0.455888  0.322705  0.500000  1
  H  H28  1  0.866817  0.544112  0.500000  1
  H  H29  1  0.677295  0.133183  0.500000  1
  H  H30  1  0.187531  0.519235  0.754627  1
  H  H31  1  0.331703  0.812469  0.245373  1
  H  H32  1  0.480765  0.668297  0.245373  1
  W  W33  1  0.666667  0.333333  0.500000  1
  W  W34  1  0.333333  0.666667  0.500000  1
  W  W35  1  0.000000  0.000000  0.000000  1
