# generated using pymatgen
data_Ta2TiSi2RhC
_symmetry_space_group_name_H-M   'P 1'
_cell_length_a   8.14498501
_cell_length_b   8.16462069
_cell_length_c   8.14874600
_cell_angle_alpha   60.06429701
_cell_angle_beta   59.98472408
_cell_angle_gamma   59.92232569
_symmetry_Int_Tables_number   1
_chemical_formula_structural   Ta2TiSi2RhC
_chemical_formula_sum   'Ta8 Ti4 Si8 Rh4 C4'
_cell_volume   383.09517711
_cell_formula_units_Z   4
loop_
 _symmetry_equiv_pos_site_id
 _symmetry_equiv_pos_as_xyz
  1  'x, y, z'
loop_
 _atom_site_type_symbol
 _atom_site_label
 _atom_site_symmetry_multiplicity
 _atom_site_fract_x
 _atom_site_fract_y
 _atom_site_fract_z
 _atom_site_occupancy
  Ta  Ta0  1  0.937293  0.933584  0.564561  1
  Ta  Ta1  1  0.687235  0.314836  0.312506  1
  Ta  Ta2  1  0.312835  0.685623  0.686295  1
  Ta  Ta3  1  0.685907  0.683648  0.315222  1
  Ta  Ta4  1  0.687235  0.314836  0.685424  1
  Ta  Ta5  1  0.312835  0.685623  0.315247  1
  Ta  Ta6  1  0.564199  0.934305  0.565045  1
  Ta  Ta7  1  0.564199  0.934305  0.936451  1
  Ti  Ti8  1  0.935511  0.565985  0.564532  1
  Ti  Ti9  1  0.935511  0.565985  0.933972  1
  Ti  Ti10  1  0.313145  0.318010  0.684422  1
  Ti  Ti11  1  0.563742  0.565998  0.935130  1
  Si  Si12  1  0.911775  0.266561  0.910833  1
  Si  Si13  1  0.335681  0.337328  0.988925  1
  Si  Si14  1  0.992901  0.336423  0.335337  1
  Si  Si15  1  0.335681  0.337328  0.338065  1
  Si  Si16  1  0.259678  0.911785  0.914269  1
  Si  Si17  1  0.914153  0.911055  0.913240  1
  Si  Si18  1  0.914153  0.911055  0.261554  1
  Si  Si19  1  0.336643  0.989444  0.336956  1
  Rh  Rh20  1  0.124998  0.626116  0.124443  1
  Rh  Rh21  1  0.125000  0.126787  0.626211  1
  Rh  Rh22  1  0.625732  0.125833  0.124218  1
  Rh  Rh23  1  0.125000  0.126787  0.122003  1
  C  C24  1  0.619615  0.128553  0.625916  1
  C  C25  1  0.628450  0.622117  0.119666  1
  C  C26  1  0.122443  0.617976  0.629790  1
  C  C27  1  0.628450  0.622117  0.629767  1
