# generated using pymatgen
data_Hf3Cr2P3Ir
_symmetry_space_group_name_H-M   'P 1'
_cell_length_a   6.56171408
_cell_length_b   6.55631529
_cell_length_c   3.53587800
_cell_angle_alpha   90.00000000
_cell_angle_beta   90.00000000
_cell_angle_gamma   119.97278883
_symmetry_Int_Tables_number   1
_chemical_formula_structural   Hf3Cr2P3Ir
_chemical_formula_sum   'Hf3 Cr2 P3 Ir1'
_cell_volume   131.77227816
_cell_formula_units_Z   1
loop_
 _symmetry_equiv_pos_site_id
 _symmetry_equiv_pos_as_xyz
  1  'x, y, z'
loop_
 _atom_site_type_symbol
 _atom_site_label
 _atom_site_symmetry_multiplicity
 _atom_site_fract_x
 _atom_site_fract_y
 _atom_site_fract_z
 _atom_site_occupancy
  Hf  Hf0  1  0.000000  0.591930  0.500000  1
  Hf  Hf1  1  0.412908  0.410994  0.500000  1
  Hf  Hf2  1  0.587092  0.998087  0.500000  1
  Cr  Cr3  1  0.247414  0.000768  0.000000  1
  Cr  Cr4  1  0.752586  0.753354  0.000000  1
  P  P5  1  0.660951  0.336091  0.000000  1
  P  P6  1  0.339049  0.675142  0.000000  1
  P  P7  1  0.000000  0.990989  0.500000  1
  Ir  Ir8  1  0.000000  0.242644  0.000000  1
