# generated using pymatgen
data_SmHo3Th6(Si3C)2
_symmetry_space_group_name_H-M   'P 1'
_cell_length_a   6.38159200
_cell_length_b   8.75812554
_cell_length_c   8.75848800
_cell_angle_alpha   119.99856326
_cell_angle_beta   89.99979246
_cell_angle_gamma   90.00008870
_symmetry_Int_Tables_number   1
_chemical_formula_structural   SmHo3Th6(Si3C)2
_chemical_formula_sum   'Sm1 Ho3 Th6 Si6 C2'
_cell_volume   423.94181929
_cell_formula_units_Z   1
loop_
 _symmetry_equiv_pos_site_id
 _symmetry_equiv_pos_as_xyz
  1  'x, y, z'
loop_
 _atom_site_type_symbol
 _atom_site_label
 _atom_site_symmetry_multiplicity
 _atom_site_fract_x
 _atom_site_fract_y
 _atom_site_fract_z
 _atom_site_occupancy
  Sm  Sm0  1  0.499999  0.333320  0.666662  1
  Ho  Ho1  1  0.499994  0.666666  0.333299  1
  Ho  Ho2  1  0.999998  0.666608  0.333236  1
  Ho  Ho3  1  0.999998  0.333425  0.666794  1
  Th  Th4  1  0.750684  0.233160  0.000158  1
  Th  Th5  1  0.750682  0.766988  0.766828  1
  Th  Th6  1  0.750695  0.999848  0.233018  1
  Th  Th7  1  0.249325  0.766999  0.000161  1
  Th  Th8  1  0.249314  0.233165  0.233014  1
  Th  Th9  1  0.249310  0.999839  0.766828  1
  Si  Si10  1  0.754091  0.599730  0.003506  1
  Si  Si11  1  0.754120  0.403780  0.400271  1
  Si  Si12  1  0.754129  0.996495  0.596224  1
  Si  Si13  1  0.245910  0.403772  0.003507  1
  Si  Si14  1  0.245884  0.599726  0.596219  1
  Si  Si15  1  0.245865  0.996492  0.400275  1
  C  C16  1  0.500002  0.999994  0.000001  1
  C  C17  1  0.000003  0.999997  0.000001  1
