# generated using pymatgen
data_Tb2Si13GeIr6
_symmetry_space_group_name_H-M   'P 1'
_cell_length_a   8.08532438
_cell_length_b   8.08070173
_cell_length_c   8.09382540
_cell_angle_alpha   56.35563813
_cell_angle_beta   56.55251568
_cell_angle_gamma   56.58251879
_symmetry_Int_Tables_number   1
_chemical_formula_structural   Tb2Si13GeIr6
_chemical_formula_sum   'Tb2 Si13 Ge1 Ir6'
_cell_volume   343.64522506
_cell_formula_units_Z   1
loop_
 _symmetry_equiv_pos_site_id
 _symmetry_equiv_pos_as_xyz
  1  'x, y, z'
loop_
 _atom_site_type_symbol
 _atom_site_label
 _atom_site_symmetry_multiplicity
 _atom_site_fract_x
 _atom_site_fract_y
 _atom_site_fract_z
 _atom_site_occupancy
  Tb  Tb0  1  0.498536  0.500625  0.500304  1
  Tb  Tb1  1  0.999276  0.000016  0.999549  1
  Si  Si2  1  0.670636  0.849431  0.067678  1
  Si  Si3  1  0.066430  0.669046  0.852114  1
  Si  Si4  1  0.650811  0.826605  0.434759  1
  Si  Si5  1  0.249378  0.250060  0.251423  1
  Si  Si6  1  0.749223  0.748279  0.749179  1
  Si  Si7  1  0.173290  0.562916  0.350199  1
  Si  Si8  1  0.563294  0.351346  0.172828  1
  Si  Si9  1  0.350763  0.172733  0.563003  1
  Si  Si10  1  0.936494  0.326571  0.148907  1
  Si  Si11  1  0.327067  0.150150  0.936699  1
  Si  Si12  1  0.152048  0.934873  0.324672  1
  Si  Si13  1  0.824128  0.440342  0.651934  1
  Si  Si14  1  0.435627  0.649503  0.828704  1
  Ge  Ge15  1  0.851411  0.070179  0.669009  1
  Ir  Ir16  1  0.749522  0.069296  0.425308  1
  Ir  Ir17  1  0.430110  0.749858  0.069691  1
  Ir  Ir18  1  0.070652  0.429047  0.749919  1
  Ir  Ir19  1  0.256959  0.926508  0.568018  1
  Ir  Ir20  1  0.564492  0.253724  0.934931  1
  Ir  Ir21  1  0.929854  0.568892  0.251170  1
