# generated using pymatgen
data_Pr12Ga(SiBr4)3
_symmetry_space_group_name_H-M   'P 1'
_cell_length_a   10.51327331
_cell_length_b   10.55189528
_cell_length_c   10.55189511
_cell_angle_alpha   109.54524725
_cell_angle_beta   109.39710233
_cell_angle_gamma   109.39708872
_symmetry_Int_Tables_number   1
_chemical_formula_structural   Pr12Ga(SiBr4)3
_chemical_formula_sum   'Pr12 Ga1 Si3 Br12'
_cell_volume   901.93130483
_cell_formula_units_Z   1
loop_
 _symmetry_equiv_pos_site_id
 _symmetry_equiv_pos_as_xyz
  1  'x, y, z'
loop_
 _atom_site_type_symbol
 _atom_site_label
 _atom_site_symmetry_multiplicity
 _atom_site_fract_x
 _atom_site_fract_y
 _atom_site_fract_z
 _atom_site_occupancy
  Pr  Pr0  1  0.479052  0.487222  0.241321  1
  Pr  Pr1  1  0.750000  0.238802  0.261198  1
  Pr  Pr2  1  0.750000  0.011906  0.488094  1
  Pr  Pr3  1  0.238094  0.476186  0.488094  1
  Pr  Pr4  1  0.262267  0.754098  0.241321  1
  Pr  Pr5  1  0.020948  0.258679  0.012778  1
  Pr  Pr6  1  0.011198  0.022398  0.261198  1
  Pr  Pr7  1  0.491831  0.754098  0.012778  1
  Pr  Pr8  1  0.488802  0.238802  0.477602  1
  Pr  Pr9  1  0.008169  0.487222  0.745902  1
  Pr  Pr10  1  0.261906  0.011906  0.023814  1
  Pr  Pr11  1  0.237733  0.258679  0.745902  1
  Ga  Ga12  1  0.250000  0.500000  0.000000  1
  Si  Si13  1  0.250000  0.249751  0.250249  1
  Si  Si14  1  0.500249  0.000499  0.250249  1
  Si  Si15  1  0.999751  0.249751  0.499501  1
  Br  Br16  1  0.250000  0.753642  0.746358  1
  Br  Br17  1  0.507372  0.503820  0.754083  1
  Br  Br18  1  0.992628  0.745917  0.996180  1
  Br  Br19  1  0.746710  0.250263  0.754083  1
  Br  Br20  1  0.996358  0.992718  0.746358  1
  Br  Br21  1  0.250000  0.995889  0.504111  1
  Br  Br22  1  0.754111  0.508220  0.504111  1
  Br  Br23  1  0.503553  0.250263  0.996180  1
  Br  Br24  1  0.753290  0.745917  0.249737  1
  Br  Br25  1  0.745889  0.995889  0.991780  1
  Br  Br26  1  0.996447  0.503820  0.249737  1
  Br  Br27  1  0.503642  0.753642  0.507282  1
