# generated using pymatgen
data_NaLa5PrOsI12
_symmetry_space_group_name_H-M   'P 1'
_cell_length_a   10.18276229
_cell_length_b   10.17521595
_cell_length_c   10.21215779
_cell_angle_alpha   107.20014525
_cell_angle_beta   106.97396013
_cell_angle_gamma   107.19135679
_symmetry_Int_Tables_number   1
_chemical_formula_structural   NaLa5PrOsI12
_chemical_formula_sum   'Na1 La5 Pr1 Os1 I12'
_cell_volume   878.24771993
_cell_formula_units_Z   1
loop_
 _symmetry_equiv_pos_site_id
 _symmetry_equiv_pos_as_xyz
  1  'x, y, z'
loop_
 _atom_site_type_symbol
 _atom_site_label
 _atom_site_symmetry_multiplicity
 _atom_site_fract_x
 _atom_site_fract_y
 _atom_site_fract_z
 _atom_site_occupancy
  Na  Na0  1  0.499778  0.499321  0.500196  1
  La  La1  1  0.308141  0.103889  0.031034  1
  La  La2  1  0.031901  0.308857  0.104691  1
  La  La3  1  0.896108  0.968425  0.689465  1
  La  La4  1  0.691714  0.896196  0.968511  1
  La  La5  1  0.968496  0.691771  0.896744  1
  Pr  Pr6  1  0.103537  0.031450  0.307183  1
  Os  Os7  1  0.999208  0.000155  0.997531  1
  I  I8  1  0.151217  0.376246  0.457456  1
  I  I9  1  0.454408  0.149873  0.378635  1
  I  I10  1  0.379539  0.458676  0.152570  1
  I  I11  1  0.848293  0.620049  0.542669  1
  I  I12  1  0.542340  0.848235  0.621236  1
  I  I13  1  0.620677  0.541798  0.848441  1
  I  I14  1  0.316875  0.773575  0.926377  1
  I  I15  1  0.926576  0.317816  0.775010  1
  I  I16  1  0.776822  0.927096  0.317026  1
  I  I17  1  0.683446  0.226791  0.074509  1
  I  I18  1  0.074431  0.685898  0.227648  1
  I  I19  1  0.226499  0.073891  0.683072  1
