# generated using pymatgen
data_Th3NpB16
_symmetry_space_group_name_H-M   'P 1'
_cell_length_a   7.21310863
_cell_length_b   7.21310863
_cell_length_c   4.09672100
_cell_angle_alpha   90.00000000
_cell_angle_beta   90.00000000
_cell_angle_gamma   89.32098812
_symmetry_Int_Tables_number   1
_chemical_formula_structural   Th3NpB16
_chemical_formula_sum   'Th3 Np1 B16'
_cell_volume   213.13306751
_cell_formula_units_Z   1
loop_
 _symmetry_equiv_pos_site_id
 _symmetry_equiv_pos_as_xyz
  1  'x, y, z'
loop_
 _atom_site_type_symbol
 _atom_site_label
 _atom_site_symmetry_multiplicity
 _atom_site_fract_x
 _atom_site_fract_y
 _atom_site_fract_z
 _atom_site_occupancy
  Th  Th0  1  0.815878  0.315878  0.500001  1
  Th  Th1  1  0.685962  0.814566  0.500001  1
  Th  Th2  1  0.314566  0.185962  0.500001  1
  Np  Np3  1  0.186431  0.686431  0.500001  1
  B  B4  1  0.039420  0.172953  0.000000  1
  B  B5  1  0.964884  0.820532  0.000000  1
  B  B6  1  0.537797  0.326864  0.000000  1
  B  B7  1  0.455350  0.677744  0.000000  1
  B  B8  1  0.320533  0.464884  0.000000  1
  B  B9  1  0.672953  0.539420  0.000000  1
  B  B10  1  0.177744  0.955350  0.000000  1
  B  B11  1  0.826863  0.037797  0.000000  1
  B  B12  1  0.590066  0.090066  0.000000  1
  B  B13  1  0.412728  0.912727  0.000000  1
  B  B14  1  0.088552  0.411300  0.000000  1
  B  B15  1  0.911299  0.588552  0.000000  1
  B  B16  1  0.002973  0.996514  0.298458  1
  B  B17  1  0.496514  0.502973  0.701544  1
  B  B18  1  0.002973  0.996514  0.701544  1
  B  B19  1  0.496514  0.502973  0.298458  1
