# generated using pymatgen
data_Y4Pd3RhPb2
_symmetry_space_group_name_H-M   'P 1'
_cell_length_a   7.89295804
_cell_length_b   7.89295804
_cell_length_c   3.65471700
_cell_angle_alpha   90.00000000
_cell_angle_beta   90.00000000
_cell_angle_gamma   90.14174124
_symmetry_Int_Tables_number   1
_chemical_formula_structural   Y4Pd3RhPb2
_chemical_formula_sum   'Y4 Pd3 Rh1 Pb2'
_cell_volume   227.68373772
_cell_formula_units_Z   1
loop_
 _symmetry_equiv_pos_site_id
 _symmetry_equiv_pos_as_xyz
  1  'x, y, z'
loop_
 _atom_site_type_symbol
 _atom_site_label
 _atom_site_symmetry_multiplicity
 _atom_site_fract_x
 _atom_site_fract_y
 _atom_site_fract_z
 _atom_site_occupancy
  Y  Y0  1  0.679131  0.179131  0.500000  1
  Y  Y1  1  0.160984  0.326871  0.500000  1
  Y  Y2  1  0.826871  0.660984  0.500000  1
  Y  Y3  1  0.329741  0.829741  0.500000  1
  Pd  Pd4  1  0.374945  0.126653  0.000000  1
  Pd  Pd5  1  0.626653  0.874945  0.000000  1
  Pd  Pd6  1  0.128175  0.628175  0.000000  1
  Rh  Rh7  1  0.874688  0.374688  0.000000  1
  Pb  Pb8  1  0.998918  0.999895  0.000000  1
  Pb  Pb9  1  0.499895  0.498918  0.000000  1
