# generated using pymatgen
data_CaYb5(TmBi3)2
_symmetry_space_group_name_H-M   'P 1'
_cell_length_a   8.14431383
_cell_length_b   8.34931624
_cell_length_c   8.35068301
_cell_angle_alpha   109.97168915
_cell_angle_beta   108.97426290
_cell_angle_gamma   108.96922578
_symmetry_Int_Tables_number   1
_chemical_formula_structural   CaYb5(TmBi3)2
_chemical_formula_sum   'Ca1 Yb5 Tm2 Bi6'
_cell_volume   439.75984086
_cell_formula_units_Z   1
loop_
 _symmetry_equiv_pos_site_id
 _symmetry_equiv_pos_as_xyz
  1  'x, y, z'
loop_
 _atom_site_type_symbol
 _atom_site_label
 _atom_site_symmetry_multiplicity
 _atom_site_fract_x
 _atom_site_fract_y
 _atom_site_fract_z
 _atom_site_occupancy
  Ca  Ca0  1  0.501045  0.999450  0.646880  1
  Yb  Yb1  1  0.354162  0.352422  0.353097  1
  Yb  Yb2  1  0.501660  0.000615  0.147578  1
  Yb  Yb3  1  0.001440  0.647419  0.500544  1
  Yb  Yb4  1  0.854215  0.852960  0.852498  1
  Yb  Yb5  1  0.000985  0.146879  0.499340  1
  Tm  Tm6  1  0.142122  0.500064  0.000005  1
  Tm  Tm7  1  0.642238  0.500233  0.000184  1
  Bi  Bi8  1  0.376959  0.621933  0.757925  1
  Bi  Bi9  1  0.877251  0.258058  0.122405  1
  Bi  Bi10  1  0.619216  0.741927  0.364060  1
  Bi  Bi11  1  0.118886  0.864133  0.241770  1
  Bi  Bi12  1  0.254795  0.135831  0.877952  1
  Bi  Bi13  1  0.755026  0.378076  0.635762  1
