# generated using pymatgen
data_TbDy4Y5Bi6
_symmetry_space_group_name_H-M   'P 1'
_cell_length_a   9.21268127
_cell_length_b   9.20883211
_cell_length_c   6.37163400
_cell_angle_alpha   90.00000000
_cell_angle_beta   90.00000000
_cell_angle_gamma   119.98618766
_symmetry_Int_Tables_number   1
_chemical_formula_structural   TbDy4Y5Bi6
_chemical_formula_sum   'Tb1 Dy4 Y5 Bi6'
_cell_volume   468.20115781
_cell_formula_units_Z   1
loop_
 _symmetry_equiv_pos_site_id
 _symmetry_equiv_pos_as_xyz
  1  'x, y, z'
loop_
 _atom_site_type_symbol
 _atom_site_label
 _atom_site_symmetry_multiplicity
 _atom_site_fract_x
 _atom_site_fract_y
 _atom_site_fract_z
 _atom_site_occupancy
  Tb  Tb0  1  0.000000  0.755674  0.250000  1
  Dy  Dy1  1  0.666704  0.333350  0.000069  1
  Dy  Dy2  1  0.333296  0.666647  0.000069  1
  Dy  Dy3  1  0.333296  0.666647  0.499931  1
  Dy  Dy4  1  0.666704  0.333350  0.499931  1
  Y  Y5  1  0.755696  0.755680  0.750000  1
  Y  Y6  1  0.244304  0.999984  0.750000  1
  Y  Y7  1  0.000000  0.244303  0.750000  1
  Y  Y8  1  0.244348  0.244320  0.250000  1
  Y  Y9  1  0.755652  0.999972  0.250000  1
  Bi  Bi10  1  0.388344  0.388362  0.750000  1
  Bi  Bi11  1  0.611656  0.000018  0.750000  1
  Bi  Bi12  1  0.000000  0.611662  0.750000  1
  Bi  Bi13  1  0.611530  0.611639  0.250000  1
  Bi  Bi14  1  0.388470  0.000109  0.250000  1
  Bi  Bi15  1  0.000000  0.388280  0.250000  1
