# generated using pymatgen
data_Tb8Lu12Si15Ag
_symmetry_space_group_name_H-M   'P 1'
_cell_length_a   7.34333721
_cell_length_b   7.60548812
_cell_length_c   14.45018122
_cell_angle_alpha   90.14989877
_cell_angle_beta   90.49937392
_cell_angle_gamma   90.18129713
_symmetry_Int_Tables_number   1
_chemical_formula_structural   Tb8Lu12Si15Ag
_chemical_formula_sum   'Tb8 Lu12 Si15 Ag1'
_cell_volume   807.00025120
_cell_formula_units_Z   1
loop_
 _symmetry_equiv_pos_site_id
 _symmetry_equiv_pos_as_xyz
  1  'x, y, z'
loop_
 _atom_site_type_symbol
 _atom_site_label
 _atom_site_symmetry_multiplicity
 _atom_site_fract_x
 _atom_site_fract_y
 _atom_site_fract_z
 _atom_site_occupancy
  Tb  Tb0  1  0.518971  0.674599  0.601298  1
  Tb  Tb1  1  0.021349  0.819921  0.901972  1
  Tb  Tb2  1  0.476785  0.321905  0.097235  1
  Tb  Tb3  1  0.984493  0.181287  0.399701  1
  Tb  Tb4  1  0.478067  0.326909  0.400758  1
  Tb  Tb5  1  0.977303  0.179800  0.097436  1
  Tb  Tb6  1  0.523176  0.679980  0.900710  1
  Tb  Tb7  1  0.020474  0.820663  0.601046  1
  Lu  Lu8  1  0.677516  0.174114  0.625469  1
  Lu  Lu9  1  0.178910  0.323868  0.876347  1
  Lu  Lu10  1  0.321297  0.821664  0.122223  1
  Lu  Lu11  1  0.828972  0.674906  0.375353  1
  Lu  Lu12  1  0.320669  0.825920  0.376536  1
  Lu  Lu13  1  0.820398  0.676932  0.122752  1
  Lu  Lu14  1  0.677742  0.176939  0.876531  1
  Lu  Lu15  1  0.173740  0.322594  0.624758  1
  Lu  Lu16  1  0.846573  0.505659  0.750494  1
  Lu  Lu17  1  0.345983  0.992474  0.748480  1
  Lu  Lu18  1  0.155200  0.491382  0.249681  1
  Lu  Lu19  1  0.655293  0.008229  0.248978  1
  Si  Si20  1  0.149555  0.530487  0.040063  1
  Si  Si21  1  0.348993  0.032006  0.960191  1
  Si  Si22  1  0.844651  0.466542  0.540257  1
  Si  Si23  1  0.339564  0.032900  0.541803  1
  Si  Si24  1  0.849633  0.468334  0.959727  1
  Si  Si25  1  0.649126  0.968261  0.039030  1
  Si  Si26  1  0.153607  0.533200  0.461653  1
  Si  Si27  1  0.475130  0.388358  0.750698  1
  Si  Si28  1  0.974595  0.109921  0.752371  1
  Si  Si29  1  0.526487  0.614251  0.248410  1
  Si  Si30  1  0.027475  0.889774  0.247793  1
  Si  Si31  1  0.725749  0.869353  0.751807  1
  Si  Si32  1  0.224326  0.628365  0.751591  1
  Si  Si33  1  0.276731  0.127897  0.247082  1
  Si  Si34  1  0.773676  0.373913  0.248920  1
  Ag  Ag35  1  0.657786  0.966694  0.460845  1
