# generated using pymatgen
data_Tb20Tc3Bi8Pt
_symmetry_space_group_name_H-M   'P 1'
_cell_length_a   8.02640320
_cell_length_b   9.12145600
_cell_length_c   12.44805692
_cell_angle_alpha   90.00000000
_cell_angle_beta   89.93678918
_cell_angle_gamma   90.00000000
_symmetry_Int_Tables_number   1
_chemical_formula_structural   Tb20Tc3Bi8Pt
_chemical_formula_sum   'Tb20 Tc3 Bi8 Pt1'
_cell_volume   911.35260933
_cell_formula_units_Z   1
loop_
 _symmetry_equiv_pos_site_id
 _symmetry_equiv_pos_as_xyz
  1  'x, y, z'
loop_
 _atom_site_type_symbol
 _atom_site_label
 _atom_site_symmetry_multiplicity
 _atom_site_fract_x
 _atom_site_fract_y
 _atom_site_fract_z
 _atom_site_occupancy
  Tb  Tb0  1  0.847612  0.750000  0.795721  1
  Tb  Tb1  1  0.157399  0.250000  0.208971  1
  Tb  Tb2  1  0.339991  0.250000  0.711081  1
  Tb  Tb3  1  0.664849  0.750000  0.285832  1
  Tb  Tb4  1  0.371830  0.750000  0.697183  1
  Tb  Tb5  1  0.622800  0.250000  0.304465  1
  Tb  Tb6  1  0.879058  0.250000  0.805675  1
  Tb  Tb7  1  0.122322  0.750000  0.194052  1
  Tb  Tb8  1  0.947341  0.750000  0.503939  1
  Tb  Tb9  1  0.050709  0.250000  0.496832  1
  Tb  Tb10  1  0.446404  0.250000  0.996663  1
  Tb  Tb11  1  0.552167  0.750000  0.002721  1
  Tb  Tb12  1  0.677310  0.048800  0.565481  1
  Tb  Tb13  1  0.322902  0.962669  0.433376  1
  Tb  Tb14  1  0.176396  0.960424  0.936552  1
  Tb  Tb15  1  0.322902  0.537331  0.433376  1
  Tb  Tb16  1  0.823649  0.041182  0.064079  1
  Tb  Tb17  1  0.677310  0.451200  0.565481  1
  Tb  Tb18  1  0.823649  0.458818  0.064079  1
  Tb  Tb19  1  0.176396  0.539576  0.936552  1
  Tc  Tc20  1  0.419840  0.250000  0.487792  1
  Tc  Tc21  1  0.080823  0.250000  0.986672  1
  Tc  Tc22  1  0.918672  0.750000  0.016065  1
  Bi  Bi23  1  0.572699  0.493295  0.826806  1
  Bi  Bi24  1  0.428452  0.507734  0.172288  1
  Bi  Bi25  1  0.071558  0.507917  0.671546  1
  Bi  Bi26  1  0.428452  0.992266  0.172288  1
  Bi  Bi27  1  0.928708  0.492638  0.328012  1
  Bi  Bi28  1  0.572699  0.006705  0.826806  1
  Bi  Bi29  1  0.928708  0.007362  0.328012  1
  Bi  Bi30  1  0.071558  0.992083  0.671546  1
  Pt  Pt31  1  0.574832  0.750000  0.510052  1
