# generated using pymatgen
data_W6CBr18
_symmetry_space_group_name_H-M   'P 1'
_cell_length_a   9.92879200
_cell_length_b   9.92879444
_cell_length_c   19.39521300
_cell_angle_alpha   90.00000000
_cell_angle_beta   90.00000000
_cell_angle_gamma   119.98414091
_symmetry_Int_Tables_number   1
_chemical_formula_structural   W6CBr18
_chemical_formula_sum   'W12 C2 Br36'
_cell_volume   1656.10358909
_cell_formula_units_Z   2
loop_
 _symmetry_equiv_pos_site_id
 _symmetry_equiv_pos_as_xyz
  1  'x, y, z'
loop_
 _atom_site_type_symbol
 _atom_site_label
 _atom_site_symmetry_multiplicity
 _atom_site_fract_x
 _atom_site_fract_y
 _atom_site_fract_z
 _atom_site_occupancy
  W  W0  1  0.356132  0.838589  0.173207  1
  W  W1  1  0.482428  0.643809  0.173206  1
  W  W2  1  0.161428  0.517585  0.173211  1
  W  W3  1  0.161428  0.517585  0.326790  1
  W  W4  1  0.482428  0.643809  0.326794  1
  W  W5  1  0.356132  0.838589  0.326792  1
  W  W6  1  0.838590  0.356133  0.673207  1
  W  W7  1  0.643809  0.482428  0.673206  1
  W  W8  1  0.517586  0.161427  0.673211  1
  W  W9  1  0.517586  0.161427  0.826789  1
  W  W10  1  0.643809  0.482428  0.826794  1
  W  W11  1  0.838590  0.356133  0.826793  1
  C  C12  1  0.333363  0.666681  0.250000  1
  C  C13  1  0.666681  0.333362  0.750000  1
  Br  Br14  1  0.552254  0.856739  0.084699  1
  Br  Br15  1  0.304526  0.447730  0.084701  1
  Br  Br16  1  0.143233  0.695536  0.084696  1
  Br  Br17  1  0.696690  0.611912  0.108823  1
  Br  Br18  1  0.388034  0.084726  0.108814  1
  Br  Br19  1  0.915334  0.303385  0.108824  1
  Br  Br20  1  0.572571  0.046277  0.250000  1
  Br  Br21  1  0.111985  0.284629  0.250000  1
  Br  Br22  1  0.473692  0.427341  0.250000  1
  Br  Br23  1  0.953707  0.526387  0.250000  1
  Br  Br24  1  0.715348  0.827247  0.250000  1
  Br  Br25  1  0.172645  0.888087  0.250000  1
  Br  Br26  1  0.388034  0.084726  0.391186  1
  Br  Br27  1  0.915334  0.303385  0.391177  1
  Br  Br28  1  0.696690  0.611912  0.391177  1
  Br  Br29  1  0.143233  0.695536  0.415303  1
  Br  Br30  1  0.304526  0.447730  0.415299  1
  Br  Br31  1  0.552254  0.856739  0.415301  1
  Br  Br32  1  0.856739  0.552254  0.584699  1
  Br  Br33  1  0.447731  0.304526  0.584701  1
  Br  Br34  1  0.695538  0.143236  0.584696  1
  Br  Br35  1  0.611911  0.696689  0.608823  1
  Br  Br36  1  0.084725  0.388033  0.608814  1
  Br  Br37  1  0.303386  0.915336  0.608824  1
  Br  Br38  1  0.284628  0.111985  0.750000  1
  Br  Br39  1  0.888087  0.172646  0.750000  1
  Br  Br40  1  0.427341  0.473692  0.750000  1
  Br  Br41  1  0.046277  0.572569  0.750000  1
  Br  Br42  1  0.827248  0.715349  0.750000  1
  Br  Br43  1  0.526386  0.953706  0.750000  1
  Br  Br44  1  0.303386  0.915336  0.891176  1
  Br  Br45  1  0.084725  0.388033  0.891186  1
  Br  Br46  1  0.611911  0.696689  0.891177  1
  Br  Br47  1  0.695538  0.143236  0.915304  1
  Br  Br48  1  0.447731  0.304526  0.915299  1
  Br  Br49  1  0.856739  0.552254  0.915300  1
