# generated using pymatgen
data_La2Sm5PI12
_symmetry_space_group_name_H-M   'P 1'
_cell_length_a   9.89553061
_cell_length_b   9.91962961
_cell_length_c   9.91480110
_cell_angle_alpha   107.63822798
_cell_angle_beta   107.44742336
_cell_angle_gamma   107.77447257
_symmetry_Int_Tables_number   1
_chemical_formula_structural   La2Sm5PI12
_chemical_formula_sum   'La2 Sm5 P1 I12'
_cell_volume   796.40915225
_cell_formula_units_Z   1
loop_
 _symmetry_equiv_pos_site_id
 _symmetry_equiv_pos_as_xyz
  1  'x, y, z'
loop_
 _atom_site_type_symbol
 _atom_site_label
 _atom_site_symmetry_multiplicity
 _atom_site_fract_x
 _atom_site_fract_y
 _atom_site_fract_z
 _atom_site_occupancy
  La  La0  1  0.400836  0.190667  0.474191  1
  La  La1  1  0.981431  0.981994  0.981104  1
  Sm  Sm2  1  0.532230  0.603067  0.801377  1
  Sm  Sm3  1  0.801848  0.533336  0.601766  1
  Sm  Sm4  1  0.603085  0.803310  0.532576  1
  Sm  Sm5  1  0.474551  0.404089  0.199515  1
  Sm  Sm6  1  0.198557  0.472729  0.403016  1
  P  P7  1  0.498955  0.499617  0.498904  1
  I  I8  1  0.272839  0.809392  0.422129  1
  I  I9  1  0.424785  0.279717  0.823143  1
  I  I10  1  0.813822  0.423720  0.275576  1
  I  I11  1  0.737538  0.188588  0.577653  1
  I  I12  1  0.574283  0.727466  0.187221  1
  I  I13  1  0.186885  0.574309  0.726517  1
  I  I14  1  0.028581  0.116865  0.342819  1
  I  I15  1  0.345737  0.036465  0.108626  1
  I  I16  1  0.117894  0.347439  0.039047  1
  I  I17  1  0.964277  0.880478  0.637385  1
  I  I18  1  0.637402  0.964064  0.879682  1
  I  I19  1  0.879833  0.638060  0.963123  1
