# generated using pymatgen
data_Lu4Ga6OsRu
_symmetry_space_group_name_H-M   'P 1'
_cell_length_a   5.37671400
_cell_length_b   5.37671408
_cell_length_c   8.68592200
_cell_angle_alpha   90.00000000
_cell_angle_beta   90.00000000
_cell_angle_gamma   119.99999954
_symmetry_Int_Tables_number   1
_chemical_formula_structural   Lu4Ga6OsRu
_chemical_formula_sum   'Lu4 Ga6 Os1 Ru1'
_cell_volume   217.46052730
_cell_formula_units_Z   1
loop_
 _symmetry_equiv_pos_site_id
 _symmetry_equiv_pos_as_xyz
  1  'x, y, z'
loop_
 _atom_site_type_symbol
 _atom_site_label
 _atom_site_symmetry_multiplicity
 _atom_site_fract_x
 _atom_site_fract_y
 _atom_site_fract_z
 _atom_site_occupancy
  Lu  Lu0  1  0.666666  0.333334  0.053598  1
  Lu  Lu1  1  0.666666  0.333334  0.446411  1
  Lu  Lu2  1  0.333333  0.666666  0.553590  1
  Lu  Lu3  1  0.333333  0.666666  0.946402  1
  Ga  Ga4  1  0.166079  0.332157  0.249407  1
  Ga  Ga5  1  0.166079  0.833922  0.249407  1
  Ga  Ga6  1  0.667844  0.833922  0.249407  1
  Ga  Ga7  1  0.332158  0.166080  0.750592  1
  Ga  Ga8  1  0.833922  0.166080  0.750592  1
  Ga  Ga9  1  0.833920  0.667843  0.750592  1
  Os  Os10  1  0.000000  0.000000  0.500000  1
  Ru  Ru11  1  0.000000  0.000000  0.000000  1
