# generated using pymatgen
data_Ti8Al12Co7Si3
_symmetry_space_group_name_H-M   'P 1'
_cell_length_a   8.34470051
_cell_length_b   8.34488943
_cell_length_c   8.34441160
_cell_angle_alpha   119.84620487
_cell_angle_beta   120.05742268
_cell_angle_gamma   90.08616858
_symmetry_Int_Tables_number   1
_chemical_formula_structural   Ti8Al12Co7Si3
_chemical_formula_sum   'Ti8 Al12 Co7 Si3'
_cell_volume   411.16494918
_cell_formula_units_Z   1
loop_
 _symmetry_equiv_pos_site_id
 _symmetry_equiv_pos_as_xyz
  1  'x, y, z'
loop_
 _atom_site_type_symbol
 _atom_site_label
 _atom_site_symmetry_multiplicity
 _atom_site_fract_x
 _atom_site_fract_y
 _atom_site_fract_z
 _atom_site_occupancy
  Ti  Ti0  1  0.803322  0.294118  0.085990  1
  Ti  Ti1  1  0.208028  0.294157  0.490778  1
  Ti  Ti2  1  0.201302  0.701313  0.499968  1
  Ti  Ti3  1  0.208106  0.717312  0.914017  1
  Ti  Ti4  1  0.803370  0.717263  0.509203  1
  Ti  Ti5  1  0.785792  0.285782  0.500024  1
  Ti  Ti6  1  0.378689  0.120642  0.741913  1
  Ti  Ti7  1  0.378726  0.636773  0.258082  1
  Al  Al8  1  0.156753  0.343102  0.813638  1
  Al  Al9  1  0.529489  0.343089  0.186346  1
  Al  Al10  1  0.838374  0.659412  0.821122  1
  Al  Al11  1  0.838291  0.017257  0.178883  1
  Al  Al12  1  0.836764  0.660494  0.176191  1
  Al  Al13  1  0.484273  0.660575  0.823804  1
  Al  Al14  1  0.380772  0.120565  0.260215  1
  Al  Al15  1  0.860365  0.120572  0.739797  1
  Al  Al16  1  0.617523  0.877833  0.260328  1
  Al  Al17  1  0.617487  0.357189  0.739678  1
  Al  Al18  1  0.619197  0.880219  0.738984  1
  Al  Al19  1  0.141244  0.880247  0.261045  1
  Co  Co20  1  0.005492  0.998441  0.507902  1
  Co  Co21  1  0.490584  0.998498  0.992948  1
  Co  Co22  1  0.497414  0.497408  0.999994  1
  Co  Co23  1  0.490526  0.497570  0.492093  1
  Co  Co24  1  0.005560  0.497659  0.007076  1
  Co  Co25  1  0.009224  0.009217  0.000006  1
  Co  Co26  1  0.497190  0.997195  0.500012  1
  Si  Si27  1  0.992588  0.492578  0.499996  1
  Si  Si28  1  0.161732  0.342922  0.181107  1
  Si  Si29  1  0.161816  0.980594  0.818860  1
