# generated using pymatgen
data_La6RuRhBr6
_symmetry_space_group_name_H-M   'P 1'
_cell_length_a   10.59467037
_cell_length_b   10.59502772
_cell_length_c   10.59466994
_cell_angle_alpha   109.50517405
_cell_angle_beta   109.40195293
_cell_angle_gamma   109.50517796
_symmetry_Int_Tables_number   1
_chemical_formula_structural   La6RuRhBr6
_chemical_formula_sum   'La12 Ru2 Rh2 Br12'
_cell_volume   915.50771295
_cell_formula_units_Z   2
loop_
 _symmetry_equiv_pos_site_id
 _symmetry_equiv_pos_as_xyz
  1  'x, y, z'
loop_
 _atom_site_type_symbol
 _atom_site_label
 _atom_site_symmetry_multiplicity
 _atom_site_fract_x
 _atom_site_fract_y
 _atom_site_fract_z
 _atom_site_occupancy
  La  La0  1  0.265077  0.750000  0.234923  1
  La  La1  1  0.484923  0.750000  0.015077  1
  La  La2  1  0.234023  0.468044  0.484023  1
  La  La3  1  0.015977  0.031956  0.265977  1
  La  La4  1  0.232902  0.264175  0.746928  1
  La  La5  1  0.013517  0.482635  0.746515  1
  La  La6  1  0.482753  0.235825  0.468726  1
  La  La7  1  0.263880  0.017365  0.030883  1
  La  La8  1  0.753072  0.235825  0.267098  1
  La  La9  1  0.753485  0.017365  0.486483  1
  La  La10  1  0.469117  0.482635  0.236120  1
  La  La11  1  0.031274  0.264175  0.017247  1
  Ru  Ru12  1  0.998911  0.250000  0.501089  1
  Ru  Ru13  1  0.251089  0.250000  0.248911  1
  Rh  Rh14  1  0.499236  0.998472  0.249236  1
  Rh  Rh15  1  0.250764  0.501528  0.000764  1
  Br  Br16  1  0.250045  0.993375  0.506516  1
  Br  Br17  1  0.513141  0.506625  0.756670  1
  Br  Br18  1  0.250064  0.756392  0.743728  1
  Br  Br19  1  0.987335  0.743608  0.993672  1
  Br  Br20  1  0.993484  0.506625  0.249955  1
  Br  Br21  1  0.743330  0.993375  0.986859  1
  Br  Br22  1  0.756272  0.743608  0.249936  1
  Br  Br23  1  0.506328  0.756392  0.512665  1
  Br  Br24  1  0.506390  0.250000  0.993610  1
  Br  Br25  1  0.756566  0.513133  0.506566  1
  Br  Br26  1  0.743610  0.250000  0.756390  1
  Br  Br27  1  0.993434  0.986867  0.743434  1
