# generated using pymatgen
data_KSc2Cl6
_symmetry_space_group_name_H-M   'P 1'
_cell_length_a   6.59452415
_cell_length_b   6.45667676
_cell_length_c   9.23021862
_cell_angle_alpha   124.08522562
_cell_angle_beta   63.72810724
_cell_angle_gamma   120.67456625
_symmetry_Int_Tables_number   1
_chemical_formula_structural   KSc2Cl6
_chemical_formula_sum   'K1 Sc2 Cl6'
_cell_volume   273.09004487
_cell_formula_units_Z   1
loop_
 _symmetry_equiv_pos_site_id
 _symmetry_equiv_pos_as_xyz
  1  'x, y, z'
loop_
 _atom_site_type_symbol
 _atom_site_label
 _atom_site_symmetry_multiplicity
 _atom_site_fract_x
 _atom_site_fract_y
 _atom_site_fract_z
 _atom_site_occupancy
  K  K0  1  0.746769  0.310899  0.384601  1
  Sc  Sc1  1  0.939128  0.321780  0.867256  1
  Sc  Sc2  1  0.246351  0.939821  0.869762  1
  Cl  Cl3  1  0.176190  0.396687  0.057158  1
  Cl  Cl4  1  0.534717  0.102755  0.054184  1
  Cl  Cl5  1  0.017625  0.869008  0.675512  1
  Cl  Cl6  1  0.887712  0.768941  0.084517  1
  Cl  Cl7  1  0.652043  0.151073  0.679653  1
  Cl  Cl8  1  0.288943  0.489761  0.647738  1
