# generated using pymatgen
data_Sm2Lu2TcB12Ru
_symmetry_space_group_name_H-M   'P 1'
_cell_length_a   3.66753700
_cell_length_b   9.13368924
_cell_length_c   11.56302215
_cell_angle_alpha   89.87731105
_cell_angle_beta   90.00000000
_cell_angle_gamma   90.00000000
_symmetry_Int_Tables_number   1
_chemical_formula_structural   Sm2Lu2TcB12Ru
_chemical_formula_sum   'Sm4 Lu4 Tc2 B24 Ru2'
_cell_volume   387.33888439
_cell_formula_units_Z   2
loop_
 _symmetry_equiv_pos_site_id
 _symmetry_equiv_pos_as_xyz
  1  'x, y, z'
loop_
 _atom_site_type_symbol
 _atom_site_label
 _atom_site_symmetry_multiplicity
 _atom_site_fract_x
 _atom_site_fract_y
 _atom_site_fract_z
 _atom_site_occupancy
  Sm  Sm0  1  0.000000  0.323674  0.415234  1
  Sm  Sm1  1  0.000000  0.676326  0.584766  1
  Sm  Sm2  1  0.000000  0.820881  0.086896  1
  Sm  Sm3  1  0.000000  0.179119  0.913104  1
  Lu  Lu4  1  0.000000  0.942123  0.370593  1
  Lu  Lu5  1  0.000000  0.057877  0.629407  1
  Lu  Lu6  1  0.000000  0.443499  0.129962  1
  Lu  Lu7  1  0.000000  0.556501  0.870038  1
  Tc  Tc8  1  0.000000  0.639610  0.318619  1
  Tc  Tc9  1  0.000000  0.360390  0.681381  1
  B  B10  1  0.500000  0.554497  0.431379  1
  B  B11  1  0.500000  0.445503  0.568621  1
  B  B12  1  0.500000  0.055330  0.068689  1
  B  B13  1  0.500000  0.944670  0.931311  1
  B  B14  1  0.500000  0.750685  0.417217  1
  B  B15  1  0.500000  0.249315  0.582783  1
  B  B16  1  0.500000  0.250684  0.082885  1
  B  B17  1  0.500000  0.749316  0.917115  1
  B  B18  1  0.500000  0.791865  0.265518  1
  B  B19  1  0.500000  0.208135  0.734482  1
  B  B20  1  0.500000  0.290960  0.234061  1
  B  B21  1  0.500000  0.709040  0.765939  1
  B  B22  1  0.500000  0.629589  0.184683  1
  B  B23  1  0.500000  0.370411  0.815317  1
  B  B24  1  0.500000  0.129166  0.314557  1
  B  B25  1  0.500000  0.870834  0.685443  1
  B  B26  1  0.500000  0.983519  0.213232  1
  B  B27  1  0.500000  0.016481  0.786768  1
  B  B28  1  0.500000  0.482977  0.286183  1
  B  B29  1  0.500000  0.517023  0.713817  1
  B  B30  1  0.500000  0.598889  0.026791  1
  B  B31  1  0.500000  0.401111  0.973209  1
  B  B32  1  0.500000  0.098500  0.472829  1
  B  B33  1  0.500000  0.901500  0.527171  1
  Ru  Ru34  1  0.000000  0.138925  0.180386  1
  Ru  Ru35  1  0.000000  0.861075  0.819614  1
