# generated using pymatgen
data_Yb6Pa2SbPd24
_symmetry_space_group_name_H-M   'P 1'
_cell_length_a   8.35323300
_cell_length_b   8.38092840
_cell_length_c   8.38092840
_cell_angle_alpha   90.53518642
_cell_angle_beta   90.00000000
_cell_angle_gamma   90.00000000
_symmetry_Int_Tables_number   1
_chemical_formula_structural   Yb6Pa2SbPd24
_chemical_formula_sum   'Yb6 Pa2 Sb1 Pd24'
_cell_volume   586.70516354
_cell_formula_units_Z   1
loop_
 _symmetry_equiv_pos_site_id
 _symmetry_equiv_pos_as_xyz
  1  'x, y, z'
loop_
 _atom_site_type_symbol
 _atom_site_label
 _atom_site_symmetry_multiplicity
 _atom_site_fract_x
 _atom_site_fract_y
 _atom_site_fract_z
 _atom_site_occupancy
  Yb  Yb0  1  0.251798  0.748321  0.748321  1
  Yb  Yb1  1  0.748034  0.750389  0.750389  1
  Yb  Yb2  1  0.748034  0.249611  0.249611  1
  Yb  Yb3  1  0.250305  0.253377  0.746623  1
  Yb  Yb4  1  0.250305  0.746623  0.253377  1
  Yb  Yb5  1  0.251798  0.251679  0.251679  1
  Pa  Pa6  1  0.743349  0.744086  0.255914  1
  Pa  Pa7  1  0.743349  0.255914  0.744086  1
  Sb  Sb8  1  0.006590  0.000000  0.000000  1
  Pd  Pd9  1  0.998498  0.997084  0.306333  1
  Pd  Pd10  1  0.736045  0.000000  0.500000  1
  Pd  Pd11  1  0.736045  0.500000  0.000000  1
  Pd  Pd12  1  0.505155  0.008111  0.733736  1
  Pd  Pd13  1  0.991035  0.735263  0.498063  1
  Pd  Pd14  1  0.505155  0.991889  0.266264  1
  Pd  Pd15  1  0.991035  0.264737  0.501937  1
  Pd  Pd16  1  0.505155  0.733736  0.008111  1
  Pd  Pd17  1  0.252336  0.500000  0.500000  1
  Pd  Pd18  1  0.504885  0.498100  0.744991  1
  Pd  Pd19  1  0.504885  0.501900  0.255009  1
  Pd  Pd20  1  0.504885  0.255009  0.501900  1
  Pd  Pd21  1  0.504885  0.744991  0.498100  1
  Pd  Pd22  1  0.743475  0.500000  0.500000  1
  Pd  Pd23  1  0.313750  0.000000  0.000000  1
  Pd  Pd24  1  0.998498  0.002916  0.693667  1
  Pd  Pd25  1  0.991035  0.501937  0.264737  1
  Pd  Pd26  1  0.998498  0.306333  0.997084  1
  Pd  Pd27  1  0.998498  0.693667  0.002916  1
  Pd  Pd28  1  0.694785  0.000000  0.000000  1
  Pd  Pd29  1  0.265855  0.500000  0.000000  1
  Pd  Pd30  1  0.265855  0.000000  0.500000  1
  Pd  Pd31  1  0.991035  0.498063  0.735263  1
  Pd  Pd32  1  0.505155  0.266264  0.991889  1
