# generated using pymatgen
data_Ho4MnCo12GeB6
_symmetry_space_group_name_H-M   'P 1'
_cell_length_a   5.09348300
_cell_length_b   5.09218824
_cell_length_c   12.51027200
_cell_angle_alpha   90.00067114
_cell_angle_beta   89.99718112
_cell_angle_gamma   120.00039108
_symmetry_Int_Tables_number   1
_chemical_formula_structural   Ho4MnCo12GeB6
_chemical_formula_sum   'Ho4 Mn1 Co12 Ge1 B6'
_cell_volume   281.00560514
_cell_formula_units_Z   1
loop_
 _symmetry_equiv_pos_site_id
 _symmetry_equiv_pos_as_xyz
  1  'x, y, z'
loop_
 _atom_site_type_symbol
 _atom_site_label
 _atom_site_symmetry_multiplicity
 _atom_site_fract_x
 _atom_site_fract_y
 _atom_site_fract_z
 _atom_site_occupancy
  Ho  Ho0  1  0.999947  0.999973  0.500065  1
  Ho  Ho1  1  0.999992  0.000020  0.259413  1
  Ho  Ho2  1  0.999857  0.999937  0.740726  1
  Ho  Ho3  1  0.000222  0.000169  0.000045  1
  Mn  Mn4  1  0.333895  0.667048  0.000059  1
  Co  Co5  1  0.499658  0.999236  0.384841  1
  Co  Co6  1  0.000449  0.500235  0.384930  1
  Co  Co7  1  0.499702  0.500258  0.384909  1
  Co  Co8  1  0.499773  0.999443  0.615168  1
  Co  Co9  1  0.499741  0.500202  0.615159  1
  Co  Co10  1  0.000426  0.500209  0.615179  1
  Co  Co11  1  0.500561  0.000937  0.157974  1
  Co  Co12  1  0.999233  0.499653  0.157900  1
  Co  Co13  1  0.500577  0.499687  0.157981  1
  Co  Co14  1  0.500241  0.000785  0.841829  1
  Co  Co15  1  0.500237  0.499555  0.841904  1
  Co  Co16  1  0.999124  0.499589  0.841966  1
  Ge  Ge17  1  0.666622  0.333312  0.999826  1
  B  B18  1  0.333215  0.666569  0.267794  1
  B  B19  1  0.666731  0.333396  0.269317  1
  B  B20  1  0.666697  0.333411  0.730785  1
  B  B21  1  0.333173  0.666547  0.732147  1
  B  B22  1  0.333242  0.666596  0.499995  1
  B  B23  1  0.666581  0.333237  0.500088  1
