# generated using pymatgen
data_Tm12ZnCo4Pb
_symmetry_space_group_name_H-M   'P 1'
_cell_length_a   8.24188822
_cell_length_b   8.24188808
_cell_length_c   8.24188783
_cell_angle_alpha   109.98071667
_cell_angle_beta   111.42734055
_cell_angle_gamma   107.03615831
_symmetry_Int_Tables_number   1
_chemical_formula_structural   Tm12ZnCo4Pb
_chemical_formula_sum   'Tm12 Zn1 Co4 Pb1'
_cell_volume   430.32856640
_cell_formula_units_Z   1
loop_
 _symmetry_equiv_pos_site_id
 _symmetry_equiv_pos_as_xyz
  1  'x, y, z'
loop_
 _atom_site_type_symbol
 _atom_site_label
 _atom_site_symmetry_multiplicity
 _atom_site_fract_x
 _atom_site_fract_y
 _atom_site_fract_z
 _atom_site_occupancy
  Tm  Tm0  1  0.286834  0.184025  0.470859  1
  Tm  Tm1  1  0.713166  0.815975  0.529141  1
  Tm  Tm2  1  0.286834  0.815975  0.102808  1
  Tm  Tm3  1  0.713166  0.184025  0.897192  1
  Tm  Tm4  1  0.619612  0.314473  0.305139  1
  Tm  Tm5  1  0.380388  0.685527  0.694861  1
  Tm  Tm6  1  0.009334  0.314473  0.694861  1
  Tm  Tm7  1  0.990666  0.685527  0.305139  1
  Tm  Tm8  1  0.221226  0.426640  0.205414  1
  Tm  Tm9  1  0.778774  0.573360  0.794586  1
  Tm  Tm10  1  0.221226  0.015812  0.794586  1
  Tm  Tm11  1  0.778774  0.984188  0.205414  1
  Zn  Zn12  1  0.000000  0.000000  0.000000  1
  Co  Co13  1  0.000000  0.376619  0.376619  1
  Co  Co14  1  0.000000  0.623381  0.623381  1
  Co  Co15  1  0.386849  0.886849  0.500000  1
  Co  Co16  1  0.613151  0.113151  0.500000  1
  Pb  Pb17  1  0.500000  0.500000  0.000000  1
