# generated using pymatgen
data_Er10MnAlCo10
_symmetry_space_group_name_H-M   'P 1'
_cell_length_a   5.45280209
_cell_length_b   5.45280269
_cell_length_c   20.41534239
_cell_angle_alpha   90.25510952
_cell_angle_beta   89.74488974
_cell_angle_gamma   137.22750422
_symmetry_Int_Tables_number   1
_chemical_formula_structural   Er10MnAlCo10
_chemical_formula_sum   'Er10 Mn1 Al1 Co10'
_cell_volume   412.20942830
_cell_formula_units_Z   1
loop_
 _symmetry_equiv_pos_site_id
 _symmetry_equiv_pos_as_xyz
  1  'x, y, z'
loop_
 _atom_site_type_symbol
 _atom_site_label
 _atom_site_symmetry_multiplicity
 _atom_site_fract_x
 _atom_site_fract_y
 _atom_site_fract_z
 _atom_site_occupancy
  Er  Er0  1  0.288066  0.711934  0.250805  1
  Er  Er1  1  0.291334  0.708666  0.066423  1
  Er  Er2  1  0.997375  0.002625  0.841939  1
  Er  Er3  1  0.711934  0.288066  0.749195  1
  Er  Er4  1  0.708972  0.291028  0.565672  1
  Er  Er5  1  0.001731  0.998269  0.343374  1
  Er  Er6  1  0.998269  0.001731  0.656626  1
  Er  Er7  1  0.708666  0.291334  0.933577  1
  Er  Er8  1  0.002625  0.997375  0.158061  1
  Er  Er9  1  0.291028  0.708972  0.434328  1
  Mn  Mn10  1  0.000000  0.000000  0.500000  1
  Al  Al11  1  0.000000  0.000000  0.000000  1
  Co  Co12  1  0.295075  0.704925  0.654199  1
  Co  Co13  1  0.579369  0.420631  0.442768  1
  Co  Co14  1  0.415439  0.584561  0.749650  1
  Co  Co15  1  0.418726  0.581274  0.941332  1
  Co  Co16  1  0.584561  0.415439  0.250350  1
  Co  Co17  1  0.420631  0.579369  0.557232  1
  Co  Co18  1  0.704925  0.295075  0.345801  1
  Co  Co19  1  0.706199  0.293801  0.154512  1
  Co  Co20  1  0.581274  0.418726  0.058668  1
  Co  Co21  1  0.293801  0.706199  0.845488  1
