# generated using pymatgen
data_Dy4Er8Co4CuBi
_symmetry_space_group_name_H-M   'P 1'
_cell_length_a   8.26962435
_cell_length_b   8.26962289
_cell_length_c   8.26962329
_cell_angle_alpha   110.02325783
_cell_angle_beta   111.18618099
_cell_angle_gamma   107.22942669
_symmetry_Int_Tables_number   1
_chemical_formula_structural   Dy4Er8Co4CuBi
_chemical_formula_sum   'Dy4 Er8 Co4 Cu1 Bi1'
_cell_volume   434.80267961
_cell_formula_units_Z   1
loop_
 _symmetry_equiv_pos_site_id
 _symmetry_equiv_pos_as_xyz
  1  'x, y, z'
loop_
 _atom_site_type_symbol
 _atom_site_label
 _atom_site_symmetry_multiplicity
 _atom_site_fract_x
 _atom_site_fract_y
 _atom_site_fract_z
 _atom_site_occupancy
  Dy  Dy0  1  0.287222  0.183316  0.470538  1
  Dy  Dy1  1  0.712778  0.816684  0.529462  1
  Dy  Dy2  1  0.287222  0.816684  0.103904  1
  Dy  Dy3  1  0.712778  0.183316  0.896096  1
  Er  Er4  1  0.621937  0.313273  0.308664  1
  Er  Er5  1  0.378063  0.686727  0.691336  1
  Er  Er6  1  0.004612  0.313273  0.691336  1
  Er  Er7  1  0.995388  0.686727  0.308664  1
  Er  Er8  1  0.212988  0.414223  0.201235  1
  Er  Er9  1  0.787012  0.585777  0.798765  1
  Er  Er10  1  0.212988  0.011753  0.798765  1
  Er  Er11  1  0.787012  0.988247  0.201235  1
  Co  Co12  1  0.000000  0.376180  0.376180  1
  Co  Co13  1  0.000000  0.623820  0.623820  1
  Co  Co14  1  0.386950  0.886950  0.500000  1
  Co  Co15  1  0.613050  0.113050  0.500000  1
  Cu  Cu16  1  0.000000  0.000000  0.000000  1
  Bi  Bi17  1  0.500000  0.500000  0.000000  1
