# generated using pymatgen
data_Tm2Zn14Co3
_symmetry_space_group_name_H-M   'P 1'
_cell_length_a   6.64811282
_cell_length_b   6.64772007
_cell_length_c   6.64761443
_cell_angle_alpha   82.65135314
_cell_angle_beta   97.36313750
_cell_angle_gamma   97.36804295
_symmetry_Int_Tables_number   1
_chemical_formula_structural   Tm2Zn14Co3
_chemical_formula_sum   'Tm2 Zn14 Co3'
_cell_volume   287.09963501
_cell_formula_units_Z   1
loop_
 _symmetry_equiv_pos_site_id
 _symmetry_equiv_pos_as_xyz
  1  'x, y, z'
loop_
 _atom_site_type_symbol
 _atom_site_label
 _atom_site_symmetry_multiplicity
 _atom_site_fract_x
 _atom_site_fract_y
 _atom_site_fract_z
 _atom_site_occupancy
  Tm  Tm0  1  0.666504  0.333508  0.333513  1
  Tm  Tm1  1  0.333495  0.666491  0.666487  1
  Zn  Zn2  1  0.294161  0.294186  0.000001  1
  Zn  Zn3  1  0.705839  0.705814  0.999999  1
  Zn  Zn4  1  0.893409  0.106605  0.106606  1
  Zn  Zn5  1  0.348422  0.651554  0.147604  1
  Zn  Zn6  1  0.000000  0.705827  0.294176  1
  Zn  Zn7  1  0.294159  0.000001  0.294188  1
  Zn  Zn8  1  0.651581  0.852395  0.348447  1
  Zn  Zn9  1  0.147601  0.348429  0.348434  1
  Zn  Zn10  1  0.852399  0.651571  0.651566  1
  Zn  Zn11  1  0.348419  0.147604  0.651552  1
  Zn  Zn12  1  0.000000  0.294173  0.705822  1
  Zn  Zn13  1  0.705841  0.999999  0.705812  1
  Zn  Zn14  1  0.651579  0.348446  0.852396  1
  Zn  Zn15  1  0.106589  0.893395  0.893394  1
  Co  Co16  1  0.500000  0.000000  0.000000  1
  Co  Co17  1  0.000000  0.499999  0.000000  1
  Co  Co18  1  0.000000  0.000000  0.500000  1
