# generated using pymatgen
data_Dy3Zn3Hg2Ir
_symmetry_space_group_name_H-M   'P 1'
_cell_length_a   7.75720300
_cell_length_b   7.75720387
_cell_length_c   3.74173400
_cell_angle_alpha   90.00000000
_cell_angle_beta   90.00000000
_cell_angle_gamma   120.00000169
_symmetry_Int_Tables_number   1
_chemical_formula_structural   Dy3Zn3Hg2Ir
_chemical_formula_sum   'Dy3 Zn3 Hg2 Ir1'
_cell_volume   194.99069929
_cell_formula_units_Z   1
loop_
 _symmetry_equiv_pos_site_id
 _symmetry_equiv_pos_as_xyz
  1  'x, y, z'
loop_
 _atom_site_type_symbol
 _atom_site_label
 _atom_site_symmetry_multiplicity
 _atom_site_fract_x
 _atom_site_fract_y
 _atom_site_fract_z
 _atom_site_occupancy
  Dy  Dy0  1  0.030366  0.421873  0.500000  1
  Dy  Dy1  1  0.578127  0.608493  0.500000  1
  Dy  Dy2  1  0.391507  0.969634  0.500000  1
  Zn  Zn3  1  0.008537  0.726023  0.000000  1
  Zn  Zn4  1  0.273977  0.282515  0.000000  1
  Zn  Zn5  1  0.717485  0.991463  0.000000  1
  Hg  Hg6  1  0.666667  0.333333  0.000000  1
  Hg  Hg7  1  0.000000  0.000000  0.500000  1
  Ir  Ir8  1  0.333333  0.666667  0.000000  1
