# generated using pymatgen
data_Sm6ErFeI12
_symmetry_space_group_name_H-M   'P 1'
_cell_length_a   9.84044492
_cell_length_b   9.91497969
_cell_length_c   9.90972093
_cell_angle_alpha   106.78725408
_cell_angle_beta   106.86363986
_cell_angle_gamma   106.84666760
_symmetry_Int_Tables_number   1
_chemical_formula_structural   Sm6ErFeI12
_chemical_formula_sum   'Sm6 Er1 Fe1 I12'
_cell_volume   808.86866932
_cell_formula_units_Z   1
loop_
 _symmetry_equiv_pos_site_id
 _symmetry_equiv_pos_as_xyz
  1  'x, y, z'
loop_
 _atom_site_type_symbol
 _atom_site_label
 _atom_site_symmetry_multiplicity
 _atom_site_fract_x
 _atom_site_fract_y
 _atom_site_fract_z
 _atom_site_occupancy
  Sm  Sm0  1  0.906331  0.978672  0.704450  1
  Sm  Sm1  1  0.718961  0.912414  0.979054  1
  Sm  Sm2  1  0.978500  0.702941  0.905120  1
  Sm  Sm3  1  0.093825  0.020103  0.295707  1
  Sm  Sm4  1  0.281414  0.090383  0.021876  1
  Sm  Sm5  1  0.498904  0.501231  0.499925  1
  Er  Er6  1  0.021011  0.285365  0.091636  1
  Fe  Fe7  1  0.000258  0.998609  0.999690  1
  I  I8  1  0.840897  0.615362  0.536683  1
  I  I9  1  0.537426  0.841864  0.617284  1
  I  I10  1  0.614064  0.539922  0.840927  1
  I  I11  1  0.154994  0.383955  0.455967  1
  I  I12  1  0.463137  0.161147  0.383048  1
  I  I13  1  0.377830  0.460326  0.158296  1
  I  I14  1  0.930913  0.322721  0.781362  1
  I  I15  1  0.771777  0.927626  0.318865  1
  I  I16  1  0.321770  0.777243  0.929338  1
  I  I17  1  0.070609  0.675666  0.225896  1
  I  I18  1  0.228518  0.073941  0.681411  1
  I  I19  1  0.688862  0.230509  0.073465  1
