# generated using pymatgen
data_In3Te3Cl
_symmetry_space_group_name_H-M   'P 1'
_cell_length_a   4.40435400
_cell_length_b   11.85533600
_cell_length_c   21.35706600
_cell_angle_alpha   90.00000000
_cell_angle_beta   90.00000000
_cell_angle_gamma   90.00000000
_symmetry_Int_Tables_number   1
_chemical_formula_structural   In3Te3Cl
_chemical_formula_sum   'In12 Te12 Cl4'
_cell_volume   1115.16126285
_cell_formula_units_Z   4
loop_
 _symmetry_equiv_pos_site_id
 _symmetry_equiv_pos_as_xyz
  1  'x, y, z'
loop_
 _atom_site_type_symbol
 _atom_site_label
 _atom_site_symmetry_multiplicity
 _atom_site_fract_x
 _atom_site_fract_y
 _atom_site_fract_z
 _atom_site_occupancy
  In  In0  1  0.750000  0.825354  0.508528  1
  In  In1  1  0.250000  0.174646  0.491472  1
  In  In2  1  0.250000  0.674646  0.008528  1
  In  In3  1  0.750000  0.325354  0.991472  1
  In  In4  1  0.750000  0.952131  0.397056  1
  In  In5  1  0.250000  0.047869  0.602944  1
  In  In6  1  0.250000  0.547869  0.897056  1
  In  In7  1  0.750000  0.452131  0.102944  1
  In  In8  1  0.750000  0.839562  0.867623  1
  In  In9  1  0.250000  0.160438  0.132377  1
  In  In10  1  0.250000  0.660438  0.367623  1
  In  In11  1  0.750000  0.339562  0.632377  1
  Te  Te12  1  0.750000  0.770300  0.306797  1
  Te  Te13  1  0.250000  0.229700  0.693203  1
  Te  Te14  1  0.250000  0.729700  0.806797  1
  Te  Te15  1  0.750000  0.270300  0.193203  1
  Te  Te16  1  0.750000  0.834675  0.000752  1
  Te  Te17  1  0.250000  0.165325  0.999248  1
  Te  Te18  1  0.250000  0.665325  0.500752  1
  Te  Te19  1  0.750000  0.334675  0.499248  1
  Te  Te20  1  0.750000  0.901700  0.635478  1
  Te  Te21  1  0.250000  0.098300  0.364522  1
  Te  Te22  1  0.250000  0.598300  0.135478  1
  Te  Te23  1  0.750000  0.401700  0.864522  1
  Cl  Cl24  1  0.750000  0.533727  0.664943  1
  Cl  Cl25  1  0.250000  0.466273  0.335057  1
  Cl  Cl26  1  0.250000  0.966273  0.164943  1
  Cl  Cl27  1  0.750000  0.033727  0.835057  1
