# generated using pymatgen
data_YEr4ThRh18
_symmetry_space_group_name_H-M   'P 1'
_cell_length_a   5.26730500
_cell_length_b   5.26730567
_cell_length_c   17.55546400
_cell_angle_alpha   90.00000000
_cell_angle_beta   90.00000000
_cell_angle_gamma   119.99998952
_symmetry_Int_Tables_number   1
_chemical_formula_structural   YEr4ThRh18
_chemical_formula_sum   'Y1 Er4 Th1 Rh18'
_cell_volume   421.81301771
_cell_formula_units_Z   1
loop_
 _symmetry_equiv_pos_site_id
 _symmetry_equiv_pos_as_xyz
  1  'x, y, z'
loop_
 _atom_site_type_symbol
 _atom_site_label
 _atom_site_symmetry_multiplicity
 _atom_site_fract_x
 _atom_site_fract_y
 _atom_site_fract_z
 _atom_site_occupancy
  Y  Y0  1  0.666667  0.333333  0.250000  1
  Er  Er1  1  0.333333  0.666667  0.960564  1
  Er  Er2  1  0.666667  0.333333  0.042504  1
  Er  Er3  1  0.666667  0.333333  0.457496  1
  Er  Er4  1  0.333333  0.666667  0.539436  1
  Th  Th5  1  0.333333  0.666667  0.750000  1
  Rh  Rh6  1  0.167567  0.832433  0.374491  1
  Rh  Rh7  1  0.167567  0.335133  0.374491  1
  Rh  Rh8  1  0.664867  0.832433  0.374491  1
  Rh  Rh9  1  0.832502  0.167498  0.624007  1
  Rh  Rh10  1  0.832502  0.665005  0.624007  1
  Rh  Rh11  1  0.334995  0.167498  0.624007  1
  Rh  Rh12  1  0.832502  0.167498  0.875993  1
  Rh  Rh13  1  0.832502  0.665005  0.875993  1
  Rh  Rh14  1  0.334995  0.167498  0.875993  1
  Rh  Rh15  1  0.167567  0.832433  0.125509  1
  Rh  Rh16  1  0.167567  0.335133  0.125509  1
  Rh  Rh17  1  0.664867  0.832433  0.125509  1
  Rh  Rh18  1  0.333333  0.666667  0.250000  1
  Rh  Rh19  1  0.666667  0.333333  0.750000  1
  Rh  Rh20  1  0.000000  0.000000  0.250000  1
  Rh  Rh21  1  0.000000  0.000000  0.750000  1
  Rh  Rh22  1  0.000000  0.000000  0.499455  1
  Rh  Rh23  1  0.000000  0.000000  0.000545  1
