# generated using pymatgen
data_Zr2SnPdRh4
_symmetry_space_group_name_H-M   'P 1'
_cell_length_a   5.64727453
_cell_length_b   5.64727458
_cell_length_c   8.43672800
_cell_angle_alpha   90.00000000
_cell_angle_beta   90.00000000
_cell_angle_gamma   98.80434552
_symmetry_Int_Tables_number   1
_chemical_formula_structural   Zr2SnPdRh4
_chemical_formula_sum   'Zr4 Sn2 Pd2 Rh8'
_cell_volume   265.89126793
_cell_formula_units_Z   2
loop_
 _symmetry_equiv_pos_site_id
 _symmetry_equiv_pos_as_xyz
  1  'x, y, z'
loop_
 _atom_site_type_symbol
 _atom_site_label
 _atom_site_symmetry_multiplicity
 _atom_site_fract_x
 _atom_site_fract_y
 _atom_site_fract_z
 _atom_site_occupancy
  Zr  Zr0  1  0.779582  0.220418  0.500000  1
  Zr  Zr1  1  0.220418  0.779582  0.000000  1
  Zr  Zr2  1  0.220418  0.779582  0.500000  1
  Zr  Zr3  1  0.779582  0.220418  0.000000  1
  Sn  Sn4  1  0.501897  0.501897  0.750000  1
  Sn  Sn5  1  0.498103  0.498103  0.250000  1
  Pd  Pd6  1  0.000343  0.000343  0.250000  1
  Pd  Pd7  1  0.999657  0.999657  0.750000  1
  Rh  Rh8  1  0.729191  0.729191  0.000997  1
  Rh  Rh9  1  0.729191  0.729191  0.499003  1
  Rh  Rh10  1  0.270809  0.270809  0.999003  1
  Rh  Rh11  1  0.270809  0.270809  0.500997  1
  Rh  Rh12  1  0.499991  0.000591  0.750000  1
  Rh  Rh13  1  0.500009  0.999409  0.250000  1
  Rh  Rh14  1  0.000591  0.499991  0.750000  1
  Rh  Rh15  1  0.999409  0.500009  0.250000  1
