# generated using pymatgen
data_LaSm(MoO4)3
_symmetry_space_group_name_H-M   'P 1'
_cell_length_a   7.65128000
_cell_length_b   7.65127993
_cell_length_c   10.97127200
_cell_angle_alpha   90.00000000
_cell_angle_beta   90.00000000
_cell_angle_gamma   89.60695372
_symmetry_Int_Tables_number   1
_chemical_formula_structural   LaSm(MoO4)3
_chemical_formula_sum   'La2 Sm2 Mo6 O24'
_cell_volume   642.26602638
_cell_formula_units_Z   2
loop_
 _symmetry_equiv_pos_site_id
 _symmetry_equiv_pos_as_xyz
  1  'x, y, z'
loop_
 _atom_site_type_symbol
 _atom_site_label
 _atom_site_symmetry_multiplicity
 _atom_site_fract_x
 _atom_site_fract_y
 _atom_site_fract_z
 _atom_site_occupancy
  La  La0  1  0.690300  0.190300  0.260900  1
  La  La1  1  0.309700  0.809700  0.260900  1
  Sm  Sm2  1  0.188587  0.311413  0.737516  1
  Sm  Sm3  1  0.811413  0.688587  0.737516  1
  Mo  Mo4  1  0.708144  0.208144  0.647691  1
  Mo  Mo5  1  0.291856  0.791856  0.647691  1
  Mo  Mo6  1  0.208480  0.291520  0.359634  1
  Mo  Mo7  1  0.791520  0.708480  0.359634  1
  Mo  Mo8  1  0.500000  0.500000  0.993975  1
  Mo  Mo9  1  0.000000  0.000000  0.993975  1
  O  O10  1  0.697430  0.197430  0.485594  1
  O  O11  1  0.302570  0.802570  0.485594  1
  O  O12  1  0.195069  0.304931  0.521684  1
  O  O13  1  0.804931  0.695069  0.521684  1
  O  O14  1  0.128350  0.628350  0.692402  1
  O  O15  1  0.871650  0.371650  0.692402  1
  O  O16  1  0.628582  0.871418  0.313682  1
  O  O17  1  0.371418  0.128582  0.313682  1
  O  O18  1  0.273981  0.497268  0.299471  1
  O  O19  1  0.726019  0.502732  0.299471  1
  O  O20  1  0.997268  0.773981  0.299471  1
  O  O21  1  0.002732  0.226019  0.299471  1
  O  O22  1  0.501569  0.727309  0.704223  1
  O  O23  1  0.498431  0.272691  0.704223  1
  O  O24  1  0.227309  0.001569  0.704223  1
  O  O25  1  0.772691  0.998431  0.704223  1
  O  O26  1  0.313230  0.457089  0.900109  1
  O  O27  1  0.686770  0.542911  0.900109  1
  O  O28  1  0.957089  0.813230  0.900109  1
  O  O29  1  0.042911  0.186770  0.900109  1
  O  O30  1  0.457383  0.685312  0.089657  1
  O  O31  1  0.542617  0.314688  0.089657  1
  O  O32  1  0.185312  0.957383  0.089657  1
  O  O33  1  0.814688  0.042617  0.089657  1
