# generated using pymatgen
data_KAgAu2(BrO3)8
_symmetry_space_group_name_H-M   'P 1'
_cell_length_a   6.11724241
_cell_length_b   8.24807441
_cell_length_c   14.52392550
_cell_angle_alpha   73.68857196
_cell_angle_beta   92.04399000
_cell_angle_gamma   92.10949501
_symmetry_Int_Tables_number   1
_chemical_formula_structural   KAgAu2(BrO3)8
_chemical_formula_sum   'K1 Ag1 Au2 Br8 O24'
_cell_volume   702.59355261
_cell_formula_units_Z   1
loop_
 _symmetry_equiv_pos_site_id
 _symmetry_equiv_pos_as_xyz
  1  'x, y, z'
loop_
 _atom_site_type_symbol
 _atom_site_label
 _atom_site_symmetry_multiplicity
 _atom_site_fract_x
 _atom_site_fract_y
 _atom_site_fract_z
 _atom_site_occupancy
  K  K0  1  0.922262  0.044204  0.953377  1
  Ag  Ag1  1  0.069098  0.102581  0.445743  1
  Au  Au2  1  0.742087  0.493025  0.009074  1
  Au  Au3  1  0.257299  0.491522  0.504144  1
  Br  Br4  1  0.456345  0.312116  0.856643  1
  Br  Br5  1  0.994779  0.733140  0.612202  1
  Br  Br6  1  0.016072  0.690760  0.149627  1
  Br  Br7  1  0.531264  0.285468  0.360136  1
  Br  Br8  1  0.046599  0.208015  0.175882  1
  Br  Br9  1  0.567626  0.765490  0.334647  1
  Br  Br10  1  0.464791  0.783726  0.836197  1
  Br  Br11  1  0.907517  0.231096  0.663819  1
  O  O12  1  0.712768  0.402185  0.892507  1
  O  O13  1  0.225504  0.600826  0.612465  1
  O  O14  1  0.772532  0.567760  0.130147  1
  O  O15  1  0.276698  0.361547  0.404590  1
  O  O16  1  0.563705  0.146535  0.832399  1
  O  O17  1  0.116027  0.883439  0.651605  1
  O  O18  1  0.902732  0.865121  0.159422  1
  O  O19  1  0.397324  0.111035  0.349530  1
  O  O20  1  0.895577  0.177710  0.273052  1
  O  O21  1  0.392802  0.794710  0.242752  1
  O  O22  1  0.631137  0.807406  0.746343  1
  O  O23  1  0.054506  0.205083  0.764758  1
  O  O24  1  0.205328  0.378471  0.165109  1
  O  O25  1  0.706028  0.591143  0.344484  1
  O  O26  1  0.300286  0.615936  0.846367  1
  O  O27  1  0.774694  0.409668  0.639986  1
  O  O28  1  0.317334  0.239751  0.955994  1
  O  O29  1  0.930302  0.825909  0.496014  1
  O  O30  1  0.138153  0.742792  0.045264  1
  O  O31  1  0.699212  0.227961  0.454724  1
  O  O32  1  0.852261  0.256504  0.075478  1
  O  O33  1  0.405169  0.717282  0.440022  1
  O  O34  1  0.642203  0.731280  0.943713  1
  O  O35  1  0.111978  0.263839  0.571498  1
