# generated using pymatgen
data_Dy14Th2Cd4CoNi3
_symmetry_space_group_name_H-M   'P 1'
_cell_length_a   9.57722079
_cell_length_b   9.57721987
_cell_length_c   9.60757132
_cell_angle_alpha   59.91928057
_cell_angle_beta   59.91928524
_cell_angle_gamma   60.00782019
_symmetry_Int_Tables_number   1
_chemical_formula_structural   Dy14Th2Cd4CoNi3
_chemical_formula_sum   'Dy14 Th2 Cd4 Co1 Ni3'
_cell_volume   622.40380622
_cell_formula_units_Z   1
loop_
 _symmetry_equiv_pos_site_id
 _symmetry_equiv_pos_as_xyz
  1  'x, y, z'
loop_
 _atom_site_type_symbol
 _atom_site_label
 _atom_site_symmetry_multiplicity
 _atom_site_fract_x
 _atom_site_fract_y
 _atom_site_fract_z
 _atom_site_occupancy
  Dy  Dy0  1  0.598759  0.201867  0.598642  1
  Dy  Dy1  1  0.201867  0.598759  0.598642  1
  Dy  Dy2  1  0.065885  0.439301  0.438431  1
  Dy  Dy3  1  0.438598  0.062236  0.062883  1
  Dy  Dy4  1  0.439301  0.065885  0.438431  1
  Dy  Dy5  1  0.062236  0.438598  0.062883  1
  Dy  Dy6  1  0.437788  0.437788  0.064918  1
  Dy  Dy7  1  0.062053  0.062053  0.437771  1
  Dy  Dy8  1  0.188048  0.816350  0.814420  1
  Dy  Dy9  1  0.812334  0.185603  0.184545  1
  Dy  Dy10  1  0.816350  0.188048  0.814420  1
  Dy  Dy11  1  0.185603  0.812334  0.184545  1
  Dy  Dy12  1  0.813317  0.813317  0.187053  1
  Dy  Dy13  1  0.187414  0.187414  0.811506  1
  Th  Th14  1  0.593861  0.593861  0.597906  1
  Th  Th15  1  0.590535  0.590535  0.213129  1
  Cd  Cd16  1  0.831085  0.831085  0.829286  1
  Cd  Cd17  1  0.831774  0.831774  0.505550  1
  Cd  Cd18  1  0.831375  0.505740  0.830947  1
  Cd  Cd19  1  0.505740  0.831375  0.830947  1
  Co  Co20  1  0.397722  0.397722  0.386259  1
  Ni  Ni21  1  0.391632  0.391632  0.821881  1
  Ni  Ni22  1  0.395769  0.820957  0.392503  1
  Ni  Ni23  1  0.820957  0.395769  0.392503  1
