# generated using pymatgen
data_Ta3Co2(B2Mo)3
_symmetry_space_group_name_H-M   'P 1'
_cell_length_a   3.21402200
_cell_length_b   4.58439983
_cell_length_c   10.93522423
_cell_angle_alpha   89.97807596
_cell_angle_beta   90.00000000
_cell_angle_gamma   110.52028720
_symmetry_Int_Tables_number   1
_chemical_formula_structural   Ta3Co2(B2Mo)3
_chemical_formula_sum   'Ta3 Co2 B6 Mo3'
_cell_volume   150.89994818
_cell_formula_units_Z   1
loop_
 _symmetry_equiv_pos_site_id
 _symmetry_equiv_pos_as_xyz
  1  'x, y, z'
loop_
 _atom_site_type_symbol
 _atom_site_label
 _atom_site_symmetry_multiplicity
 _atom_site_fract_x
 _atom_site_fract_y
 _atom_site_fract_z
 _atom_site_occupancy
  Ta  Ta0  1  0.207876  0.415752  0.393115  1
  Ta  Ta1  1  0.793091  0.586181  0.608199  1
  Ta  Ta2  1  0.208936  0.417873  0.102829  1
  Co  Co3  1  0.500065  0.000130  0.500944  1
  Co  Co4  1  0.499299  0.998598  0.998119  1
  B  B5  1  0.912793  0.825586  0.393722  1
  B  B6  1  0.087903  0.175807  0.606705  1
  B  B7  1  0.914746  0.829492  0.104435  1
  B  B8  1  0.086426  0.172853  0.895546  1
  B  B9  1  0.794234  0.588468  0.248445  1
  B  B10  1  0.206798  0.413594  0.752148  1
  Mo  Mo11  1  0.787832  0.575664  0.893330  1
  Mo  Mo12  1  0.497867  0.995733  0.250248  1
  Mo  Mo13  1  0.502134  0.004269  0.752214  1
