# generated using pymatgen
data_Sm3Y4BI12
_symmetry_space_group_name_H-M   'P 1'
_cell_length_a   9.72021102
_cell_length_b   9.71110047
_cell_length_c   9.71765508
_cell_angle_alpha   107.80685430
_cell_angle_beta   107.81081490
_cell_angle_gamma   107.67877772
_symmetry_Int_Tables_number   1
_chemical_formula_structural   Sm3Y4BI12
_chemical_formula_sum   'Sm3 Y4 B1 I12'
_cell_volume   747.39957143
_cell_formula_units_Z   1
loop_
 _symmetry_equiv_pos_site_id
 _symmetry_equiv_pos_as_xyz
  1  'x, y, z'
loop_
 _atom_site_type_symbol
 _atom_site_label
 _atom_site_symmetry_multiplicity
 _atom_site_fract_x
 _atom_site_fract_y
 _atom_site_fract_z
 _atom_site_occupancy
  Sm  Sm0  1  0.701546  0.960452  0.893152  1
  Sm  Sm1  1  0.959331  0.893046  0.701071  1
  Sm  Sm2  1  0.523320  0.523404  0.523609  1
  Y  Y3  1  0.095435  0.290064  0.027125  1
  Y  Y4  1  0.290860  0.027294  0.096013  1
  Y  Y5  1  0.895380  0.706617  0.960142  1
  Y  Y6  1  0.027159  0.095884  0.290889  1
  B  B7  1  0.006776  0.005728  0.007047  1
  I  I8  1  0.079032  0.227117  0.688079  1
  I  I9  1  0.384443  0.155866  0.463695  1
  I  I10  1  0.606529  0.854695  0.522178  1
  I  I11  1  0.221504  0.687108  0.076234  1
  I  I12  1  0.777404  0.316770  0.926424  1
  I  I13  1  0.687850  0.078172  0.227204  1
  I  I14  1  0.529880  0.607285  0.858374  1
  I  I15  1  0.855407  0.523490  0.612234  1
  I  I16  1  0.924818  0.773901  0.309102  1
  I  I17  1  0.313581  0.924387  0.775720  1
  I  I18  1  0.463367  0.384813  0.156334  1
  I  I19  1  0.156378  0.463908  0.385376  1
