# generated using pymatgen
data_Dy5Er11Cd4Ir3Pt
_symmetry_space_group_name_H-M   'P 1'
_cell_length_a   9.59505074
_cell_length_b   9.59030793
_cell_length_c   9.59030880
_cell_angle_alpha   60.10052806
_cell_angle_beta   60.08375994
_cell_angle_gamma   60.08375848
_symmetry_Int_Tables_number   1
_chemical_formula_structural   Dy5Er11Cd4Ir3Pt
_chemical_formula_sum   'Dy5 Er11 Cd4 Ir3 Pt1'
_cell_volume   625.28179960
_cell_formula_units_Z   1
loop_
 _symmetry_equiv_pos_site_id
 _symmetry_equiv_pos_as_xyz
  1  'x, y, z'
loop_
 _atom_site_type_symbol
 _atom_site_label
 _atom_site_symmetry_multiplicity
 _atom_site_fract_x
 _atom_site_fract_y
 _atom_site_fract_z
 _atom_site_occupancy
  Dy  Dy0  1  0.813423  0.187694  0.187694  1
  Dy  Dy1  1  0.812879  0.188099  0.812447  1
  Dy  Dy2  1  0.187646  0.813463  0.187271  1
  Dy  Dy3  1  0.812879  0.812447  0.188099  1
  Dy  Dy4  1  0.187646  0.187271  0.813463  1
  Er  Er5  1  0.597694  0.597919  0.597919  1
  Er  Er6  1  0.601890  0.602093  0.199861  1
  Er  Er7  1  0.601890  0.199861  0.602093  1
  Er  Er8  1  0.199697  0.602134  0.602134  1
  Er  Er9  1  0.056447  0.440080  0.440080  1
  Er  Er10  1  0.437584  0.060845  0.060845  1
  Er  Er11  1  0.439830  0.056437  0.440339  1
  Er  Er12  1  0.060909  0.437849  0.060669  1
  Er  Er13  1  0.439830  0.440339  0.056437  1
  Er  Er14  1  0.060909  0.060669  0.437849  1
  Er  Er15  1  0.188737  0.812351  0.812351  1
  Cd  Cd16  1  0.831155  0.830829  0.830829  1
  Cd  Cd17  1  0.830814  0.830789  0.507032  1
  Cd  Cd18  1  0.830814  0.507032  0.830789  1
  Cd  Cd19  1  0.506778  0.830759  0.830759  1
  Ir  Ir20  1  0.391608  0.392107  0.824537  1
  Ir  Ir21  1  0.391608  0.824537  0.392107  1
  Ir  Ir22  1  0.824671  0.391752  0.391752  1
  Pt  Pt23  1  0.392658  0.392640  0.392640  1
