# generated using pymatgen
data_Y2InGa6Ni2Ag
_symmetry_space_group_name_H-M   'P 1'
_cell_length_a   8.10229880
_cell_length_b   8.10229908
_cell_length_c   6.50446739
_cell_angle_alpha   90.51453943
_cell_angle_beta   89.48546913
_cell_angle_gamma   150.06705938
_symmetry_Int_Tables_number   1
_chemical_formula_structural   Y2InGa6Ni2Ag
_chemical_formula_sum   'Y2 In1 Ga6 Ni2 Ag1'
_cell_volume   213.05803226
_cell_formula_units_Z   1
loop_
 _symmetry_equiv_pos_site_id
 _symmetry_equiv_pos_as_xyz
  1  'x, y, z'
loop_
 _atom_site_type_symbol
 _atom_site_label
 _atom_site_symmetry_multiplicity
 _atom_site_fract_x
 _atom_site_fract_y
 _atom_site_fract_z
 _atom_site_occupancy
  Y  Y0  1  0.373298  0.626702  0.743388  1
  Y  Y1  1  0.626702  0.373298  0.256612  1
  In  In2  1  0.000000  0.000000  0.500000  1
  Ga  Ga3  1  0.570099  0.429901  0.776045  1
  Ga  Ga4  1  0.429901  0.570099  0.223955  1
  Ga  Ga5  1  0.184897  0.815103  0.954196  1
  Ga  Ga6  1  0.815103  0.184897  0.045804  1
  Ga  Ga7  1  0.189274  0.810726  0.552150  1
  Ga  Ga8  1  0.810726  0.189274  0.447850  1
  Ni  Ni9  1  0.720388  0.279612  0.752097  1
  Ni  Ni10  1  0.279612  0.720388  0.247903  1
  Ag  Ag11  1  0.000000  0.000000  0.000000  1
