# generated using pymatgen
data_Tm9Lu3Co3Tc
_symmetry_space_group_name_H-M   'P 1'
_cell_length_a   6.19678019
_cell_length_b   7.02977382
_cell_length_c   9.00882323
_cell_angle_alpha   89.99951645
_cell_angle_beta   90.02601819
_cell_angle_gamma   90.09534393
_symmetry_Int_Tables_number   1
_chemical_formula_structural   Tm9Lu3Co3Tc
_chemical_formula_sum   'Tm9 Lu3 Co3 Tc1'
_cell_volume   392.44144122
_cell_formula_units_Z   1
loop_
 _symmetry_equiv_pos_site_id
 _symmetry_equiv_pos_as_xyz
  1  'x, y, z'
loop_
 _atom_site_type_symbol
 _atom_site_label
 _atom_site_symmetry_multiplicity
 _atom_site_fract_x
 _atom_site_fract_y
 _atom_site_fract_z
 _atom_site_occupancy
  Tm  Tm0  1  0.326285  0.673552  0.064668  1
  Tm  Tm1  1  0.176298  0.181219  0.436636  1
  Tm  Tm2  1  0.676469  0.322169  0.566554  1
  Tm  Tm3  1  0.829962  0.826353  0.936845  1
  Tm  Tm4  1  0.676720  0.321973  0.933541  1
  Tm  Tm5  1  0.829593  0.826080  0.563047  1
  Tm  Tm6  1  0.862169  0.535078  0.250114  1
  Tm  Tm7  1  0.135884  0.458164  0.749944  1
  Tm  Tm8  1  0.365299  0.954621  0.750094  1
  Lu  Lu9  1  0.326567  0.673460  0.435401  1
  Lu  Lu10  1  0.176009  0.181012  0.063280  1
  Lu  Lu11  1  0.620572  0.043695  0.249900  1
  Co  Co12  1  0.460453  0.386977  0.249991  1
  Co  Co13  1  0.963752  0.114459  0.750227  1
  Co  Co14  1  0.540397  0.610735  0.749716  1
  Tc  Tc15  1  0.033569  0.890455  0.250042  1
