# generated using pymatgen
data_Pr10In3Bi3Se2
_symmetry_space_group_name_H-M   'P 1'
_cell_length_a   9.66585384
_cell_length_b   9.65800890
_cell_length_c   7.01378500
_cell_angle_alpha   90.00000000
_cell_angle_beta   90.00000000
_cell_angle_gamma   120.40557745
_symmetry_Int_Tables_number   1
_chemical_formula_structural   Pr10In3Bi3Se2
_chemical_formula_sum   'Pr10 In3 Bi3 Se2'
_cell_volume   564.70476767
_cell_formula_units_Z   1
loop_
 _symmetry_equiv_pos_site_id
 _symmetry_equiv_pos_as_xyz
  1  'x, y, z'
loop_
 _atom_site_type_symbol
 _atom_site_label
 _atom_site_symmetry_multiplicity
 _atom_site_fract_x
 _atom_site_fract_y
 _atom_site_fract_z
 _atom_site_occupancy
  Pr  Pr0  1  0.249315  0.996101  0.750000  1
  Pr  Pr1  1  0.747460  0.999003  0.250000  1
  Pr  Pr2  1  0.997789  0.250326  0.750000  1
  Pr  Pr3  1  0.002534  0.751026  0.250000  1
  Pr  Pr4  1  0.749842  0.747473  0.750000  1
  Pr  Pr5  1  0.251967  0.249511  0.250000  1
  Pr  Pr6  1  0.331789  0.673674  0.500759  1
  Pr  Pr7  1  0.668312  0.328472  0.499642  1
  Pr  Pr8  1  0.668312  0.328472  0.000358  1
  Pr  Pr9  1  0.331789  0.673674  0.999241  1
  In  In10  1  0.604054  0.000852  0.750000  1
  In  In11  1  0.397678  0.001560  0.250000  1
  In  In12  1  0.998867  0.605028  0.750000  1
  Bi  Bi13  1  0.000870  0.394748  0.250000  1
  Bi  Bi14  1  0.394156  0.393929  0.750000  1
  Bi  Bi15  1  0.606194  0.604931  0.250000  1
  Se  Se16  1  0.999536  0.000611  0.499833  1
  Se  Se17  1  0.999536  0.000611  0.000167  1
