# generated using pymatgen
data_Er10Tl6InHgRu4
_symmetry_space_group_name_H-M   'P 1'
_cell_length_a   3.66567700
_cell_length_b   7.87080679
_cell_length_c   18.27788430
_cell_angle_alpha   90.11909781
_cell_angle_beta   90.00000000
_cell_angle_gamma   90.00000000
_symmetry_Int_Tables_number   1
_chemical_formula_structural   Er10Tl6InHgRu4
_chemical_formula_sum   'Er10 Tl6 In1 Hg1 Ru4'
_cell_volume   527.34937010
_cell_formula_units_Z   1
loop_
 _symmetry_equiv_pos_site_id
 _symmetry_equiv_pos_as_xyz
  1  'x, y, z'
loop_
 _atom_site_type_symbol
 _atom_site_label
 _atom_site_symmetry_multiplicity
 _atom_site_fract_x
 _atom_site_fract_y
 _atom_site_fract_z
 _atom_site_occupancy
  Er  Er0  1  0.000000  0.500733  0.500747  1
  Er  Er1  1  0.000000  0.998169  0.996878  1
  Er  Er2  1  0.000000  0.743159  0.279514  1
  Er  Er3  1  0.000000  0.254840  0.720423  1
  Er  Er4  1  0.000000  0.757729  0.783217  1
  Er  Er5  1  0.000000  0.243251  0.220248  1
  Er  Er6  1  0.000000  0.613084  0.089549  1
  Er  Er7  1  0.000000  0.392687  0.909515  1
  Er  Er8  1  0.000000  0.888851  0.592785  1
  Er  Er9  1  0.000000  0.112754  0.408709  1
  Tl  Tl10  1  0.500000  0.291845  0.064967  1
  Tl  Tl11  1  0.500000  0.793049  0.434827  1
  Tl  Tl12  1  0.500000  0.205802  0.565570  1
  Tl  Tl13  1  0.500000  0.580551  0.649888  1
  Tl  Tl14  1  0.500000  0.422092  0.350513  1
  Tl  Tl15  1  0.500000  0.921555  0.148510  1
  In  In16  1  0.500000  0.083976  0.849345  1
  Hg  Hg17  1  0.500000  0.710709  0.934272  1
  Ru  Ru18  1  0.500000  0.521699  0.194352  1
  Ru  Ru19  1  0.500000  0.467352  0.802699  1
  Ru  Ru20  1  0.500000  0.975756  0.699880  1
  Ru  Ru21  1  0.500000  0.020359  0.303595  1
