# generated using pymatgen
data_K2ThHCl7
_symmetry_space_group_name_H-M   'P 1'
_cell_length_a   8.08331541
_cell_length_b   7.86873500
_cell_length_c   11.91805600
_cell_angle_alpha   90.00000000
_cell_angle_beta   98.10520434
_cell_angle_gamma   90.00000000
_symmetry_Int_Tables_number   1
_chemical_formula_structural   K2ThHCl7
_chemical_formula_sum   'K4 Th2 H2 Cl14'
_cell_volume   750.48120970
_cell_formula_units_Z   2
loop_
 _symmetry_equiv_pos_site_id
 _symmetry_equiv_pos_as_xyz
  1  'x, y, z'
loop_
 _atom_site_type_symbol
 _atom_site_label
 _atom_site_symmetry_multiplicity
 _atom_site_fract_x
 _atom_site_fract_y
 _atom_site_fract_z
 _atom_site_occupancy
  K  K0  1  0.234873  0.250000  0.998784  1
  K  K1  1  0.765127  0.750000  0.001216  1
  K  K2  1  0.192100  0.750000  0.677873  1
  K  K3  1  0.807900  0.250000  0.322127  1
  Th  Th4  1  0.300491  0.750000  0.218251  1
  Th  Th5  1  0.699509  0.250000  0.781749  1
  H  H6  1  0.328540  0.250000  0.531864  1
  H  H7  1  0.671460  0.750000  0.468136  1
  Cl  Cl8  1  0.171134  0.250000  0.547104  1
  Cl  Cl9  1  0.828866  0.750000  0.452896  1
  Cl  Cl10  1  0.387291  0.750000  0.448075  1
  Cl  Cl11  1  0.612709  0.250000  0.551925  1
  Cl  Cl12  1  0.067843  0.506461  0.221261  1
  Cl  Cl13  1  0.932157  0.006461  0.778739  1
  Cl  Cl14  1  0.932157  0.493539  0.778739  1
  Cl  Cl15  1  0.067843  0.993539  0.221261  1
  Cl  Cl16  1  0.202848  0.750000  0.993549  1
  Cl  Cl17  1  0.797152  0.250000  0.006451  1
  Cl  Cl18  1  0.527836  0.989970  0.182206  1
  Cl  Cl19  1  0.472164  0.489970  0.817794  1
  Cl  Cl20  1  0.472164  0.010030  0.817794  1
  Cl  Cl21  1  0.527836  0.510030  0.182206  1
