# generated using pymatgen
data_Hf4Zn5Re3
_symmetry_space_group_name_H-M   'P 1'
_cell_length_a   5.23154800
_cell_length_b   5.23201612
_cell_length_c   17.06256300
_cell_angle_alpha   90.00000000
_cell_angle_beta   90.00000000
_cell_angle_gamma   119.99704032
_symmetry_Int_Tables_number   1
_chemical_formula_structural   Hf4Zn5Re3
_chemical_formula_sum   'Hf8 Zn10 Re6'
_cell_volume   404.47076730
_cell_formula_units_Z   2
loop_
 _symmetry_equiv_pos_site_id
 _symmetry_equiv_pos_as_xyz
  1  'x, y, z'
loop_
 _atom_site_type_symbol
 _atom_site_label
 _atom_site_symmetry_multiplicity
 _atom_site_fract_x
 _atom_site_fract_y
 _atom_site_fract_z
 _atom_site_occupancy
  Hf  Hf0  1  0.000001  0.000002  0.089603  1
  Hf  Hf1  1  0.666669  0.333340  0.152462  1
  Hf  Hf2  1  0.666669  0.333340  0.347538  1
  Hf  Hf3  1  0.000001  0.000002  0.410397  1
  Hf  Hf4  1  0.999999  0.999998  0.589603  1
  Hf  Hf5  1  0.333330  0.666661  0.652462  1
  Hf  Hf6  1  0.333330  0.666661  0.847538  1
  Hf  Hf7  1  0.999999  0.999998  0.910397  1
  Zn  Zn8  1  0.333331  0.666662  0.130573  1
  Zn  Zn9  1  0.160196  0.320393  0.250000  1
  Zn  Zn10  1  0.160197  0.839812  0.250000  1
  Zn  Zn11  1  0.679614  0.839812  0.250000  1
  Zn  Zn12  1  0.333331  0.666662  0.369427  1
  Zn  Zn13  1  0.666669  0.333339  0.630573  1
  Zn  Zn14  1  0.320387  0.160189  0.750000  1
  Zn  Zn15  1  0.839803  0.160189  0.750000  1
  Zn  Zn16  1  0.839803  0.679605  0.750000  1
  Zn  Zn17  1  0.666669  0.333339  0.869427  1
  Re  Re18  1  0.500000  0.000000  0.000000  1
  Re  Re19  1  0.000000  0.499999  0.000000  1
  Re  Re20  1  0.500000  0.499999  0.000000  1
  Re  Re21  1  0.500000  0.000000  0.500000  1
  Re  Re22  1  0.000000  0.499999  0.500000  1
  Re  Re23  1  0.500000  0.499999  0.500000  1
