# generated using pymatgen
data_Nd2Si(PRu2)6
_symmetry_space_group_name_H-M   'P 1'
_cell_length_a   9.49172400
_cell_length_b   9.49172340
_cell_length_c   3.97579300
_cell_angle_alpha   90.00000000
_cell_angle_beta   90.00000000
_cell_angle_gamma   119.99999510
_symmetry_Int_Tables_number   1
_chemical_formula_structural   Nd2Si(PRu2)6
_chemical_formula_sum   'Nd2 Si1 P6 Ru12'
_cell_volume   310.20199981
_cell_formula_units_Z   1
loop_
 _symmetry_equiv_pos_site_id
 _symmetry_equiv_pos_as_xyz
  1  'x, y, z'
loop_
 _atom_site_type_symbol
 _atom_site_label
 _atom_site_symmetry_multiplicity
 _atom_site_fract_x
 _atom_site_fract_y
 _atom_site_fract_z
 _atom_site_occupancy
  Nd  Nd0  1  0.000000  0.000000  0.000000  1
  Nd  Nd1  1  0.333333  0.666667  0.500000  1
  Si  Si2  1  0.666667  0.333333  0.000000  1
  P  P3  1  0.777342  0.727669  0.500000  1
  P  P4  1  0.272331  0.049673  0.500000  1
  P  P5  1  0.950327  0.222658  0.500000  1
  P  P6  1  0.087237  0.644037  0.000000  1
  P  P7  1  0.355963  0.443201  0.000000  1
  P  P8  1  0.556799  0.912763  0.000000  1
  Ru  Ru9  1  0.089753  0.398707  0.000000  1
  Ru  Ru10  1  0.601293  0.691045  0.000000  1
  Ru  Ru11  1  0.308955  0.910247  0.000000  1
  Ru  Ru12  1  0.059293  0.774449  0.500000  1
  Ru  Ru13  1  0.225551  0.284842  0.500000  1
  Ru  Ru14  1  0.715158  0.940707  0.500000  1
  Ru  Ru15  1  0.829884  0.610376  0.000000  1
  Ru  Ru16  1  0.389624  0.219509  0.000000  1
  Ru  Ru17  1  0.780491  0.170116  0.000000  1
  Ru  Ru18  1  0.874580  0.422240  0.500000  1
  Ru  Ru19  1  0.577760  0.452340  0.500000  1
  Ru  Ru20  1  0.547660  0.125420  0.500000  1
