# generated using pymatgen
data_TmLu2(InAg)3
_symmetry_space_group_name_H-M   'P 1'
_cell_length_a   7.81517900
_cell_length_b   7.82708011
_cell_length_c   3.86393000
_cell_angle_alpha   90.00000000
_cell_angle_beta   90.00000000
_cell_angle_gamma   119.94971907
_symmetry_Int_Tables_number   1
_chemical_formula_structural   TmLu2(InAg)3
_chemical_formula_sum   'Tm1 Lu2 In3 Ag3'
_cell_volume   204.79455647
_cell_formula_units_Z   1
loop_
 _symmetry_equiv_pos_site_id
 _symmetry_equiv_pos_as_xyz
  1  'x, y, z'
loop_
 _atom_site_type_symbol
 _atom_site_label
 _atom_site_symmetry_multiplicity
 _atom_site_fract_x
 _atom_site_fract_y
 _atom_site_fract_z
 _atom_site_occupancy
  Tm  Tm0  1  0.402503  0.000000  0.500001  1
  Lu  Lu1  1  0.000057  0.402429  0.500001  1
  Lu  Lu2  1  0.597627  0.597570  0.500001  1
  In  In3  1  0.735180  0.000000  0.000000  1
  In  In4  1  0.264922  0.265198  0.000000  1
  In  In5  1  0.999724  0.734801  0.000000  1
  Ag  Ag6  1  0.667341  0.334302  0.000000  1
  Ag  Ag7  1  0.333038  0.665697  0.000000  1
  Ag  Ag8  1  0.999608  0.000000  0.500001  1
