# generated using pymatgen
data_Ba3NdHo2LuO9
_symmetry_space_group_name_H-M   'P 1'
_cell_length_a   9.24941834
_cell_length_b   9.24941939
_cell_length_c   9.24942013
_cell_angle_alpha   38.91562172
_cell_angle_beta   38.91562273
_cell_angle_gamma   38.91562862
_symmetry_Int_Tables_number   1
_chemical_formula_structural   Ba3NdHo2LuO9
_chemical_formula_sum   'Ba3 Nd1 Ho2 Lu1 O9'
_cell_volume   280.76849865
_cell_formula_units_Z   1
loop_
 _symmetry_equiv_pos_site_id
 _symmetry_equiv_pos_as_xyz
  1  'x, y, z'
loop_
 _atom_site_type_symbol
 _atom_site_label
 _atom_site_symmetry_multiplicity
 _atom_site_fract_x
 _atom_site_fract_y
 _atom_site_fract_z
 _atom_site_occupancy
  Ba  Ba0  1  0.996336  0.996336  0.996336  1
  Ba  Ba1  1  0.164542  0.164542  0.164542  1
  Ba  Ba2  1  0.594067  0.594067  0.594067  1
  Nd  Nd3  1  0.422765  0.422765  0.422765  1
  Ho  Ho4  1  0.861657  0.861657  0.861657  1
  Ho  Ho5  1  0.735878  0.735878  0.735878  1
  Lu  Lu6  1  0.296389  0.296389  0.296389  1
  O  O7  1  0.033992  0.126282  0.581616  1
  O  O8  1  0.126282  0.581616  0.033992  1
  O  O9  1  0.581616  0.033992  0.126282  1
  O  O10  1  0.564482  0.102601  0.732407  1
  O  O11  1  0.102601  0.732407  0.564482  1
  O  O12  1  0.732407  0.564482  0.102601  1
  O  O13  1  0.495011  0.025453  0.535224  1
  O  O14  1  0.025453  0.535224  0.495011  1
  O  O15  1  0.535224  0.495011  0.025453  1
