# generated using pymatgen
data_Tb2Er8GaSb5
_symmetry_space_group_name_H-M   'P 1'
_cell_length_a   8.86266800
_cell_length_b   8.84885881
_cell_length_c   6.35092800
_cell_angle_alpha   90.00000000
_cell_angle_beta   90.00000000
_cell_angle_gamma   120.05163642
_symmetry_Int_Tables_number   1
_chemical_formula_structural   Tb2Er8GaSb5
_chemical_formula_sum   'Tb2 Er8 Ga1 Sb5'
_cell_volume   431.11522313
_cell_formula_units_Z   1
loop_
 _symmetry_equiv_pos_site_id
 _symmetry_equiv_pos_as_xyz
  1  'x, y, z'
loop_
 _atom_site_type_symbol
 _atom_site_label
 _atom_site_symmetry_multiplicity
 _atom_site_fract_x
 _atom_site_fract_y
 _atom_site_fract_z
 _atom_site_occupancy
  Tb  Tb0  1  0.999245  0.243679  0.250000  1
  Tb  Tb1  1  0.755567  0.756321  0.250000  1
  Er  Er2  1  0.011385  0.764857  0.750000  1
  Er  Er3  1  0.750543  0.000000  0.750000  1
  Er  Er4  1  0.246529  0.235143  0.750000  1
  Er  Er5  1  0.244761  0.000000  0.250000  1
  Er  Er6  1  0.334889  0.675373  0.501568  1
  Er  Er7  1  0.659516  0.324627  0.998432  1
  Er  Er8  1  0.659516  0.324627  0.501568  1
  Er  Er9  1  0.334889  0.675373  0.998432  1
  Ga  Ga10  1  0.393488  0.000000  0.750000  1
  Sb  Sb11  1  0.390343  0.392141  0.250000  1
  Sb  Sb12  1  0.998202  0.607859  0.250000  1
  Sb  Sb13  1  0.001995  0.389893  0.750000  1
  Sb  Sb14  1  0.612101  0.610107  0.750000  1
  Sb  Sb15  1  0.607031  0.000000  0.250000  1
