# generated using pymatgen
data_Pr2NdTm3Ta2O14
_symmetry_space_group_name_H-M   'P 1'
_cell_length_a   6.51487004
_cell_length_b   6.51752495
_cell_length_c   7.63242600
_cell_angle_alpha   90.00000000
_cell_angle_beta   90.00000000
_cell_angle_gamma   109.28272064
_symmetry_Int_Tables_number   1
_chemical_formula_structural   Pr2NdTm3Ta2O14
_chemical_formula_sum   'Pr2 Nd1 Tm3 Ta2 O14'
_cell_volume   305.89847846
_cell_formula_units_Z   1
loop_
 _symmetry_equiv_pos_site_id
 _symmetry_equiv_pos_as_xyz
  1  'x, y, z'
loop_
 _atom_site_type_symbol
 _atom_site_label
 _atom_site_symmetry_multiplicity
 _atom_site_fract_x
 _atom_site_fract_y
 _atom_site_fract_z
 _atom_site_occupancy
  Pr  Pr0  1  0.505714  0.506306  0.502579  1
  Pr  Pr1  1  0.505714  0.506306  0.997421  1
  Nd  Nd2  1  0.465753  0.001873  0.250000  1
  Tm  Tm3  1  0.002864  0.529795  0.250000  1
  Tm  Tm4  1  0.998944  0.467797  0.750000  1
  Tm  Tm5  1  0.533606  0.001189  0.750000  1
  Ta  Ta6  1  0.000814  0.000225  0.502879  1
  Ta  Ta7  1  0.000814  0.000225  0.997121  1
  O  O8  1  0.938489  0.071248  0.750000  1
  O  O9  1  0.057304  0.936465  0.250000  1
  O  O10  1  0.353496  0.633175  0.250000  1
  O  O11  1  0.648571  0.353589  0.750000  1
  O  O12  1  0.358437  0.638704  0.750000  1
  O  O13  1  0.647780  0.377496  0.250000  1
  O  O14  1  0.316991  0.069744  0.959305  1
  O  O15  1  0.675761  0.921723  0.480718  1
  O  O16  1  0.316991  0.069744  0.540695  1
  O  O17  1  0.675761  0.921723  0.019282  1
  O  O18  1  0.060448  0.316205  0.464389  1
  O  O19  1  0.937651  0.680132  0.966121  1
  O  O20  1  0.937651  0.680132  0.533879  1
  O  O21  1  0.060448  0.316205  0.035611  1
