# generated using pymatgen
data_Er2Lu2CoSi4Ru3
_symmetry_space_group_name_H-M   'P 1'
_cell_length_a   4.23762600
_cell_length_b   6.86777866
_cell_length_c   7.08781086
_cell_angle_alpha   89.89836374
_cell_angle_beta   90.00000000
_cell_angle_gamma   90.00000000
_symmetry_Int_Tables_number   1
_chemical_formula_structural   Er2Lu2CoSi4Ru3
_chemical_formula_sum   'Er2 Lu2 Co1 Si4 Ru3'
_cell_volume   206.27678367
_cell_formula_units_Z   1
loop_
 _symmetry_equiv_pos_site_id
 _symmetry_equiv_pos_as_xyz
  1  'x, y, z'
loop_
 _atom_site_type_symbol
 _atom_site_label
 _atom_site_symmetry_multiplicity
 _atom_site_fract_x
 _atom_site_fract_y
 _atom_site_fract_z
 _atom_site_occupancy
  Er  Er0  1  0.250000  0.491229  0.317050  1
  Er  Er1  1  0.250000  0.993870  0.190698  1
  Lu  Lu2  1  0.750000  0.014062  0.807935  1
  Lu  Lu3  1  0.750000  0.514782  0.689334  1
  Co  Co4  1  0.250000  0.149208  0.566006  1
  Si  Si5  1  0.750000  0.201060  0.401226  1
  Si  Si6  1  0.250000  0.296070  0.885376  1
  Si  Si7  1  0.750000  0.697596  0.104410  1
  Si  Si8  1  0.250000  0.807125  0.609283  1
  Ru  Ru9  1  0.750000  0.338961  0.061344  1
  Ru  Ru10  1  0.250000  0.650836  0.929806  1
  Ru  Ru11  1  0.750000  0.845198  0.437531  1
