# generated using pymatgen
data_Mg4Si4IrRu3
_symmetry_space_group_name_H-M   'P 1'
_cell_length_a   4.01960400
_cell_length_b   6.69423971
_cell_length_c   6.95110955
_cell_angle_alpha   89.75945570
_cell_angle_beta   90.00000000
_cell_angle_gamma   90.00000000
_symmetry_Int_Tables_number   1
_chemical_formula_structural   Mg4Si4IrRu3
_chemical_formula_sum   'Mg4 Si4 Ir1 Ru3'
_cell_volume   187.04014709
_cell_formula_units_Z   1
loop_
 _symmetry_equiv_pos_site_id
 _symmetry_equiv_pos_as_xyz
  1  'x, y, z'
loop_
 _atom_site_type_symbol
 _atom_site_label
 _atom_site_symmetry_multiplicity
 _atom_site_fract_x
 _atom_site_fract_y
 _atom_site_fract_z
 _atom_site_occupancy
  Mg  Mg0  1  0.250000  0.007271  0.831251  1
  Mg  Mg1  1  0.750000  0.990853  0.165667  1
  Mg  Mg2  1  0.250000  0.510273  0.671051  1
  Mg  Mg3  1  0.750000  0.490060  0.330419  1
  Si  Si4  1  0.250000  0.297472  0.124699  1
  Si  Si5  1  0.750000  0.700680  0.877302  1
  Si  Si6  1  0.250000  0.801222  0.371074  1
  Si  Si7  1  0.750000  0.203713  0.627393  1
  Ir  Ir8  1  0.750000  0.843950  0.553419  1
  Ru  Ru9  1  0.250000  0.156209  0.446438  1
  Ru  Ru10  1  0.750000  0.344123  0.945286  1
  Ru  Ru11  1  0.250000  0.654175  0.056002  1
