# generated using pymatgen
data_Tb4Cd2GaNi2
_symmetry_space_group_name_H-M   'P 1'
_cell_length_a   3.57842200
_cell_length_b   7.22529772
_cell_length_c   8.20510734
_cell_angle_alpha   73.25273349
_cell_angle_beta   90.00000000
_cell_angle_gamma   90.00000000
_symmetry_Int_Tables_number   1
_chemical_formula_structural   Tb4Cd2GaNi2
_chemical_formula_sum   'Tb4 Cd2 Ga1 Ni2'
_cell_volume   203.14631683
_cell_formula_units_Z   1
loop_
 _symmetry_equiv_pos_site_id
 _symmetry_equiv_pos_as_xyz
  1  'x, y, z'
loop_
 _atom_site_type_symbol
 _atom_site_label
 _atom_site_symmetry_multiplicity
 _atom_site_fract_x
 _atom_site_fract_y
 _atom_site_fract_z
 _atom_site_occupancy
  Tb  Tb0  1  0.500000  0.618144  0.176544  1
  Tb  Tb1  1  0.500000  0.381856  0.823456  1
  Tb  Tb2  1  0.500000  0.074208  0.274096  1
  Tb  Tb3  1  0.500000  0.925792  0.725904  1
  Cd  Cd4  1  0.000000  0.702546  0.513538  1
  Cd  Cd5  1  0.000000  0.297454  0.486462  1
  Ga  Ga6  1  0.000000  0.000000  0.000000  1
  Ni  Ni7  1  0.000000  0.660563  0.895625  1
  Ni  Ni8  1  0.000000  0.339437  0.104375  1
