# generated using pymatgen
data_Ho5Er3Sc12Si15Pb
_symmetry_space_group_name_H-M   'P 1'
_cell_length_a   7.11833680
_cell_length_b   7.40375991
_cell_length_c   14.04767106
_cell_angle_alpha   89.99138499
_cell_angle_beta   89.42936135
_cell_angle_gamma   90.03582940
_symmetry_Int_Tables_number   1
_chemical_formula_structural   Ho5Er3Sc12Si15Pb
_chemical_formula_sum   'Ho5 Er3 Sc12 Si15 Pb1'
_cell_volume   740.30990238
_cell_formula_units_Z   1
loop_
 _symmetry_equiv_pos_site_id
 _symmetry_equiv_pos_as_xyz
  1  'x, y, z'
loop_
 _atom_site_type_symbol
 _atom_site_label
 _atom_site_symmetry_multiplicity
 _atom_site_fract_x
 _atom_site_fract_y
 _atom_site_fract_z
 _atom_site_occupancy
  Ho  Ho0  1  0.989426  0.831843  0.598817  1
  Ho  Ho1  1  0.510727  0.323713  0.096448  1
  Ho  Ho2  1  0.003946  0.168866  0.398341  1
  Ho  Ho3  1  0.514171  0.318449  0.397656  1
  Ho  Ho4  1  0.504433  0.686898  0.600881  1
  Er  Er5  1  0.011898  0.176209  0.096267  1
  Er  Er6  1  0.988194  0.824325  0.904637  1
  Er  Er7  1  0.488959  0.676597  0.904443  1
  Sc  Sc8  1  0.162658  0.502616  0.756901  1
  Sc  Sc9  1  0.836544  0.497648  0.248935  1
  Sc  Sc10  1  0.336781  0.002684  0.249002  1
  Sc  Sc11  1  0.664957  0.997165  0.752195  1
  Sc  Sc12  1  0.345512  0.159034  0.632161  1
  Sc  Sc13  1  0.662708  0.825775  0.371976  1
  Sc  Sc14  1  0.162033  0.684055  0.368501  1
  Sc  Sc15  1  0.668016  0.822732  0.123399  1
  Sc  Sc16  1  0.821973  0.324308  0.627023  1
  Sc  Sc17  1  0.330433  0.175603  0.875981  1
  Sc  Sc18  1  0.830796  0.323260  0.876000  1
  Sc  Sc19  1  0.168461  0.677320  0.124750  1
  Si  Si20  1  0.035255  0.118758  0.751857  1
  Si  Si21  1  0.962616  0.885765  0.246098  1
  Si  Si22  1  0.464798  0.615076  0.247824  1
  Si  Si23  1  0.532437  0.386498  0.752783  1
  Si  Si24  1  0.286920  0.868475  0.753544  1
  Si  Si25  1  0.712274  0.126965  0.246349  1
  Si  Si26  1  0.211005  0.371962  0.248552  1
  Si  Si27  1  0.790555  0.629159  0.752435  1
  Si  Si28  1  0.825647  0.540231  0.458312  1
  Si  Si29  1  0.336794  0.963731  0.460147  1
  Si  Si30  1  0.842410  0.534281  0.039398  1
  Si  Si31  1  0.664139  0.038219  0.537569  1
  Si  Si32  1  0.157229  0.465102  0.961937  1
  Si  Si33  1  0.657476  0.034644  0.960618  1
  Si  Si34  1  0.340814  0.965293  0.039683  1
  Pb  Pb35  1  0.177004  0.456741  0.538581  1
