# generated using pymatgen
data_Tb2YEr2Si3
_symmetry_space_group_name_H-M   'P 1'
_cell_length_a   8.43736948
_cell_length_b   8.44230870
_cell_length_c   6.33346700
_cell_angle_alpha   90.00000000
_cell_angle_beta   90.00000000
_cell_angle_gamma   120.01936439
_symmetry_Int_Tables_number   1
_chemical_formula_structural   Tb2YEr2Si3
_chemical_formula_sum   'Tb4 Y2 Er4 Si6'
_cell_volume   390.62106841
_cell_formula_units_Z   2
loop_
 _symmetry_equiv_pos_site_id
 _symmetry_equiv_pos_as_xyz
  1  'x, y, z'
loop_
 _atom_site_type_symbol
 _atom_site_label
 _atom_site_symmetry_multiplicity
 _atom_site_fract_x
 _atom_site_fract_y
 _atom_site_fract_z
 _atom_site_occupancy
  Tb  Tb0  1  0.756382  0.756365  0.250000  1
  Tb  Tb1  1  0.756382  0.000018  0.750000  1
  Tb  Tb2  1  0.243618  0.243635  0.750000  1
  Tb  Tb3  1  0.243618  0.999982  0.250000  1
  Y  Y4  1  0.000000  0.756186  0.750000  1
  Y  Y5  1  0.000000  0.243814  0.250000  1
  Er  Er6  1  0.333239  0.666620  0.500000  1
  Er  Er7  1  0.666761  0.333380  0.000000  1
  Er  Er8  1  0.666761  0.333380  0.500000  1
  Er  Er9  1  0.333239  0.666620  0.000000  1
  Si  Si10  1  0.394906  0.999919  0.750000  1
  Si  Si11  1  0.394906  0.394987  0.250000  1
  Si  Si12  1  0.000000  0.604815  0.250000  1
  Si  Si13  1  0.000000  0.395185  0.750000  1
  Si  Si14  1  0.605094  0.605013  0.750000  1
  Si  Si15  1  0.605094  0.000081  0.250000  1
