# generated using pymatgen
data_Tb5Dy3(CuP)12
_symmetry_space_group_name_H-M   'P 1'
_cell_length_a   3.85975800
_cell_length_b   10.69078901
_cell_length_c   12.98409502
_cell_angle_alpha   89.99394039
_cell_angle_beta   90.00000000
_cell_angle_gamma   90.00000000
_symmetry_Int_Tables_number   1
_chemical_formula_structural   Tb5Dy3(CuP)12
_chemical_formula_sum   'Tb5 Dy3 Cu12 P12'
_cell_volume   535.77385563
_cell_formula_units_Z   1
loop_
 _symmetry_equiv_pos_site_id
 _symmetry_equiv_pos_as_xyz
  1  'x, y, z'
loop_
 _atom_site_type_symbol
 _atom_site_label
 _atom_site_symmetry_multiplicity
 _atom_site_fract_x
 _atom_site_fract_y
 _atom_site_fract_z
 _atom_site_occupancy
  Tb  Tb0  1  0.250000  0.930330  0.792996  1
  Tb  Tb1  1  0.750000  0.430252  0.707036  1
  Tb  Tb2  1  0.250000  0.569745  0.292941  1
  Tb  Tb3  1  0.750000  0.069742  0.207030  1
  Tb  Tb4  1  0.250000  0.841200  0.502810  1
  Dy  Dy5  1  0.750000  0.341292  0.997160  1
  Dy  Dy6  1  0.250000  0.658697  0.002842  1
  Dy  Dy7  1  0.750000  0.158786  0.497162  1
  Cu  Cu8  1  0.250000  0.402672  0.513866  1
  Cu  Cu9  1  0.750000  0.902673  0.986137  1
  Cu  Cu10  1  0.250000  0.097329  0.013866  1
  Cu  Cu11  1  0.750000  0.597260  0.486119  1
  Cu  Cu12  1  0.250000  0.272936  0.332315  1
  Cu  Cu13  1  0.750000  0.772937  0.167673  1
  Cu  Cu14  1  0.250000  0.227051  0.832325  1
  Cu  Cu15  1  0.750000  0.726998  0.667764  1
  Cu  Cu16  1  0.250000  0.860558  0.279761  1
  Cu  Cu17  1  0.750000  0.360570  0.220082  1
  Cu  Cu18  1  0.250000  0.639430  0.779910  1
  Cu  Cu19  1  0.750000  0.139430  0.720094  1
  P  P20  1  0.250000  0.240442  0.643528  1
  P  P21  1  0.750000  0.740453  0.856470  1
  P  P22  1  0.250000  0.259554  0.143512  1
  P  P23  1  0.750000  0.759374  0.356101  1
  P  P24  1  0.250000  0.603810  0.600809  1
  P  P25  1  0.750000  0.104134  0.899338  1
  P  P26  1  0.250000  0.895867  0.100680  1
  P  P27  1  0.750000  0.395876  0.399328  1
  P  P28  1  0.250000  0.057477  0.368911  1
  P  P29  1  0.750000  0.557220  0.130953  1
  P  P30  1  0.250000  0.442786  0.869041  1
  P  P31  1  0.750000  0.943120  0.631440  1
