# generated using pymatgen
data_HoTh3(B4Ir)4
_symmetry_space_group_name_H-M   'P 1'
_cell_length_a   7.10212146
_cell_length_b   7.10212154
_cell_length_c   7.10212070
_cell_angle_alpha   111.76566260
_cell_angle_beta   111.76566182
_cell_angle_gamma   104.97380404
_symmetry_Int_Tables_number   1
_chemical_formula_structural   HoTh3(B4Ir)4
_chemical_formula_sum   'Ho1 Th3 B16 Ir4'
_cell_volume   274.50586170
_cell_formula_units_Z   1
loop_
 _symmetry_equiv_pos_site_id
 _symmetry_equiv_pos_as_xyz
  1  'x, y, z'
loop_
 _atom_site_type_symbol
 _atom_site_label
 _atom_site_symmetry_multiplicity
 _atom_site_fract_x
 _atom_site_fract_y
 _atom_site_fract_z
 _atom_site_occupancy
  Ho  Ho0  1  0.250000  0.750000  0.500000  1
  Th  Th1  1  0.785797  0.785797  0.000000  1
  Th  Th2  1  0.214203  0.214203  0.000000  1
  Th  Th3  1  0.750000  0.250000  0.500000  1
  B  B4  1  0.264732  0.108051  0.371652  1
  B  B5  1  0.736401  0.893081  0.628348  1
  B  B6  1  0.264732  0.893081  0.156681  1
  B  B7  1  0.736401  0.108051  0.843319  1
  B  B8  1  0.106919  0.735268  0.843319  1
  B  B9  1  0.891949  0.263599  0.156681  1
  B  B10  1  0.106919  0.263599  0.371652  1
  B  B11  1  0.891949  0.735268  0.628348  1
  B  B12  1  0.113501  0.111725  0.527458  1
  B  B13  1  0.584267  0.586042  0.472542  1
  B  B14  1  0.113501  0.586042  0.001775  1
  B  B15  1  0.584267  0.111725  0.998225  1
  B  B16  1  0.888275  0.886499  0.472542  1
  B  B17  1  0.413958  0.415733  0.527458  1
  B  B18  1  0.888275  0.415733  0.001775  1
  B  B19  1  0.413958  0.886499  0.998225  1
  Ir  Ir20  1  0.260995  0.501839  0.759156  1
  Ir  Ir21  1  0.742683  0.501839  0.240844  1
  Ir  Ir22  1  0.498161  0.739005  0.240844  1
  Ir  Ir23  1  0.498161  0.257317  0.759156  1
