# generated using pymatgen
data_Dy2ErTm(Mo2O7)2
_symmetry_space_group_name_H-M   'P 1'
_cell_length_a   7.34371380
_cell_length_b   7.43917092
_cell_length_c   7.33827088
_cell_angle_alpha   59.54411387
_cell_angle_beta   59.16779813
_cell_angle_gamma   59.56907907
_symmetry_Int_Tables_number   1
_chemical_formula_structural   Dy2ErTm(Mo2O7)2
_chemical_formula_sum   'Dy2 Er1 Tm1 Mo4 O14'
_cell_volume   279.77322666
_cell_formula_units_Z   1
loop_
 _symmetry_equiv_pos_site_id
 _symmetry_equiv_pos_as_xyz
  1  'x, y, z'
loop_
 _atom_site_type_symbol
 _atom_site_label
 _atom_site_symmetry_multiplicity
 _atom_site_fract_x
 _atom_site_fract_y
 _atom_site_fract_z
 _atom_site_occupancy
  Dy  Dy0  1  0.125000  0.625000  0.125000  1
  Dy  Dy1  1  0.125000  0.125000  0.125000  1
  Er  Er2  1  0.625000  0.125000  0.125000  1
  Tm  Tm3  1  0.125000  0.125000  0.625000  1
  Mo  Mo4  1  0.125000  0.625000  0.625000  1
  Mo  Mo5  1  0.625000  0.125000  0.625000  1
  Mo  Mo6  1  0.625000  0.625000  0.125000  1
  Mo  Mo7  1  0.625000  0.625000  0.625000  1
  O  O8  1  0.710270  0.720221  0.284324  1
  O  O9  1  0.283912  0.284933  0.709844  1
  O  O10  1  0.720515  0.280566  0.718353  1
  O  O11  1  0.285977  0.714325  0.285373  1
  O  O12  1  0.283912  0.721311  0.709844  1
  O  O13  1  0.710270  0.285185  0.284324  1
  O  O14  1  0.539730  0.529779  0.965676  1
  O  O15  1  0.966088  0.965067  0.540156  1
  O  O16  1  0.529485  0.969434  0.531647  1
  O  O17  1  0.964023  0.535675  0.964627  1
  O  O18  1  0.966088  0.528689  0.540156  1
  O  O19  1  0.539730  0.964815  0.965676  1
  O  O20  1  0.247425  0.251499  0.249576  1
  O  O21  1  0.002575  0.998501  0.000424  1
