# generated using pymatgen
data_Zr4TaV3Re4
_symmetry_space_group_name_H-M   'P 1'
_cell_length_a   5.34155634
_cell_length_b   5.34809755
_cell_length_c   8.58129800
_cell_angle_alpha   90.00000000
_cell_angle_beta   90.00000000
_cell_angle_gamma   120.50480674
_symmetry_Int_Tables_number   1
_chemical_formula_structural   Zr4TaV3Re4
_chemical_formula_sum   'Zr4 Ta1 V3 Re4'
_cell_volume   211.21222049
_cell_formula_units_Z   1
loop_
 _symmetry_equiv_pos_site_id
 _symmetry_equiv_pos_as_xyz
  1  'x, y, z'
loop_
 _atom_site_type_symbol
 _atom_site_label
 _atom_site_symmetry_multiplicity
 _atom_site_fract_x
 _atom_site_fract_y
 _atom_site_fract_z
 _atom_site_occupancy
  Zr  Zr0  1  0.332128  0.665992  0.442332  1
  Zr  Zr1  1  0.664471  0.334914  0.564600  1
  Zr  Zr2  1  0.664471  0.334914  0.935400  1
  Zr  Zr3  1  0.332128  0.665992  0.057668  1
  Ta  Ta4  1  0.829428  0.167800  0.250000  1
  V  V5  1  0.005381  0.997400  0.505679  1
  V  V6  1  0.005381  0.997400  0.994321  1
  V  V7  1  0.665081  0.833537  0.750000  1
  Re  Re8  1  0.828370  0.663009  0.250000  1
  Re  Re9  1  0.334510  0.168620  0.250000  1
  Re  Re10  1  0.169593  0.830763  0.750000  1
  Re  Re11  1  0.169056  0.339661  0.750000  1
