# generated using pymatgen
data_Hf3Zr3GaFeSe
_symmetry_space_group_name_H-M   'P 1'
_cell_length_a   3.45525400
_cell_length_b   7.65512909
_cell_length_c   7.65513000
_cell_angle_alpha   120.00000393
_cell_angle_beta   90.00000000
_cell_angle_gamma   90.00000000
_symmetry_Int_Tables_number   1
_chemical_formula_structural   Hf3Zr3GaFeSe
_chemical_formula_sum   'Hf3 Zr3 Ga1 Fe1 Se1'
_cell_volume   175.35400201
_cell_formula_units_Z   1
loop_
 _symmetry_equiv_pos_site_id
 _symmetry_equiv_pos_as_xyz
  1  'x, y, z'
loop_
 _atom_site_type_symbol
 _atom_site_label
 _atom_site_symmetry_multiplicity
 _atom_site_fract_x
 _atom_site_fract_y
 _atom_site_fract_z
 _atom_site_occupancy
  Hf  Hf0  1  0.500000  0.753169  0.758444  1
  Hf  Hf1  1  0.500000  0.005275  0.246831  1
  Hf  Hf2  1  0.500000  0.241556  0.994725  1
  Zr  Zr3  1  0.000000  0.411045  0.402998  1
  Zr  Zr4  1  0.000000  0.991953  0.588955  1
  Zr  Zr5  1  0.000000  0.597002  0.008047  1
  Ga  Ga6  1  0.500000  0.333333  0.666667  1
  Fe  Fe7  1  0.000000  0.000000  0.000000  1
  Se  Se8  1  0.500000  0.666667  0.333333  1
