# generated using pymatgen
data_Rb2Mg3(SeO3)4
_symmetry_space_group_name_H-M   'P 1'
_cell_length_a   5.60732038
_cell_length_b   7.34548937
_cell_length_c   9.11284160
_cell_angle_alpha   91.79815854
_cell_angle_beta   107.86340042
_cell_angle_gamma   90.10968704
_symmetry_Int_Tables_number   1
_chemical_formula_structural   Rb2Mg3(SeO3)4
_chemical_formula_sum   'Rb2 Mg3 Se4 O12'
_cell_volume   357.04704702
_cell_formula_units_Z   1
loop_
 _symmetry_equiv_pos_site_id
 _symmetry_equiv_pos_as_xyz
  1  'x, y, z'
loop_
 _atom_site_type_symbol
 _atom_site_label
 _atom_site_symmetry_multiplicity
 _atom_site_fract_x
 _atom_site_fract_y
 _atom_site_fract_z
 _atom_site_occupancy
  Rb  Rb0  1  0.175207  0.620762  0.349238  1
  Rb  Rb1  1  0.824793  0.379238  0.650762  1
  Mg  Mg2  1  0.000000  0.000000  0.000001  1
  Mg  Mg3  1  0.598303  0.312948  0.197795  1
  Mg  Mg4  1  0.401696  0.687049  0.802204  1
  Se  Se5  1  0.562795  0.801037  0.124035  1
  Se  Se6  1  0.193270  0.134633  0.387896  1
  Se  Se7  1  0.806730  0.865367  0.612104  1
  Se  Se8  1  0.437206  0.198964  0.875965  1
  O  O9  1  0.731913  0.212264  0.013686  1
  O  O10  1  0.279260  0.213969  0.013262  1
  O  O11  1  0.602169  0.591626  0.206860  1
  O  O12  1  0.118652  0.979949  0.235446  1
  O  O13  1  0.937695  0.275319  0.356782  1
  O  O14  1  0.419600  0.275706  0.358177  1
  O  O15  1  0.580400  0.724294  0.641823  1
  O  O16  1  0.062305  0.724680  0.643218  1
  O  O17  1  0.881347  0.020051  0.764555  1
  O  O18  1  0.397833  0.408375  0.793141  1
  O  O19  1  0.720742  0.786030  0.986739  1
  O  O20  1  0.268087  0.787735  0.986315  1
