# generated using pymatgen
data_Y6Sc2CdAu9
_symmetry_space_group_name_H-M   'P 1'
_cell_length_a   7.98713213
_cell_length_b   7.98713262
_cell_length_c   7.98713079
_cell_angle_alpha   65.82299370
_cell_angle_beta   65.82299183
_cell_angle_gamma   65.82298205
_symmetry_Int_Tables_number   1
_chemical_formula_structural   Y6Sc2CdAu9
_chemical_formula_sum   'Y6 Sc2 Cd1 Au9'
_cell_volume   405.77051393
_cell_formula_units_Z   1
loop_
 _symmetry_equiv_pos_site_id
 _symmetry_equiv_pos_as_xyz
  1  'x, y, z'
loop_
 _atom_site_type_symbol
 _atom_site_label
 _atom_site_symmetry_multiplicity
 _atom_site_fract_x
 _atom_site_fract_y
 _atom_site_fract_z
 _atom_site_occupancy
  Y  Y0  1  0.897002  0.185612  0.620290  1
  Y  Y1  1  0.620290  0.897002  0.185612  1
  Y  Y2  1  0.185612  0.620290  0.897002  1
  Y  Y3  1  0.102998  0.814388  0.379710  1
  Y  Y4  1  0.379710  0.102998  0.814388  1
  Y  Y5  1  0.814388  0.379710  0.102998  1
  Sc  Sc6  1  0.662740  0.662740  0.662740  1
  Sc  Sc7  1  0.337260  0.337260  0.337260  1
  Cd  Cd8  1  0.500000  0.500000  0.500000  1
  Au  Au9  1  0.000000  0.000000  0.000000  1
  Au  Au10  1  0.807227  0.807227  0.807227  1
  Au  Au11  1  0.192773  0.192773  0.192773  1
  Au  Au12  1  0.932457  0.549631  0.322892  1
  Au  Au13  1  0.322892  0.932457  0.549631  1
  Au  Au14  1  0.549631  0.322892  0.932457  1
  Au  Au15  1  0.067543  0.450369  0.677108  1
  Au  Au16  1  0.677108  0.067543  0.450369  1
  Au  Au17  1  0.450369  0.677108  0.067543  1
