# generated using pymatgen
data_K4USbI12
_symmetry_space_group_name_H-M   'P 1'
_cell_length_a   8.79894388
_cell_length_b   8.31900742
_cell_length_c   14.23869136
_cell_angle_alpha   54.43781125
_cell_angle_beta   90.54191370
_cell_angle_gamma   91.26347023
_symmetry_Int_Tables_number   1
_chemical_formula_structural   K4USbI12
_chemical_formula_sum   'K4 U1 Sb1 I12'
_cell_volume   847.64153131
_cell_formula_units_Z   1
loop_
 _symmetry_equiv_pos_site_id
 _symmetry_equiv_pos_as_xyz
  1  'x, y, z'
loop_
 _atom_site_type_symbol
 _atom_site_label
 _atom_site_symmetry_multiplicity
 _atom_site_fract_x
 _atom_site_fract_y
 _atom_site_fract_z
 _atom_site_occupancy
  K  K0  1  0.591764  0.754304  0.222129  1
  K  K1  1  0.081443  0.297929  0.217003  1
  K  K2  1  0.408236  0.245696  0.777871  1
  K  K3  1  0.918557  0.702071  0.782997  1
  U  U4  1  0.500000  0.000000  0.500000  1
  Sb  Sb5  1  0.000000  0.000000  0.000000  1
  I  I6  1  0.981185  0.841444  0.254974  1
  I  I7  1  0.490975  0.163070  0.253031  1
  I  I8  1  0.018815  0.158556  0.745026  1
  I  I9  1  0.509025  0.836930  0.746969  1
  I  I10  1  0.677378  0.663852  0.548149  1
  I  I11  1  0.195596  0.349453  0.950888  1
  I  I12  1  0.322622  0.336148  0.451851  1
  I  I13  1  0.804404  0.650547  0.049112  1
  I  I14  1  0.710591  0.231108  0.954454  1
  I  I15  1  0.215468  0.777122  0.539981  1
  I  I16  1  0.289409  0.768892  0.045546  1
  I  I17  1  0.784532  0.222878  0.460019  1
