# generated using pymatgen
data_YbSc2(CO3)4
_symmetry_space_group_name_H-M   'P 1'
_cell_length_a   6.15943296
_cell_length_b   9.82715372
_cell_length_c   7.95439829
_cell_angle_alpha   89.51853562
_cell_angle_beta   107.16766892
_cell_angle_gamma   89.91967543
_symmetry_Int_Tables_number   1
_chemical_formula_structural   YbSc2(CO3)4
_chemical_formula_sum   'Yb2 Sc4 C8 O24'
_cell_volume   460.00507363
_cell_formula_units_Z   2
loop_
 _symmetry_equiv_pos_site_id
 _symmetry_equiv_pos_as_xyz
  1  'x, y, z'
loop_
 _atom_site_type_symbol
 _atom_site_label
 _atom_site_symmetry_multiplicity
 _atom_site_fract_x
 _atom_site_fract_y
 _atom_site_fract_z
 _atom_site_occupancy
  Yb  Yb0  1  0.499969  0.249989  0.499994  1
  Yb  Yb1  1  0.500042  0.750002  0.500038  1
  Sc  Sc2  1  0.500061  0.750002  0.000047  1
  Sc  Sc3  1  0.499975  0.250033  0.999981  1
  Sc  Sc4  1  0.000004  0.000011  0.499988  1
  Sc  Sc5  1  0.999972  0.499984  0.500016  1
  C  C6  1  0.014728  0.247369  0.733486  1
  C  C7  1  0.014715  0.747371  0.733499  1
  C  C8  1  0.985279  0.252643  0.266486  1
  C  C9  1  0.985296  0.752619  0.266534  1
  C  C10  1  0.513852  0.999938  0.243527  1
  C  C11  1  0.513814  0.499923  0.243537  1
  C  C12  1  0.486155  0.500080  0.756450  1
  C  C13  1  0.486152  0.000062  0.756461  1
  O  O14  1  0.356477  0.447750  0.608762  1
  O  O15  1  0.356509  0.947740  0.608753  1
  O  O16  1  0.643514  0.052266  0.391226  1
  O  O17  1  0.643472  0.552249  0.391233  1
  O  O18  1  0.594482  0.422175  0.881340  1
  O  O19  1  0.594461  0.922160  0.881357  1
  O  O20  1  0.405547  0.077831  0.118621  1
  O  O21  1  0.405513  0.577814  0.118629  1
  O  O22  1  0.009940  0.381935  0.289880  1
  O  O23  1  0.009864  0.881923  0.289864  1
  O  O24  1  0.990153  0.118071  0.710152  1
  O  O25  1  0.989986  0.618080  0.710089  1
  O  O26  1  0.497537  0.367674  0.233170  1
  O  O27  1  0.497582  0.867689  0.233173  1
  O  O28  1  0.502417  0.132309  0.766839  1
  O  O29  1  0.502451  0.632320  0.766837  1
  O  O30  1  0.877623  0.328676  0.615175  1
  O  O31  1  0.877652  0.828733  0.615242  1
  O  O32  1  0.122357  0.171296  0.384762  1
  O  O33  1  0.122380  0.671312  0.384855  1
  O  O34  1  0.164493  0.297917  0.864029  1
  O  O35  1  0.164563  0.797828  0.864055  1
  O  O36  1  0.835469  0.202150  0.135933  1
  O  O37  1  0.835544  0.702079  0.135981  1
