# generated using pymatgen
data_Ba14Na17TbN6
_symmetry_space_group_name_H-M   'P 1'
_cell_length_a   11.09269994
_cell_length_b   12.09860996
_cell_length_c   13.48266236
_cell_angle_alpha   66.96792482
_cell_angle_beta   67.86835233
_cell_angle_gamma   79.09283880
_symmetry_Int_Tables_number   1
_chemical_formula_structural   Ba14Na17TbN6
_chemical_formula_sum   'Ba14 Na17 Tb1 N6'
_cell_volume   1540.66888106
_cell_formula_units_Z   1
loop_
 _symmetry_equiv_pos_site_id
 _symmetry_equiv_pos_as_xyz
  1  'x, y, z'
loop_
 _atom_site_type_symbol
 _atom_site_label
 _atom_site_symmetry_multiplicity
 _atom_site_fract_x
 _atom_site_fract_y
 _atom_site_fract_z
 _atom_site_occupancy
  Ba  Ba0  1  0.366553  0.784274  0.444341  1
  Ba  Ba1  1  0.633447  0.215726  0.555659  1
  Ba  Ba2  1  0.270625  0.305175  0.701442  1
  Ba  Ba3  1  0.729375  0.694825  0.298558  1
  Ba  Ba4  1  0.257351  0.521180  0.402070  1
  Ba  Ba5  1  0.742649  0.478820  0.597930  1
  Ba  Ba6  1  0.380637  0.570048  0.740875  1
  Ba  Ba7  1  0.619363  0.429952  0.259125  1
  Ba  Ba8  1  0.344216  0.164517  0.456523  1
  Ba  Ba9  1  0.655784  0.835483  0.543477  1
  Ba  Ba10  1  0.477133  0.788863  0.119520  1
  Ba  Ba11  1  0.522867  0.211137  0.880480  1
  Ba  Ba12  1  0.033123  0.619442  0.676212  1
  Ba  Ba13  1  0.966877  0.380558  0.323788  1
  Na  Na14  1  0.000000  0.000000  0.500000  1
  Na  Na15  1  0.238112  0.096430  0.207445  1
  Na  Na16  1  0.761888  0.903570  0.792555  1
  Na  Na17  1  0.631235  0.599502  0.894508  1
  Na  Na18  1  0.368765  0.400498  0.105492  1
  Na  Na19  1  0.041054  0.815221  0.310996  1
  Na  Na20  1  0.958946  0.184779  0.689004  1
  Na  Na21  1  0.135689  0.892049  0.755041  1
  Na  Na22  1  0.864311  0.107951  0.244959  1
  Na  Na23  1  0.586628  0.085206  0.186725  1
  Na  Na24  1  0.413372  0.914794  0.813275  1
  Na  Na25  1  0.905081  0.644468  0.984534  1
  Na  Na26  1  0.094919  0.355532  0.015466  1
  Na  Na27  1  0.851222  0.972133  0.991165  1
  Na  Na28  1  0.148778  0.027867  0.008835  1
  Na  Na29  1  0.168780  0.688891  0.056877  1
  Na  Na30  1  0.831220  0.311109  0.943123  1
  Tb  Tb31  1  0.500000  0.500000  0.500000  1
  N  N32  1  0.487127  0.636714  0.311403  1
  N  N33  1  0.512873  0.363286  0.688597  1
  N  N34  1  0.428516  0.332202  0.476211  1
  N  N35  1  0.571484  0.667798  0.523789  1
  N  N36  1  0.730306  0.443610  0.408332  1
  N  N37  1  0.269694  0.556390  0.591668  1
