# generated using pymatgen
data_La5GdRuBr10
_symmetry_space_group_name_H-M   'P 1'
_cell_length_a   7.79350354
_cell_length_b   9.74211828
_cell_length_c   9.75503100
_cell_angle_alpha   108.63177244
_cell_angle_beta   96.42151694
_cell_angle_gamma   105.93705606
_symmetry_Int_Tables_number   1
_chemical_formula_structural   La5GdRuBr10
_chemical_formula_sum   'La5 Gd1 Ru1 Br10'
_cell_volume   658.47483304
_cell_formula_units_Z   1
loop_
 _symmetry_equiv_pos_site_id
 _symmetry_equiv_pos_as_xyz
  1  'x, y, z'
loop_
 _atom_site_type_symbol
 _atom_site_label
 _atom_site_symmetry_multiplicity
 _atom_site_fract_x
 _atom_site_fract_y
 _atom_site_fract_z
 _atom_site_occupancy
  La  La0  1  0.124705  0.045507  0.756415  1
  La  La1  1  0.869676  0.950182  0.241263  1
  La  La2  1  0.968605  0.291571  0.090348  1
  La  La3  1  0.027005  0.706374  0.905964  1
  La  La4  1  0.374805  0.143211  0.189787  1
  Gd  Gd5  1  0.634141  0.862732  0.817157  1
  Ru  Ru6  1  0.000690  0.999873  0.000969  1
  Br  Br7  1  0.547515  0.166610  0.916368  1
  Br  Br8  1  0.453207  0.826984  0.074415  1
  Br  Br9  1  0.351449  0.452135  0.269257  1
  Br  Br10  1  0.641783  0.558136  0.728000  1
  Br  Br11  1  0.244689  0.080370  0.452087  1
  Br  Br12  1  0.745557  0.913860  0.552324  1
  Br  Br13  1  0.796155  0.255591  0.348831  1
  Br  Br14  1  0.221882  0.749074  0.659331  1
  Br  Br15  1  0.086788  0.365761  0.828866  1
  Br  Br16  1  0.911347  0.632029  0.168619  1
