# generated using pymatgen
data_Na4MnTcBr12
_symmetry_space_group_name_H-M   'P 1'
_cell_length_a   7.37418887
_cell_length_b   7.12302608
_cell_length_c   12.37217649
_cell_angle_alpha   54.68450941
_cell_angle_beta   90.16539719
_cell_angle_gamma   89.85538527
_symmetry_Int_Tables_number   1
_chemical_formula_structural   Na4MnTcBr12
_chemical_formula_sum   'Na4 Mn1 Tc1 Br12'
_cell_volume   530.27063387
_cell_formula_units_Z   1
loop_
 _symmetry_equiv_pos_site_id
 _symmetry_equiv_pos_as_xyz
  1  'x, y, z'
loop_
 _atom_site_type_symbol
 _atom_site_label
 _atom_site_symmetry_multiplicity
 _atom_site_fract_x
 _atom_site_fract_y
 _atom_site_fract_z
 _atom_site_occupancy
  Na  Na0  1  0.423978  0.741102  0.248875  1
  Na  Na1  1  0.924945  0.262208  0.247600  1
  Na  Na2  1  0.075055  0.737792  0.752400  1
  Na  Na3  1  0.576022  0.258898  0.751125  1
  Mn  Mn4  1  0.000000  0.000000  0.000000  1
  Tc  Tc5  1  0.500000  0.000000  0.500000  1
  Br  Br6  1  0.825961  0.340596  0.947322  1
  Br  Br7  1  0.525870  0.142974  0.259355  1
  Br  Br8  1  0.474130  0.857026  0.740645  1
  Br  Br9  1  0.286446  0.214575  0.950433  1
  Br  Br10  1  0.323124  0.651854  0.552419  1
  Br  Br11  1  0.204810  0.219506  0.449842  1
  Br  Br12  1  0.174039  0.659404  0.052678  1
  Br  Br13  1  0.795190  0.780494  0.550158  1
  Br  Br14  1  0.713554  0.785425  0.049567  1
  Br  Br15  1  0.026400  0.863961  0.234233  1
  Br  Br16  1  0.973600  0.136039  0.765767  1
  Br  Br17  1  0.676876  0.348146  0.447581  1
