# generated using pymatgen
data_Hf3MnCr2P3
_symmetry_space_group_name_H-M   'P 1'
_cell_length_a   6.59733129
_cell_length_b   6.56846598
_cell_length_c   3.41126900
_cell_angle_alpha   90.00000000
_cell_angle_beta   90.00000000
_cell_angle_gamma   119.85534891
_symmetry_Int_Tables_number   1
_chemical_formula_structural   Hf3MnCr2P3
_chemical_formula_sum   'Hf3 Mn1 Cr2 P3'
_cell_volume   128.20649623
_cell_formula_units_Z   1
loop_
 _symmetry_equiv_pos_site_id
 _symmetry_equiv_pos_as_xyz
  1  'x, y, z'
loop_
 _atom_site_type_symbol
 _atom_site_label
 _atom_site_symmetry_multiplicity
 _atom_site_fract_x
 _atom_site_fract_y
 _atom_site_fract_z
 _atom_site_occupancy
  Hf  Hf0  1  0.405882  0.403911  0.500000  1
  Hf  Hf1  1  0.594118  0.998029  0.500000  1
  Hf  Hf2  1  0.000000  0.595628  0.500000  1
  Mn  Mn3  1  0.000000  0.246793  0.000000  1
  Cr  Cr4  1  0.247196  0.000618  0.000000  1
  Cr  Cr5  1  0.752804  0.753422  0.000000  1
  P  P6  1  0.668058  0.332506  0.000000  1
  P  P7  1  0.331942  0.664449  0.000000  1
  P  P8  1  0.000000  0.004643  0.500000  1
