# generated using pymatgen
data_Y2Er6Sc11Si16Tc
_symmetry_space_group_name_H-M   'P 1'
_cell_length_a   6.99787336
_cell_length_b   7.33456943
_cell_length_c   13.84790501
_cell_angle_alpha   90.03950441
_cell_angle_beta   90.01878199
_cell_angle_gamma   90.16836274
_symmetry_Int_Tables_number   1
_chemical_formula_structural   Y2Er6Sc11Si16Tc
_chemical_formula_sum   'Y2 Er6 Sc11 Si16 Tc1'
_cell_volume   710.75967018
_cell_formula_units_Z   1
loop_
 _symmetry_equiv_pos_site_id
 _symmetry_equiv_pos_as_xyz
  1  'x, y, z'
loop_
 _atom_site_type_symbol
 _atom_site_label
 _atom_site_symmetry_multiplicity
 _atom_site_fract_x
 _atom_site_fract_y
 _atom_site_fract_z
 _atom_site_occupancy
  Y  Y0  1  0.012870  0.178134  0.093107  1
  Y  Y1  1  0.991955  0.818557  0.900962  1
  Er  Er2  1  0.487151  0.672732  0.902471  1
  Er  Er3  1  0.991968  0.817774  0.599412  1
  Er  Er4  1  0.512513  0.322971  0.095423  1
  Er  Er5  1  0.013024  0.178422  0.406657  1
  Er  Er6  1  0.512633  0.322811  0.404733  1
  Er  Er7  1  0.487084  0.672809  0.597358  1
  Sc  Sc8  1  0.843094  0.496612  0.250157  1
  Sc  Sc9  1  0.343876  0.004191  0.250144  1
  Sc  Sc10  1  0.654925  0.994899  0.749839  1
  Sc  Sc11  1  0.324557  0.177939  0.627502  1
  Sc  Sc12  1  0.673390  0.824422  0.374468  1
  Sc  Sc13  1  0.173540  0.674181  0.376815  1
  Sc  Sc14  1  0.673231  0.824180  0.125723  1
  Sc  Sc15  1  0.826203  0.331018  0.628607  1
  Sc  Sc16  1  0.324793  0.178051  0.872281  1
  Sc  Sc17  1  0.826031  0.331251  0.871206  1
  Sc  Sc18  1  0.173692  0.673843  0.123408  1
  Si  Si19  1  0.027106  0.117901  0.749722  1
  Si  Si20  1  0.974640  0.886667  0.250253  1
  Si  Si21  1  0.470692  0.614880  0.250042  1
  Si  Si22  1  0.516489  0.395876  0.749934  1
  Si  Si23  1  0.284454  0.859846  0.749646  1
  Si  Si24  1  0.718151  0.131082  0.250336  1
  Si  Si25  1  0.216623  0.370330  0.250424  1
  Si  Si26  1  0.791945  0.629963  0.749566  1
  Si  Si27  1  0.155569  0.466664  0.548050  1
  Si  Si28  1  0.842546  0.535497  0.463304  1
  Si  Si29  1  0.345717  0.965314  0.462906  1
  Si  Si30  1  0.842064  0.535567  0.036808  1
  Si  Si31  1  0.657986  0.034267  0.539990  1
  Si  Si32  1  0.156057  0.466367  0.951880  1
  Si  Si33  1  0.656814  0.034671  0.960047  1
  Si  Si34  1  0.346882  0.964831  0.037059  1
  Tc  Tc35  1  0.149732  0.495483  0.749760  1
