# generated using pymatgen
data_Ac2Si5Rh3
_symmetry_space_group_name_H-M   'P 1'
_cell_length_a   8.49355984
_cell_length_b   8.49355927
_cell_length_c   8.49355970
_cell_angle_alpha   138.57559485
_cell_angle_beta   106.15546259
_cell_angle_gamma   88.39127645
_symmetry_Int_Tables_number   1
_chemical_formula_structural   Ac2Si5Rh3
_chemical_formula_sum   'Ac4 Si10 Rh6'
_cell_volume   373.34437115
_cell_formula_units_Z   2
loop_
 _symmetry_equiv_pos_site_id
 _symmetry_equiv_pos_as_xyz
  1  'x, y, z'
loop_
 _atom_site_type_symbol
 _atom_site_label
 _atom_site_symmetry_multiplicity
 _atom_site_fract_x
 _atom_site_fract_y
 _atom_site_fract_z
 _atom_site_occupancy
  Ac  Ac0  1  0.636364  0.870657  0.765708  1
  Ac  Ac1  1  0.363636  0.129343  0.234292  1
  Ac  Ac2  1  0.104949  0.370657  0.734292  1
  Ac  Ac3  1  0.895051  0.629343  0.265708  1
  Si  Si4  1  0.271593  0.021593  0.750000  1
  Si  Si5  1  0.728407  0.978407  0.250000  1
  Si  Si6  1  0.728407  0.478407  0.750000  1
  Si  Si7  1  0.271593  0.521593  0.250000  1
  Si  Si8  1  0.465319  0.609438  0.855881  1
  Si  Si9  1  0.534681  0.390562  0.144119  1
  Si  Si10  1  0.753556  0.109438  0.644119  1
  Si  Si11  1  0.246444  0.890562  0.355881  1
  Si  Si12  1  0.000000  0.750000  0.750000  1
  Si  Si13  1  0.000000  0.250000  0.250000  1
  Rh  Rh14  1  0.248027  0.637953  0.610073  1
  Rh  Rh15  1  0.751973  0.362047  0.389927  1
  Rh  Rh16  1  0.027881  0.137953  0.889927  1
  Rh  Rh17  1  0.972119  0.862047  0.110073  1
  Rh  Rh18  1  0.500000  0.750000  0.250000  1
  Rh  Rh19  1  0.500000  0.250000  0.750000  1
