# generated using pymatgen
data_LuPa3(AlTc)4
_symmetry_space_group_name_H-M   'P 1'
_cell_length_a   3.91485400
_cell_length_b   6.95224112
_cell_length_c   8.41934565
_cell_angle_alpha   90.56768248
_cell_angle_beta   90.00000000
_cell_angle_gamma   90.00000000
_symmetry_Int_Tables_number   1
_chemical_formula_structural   LuPa3(AlTc)4
_chemical_formula_sum   'Lu1 Pa3 Al4 Tc4'
_cell_volume   229.13815875
_cell_formula_units_Z   1
loop_
 _symmetry_equiv_pos_site_id
 _symmetry_equiv_pos_as_xyz
  1  'x, y, z'
loop_
 _atom_site_type_symbol
 _atom_site_label
 _atom_site_symmetry_multiplicity
 _atom_site_fract_x
 _atom_site_fract_y
 _atom_site_fract_z
 _atom_site_occupancy
  Lu  Lu0  1  0.750000  0.462583  0.182386  1
  Pa  Pa1  1  0.250000  0.027641  0.686407  1
  Pa  Pa2  1  0.250000  0.529414  0.815901  1
  Pa  Pa3  1  0.750000  0.968689  0.308145  1
  Al  Al4  1  0.250000  0.146749  0.055512  1
  Al  Al5  1  0.250000  0.626900  0.440200  1
  Al  Al6  1  0.750000  0.868116  0.947642  1
  Al  Al7  1  0.750000  0.365516  0.551097  1
  Tc  Tc8  1  0.250000  0.232806  0.375139  1
  Tc  Tc9  1  0.250000  0.769434  0.139734  1
  Tc  Tc10  1  0.750000  0.748775  0.641390  1
  Tc  Tc11  1  0.750000  0.253377  0.856446  1
