# generated using pymatgen
data_Ho8Si12Pt3Rh
_symmetry_space_group_name_H-M   'P 1'
_cell_length_a   8.16287500
_cell_length_b   8.16287515
_cell_length_c   7.90179200
_cell_angle_alpha   90.00000000
_cell_angle_beta   90.00000000
_cell_angle_gamma   120.00000345
_symmetry_Int_Tables_number   1
_chemical_formula_structural   Ho8Si12Pt3Rh
_chemical_formula_sum   'Ho8 Si12 Pt3 Rh1'
_cell_volume   455.97655193
_cell_formula_units_Z   1
loop_
 _symmetry_equiv_pos_site_id
 _symmetry_equiv_pos_as_xyz
  1  'x, y, z'
loop_
 _atom_site_type_symbol
 _atom_site_label
 _atom_site_symmetry_multiplicity
 _atom_site_fract_x
 _atom_site_fract_y
 _atom_site_fract_z
 _atom_site_occupancy
  Ho  Ho0  1  0.000000  0.000000  0.249565  1
  Ho  Ho1  1  0.000000  0.000000  0.751046  1
  Ho  Ho2  1  0.508689  0.491311  0.248018  1
  Ho  Ho3  1  0.508689  0.017378  0.248018  1
  Ho  Ho4  1  0.982622  0.491311  0.248018  1
  Ho  Ho5  1  0.489646  0.510354  0.751913  1
  Ho  Ho6  1  0.489646  0.979291  0.751913  1
  Ho  Ho7  1  0.020709  0.510354  0.751913  1
  Si  Si8  1  0.165159  0.834841  0.499357  1
  Si  Si9  1  0.165159  0.330317  0.499357  1
  Si  Si10  1  0.669683  0.834841  0.499357  1
  Si  Si11  1  0.834906  0.165094  0.500628  1
  Si  Si12  1  0.834906  0.669812  0.500628  1
  Si  Si13  1  0.330188  0.165094  0.500628  1
  Si  Si14  1  0.835662  0.164338  0.999203  1
  Si  Si15  1  0.835662  0.671324  0.999203  1
  Si  Si16  1  0.328676  0.164338  0.999203  1
  Si  Si17  1  0.167438  0.832562  0.000893  1
  Si  Si18  1  0.167438  0.334876  0.000893  1
  Si  Si19  1  0.665124  0.832562  0.000893  1
  Pt  Pt20  1  0.333333  0.666667  0.464921  1
  Pt  Pt21  1  0.666667  0.333333  0.532827  1
  Pt  Pt22  1  0.666667  0.333333  0.966904  1
  Rh  Rh23  1  0.333333  0.666667  0.034699  1
