# generated using pymatgen
data_Th5SiP11Ru19
_symmetry_space_group_name_H-M   'P 1'
_cell_length_a   12.68561085
_cell_length_b   12.69658265
_cell_length_c   4.02638100
_cell_angle_alpha   90.00000000
_cell_angle_beta   90.00000000
_cell_angle_gamma   119.80833688
_symmetry_Int_Tables_number   1
_chemical_formula_structural   Th5SiP11Ru19
_chemical_formula_sum   'Th5 Si1 P11 Ru19'
_cell_volume   562.70303377
_cell_formula_units_Z   1
loop_
 _symmetry_equiv_pos_site_id
 _symmetry_equiv_pos_as_xyz
  1  'x, y, z'
loop_
 _atom_site_type_symbol
 _atom_site_label
 _atom_site_symmetry_multiplicity
 _atom_site_fract_x
 _atom_site_fract_y
 _atom_site_fract_z
 _atom_site_occupancy
  Th  Th0  1  0.187763  0.189024  0.500000  1
  Th  Th1  1  0.812379  0.000084  0.500000  1
  Th  Th2  1  0.000105  0.813045  0.500000  1
  Th  Th3  1  0.333696  0.666782  0.000000  1
  Th  Th4  1  0.666615  0.332995  0.000000  1
  Si  Si5  1  0.165240  0.473823  0.500000  1
  P  P6  1  0.813654  0.813399  0.000000  1
  P  P7  1  0.187039  0.000873  0.000000  1
  P  P8  1  0.999513  0.186034  0.000000  1
  P  P9  1  0.524911  0.695266  0.500000  1
  P  P10  1  0.304547  0.830274  0.500000  1
  P  P11  1  0.695442  0.524916  0.500000  1
  P  P12  1  0.828744  0.304045  0.500000  1
  P  P13  1  0.475190  0.170923  0.500000  1
  P  P14  1  0.377206  0.377452  0.000000  1
  P  P15  1  0.624090  0.000060  0.000000  1
  P  P16  1  0.001553  0.623702  0.000000  1
  Ru  Ru17  1  0.557465  0.555574  0.000000  1
  Ru  Ru18  1  0.444345  0.999941  0.000000  1
  Ru  Ru19  1  0.003236  0.444330  0.000000  1
  Ru  Ru20  1  0.716652  0.716424  0.500000  1
  Ru  Ru21  1  0.284270  0.001174  0.500000  1
  Ru  Ru22  1  0.995731  0.277716  0.500000  1
  Ru  Ru23  1  0.184826  0.372724  0.000000  1
  Ru  Ru24  1  0.623418  0.807229  0.000000  1
  Ru  Ru25  1  0.193810  0.818118  0.000000  1
  Ru  Ru26  1  0.808611  0.623762  0.000000  1
  Ru  Ru27  1  0.814204  0.192074  0.000000  1
  Ru  Ru28  1  0.376931  0.184616  0.000000  1
  Ru  Ru29  1  0.369409  0.493650  0.500000  1
  Ru  Ru30  1  0.506364  0.873823  0.500000  1
  Ru  Ru31  1  0.123724  0.637739  0.500000  1
  Ru  Ru32  1  0.873581  0.506054  0.500000  1
  Ru  Ru33  1  0.631953  0.125973  0.500000  1
  Ru  Ru34  1  0.494069  0.367198  0.500000  1
  Ru  Ru35  1  0.999714  0.999187  0.000000  1
