# generated using pymatgen
data_Er11TmGaCo4Rh
_symmetry_space_group_name_H-M   'P 1'
_cell_length_a   8.17549360
_cell_length_b   8.16693718
_cell_length_c   8.16693665
_cell_angle_alpha   110.82082192
_cell_angle_beta   110.92665047
_cell_angle_gamma   106.66086384
_symmetry_Int_Tables_number   1
_chemical_formula_structural   Er11TmGaCo4Rh
_chemical_formula_sum   'Er11 Tm1 Ga1 Co4 Rh1'
_cell_volume   419.23554087
_cell_formula_units_Z   1
loop_
 _symmetry_equiv_pos_site_id
 _symmetry_equiv_pos_as_xyz
  1  'x, y, z'
loop_
 _atom_site_type_symbol
 _atom_site_label
 _atom_site_symmetry_multiplicity
 _atom_site_fract_x
 _atom_site_fract_y
 _atom_site_fract_z
 _atom_site_occupancy
  Er  Er0  1  0.586836  0.280465  0.306371  1
  Er  Er1  1  0.185895  0.211664  0.397475  1
  Er  Er2  1  0.185895  0.788420  0.974232  1
  Er  Er3  1  0.683811  0.487868  0.803239  1
  Er  Er4  1  0.683811  0.880572  0.195943  1
  Er  Er5  1  0.974556  0.280834  0.693723  1
  Er  Er6  1  0.025861  0.719460  0.306401  1
  Er  Er7  1  0.315920  0.118967  0.803404  1
  Er  Er8  1  0.315920  0.512516  0.196952  1
  Er  Er9  1  0.813224  0.210823  0.024412  1
  Er  Er10  1  0.813224  0.788811  0.602401  1
  Tm  Tm11  1  0.412619  0.719010  0.693609  1
  Ga  Ga12  1  0.500207  0.999781  0.500426  1
  Co  Co13  1  0.886481  0.886997  0.999485  1
  Co  Co14  1  0.376284  0.500014  0.876271  1
  Co  Co15  1  0.623481  0.499936  0.123545  1
  Co  Co16  1  0.113003  0.113145  0.999858  1
  Rh  Rh17  1  0.002971  0.500716  0.502254  1
