# generated using pymatgen
data_Nd2DyHf(NiP)4
_symmetry_space_group_name_H-M   'P 1'
_cell_length_a   3.91006100
_cell_length_b   3.91006061
_cell_length_c   15.48575800
_cell_angle_alpha   90.00000000
_cell_angle_beta   90.00000000
_cell_angle_gamma   119.99999480
_symmetry_Int_Tables_number   1
_chemical_formula_structural   Nd2DyHf(NiP)4
_chemical_formula_sum   'Nd2 Dy1 Hf1 Ni4 P4'
_cell_volume   205.03601164
_cell_formula_units_Z   1
loop_
 _symmetry_equiv_pos_site_id
 _symmetry_equiv_pos_as_xyz
  1  'x, y, z'
loop_
 _atom_site_type_symbol
 _atom_site_label
 _atom_site_symmetry_multiplicity
 _atom_site_fract_x
 _atom_site_fract_y
 _atom_site_fract_z
 _atom_site_occupancy
  Nd  Nd0  1  0.000000  0.000000  0.491783  1
  Nd  Nd1  1  0.000000  0.000000  0.008217  1
  Dy  Dy2  1  0.000000  0.000000  0.750000  1
  Hf  Hf3  1  0.000000  0.000000  0.250000  1
  Ni  Ni4  1  0.333333  0.666667  0.341708  1
  Ni  Ni5  1  0.666667  0.333333  0.627173  1
  Ni  Ni6  1  0.666667  0.333333  0.872827  1
  Ni  Ni7  1  0.333333  0.666667  0.158292  1
  P  P8  1  0.333333  0.666667  0.875786  1
  P  P9  1  0.666667  0.333333  0.132754  1
  P  P10  1  0.666667  0.333333  0.367246  1
  P  P11  1  0.333333  0.666667  0.624214  1
