# generated using pymatgen
data_YHo9(InBi)3
_symmetry_space_group_name_H-M   'P 1'
_cell_length_a   9.04445314
_cell_length_b   9.04445175
_cell_length_c   6.55428900
_cell_angle_alpha   90.00000000
_cell_angle_beta   90.00000000
_cell_angle_gamma   120.02019387
_symmetry_Int_Tables_number   1
_chemical_formula_structural   YHo9(InBi)3
_chemical_formula_sum   'Y1 Ho9 In3 Bi3'
_cell_volume   464.22910869
_cell_formula_units_Z   1
loop_
 _symmetry_equiv_pos_site_id
 _symmetry_equiv_pos_as_xyz
  1  'x, y, z'
loop_
 _atom_site_type_symbol
 _atom_site_label
 _atom_site_symmetry_multiplicity
 _atom_site_fract_x
 _atom_site_fract_y
 _atom_site_fract_z
 _atom_site_occupancy
  Y  Y0  1  0.763038  0.763038  0.750000  1
  Ho  Ho1  1  0.666656  0.333301  0.006644  1
  Ho  Ho2  1  0.333301  0.666656  0.006644  1
  Ho  Ho3  1  0.333301  0.666656  0.493356  1
  Ho  Ho4  1  0.666656  0.333301  0.493356  1
  Ho  Ho5  1  0.237064  0.000073  0.750000  1
  Ho  Ho6  1  0.000073  0.237064  0.750000  1
  Ho  Ho7  1  0.237707  0.237707  0.250000  1
  Ho  Ho8  1  0.762223  0.000082  0.250000  1
  Ho  Ho9  1  0.000082  0.762223  0.250000  1
  In  In10  1  0.606715  0.606715  0.250000  1
  In  In11  1  0.393286  0.999986  0.250000  1
  In  In12  1  0.999986  0.393286  0.250000  1
  Bi  Bi13  1  0.395637  0.395637  0.750000  1
  Bi  Bi14  1  0.604136  0.000140  0.750000  1
  Bi  Bi15  1  0.000140  0.604136  0.750000  1
