# generated using pymatgen
data_CsNpF5
_symmetry_space_group_name_H-M   'P 1'
_cell_length_a   8.36656030
_cell_length_b   8.36656032
_cell_length_c   8.64527500
_cell_angle_alpha   90.00000000
_cell_angle_beta   90.00000000
_cell_angle_gamma   117.86060853
_symmetry_Int_Tables_number   1
_chemical_formula_structural   CsNpF5
_chemical_formula_sum   'Cs4 Np4 F20'
_cell_volume   535.01723463
_cell_formula_units_Z   4
loop_
 _symmetry_equiv_pos_site_id
 _symmetry_equiv_pos_as_xyz
  1  'x, y, z'
loop_
 _atom_site_type_symbol
 _atom_site_label
 _atom_site_symmetry_multiplicity
 _atom_site_fract_x
 _atom_site_fract_y
 _atom_site_fract_z
 _atom_site_occupancy
  Cs  Cs0  1  0.704108  0.295892  0.500000  1
  Cs  Cs1  1  0.204108  0.795892  0.000000  1
  Cs  Cs2  1  0.295892  0.704108  0.500000  1
  Cs  Cs3  1  0.795892  0.204108  0.000000  1
  Np  Np4  1  0.335701  0.335701  0.836739  1
  Np  Np5  1  0.664299  0.664299  0.163261  1
  Np  Np6  1  0.164299  0.164299  0.336739  1
  Np  Np7  1  0.835701  0.835701  0.663261  1
  F  F8  1  0.293273  0.293273  0.570238  1
  F  F9  1  0.706727  0.706727  0.429762  1
  F  F10  1  0.206727  0.206727  0.070238  1
  F  F11  1  0.793273  0.793273  0.929762  1
  F  F12  1  0.069161  0.069161  0.793421  1
  F  F13  1  0.930839  0.930839  0.206579  1
  F  F14  1  0.430839  0.430839  0.293421  1
  F  F15  1  0.569161  0.569161  0.706579  1
  F  F16  1  0.587299  0.412701  0.000000  1
  F  F17  1  0.087299  0.912701  0.500000  1
  F  F18  1  0.412701  0.587299  0.000000  1
  F  F19  1  0.912701  0.087299  0.500000  1
  F  F20  1  0.440058  0.146488  0.797477  1
  F  F21  1  0.853512  0.559942  0.202523  1
  F  F22  1  0.353512  0.059942  0.297477  1
  F  F23  1  0.940058  0.646488  0.702523  1
  F  F24  1  0.559942  0.853512  0.202523  1
  F  F25  1  0.146488  0.440058  0.797477  1
  F  F26  1  0.646488  0.940058  0.702523  1
  F  F27  1  0.059942  0.353512  0.297477  1
