# generated using pymatgen
data_Rb3MnSe4
_symmetry_space_group_name_H-M   'P 1'
_cell_length_a   9.87222200
_cell_length_b   9.88666600
_cell_length_c   11.51995000
_cell_angle_alpha   90.00000000
_cell_angle_beta   90.00000000
_cell_angle_gamma   90.00000000
_symmetry_Int_Tables_number   1
_chemical_formula_structural   Rb3MnSe4
_chemical_formula_sum   'Rb12 Mn4 Se16'
_cell_volume   1124.38584537
_cell_formula_units_Z   4
loop_
 _symmetry_equiv_pos_site_id
 _symmetry_equiv_pos_as_xyz
  1  'x, y, z'
loop_
 _atom_site_type_symbol
 _atom_site_label
 _atom_site_symmetry_multiplicity
 _atom_site_fract_x
 _atom_site_fract_y
 _atom_site_fract_z
 _atom_site_occupancy
  Rb  Rb0  1  0.046650  0.791993  0.456560  1
  Rb  Rb1  1  0.453350  0.291993  0.543440  1
  Rb  Rb2  1  0.546650  0.708007  0.043440  1
  Rb  Rb3  1  0.953350  0.208007  0.956560  1
  Rb  Rb4  1  0.953350  0.208007  0.543440  1
  Rb  Rb5  1  0.546650  0.708007  0.456560  1
  Rb  Rb6  1  0.453350  0.291993  0.956560  1
  Rb  Rb7  1  0.046650  0.791993  0.043440  1
  Rb  Rb8  1  0.145907  0.587981  0.750000  1
  Rb  Rb9  1  0.354093  0.087981  0.250000  1
  Rb  Rb10  1  0.645907  0.912019  0.750000  1
  Rb  Rb11  1  0.854093  0.412019  0.250000  1
  Mn  Mn12  1  0.780160  0.983198  0.250000  1
  Mn  Mn13  1  0.719840  0.483198  0.750000  1
  Mn  Mn14  1  0.280160  0.516802  0.250000  1
  Mn  Mn15  1  0.219840  0.016802  0.750000  1
  Se  Se16  1  0.794439  0.755605  0.250000  1
  Se  Se17  1  0.705561  0.255605  0.750000  1
  Se  Se18  1  0.294439  0.744395  0.250000  1
  Se  Se19  1  0.205561  0.244395  0.750000  1
  Se  Se20  1  0.008485  0.928193  0.750000  1
  Se  Se21  1  0.491515  0.428193  0.250000  1
  Se  Se22  1  0.508485  0.571807  0.750000  1
  Se  Se23  1  0.991515  0.071807  0.250000  1
  Se  Se24  1  0.329654  0.950667  0.588053  1
  Se  Se25  1  0.170346  0.450667  0.411947  1
  Se  Se26  1  0.829654  0.549333  0.911947  1
  Se  Se27  1  0.670346  0.049333  0.088053  1
  Se  Se28  1  0.670346  0.049333  0.411947  1
  Se  Se29  1  0.829654  0.549333  0.588053  1
  Se  Se30  1  0.170346  0.450667  0.088053  1
  Se  Se31  1  0.329654  0.950667  0.911947  1
