# generated using pymatgen
data_NaLaPr5OsBr12
_symmetry_space_group_name_H-M   'P 1'
_cell_length_a   9.69098200
_cell_length_b   9.68444229
_cell_length_c   9.69311869
_cell_angle_alpha   107.19037526
_cell_angle_beta   107.21437960
_cell_angle_gamma   107.47139162
_symmetry_Int_Tables_number   1
_chemical_formula_structural   NaLaPr5OsBr12
_chemical_formula_sum   'Na1 La1 Pr5 Os1 Br12'
_cell_volume   751.49860497
_cell_formula_units_Z   1
loop_
 _symmetry_equiv_pos_site_id
 _symmetry_equiv_pos_as_xyz
  1  'x, y, z'
loop_
 _atom_site_type_symbol
 _atom_site_label
 _atom_site_symmetry_multiplicity
 _atom_site_fract_x
 _atom_site_fract_y
 _atom_site_fract_z
 _atom_site_occupancy
  Na  Na0  1  0.499808  0.499896  0.499788  1
  La  La1  1  0.113204  0.319919  0.031076  1
  Pr  Pr2  1  0.319318  0.031331  0.112857  1
  Pr  Pr3  1  0.031023  0.112029  0.319301  1
  Pr  Pr4  1  0.968753  0.886951  0.680614  1
  Pr  Pr5  1  0.680712  0.968527  0.887405  1
  Pr  Pr6  1  0.886777  0.681905  0.968455  1
  Os  Os7  1  0.000990  0.002901  0.000024  1
  Br  Br8  1  0.216124  0.685251  0.070553  1
  Br  Br9  1  0.456702  0.371761  0.158533  1
  Br  Br10  1  0.685287  0.070753  0.215857  1
  Br  Br11  1  0.928990  0.782797  0.314035  1
  Br  Br12  1  0.157397  0.453926  0.374867  1
  Br  Br13  1  0.371763  0.156855  0.453195  1
  Br  Br14  1  0.628233  0.842946  0.546837  1
  Br  Br15  1  0.842896  0.546111  0.628549  1
  Br  Br16  1  0.070234  0.214954  0.682554  1
  Br  Br17  1  0.314680  0.929108  0.784201  1
  Br  Br18  1  0.546476  0.627466  0.842866  1
  Br  Br19  1  0.780632  0.314615  0.928437  1
