# generated using pymatgen
data_CaEr3(Rh2O7)2
_symmetry_space_group_name_H-M   'P 1'
_cell_length_a   7.20560030
_cell_length_b   7.20024673
_cell_length_c   7.20560000
_cell_angle_alpha   59.97540271
_cell_angle_beta   60.00000139
_cell_angle_gamma   59.97539959
_symmetry_Int_Tables_number   1
_chemical_formula_structural   CaEr3(Rh2O7)2
_chemical_formula_sum   'Ca1 Er3 Rh4 O14'
_cell_volume   264.24764624
_cell_formula_units_Z   1
loop_
 _symmetry_equiv_pos_site_id
 _symmetry_equiv_pos_as_xyz
  1  'x, y, z'
loop_
 _atom_site_type_symbol
 _atom_site_label
 _atom_site_symmetry_multiplicity
 _atom_site_fract_x
 _atom_site_fract_y
 _atom_site_fract_z
 _atom_site_occupancy
  Ca  Ca0  1  0.625000  0.125000  0.625000  1
  Er  Er1  1  0.625000  0.625000  0.125000  1
  Er  Er2  1  0.625000  0.625000  0.625000  1
  Er  Er3  1  0.125000  0.625000  0.625000  1
  Rh  Rh4  1  0.625000  0.125000  0.125000  1
  Rh  Rh5  1  0.125000  0.125000  0.125000  1
  Rh  Rh6  1  0.125000  0.625000  0.125000  1
  Rh  Rh7  1  0.125000  0.125000  0.625000  1
  O  O8  1  0.039272  0.461983  0.459473  1
  O  O9  1  0.790527  0.788017  0.210728  1
  O  O10  1  0.792233  0.217749  0.197785  1
  O  O11  1  0.753251  0.740247  0.753251  1
  O  O12  1  0.039272  0.461983  0.039272  1
  O  O13  1  0.457767  0.032251  0.457767  1
  O  O14  1  0.052215  0.032251  0.457767  1
  O  O15  1  0.496749  0.509753  0.496749  1
  O  O16  1  0.197785  0.217749  0.792233  1
  O  O17  1  0.210728  0.788017  0.210728  1
  O  O18  1  0.792233  0.217749  0.792233  1
  O  O19  1  0.457767  0.032251  0.052215  1
  O  O20  1  0.459473  0.461983  0.039272  1
  O  O21  1  0.210728  0.788017  0.790527  1
