# generated using pymatgen
data_Tm20ZnHgBi10
_symmetry_space_group_name_H-M   'P 1'
_cell_length_a   8.11922238
_cell_length_b   9.38443500
_cell_length_c   11.87438576
_cell_angle_alpha   90.00000000
_cell_angle_beta   90.02146071
_cell_angle_gamma   90.00000000
_symmetry_Int_Tables_number   1
_chemical_formula_structural   Tm20ZnHgBi10
_chemical_formula_sum   'Tm20 Zn1 Hg1 Bi10'
_cell_volume   904.76062223
_cell_formula_units_Z   1
loop_
 _symmetry_equiv_pos_site_id
 _symmetry_equiv_pos_as_xyz
  1  'x, y, z'
loop_
 _atom_site_type_symbol
 _atom_site_label
 _atom_site_symmetry_multiplicity
 _atom_site_fract_x
 _atom_site_fract_y
 _atom_site_fract_z
 _atom_site_occupancy
  Tm  Tm0  1  0.034292  0.250000  0.508519  1
  Tm  Tm1  1  0.981129  0.750000  0.491376  1
  Tm  Tm2  1  0.479073  0.750000  0.009596  1
  Tm  Tm3  1  0.534276  0.250000  0.990801  1
  Tm  Tm4  1  0.354122  0.250000  0.296118  1
  Tm  Tm5  1  0.655020  0.750000  0.716243  1
  Tm  Tm6  1  0.152693  0.750000  0.781939  1
  Tm  Tm7  1  0.851583  0.250000  0.209874  1
  Tm  Tm8  1  0.183936  0.250000  0.784666  1
  Tm  Tm9  1  0.809857  0.750000  0.217177  1
  Tm  Tm10  1  0.310426  0.750000  0.282719  1
  Tm  Tm11  1  0.675887  0.250000  0.710891  1
  Tm  Tm12  1  0.189347  0.069267  0.058414  1
  Tm  Tm13  1  0.806888  0.945539  0.940376  1
  Tm  Tm14  1  0.309071  0.953017  0.557734  1
  Tm  Tm15  1  0.806888  0.554461  0.940376  1
  Tm  Tm16  1  0.684168  0.071583  0.444791  1
  Tm  Tm17  1  0.189347  0.430733  0.058414  1
  Tm  Tm18  1  0.684168  0.428417  0.444791  1
  Tm  Tm19  1  0.309071  0.546983  0.557734  1
  Zn  Zn20  1  0.407791  0.250000  0.540698  1
  Hg  Hg21  1  0.908422  0.250000  0.957445  1
  Bi  Bi22  1  0.595025  0.750000  0.457610  1
  Bi  Bi23  1  0.094526  0.750000  0.041653  1
  Bi  Bi24  1  0.059415  0.002300  0.323757  1
  Bi  Bi25  1  0.939014  0.999445  0.677159  1
  Bi  Bi26  1  0.438611  0.997988  0.822196  1
  Bi  Bi27  1  0.939014  0.500555  0.677159  1
  Bi  Bi28  1  0.559459  0.002476  0.176912  1
  Bi  Bi29  1  0.059415  0.497700  0.323757  1
  Bi  Bi30  1  0.559459  0.497524  0.176912  1
  Bi  Bi31  1  0.438611  0.502012  0.822196  1
