# generated using pymatgen
data_Tb4Al18ZnRh5
_symmetry_space_group_name_H-M   'P 1'
_cell_length_a   7.58804816
_cell_length_b   7.58804907
_cell_length_c   9.46112839
_cell_angle_alpha   89.98180624
_cell_angle_beta   89.98179404
_cell_angle_gamma   119.47759665
_symmetry_Int_Tables_number   1
_chemical_formula_structural   Tb4Al18ZnRh5
_chemical_formula_sum   'Tb4 Al18 Zn1 Rh5'
_cell_volume   474.23747261
_cell_formula_units_Z   1
loop_
 _symmetry_equiv_pos_site_id
 _symmetry_equiv_pos_as_xyz
  1  'x, y, z'
loop_
 _atom_site_type_symbol
 _atom_site_label
 _atom_site_symmetry_multiplicity
 _atom_site_fract_x
 _atom_site_fract_y
 _atom_site_fract_z
 _atom_site_occupancy
  Tb  Tb0  1  0.995351  0.675653  0.748962  1
  Tb  Tb1  1  0.004649  0.324347  0.251038  1
  Tb  Tb2  1  0.675653  0.995351  0.748962  1
  Tb  Tb3  1  0.324347  0.004649  0.251038  1
  Al  Al4  1  0.135385  0.135385  0.757034  1
  Al  Al5  1  0.864615  0.864615  0.242966  1
  Al  Al6  1  0.002166  0.344681  0.579511  1
  Al  Al7  1  0.997834  0.655319  0.420489  1
  Al  Al8  1  0.000960  0.664263  0.072690  1
  Al  Al9  1  0.335737  0.999040  0.927310  1
  Al  Al10  1  0.999040  0.335737  0.927310  1
  Al  Al11  1  0.664263  0.000960  0.072690  1
  Al  Al12  1  0.655319  0.997834  0.420489  1
  Al  Al13  1  0.344681  0.002166  0.579511  1
  Al  Al14  1  0.332708  0.332708  0.050854  1
  Al  Al15  1  0.667292  0.667292  0.949146  1
  Al  Al16  1  0.658212  0.658212  0.557032  1
  Al  Al17  1  0.341788  0.341788  0.442968  1
  Al  Al18  1  0.339135  0.551766  0.751536  1
  Al  Al19  1  0.660865  0.448234  0.248464  1
  Al  Al20  1  0.551766  0.339135  0.751536  1
  Al  Al21  1  0.448234  0.660865  0.248464  1
  Zn  Zn22  1  0.000000  0.000000  0.500000  1
  Rh  Rh23  1  0.671963  0.328037  0.500000  1
  Rh  Rh24  1  0.328037  0.671963  0.500000  1
  Rh  Rh25  1  0.328421  0.671579  0.000000  1
  Rh  Rh26  1  0.671579  0.328421  0.000000  1
  Rh  Rh27  1  0.000000  0.000000  0.000000  1
