# generated using pymatgen
data_Dy2Y3(RuO6)2
_symmetry_space_group_name_H-M   'P 1'
_cell_length_a   6.85100618
_cell_length_b   6.85100539
_cell_length_c   7.40221818
_cell_angle_alpha   74.17036680
_cell_angle_beta   74.17036635
_cell_angle_gamma   50.41027790
_symmetry_Int_Tables_number   1
_chemical_formula_structural   Dy2Y3(RuO6)2
_chemical_formula_sum   'Dy2 Y3 Ru2 O12'
_cell_volume   255.28360744
_cell_formula_units_Z   1
loop_
 _symmetry_equiv_pos_site_id
 _symmetry_equiv_pos_as_xyz
  1  'x, y, z'
loop_
 _atom_site_type_symbol
 _atom_site_label
 _atom_site_symmetry_multiplicity
 _atom_site_fract_x
 _atom_site_fract_y
 _atom_site_fract_z
 _atom_site_occupancy
  Dy  Dy0  1  0.310717  0.310717  0.827389  1
  Dy  Dy1  1  0.689283  0.689283  0.172611  1
  Y  Y2  1  0.302822  0.302822  0.360203  1
  Y  Y3  1  0.697178  0.697178  0.639797  1
  Y  Y4  1  0.000000  0.000000  0.500000  1
  Ru  Ru5  1  0.763982  0.236018  0.000000  1
  Ru  Ru6  1  0.236018  0.763982  0.000000  1
  O  O7  1  0.906136  0.423279  0.916405  1
  O  O8  1  0.423279  0.906136  0.916405  1
  O  O9  1  0.093864  0.576721  0.083595  1
  O  O10  1  0.576721  0.093864  0.083595  1
  O  O11  1  0.097906  0.595196  0.574624  1
  O  O12  1  0.595196  0.097906  0.574624  1
  O  O13  1  0.902094  0.404804  0.425376  1
  O  O14  1  0.404804  0.902094  0.425376  1
  O  O15  1  0.999361  0.999361  0.806358  1
  O  O16  1  0.000639  0.000639  0.193642  1
  O  O17  1  0.500239  0.500239  0.815910  1
  O  O18  1  0.499761  0.499761  0.184090  1
