# generated using pymatgen
data_TbY5(ScAu5)2
_symmetry_space_group_name_H-M   'P 1'
_cell_length_a   7.92678589
_cell_length_b   7.92603410
_cell_length_c   7.92491424
_cell_angle_alpha   66.35940779
_cell_angle_beta   66.35811024
_cell_angle_gamma   66.35149281
_symmetry_Int_Tables_number   1
_chemical_formula_structural   TbY5(ScAu5)2
_chemical_formula_sum   'Tb1 Y5 Sc2 Au10'
_cell_volume   400.33999414
_cell_formula_units_Z   1
loop_
 _symmetry_equiv_pos_site_id
 _symmetry_equiv_pos_as_xyz
  1  'x, y, z'
loop_
 _atom_site_type_symbol
 _atom_site_label
 _atom_site_symmetry_multiplicity
 _atom_site_fract_x
 _atom_site_fract_y
 _atom_site_fract_z
 _atom_site_occupancy
  Tb  Tb0  1  0.891259  0.189039  0.619284  1
  Y  Y1  1  0.619183  0.891311  0.189163  1
  Y  Y2  1  0.189110  0.619014  0.891588  1
  Y  Y3  1  0.108569  0.811003  0.380823  1
  Y  Y4  1  0.380729  0.108671  0.810918  1
  Y  Y5  1  0.810857  0.380881  0.108763  1
  Sc  Sc6  1  0.659219  0.659437  0.659389  1
  Sc  Sc7  1  0.341000  0.340594  0.340485  1
  Au  Au8  1  0.999954  0.999941  0.000070  1
  Au  Au9  1  0.500124  0.500036  0.499875  1
  Au  Au10  1  0.806779  0.806615  0.806689  1
  Au  Au11  1  0.193273  0.193228  0.193320  1
  Au  Au12  1  0.937315  0.550062  0.320014  1
  Au  Au13  1  0.320039  0.937442  0.550087  1
  Au  Au14  1  0.550178  0.320129  0.937146  1
  Au  Au15  1  0.062666  0.449913  0.679834  1
  Au  Au16  1  0.679885  0.062806  0.449850  1
  Au  Au17  1  0.449863  0.679875  0.062703  1
