# generated using pymatgen
data_LaY3HgIr
_symmetry_space_group_name_H-M   'P 1'
_cell_length_a   9.76797655
_cell_length_b   9.76797606
_cell_length_c   9.76797700
_cell_angle_alpha   60.00000019
_cell_angle_beta   60.00000188
_cell_angle_gamma   59.99999956
_symmetry_Int_Tables_number   1
_chemical_formula_structural   LaY3HgIr
_chemical_formula_sum   'La4 Y12 Hg4 Ir4'
_cell_volume   659.02035807
_cell_formula_units_Z   4
loop_
 _symmetry_equiv_pos_site_id
 _symmetry_equiv_pos_as_xyz
  1  'x, y, z'
loop_
 _atom_site_type_symbol
 _atom_site_label
 _atom_site_symmetry_multiplicity
 _atom_site_fract_x
 _atom_site_fract_y
 _atom_site_fract_z
 _atom_site_occupancy
  La  La0  1  0.352222  0.352222  0.352222  1
  La  La1  1  0.352222  0.352222  0.943334  1
  La  La2  1  0.352222  0.943334  0.352222  1
  La  La3  1  0.943334  0.352222  0.352222  1
  Y  Y4  1  0.812740  0.187260  0.187260  1
  Y  Y5  1  0.187260  0.812740  0.812740  1
  Y  Y6  1  0.187260  0.812740  0.187260  1
  Y  Y7  1  0.812740  0.187260  0.812740  1
  Y  Y8  1  0.187260  0.187260  0.812740  1
  Y  Y9  1  0.812740  0.812740  0.187260  1
  Y  Y10  1  0.935445  0.564555  0.564555  1
  Y  Y11  1  0.564555  0.935445  0.935445  1
  Y  Y12  1  0.564555  0.935445  0.564555  1
  Y  Y13  1  0.935445  0.564555  0.935445  1
  Y  Y14  1  0.564555  0.564555  0.935445  1
  Y  Y15  1  0.935445  0.935445  0.564555  1
  Hg  Hg16  1  0.586534  0.586534  0.586534  1
  Hg  Hg17  1  0.586534  0.586534  0.240398  1
  Hg  Hg18  1  0.586534  0.240398  0.586534  1
  Hg  Hg19  1  0.240398  0.586534  0.586534  1
  Ir  Ir20  1  0.140739  0.140739  0.140739  1
  Ir  Ir21  1  0.140739  0.140739  0.577782  1
  Ir  Ir22  1  0.140739  0.577782  0.140739  1
  Ir  Ir23  1  0.577782  0.140739  0.140739  1
