# generated using pymatgen
data_Y2Er8Cd3Ni
_symmetry_space_group_name_H-M   'P 1'
_cell_length_a   9.56354710
_cell_length_b   9.56104182
_cell_length_c   9.70039000
_cell_angle_alpha   90.00000000
_cell_angle_beta   90.00000000
_cell_angle_gamma   119.99179356
_symmetry_Int_Tables_number   1
_chemical_formula_structural   Y2Er8Cd3Ni
_chemical_formula_sum   'Y4 Er16 Cd6 Ni2'
_cell_volume   768.20999521
_cell_formula_units_Z   2
loop_
 _symmetry_equiv_pos_site_id
 _symmetry_equiv_pos_as_xyz
  1  'x, y, z'
loop_
 _atom_site_type_symbol
 _atom_site_label
 _atom_site_symmetry_multiplicity
 _atom_site_fract_x
 _atom_site_fract_y
 _atom_site_fract_z
 _atom_site_occupancy
  Y  Y0  1  0.912697  0.456351  0.250000  1
  Y  Y1  1  0.456843  0.543060  0.750000  1
  Y  Y2  1  0.456840  0.913784  0.750000  1
  Y  Y3  1  0.086037  0.543017  0.750000  1
  Er  Er4  1  0.000062  0.000029  0.500015  1
  Er  Er5  1  0.000062  0.000029  0.999985  1
  Er  Er6  1  0.542966  0.456563  0.250000  1
  Er  Er7  1  0.542965  0.086402  0.250000  1
  Er  Er8  1  0.211229  0.789955  0.436702  1
  Er  Er9  1  0.211228  0.421278  0.436702  1
  Er  Er10  1  0.578832  0.789417  0.436444  1
  Er  Er11  1  0.788867  0.210371  0.562534  1
  Er  Er12  1  0.788869  0.578497  0.562536  1
  Er  Er13  1  0.421732  0.210865  0.562114  1
  Er  Er14  1  0.788867  0.210371  0.937466  1
  Er  Er15  1  0.788869  0.578497  0.937464  1
  Er  Er16  1  0.421732  0.210865  0.937886  1
  Er  Er17  1  0.211229  0.789955  0.063298  1
  Er  Er18  1  0.211228  0.421278  0.063298  1
  Er  Er19  1  0.578832  0.789417  0.063556  1
  Cd  Cd20  1  0.884103  0.114596  0.250000  1
  Cd  Cd21  1  0.884103  0.769503  0.250000  1
  Cd  Cd22  1  0.231260  0.115632  0.250000  1
  Cd  Cd23  1  0.114860  0.885364  0.750000  1
  Cd  Cd24  1  0.114864  0.229503  0.750000  1
  Cd  Cd25  1  0.770357  0.885177  0.750000  1
  Ni  Ni26  1  0.333711  0.666857  0.250000  1
  Ni  Ni27  1  0.666754  0.333367  0.750000  1
