# generated using pymatgen
data_Th10ZnSb7
_symmetry_space_group_name_H-M   'P 1'
_cell_length_a   9.57338400
_cell_length_b   9.57338336
_cell_length_c   6.51421300
_cell_angle_alpha   90.00000000
_cell_angle_beta   90.00000000
_cell_angle_gamma   120.00000223
_symmetry_Int_Tables_number   1
_chemical_formula_structural   Th10ZnSb7
_chemical_formula_sum   'Th10 Zn1 Sb7'
_cell_volume   517.03924209
_cell_formula_units_Z   1
loop_
 _symmetry_equiv_pos_site_id
 _symmetry_equiv_pos_as_xyz
  1  'x, y, z'
loop_
 _atom_site_type_symbol
 _atom_site_label
 _atom_site_symmetry_multiplicity
 _atom_site_fract_x
 _atom_site_fract_y
 _atom_site_fract_z
 _atom_site_occupancy
  Th  Th0  1  0.666667  0.333333  0.500000  1
  Th  Th1  1  0.333333  0.666667  0.500000  1
  Th  Th2  1  0.333333  0.666667  0.000000  1
  Th  Th3  1  0.666667  0.333333  0.000000  1
  Th  Th4  1  0.723478  0.723478  0.260474  1
  Th  Th5  1  0.276522  0.000000  0.260474  1
  Th  Th6  1  0.000000  0.276522  0.260474  1
  Th  Th7  1  0.276522  0.276522  0.739526  1
  Th  Th8  1  0.723478  0.000000  0.739526  1
  Th  Th9  1  0.000000  0.723478  0.739526  1
  Zn  Zn10  1  0.000000  0.000000  0.500000  1
  Sb  Sb11  1  0.000000  0.000000  0.000000  1
  Sb  Sb12  1  0.381702  0.381702  0.248395  1
  Sb  Sb13  1  0.618298  0.000000  0.248395  1
  Sb  Sb14  1  0.000000  0.618298  0.248395  1
  Sb  Sb15  1  0.618298  0.618298  0.751605  1
  Sb  Sb16  1  0.381702  0.000000  0.751605  1
  Sb  Sb17  1  0.000000  0.381702  0.751605  1
