# generated using pymatgen
data_Er10TcIrPt4
_symmetry_space_group_name_H-M   'P 1'
_cell_length_a   10.91072200
_cell_length_b   10.91072200
_cell_length_c   6.36988100
_cell_angle_alpha   90.00000000
_cell_angle_beta   90.00000000
_cell_angle_gamma   90.00000000
_symmetry_Int_Tables_number   1
_chemical_formula_structural   Er10TcIrPt4
_chemical_formula_sum   'Er20 Tc2 Ir2 Pt8'
_cell_volume   758.29518734
_cell_formula_units_Z   2
loop_
 _symmetry_equiv_pos_site_id
 _symmetry_equiv_pos_as_xyz
  1  'x, y, z'
loop_
 _atom_site_type_symbol
 _atom_site_label
 _atom_site_symmetry_multiplicity
 _atom_site_fract_x
 _atom_site_fract_y
 _atom_site_fract_z
 _atom_site_occupancy
  Er  Er0  1  0.297293  0.084888  0.372246  1
  Er  Er1  1  0.297293  0.915112  0.872246  1
  Er  Er2  1  0.702707  0.084888  0.872246  1
  Er  Er3  1  0.702707  0.915112  0.372246  1
  Er  Er4  1  0.584888  0.797293  0.872246  1
  Er  Er5  1  0.584888  0.202707  0.372246  1
  Er  Er6  1  0.415112  0.797293  0.372246  1
  Er  Er7  1  0.415112  0.202707  0.872246  1
  Er  Er8  1  0.205513  0.412351  0.626281  1
  Er  Er9  1  0.205513  0.587649  0.126281  1
  Er  Er10  1  0.794487  0.412351  0.126281  1
  Er  Er11  1  0.794487  0.587649  0.626281  1
  Er  Er12  1  0.912351  0.705513  0.126281  1
  Er  Er13  1  0.912351  0.294487  0.626281  1
  Er  Er14  1  0.087649  0.705513  0.626281  1
  Er  Er15  1  0.087649  0.294487  0.126281  1
  Er  Er16  1  0.000000  0.000000  0.499239  1
  Er  Er17  1  0.000000  0.000000  0.999239  1
  Er  Er18  1  0.500000  0.500000  0.999239  1
  Er  Er19  1  0.500000  0.500000  0.499239  1
  Tc  Tc20  1  0.500000  0.000000  0.127974  1
  Tc  Tc21  1  0.500000  0.000000  0.627974  1
  Ir  Ir22  1  0.000000  0.500000  0.879380  1
  Ir  Ir23  1  0.000000  0.500000  0.379380  1
  Pt  Pt24  1  0.847968  0.154182  0.250013  1
  Pt  Pt25  1  0.847968  0.845818  0.750013  1
  Pt  Pt26  1  0.152032  0.154182  0.750013  1
  Pt  Pt27  1  0.152032  0.845818  0.250013  1
  Pt  Pt28  1  0.654182  0.347968  0.750013  1
  Pt  Pt29  1  0.654182  0.652032  0.250013  1
  Pt  Pt30  1  0.345818  0.347968  0.250013  1
  Pt  Pt31  1  0.345818  0.652032  0.750013  1
