# generated using pymatgen
data_LaPr5Ta2O14
_symmetry_space_group_name_H-M   'P 1'
_cell_length_a   6.74030771
_cell_length_b   6.74031451
_cell_length_c   7.77108400
_cell_angle_alpha   90.00231062
_cell_angle_beta   90.00221015
_cell_angle_gamma   111.03507909
_symmetry_Int_Tables_number   1
_chemical_formula_structural   LaPr5Ta2O14
_chemical_formula_sum   'La1 Pr5 Ta2 O14'
_cell_volume   329.52704552
_cell_formula_units_Z   1
loop_
 _symmetry_equiv_pos_site_id
 _symmetry_equiv_pos_as_xyz
  1  'x, y, z'
loop_
 _atom_site_type_symbol
 _atom_site_label
 _atom_site_symmetry_multiplicity
 _atom_site_fract_x
 _atom_site_fract_y
 _atom_site_fract_z
 _atom_site_occupancy
  La  La0  1  0.000000  0.000000  0.500000  1
  Pr  Pr1  1  0.000000  0.000000  0.000000  1
  Pr  Pr2  1  0.477849  0.931432  0.750131  1
  Pr  Pr3  1  0.522151  0.068568  0.249869  1
  Pr  Pr4  1  0.931433  0.477847  0.750134  1
  Pr  Pr5  1  0.068567  0.522153  0.249866  1
  Ta  Ta6  1  0.500000  0.500000  0.000000  1
  Ta  Ta7  1  0.500000  0.500000  0.500000  1
  O  O8  1  0.845781  0.108189  0.750747  1
  O  O9  1  0.154219  0.891811  0.249253  1
  O  O10  1  0.108189  0.845781  0.750747  1
  O  O11  1  0.891811  0.154219  0.249253  1
  O  O12  1  0.438916  0.187960  0.967098  1
  O  O13  1  0.559608  0.811677  0.466930  1
  O  O14  1  0.188328  0.440395  0.533069  1
  O  O15  1  0.812041  0.561086  0.032902  1
  O  O16  1  0.435927  0.435928  0.249987  1
  O  O17  1  0.564073  0.564072  0.750013  1
  O  O18  1  0.187959  0.438914  0.967098  1
  O  O19  1  0.811672  0.559605  0.466931  1
  O  O20  1  0.440392  0.188323  0.533070  1
  O  O21  1  0.561084  0.812040  0.032902  1
