# generated using pymatgen
data_Lu3Zr(Al3Co)6
_symmetry_space_group_name_H-M   'P 1'
_cell_length_a   7.32371486
_cell_length_b   7.31903420
_cell_length_c   9.17566400
_cell_angle_alpha   90.00000000
_cell_angle_beta   90.00000000
_cell_angle_gamma   119.37651039
_symmetry_Int_Tables_number   1
_chemical_formula_structural   Lu3Zr(Al3Co)6
_chemical_formula_sum   'Lu3 Zr1 Al18 Co6'
_cell_volume   428.59562557
_cell_formula_units_Z   1
loop_
 _symmetry_equiv_pos_site_id
 _symmetry_equiv_pos_as_xyz
  1  'x, y, z'
loop_
 _atom_site_type_symbol
 _atom_site_label
 _atom_site_symmetry_multiplicity
 _atom_site_fract_x
 _atom_site_fract_y
 _atom_site_fract_z
 _atom_site_occupancy
  Lu  Lu0  1  0.006667  0.325635  0.750000  1
  Lu  Lu1  1  0.672377  0.994726  0.250000  1
  Lu  Lu2  1  0.326771  0.007616  0.750000  1
  Zr  Zr3  1  0.995624  0.672208  0.250000  1
  Al  Al4  1  0.120483  0.117844  0.250000  1
  Al  Al5  1  0.874421  0.873534  0.750000  1
  Al  Al6  1  0.997262  0.337098  0.074332  1
  Al  Al7  1  0.002576  0.664684  0.931185  1
  Al  Al8  1  0.002576  0.664684  0.568815  1
  Al  Al9  1  0.333262  0.995564  0.425733  1
  Al  Al10  1  0.997262  0.337098  0.425668  1
  Al  Al11  1  0.663903  0.001474  0.571206  1
  Al  Al12  1  0.663903  0.001474  0.928794  1
  Al  Al13  1  0.333262  0.995564  0.074267  1
  Al  Al14  1  0.332841  0.333025  0.543090  1
  Al  Al15  1  0.670591  0.669083  0.449937  1
  Al  Al16  1  0.670591  0.669083  0.050063  1
  Al  Al17  1  0.332841  0.333025  0.956910  1
  Al  Al18  1  0.335713  0.556978  0.250000  1
  Al  Al19  1  0.661017  0.444954  0.750000  1
  Al  Al20  1  0.561542  0.343519  0.250000  1
  Al  Al21  1  0.443436  0.660062  0.750000  1
  Co  Co22  1  0.672045  0.328430  0.000973  1
  Co  Co23  1  0.328502  0.671968  0.001609  1
  Co  Co24  1  0.328502  0.671968  0.498391  1
  Co  Co25  1  0.672045  0.328430  0.499027  1
  Co  Co26  1  0.999992  0.000135  0.000433  1
  Co  Co27  1  0.999992  0.000135  0.499567  1
