# generated using pymatgen
data_La2Pr6Zn7InRh8
_symmetry_space_group_name_H-M   'P 1'
_cell_length_a   4.04170000
_cell_length_b   7.48958716
_cell_length_c   16.71857515
_cell_angle_alpha   90.07480412
_cell_angle_beta   90.00000000
_cell_angle_gamma   90.00000000
_symmetry_Int_Tables_number   1
_chemical_formula_structural   La2Pr6Zn7InRh8
_chemical_formula_sum   'La2 Pr6 Zn7 In1 Rh8'
_cell_volume   506.08194635
_cell_formula_units_Z   1
loop_
 _symmetry_equiv_pos_site_id
 _symmetry_equiv_pos_as_xyz
  1  'x, y, z'
loop_
 _atom_site_type_symbol
 _atom_site_label
 _atom_site_symmetry_multiplicity
 _atom_site_fract_x
 _atom_site_fract_y
 _atom_site_fract_z
 _atom_site_occupancy
  La  La0  1  0.250000  0.671668  0.560860  1
  La  La1  1  0.250000  0.172270  0.937338  1
  Pr  Pr2  1  0.750000  0.329808  0.441201  1
  Pr  Pr3  1  0.250000  0.047849  0.716156  1
  Pr  Pr4  1  0.250000  0.548002  0.781631  1
  Pr  Pr5  1  0.750000  0.821153  0.057599  1
  Pr  Pr6  1  0.750000  0.457989  0.218809  1
  Pr  Pr7  1  0.750000  0.945372  0.289410  1
  Zn  Zn8  1  0.250000  0.001638  0.442009  1
  Zn  Zn9  1  0.750000  0.873772  0.847571  1
  Zn  Zn10  1  0.750000  0.004803  0.560450  1
  Zn  Zn11  1  0.250000  0.502867  0.059265  1
  Zn  Zn12  1  0.750000  0.373184  0.651016  1
  Zn  Zn13  1  0.750000  0.505529  0.936163  1
  Zn  Zn14  1  0.250000  0.622294  0.352248  1
  In  In15  1  0.250000  0.121279  0.151688  1
  Rh  Rh16  1  0.750000  0.252051  0.814449  1
  Rh  Rh17  1  0.250000  0.244303  0.315217  1
  Rh  Rh18  1  0.250000  0.742799  0.931325  1
  Rh  Rh19  1  0.250000  0.243370  0.566877  1
  Rh  Rh20  1  0.250000  0.742437  0.186595  1
  Rh  Rh21  1  0.750000  0.754731  0.438593  1
  Rh  Rh22  1  0.750000  0.267370  0.059790  1
  Rh  Rh23  1  0.750000  0.753464  0.683736  1
