# generated using pymatgen
data_Y5Tl4PdRu
_symmetry_space_group_name_H-M   'P 1'
_cell_length_a   3.62863100
_cell_length_b   8.22809332
_cell_length_c   18.56449737
_cell_angle_alpha   90.06298873
_cell_angle_beta   90.00000000
_cell_angle_gamma   90.00000000
_symmetry_Int_Tables_number   1
_chemical_formula_structural   Y5Tl4PdRu
_chemical_formula_sum   'Y10 Tl8 Pd2 Ru2'
_cell_volume   554.27456289
_cell_formula_units_Z   2
loop_
 _symmetry_equiv_pos_site_id
 _symmetry_equiv_pos_as_xyz
  1  'x, y, z'
loop_
 _atom_site_type_symbol
 _atom_site_label
 _atom_site_symmetry_multiplicity
 _atom_site_fract_x
 _atom_site_fract_y
 _atom_site_fract_z
 _atom_site_occupancy
  Y  Y0  1  0.500000  0.228520  0.778909  1
  Y  Y1  1  0.500000  0.771465  0.220849  1
  Y  Y2  1  0.500000  0.244369  0.280409  1
  Y  Y3  1  0.500000  0.755279  0.719839  1
  Y  Y4  1  0.500000  0.116329  0.588364  1
  Y  Y5  1  0.500000  0.883914  0.411699  1
  Y  Y6  1  0.500000  0.382012  0.087245  1
  Y  Y7  1  0.500000  0.617952  0.912795  1
  Y  Y8  1  0.500000  0.000012  0.000057  1
  Y  Y9  1  0.500000  0.500137  0.499872  1
  Tl  Tl10  1  0.000000  0.076004  0.149952  1
  Tl  Tl11  1  0.000000  0.924126  0.850336  1
  Tl  Tl12  1  0.000000  0.421956  0.649954  1
  Tl  Tl13  1  0.000000  0.578994  0.349749  1
  Tl  Tl14  1  0.000000  0.204559  0.433088  1
  Tl  Tl15  1  0.000000  0.795592  0.566712  1
  Tl  Tl16  1  0.000000  0.294589  0.934825  1
  Tl  Tl17  1  0.000000  0.705206  0.065238  1
  Pd  Pd18  1  0.000000  0.477545  0.196982  1
  Pd  Pd19  1  0.000000  0.521965  0.803099  1
  Ru  Ru20  1  0.000000  0.019733  0.695574  1
  Ru  Ru21  1  0.000000  0.979743  0.304455  1
