# generated using pymatgen
data_Ho3VFe3Co5P6
_symmetry_space_group_name_H-M   'P 1'
_cell_length_a   3.71063000
_cell_length_b   10.53151800
_cell_length_c   12.15213900
_cell_angle_alpha   90.00000000
_cell_angle_beta   90.00000000
_cell_angle_gamma   90.00000000
_symmetry_Int_Tables_number   1
_chemical_formula_structural   Ho3VFe3Co5P6
_chemical_formula_sum   'Ho6 V2 Fe6 Co10 P12'
_cell_volume   474.88817369
_cell_formula_units_Z   2
loop_
 _symmetry_equiv_pos_site_id
 _symmetry_equiv_pos_as_xyz
  1  'x, y, z'
loop_
 _atom_site_type_symbol
 _atom_site_label
 _atom_site_symmetry_multiplicity
 _atom_site_fract_x
 _atom_site_fract_y
 _atom_site_fract_z
 _atom_site_occupancy
  Ho  Ho0  1  0.000000  0.500000  0.524161  1
  Ho  Ho1  1  0.500000  0.000000  0.475839  1
  Ho  Ho2  1  0.500000  0.820388  0.204819  1
  Ho  Ho3  1  0.500000  0.179612  0.204819  1
  Ho  Ho4  1  0.000000  0.679612  0.795181  1
  Ho  Ho5  1  0.000000  0.320388  0.795181  1
  V  V6  1  0.500000  0.500000  0.150839  1
  V  V7  1  0.000000  0.000000  0.849161  1
  Fe  Fe8  1  0.000000  0.500000  0.987136  1
  Fe  Fe9  1  0.500000  0.000000  0.012864  1
  Fe  Fe10  1  0.500000  0.298048  0.429862  1
  Fe  Fe11  1  0.500000  0.701952  0.429862  1
  Fe  Fe12  1  0.000000  0.201952  0.570138  1
  Fe  Fe13  1  0.000000  0.798048  0.570138  1
  Co  Co14  1  0.500000  0.879819  0.708621  1
  Co  Co15  1  0.500000  0.120181  0.708621  1
  Co  Co16  1  0.000000  0.620181  0.291379  1
  Co  Co17  1  0.000000  0.379819  0.291379  1
  Co  Co18  1  0.500000  0.330997  0.993914  1
  Co  Co19  1  0.500000  0.669003  0.993914  1
  Co  Co20  1  0.000000  0.169003  0.006086  1
  Co  Co21  1  0.000000  0.830997  0.006086  1
  Co  Co22  1  0.500000  0.500000  0.699687  1
  Co  Co23  1  0.000000  0.000000  0.300313  1
  P  P24  1  0.500000  0.307189  0.613945  1
  P  P25  1  0.500000  0.692811  0.613945  1
  P  P26  1  0.000000  0.192811  0.386055  1
  P  P27  1  0.000000  0.807189  0.386055  1
  P  P28  1  0.500000  0.500000  0.883981  1
  P  P29  1  0.000000  0.000000  0.116019  1
  P  P30  1  0.500000  0.846273  0.892811  1
  P  P31  1  0.500000  0.153727  0.892811  1
  P  P32  1  0.000000  0.653727  0.107189  1
  P  P33  1  0.000000  0.346273  0.107189  1
  P  P34  1  0.500000  0.500000  0.346522  1
  P  P35  1  0.000000  0.000000  0.653478  1
