# generated using pymatgen
data_Fe4ReSi6Tc5
_symmetry_space_group_name_H-M   'P 1'
_cell_length_a   6.97063700
_cell_length_b   6.96327708
_cell_length_c   4.82822100
_cell_angle_alpha   90.00000000
_cell_angle_beta   90.00000000
_cell_angle_gamma   119.96507462
_symmetry_Int_Tables_number   1
_chemical_formula_structural   Fe4ReSi6Tc5
_chemical_formula_sum   'Fe4 Re1 Si6 Tc5'
_cell_volume   203.02833378
_cell_formula_units_Z   1
loop_
 _symmetry_equiv_pos_site_id
 _symmetry_equiv_pos_as_xyz
  1  'x, y, z'
loop_
 _atom_site_type_symbol
 _atom_site_label
 _atom_site_symmetry_multiplicity
 _atom_site_fract_x
 _atom_site_fract_y
 _atom_site_fract_z
 _atom_site_occupancy
  Fe  Fe0  1  0.333011  0.666915  0.499815  1
  Fe  Fe1  1  0.666989  0.333902  0.000185  1
  Fe  Fe2  1  0.666989  0.333902  0.499815  1
  Fe  Fe3  1  0.333011  0.666915  0.000185  1
  Re  Re4  1  0.000000  0.760759  0.750000  1
  Si  Si5  1  0.405954  0.001304  0.750000  1
  Si  Si6  1  0.403968  0.403934  0.250000  1
  Si  Si7  1  0.000000  0.594748  0.250000  1
  Si  Si8  1  0.000000  0.403265  0.750000  1
  Si  Si9  1  0.594046  0.595349  0.750000  1
  Si  Si10  1  0.596032  0.999964  0.250000  1
  Tc  Tc11  1  0.000000  0.240969  0.250000  1
  Tc  Tc12  1  0.759460  0.758576  0.250000  1
  Tc  Tc13  1  0.758871  0.999628  0.750000  1
  Tc  Tc14  1  0.241129  0.240756  0.750000  1
  Tc  Tc15  1  0.240540  0.999116  0.250000  1
