# generated using pymatgen
data_Sm3ThU4(ReB6)4
_symmetry_space_group_name_H-M   'P 1'
_cell_length_a   3.68724700
_cell_length_b   9.37467465
_cell_length_c   11.50016580
_cell_angle_alpha   89.95716331
_cell_angle_beta   90.00000000
_cell_angle_gamma   90.00000000
_symmetry_Int_Tables_number   1
_chemical_formula_structural   Sm3ThU4(ReB6)4
_chemical_formula_sum   'Sm3 Th1 U4 Re4 B24'
_cell_volume   397.52314166
_cell_formula_units_Z   1
loop_
 _symmetry_equiv_pos_site_id
 _symmetry_equiv_pos_as_xyz
  1  'x, y, z'
loop_
 _atom_site_type_symbol
 _atom_site_label
 _atom_site_symmetry_multiplicity
 _atom_site_fract_x
 _atom_site_fract_y
 _atom_site_fract_z
 _atom_site_occupancy
  Sm  Sm0  1  0.000000  0.337100  0.407691  1
  Sm  Sm1  1  0.000000  0.663156  0.591450  1
  Sm  Sm2  1  0.000000  0.835468  0.093185  1
  Th  Th3  1  0.000000  0.163801  0.908123  1
  U  U4  1  0.000000  0.957116  0.396871  1
  U  U5  1  0.000000  0.042183  0.602126  1
  U  U6  1  0.000000  0.458954  0.103817  1
  U  U7  1  0.000000  0.544087  0.897246  1
  Re  Re8  1  0.000000  0.646918  0.317701  1
  Re  Re9  1  0.000000  0.353045  0.682413  1
  Re  Re10  1  0.000000  0.146598  0.181923  1
  Re  Re11  1  0.000000  0.852731  0.817866  1
  B  B12  1  0.500000  0.554124  0.429411  1
  B  B13  1  0.500000  0.446086  0.570471  1
  B  B14  1  0.500000  0.054219  0.072259  1
  B  B15  1  0.500000  0.943866  0.928606  1
  B  B16  1  0.500000  0.744430  0.421707  1
  B  B17  1  0.500000  0.255717  0.577600  1
  B  B18  1  0.500000  0.245257  0.079279  1
  B  B19  1  0.500000  0.754415  0.921357  1
  B  B20  1  0.500000  0.801995  0.275338  1
  B  B21  1  0.500000  0.198440  0.724048  1
  B  B22  1  0.500000  0.302474  0.225527  1
  B  B23  1  0.500000  0.697496  0.774670  1
  B  B24  1  0.500000  0.643999  0.188440  1
  B  B25  1  0.500000  0.357010  0.811376  1
  B  B26  1  0.500000  0.144077  0.312022  1
  B  B27  1  0.500000  0.855026  0.687543  1
  B  B28  1  0.500000  0.991037  0.221095  1
  B  B29  1  0.500000  0.007422  0.778885  1
  B  B30  1  0.500000  0.491238  0.279995  1
  B  B31  1  0.500000  0.509329  0.719865  1
  B  B32  1  0.500000  0.637481  0.037809  1
  B  B33  1  0.500000  0.363966  0.962830  1
  B  B34  1  0.500000  0.137517  0.462101  1
  B  B35  1  0.500000  0.862222  0.537351  1
