# generated using pymatgen
data_HoLu3(ScIr)4
_symmetry_space_group_name_H-M   'P 1'
_cell_length_a   4.26286700
_cell_length_b   7.08911420
_cell_length_c   8.53440000
_cell_angle_alpha   90.20132969
_cell_angle_beta   90.00000000
_cell_angle_gamma   90.00000000
_symmetry_Int_Tables_number   1
_chemical_formula_structural   HoLu3(ScIr)4
_chemical_formula_sum   'Ho1 Lu3 Sc4 Ir4'
_cell_volume   257.90755754
_cell_formula_units_Z   1
loop_
 _symmetry_equiv_pos_site_id
 _symmetry_equiv_pos_as_xyz
  1  'x, y, z'
loop_
 _atom_site_type_symbol
 _atom_site_label
 _atom_site_symmetry_multiplicity
 _atom_site_fract_x
 _atom_site_fract_y
 _atom_site_fract_z
 _atom_site_occupancy
  Ho  Ho0  1  0.750000  0.518050  0.828442  1
  Lu  Lu1  1  0.250000  0.980593  0.329422  1
  Lu  Lu2  1  0.250000  0.480521  0.171151  1
  Lu  Lu3  1  0.750000  0.019912  0.669718  1
  Sc  Sc4  1  0.250000  0.358055  0.565314  1
  Sc  Sc5  1  0.250000  0.857876  0.933430  1
  Sc  Sc6  1  0.750000  0.643367  0.432279  1
  Sc  Sc7  1  0.750000  0.141958  0.067940  1
  Ir  Ir8  1  0.250000  0.240180  0.892478  1
  Ir  Ir9  1  0.250000  0.744230  0.608146  1
  Ir  Ir10  1  0.750000  0.757761  0.110150  1
  Ir  Ir11  1  0.750000  0.257500  0.391531  1
