# generated using pymatgen
data_Ce2EuSe5
_symmetry_space_group_name_H-M   'P 1'
_cell_length_a   8.12951700
_cell_length_b   8.97655781
_cell_length_c   12.80405700
_cell_angle_alpha   89.63035539
_cell_angle_beta   90.00000000
_cell_angle_gamma   90.00000000
_symmetry_Int_Tables_number   1
_chemical_formula_structural   Ce2EuSe5
_chemical_formula_sum   'Ce8 Eu4 Se20'
_cell_volume   934.35762996
_cell_formula_units_Z   4
loop_
 _symmetry_equiv_pos_site_id
 _symmetry_equiv_pos_as_xyz
  1  'x, y, z'
loop_
 _atom_site_type_symbol
 _atom_site_label
 _atom_site_symmetry_multiplicity
 _atom_site_fract_x
 _atom_site_fract_y
 _atom_site_fract_z
 _atom_site_occupancy
  Ce  Ce0  1  0.015530  0.498978  0.318781  1
  Ce  Ce1  1  0.515530  0.501022  0.181219  1
  Ce  Ce2  1  0.984470  0.501022  0.681219  1
  Ce  Ce3  1  0.484470  0.498978  0.818781  1
  Ce  Ce4  1  0.073576  0.747280  0.007465  1
  Ce  Ce5  1  0.573576  0.252720  0.492535  1
  Ce  Ce6  1  0.926424  0.252720  0.992535  1
  Ce  Ce7  1  0.426424  0.747280  0.507465  1
  Eu  Eu8  1  0.004904  0.984554  0.316660  1
  Eu  Eu9  1  0.504904  0.015446  0.183340  1
  Eu  Eu10  1  0.995096  0.015446  0.683340  1
  Eu  Eu11  1  0.495096  0.984554  0.816660  1
  Se  Se12  1  0.157762  0.458370  0.101444  1
  Se  Se13  1  0.657762  0.541630  0.398556  1
  Se  Se14  1  0.842238  0.541630  0.898556  1
  Se  Se15  1  0.342238  0.458370  0.601444  1
  Se  Se16  1  0.453153  0.723787  0.000614  1
  Se  Se17  1  0.953153  0.276213  0.499386  1
  Se  Se18  1  0.546847  0.276213  0.999386  1
  Se  Se19  1  0.046847  0.723787  0.500614  1
  Se  Se20  1  0.338479  0.274576  0.311891  1
  Se  Se21  1  0.838479  0.725424  0.188109  1
  Se  Se22  1  0.661521  0.725424  0.688109  1
  Se  Se23  1  0.161521  0.274576  0.811891  1
  Se  Se24  1  0.654927  0.964900  0.404510  1
  Se  Se25  1  0.154927  0.035100  0.095490  1
  Se  Se26  1  0.345073  0.035100  0.595490  1
  Se  Se27  1  0.845073  0.964900  0.904510  1
  Se  Se28  1  0.302732  0.734437  0.284799  1
  Se  Se29  1  0.802732  0.265563  0.215201  1
  Se  Se30  1  0.697268  0.265563  0.715201  1
  Se  Se31  1  0.197268  0.734437  0.784799  1
