# generated using pymatgen
data_Er11TmTc3Rh
_symmetry_space_group_name_H-M   'P 1'
_cell_length_a   6.23921056
_cell_length_b   7.34906555
_cell_length_c   9.06278023
_cell_angle_alpha   90.00747950
_cell_angle_beta   90.02469994
_cell_angle_gamma   89.92853999
_symmetry_Int_Tables_number   1
_chemical_formula_structural   Er11TmTc3Rh
_chemical_formula_sum   'Er11 Tm1 Tc3 Rh1'
_cell_volume   415.54956291
_cell_formula_units_Z   1
loop_
 _symmetry_equiv_pos_site_id
 _symmetry_equiv_pos_as_xyz
  1  'x, y, z'
loop_
 _atom_site_type_symbol
 _atom_site_label
 _atom_site_symmetry_multiplicity
 _atom_site_fract_x
 _atom_site_fract_y
 _atom_site_fract_z
 _atom_site_occupancy
  Er  Er0  1  0.168259  0.323054  0.935186  1
  Er  Er1  1  0.836390  0.678627  0.438926  1
  Er  Er2  1  0.336779  0.824087  0.562588  1
  Er  Er3  1  0.336879  0.824311  0.937523  1
  Er  Er4  1  0.836274  0.678710  0.061042  1
  Er  Er5  1  0.168201  0.323195  0.564909  1
  Er  Er6  1  0.662950  0.173906  0.438989  1
  Er  Er7  1  0.875388  0.961087  0.750137  1
  Er  Er8  1  0.368955  0.542568  0.249915  1
  Er  Er9  1  0.626527  0.459231  0.750101  1
  Er  Er10  1  0.127636  0.041171  0.249877  1
  Tm  Tm11  1  0.663047  0.173776  0.060848  1
  Tc  Tc12  1  0.038020  0.612865  0.749986  1
  Tc  Tc13  1  0.539517  0.884128  0.249899  1
  Tc  Tc14  1  0.459993  0.115273  0.750213  1
  Rh  Rh15  1  0.955185  0.384009  0.249861  1
