# generated using pymatgen
data_Nd2InCu10Hg
_symmetry_space_group_name_H-M   'P 1'
_cell_length_a   5.09072300
_cell_length_b   5.09072373
_cell_length_c   20.10426000
_cell_angle_alpha   90.00000000
_cell_angle_beta   90.00000000
_cell_angle_gamma   120.00000173
_symmetry_Int_Tables_number   1
_chemical_formula_structural   Nd2InCu10Hg
_chemical_formula_sum   'Nd4 In2 Cu20 Hg2'
_cell_volume   451.20895665
_cell_formula_units_Z   2
loop_
 _symmetry_equiv_pos_site_id
 _symmetry_equiv_pos_as_xyz
  1  'x, y, z'
loop_
 _atom_site_type_symbol
 _atom_site_label
 _atom_site_symmetry_multiplicity
 _atom_site_fract_x
 _atom_site_fract_y
 _atom_site_fract_z
 _atom_site_occupancy
  Nd  Nd0  1  0.333333  0.666667  0.748692  1
  Nd  Nd1  1  0.666667  0.333333  0.251308  1
  Nd  Nd2  1  0.000000  0.000000  0.000000  1
  Nd  Nd3  1  0.000000  0.000000  0.500000  1
  In  In4  1  0.666667  0.333333  0.084902  1
  In  In5  1  0.333333  0.666667  0.915098  1
  Cu  Cu6  1  0.333333  0.666667  0.047578  1
  Cu  Cu7  1  0.666667  0.333333  0.952422  1
  Cu  Cu8  1  0.666667  0.333333  0.548406  1
  Cu  Cu9  1  0.333333  0.666667  0.451594  1
  Cu  Cu10  1  0.000000  0.000000  0.250273  1
  Cu  Cu11  1  0.000000  0.000000  0.749727  1
  Cu  Cu12  1  0.333333  0.666667  0.250036  1
  Cu  Cu13  1  0.666667  0.333333  0.749964  1
  Cu  Cu14  1  0.165615  0.331231  0.147945  1
  Cu  Cu15  1  0.834385  0.668769  0.852055  1
  Cu  Cu16  1  0.668769  0.834385  0.147945  1
  Cu  Cu17  1  0.834044  0.668088  0.648115  1
  Cu  Cu18  1  0.331231  0.165615  0.852055  1
  Cu  Cu19  1  0.165956  0.331912  0.351885  1
  Cu  Cu20  1  0.165615  0.834385  0.147945  1
  Cu  Cu21  1  0.331912  0.165956  0.648115  1
  Cu  Cu22  1  0.834385  0.165615  0.852055  1
  Cu  Cu23  1  0.668088  0.834044  0.351885  1
  Cu  Cu24  1  0.834044  0.165956  0.648115  1
  Cu  Cu25  1  0.165956  0.834044  0.351885  1
  Hg  Hg26  1  0.333333  0.666667  0.583085  1
  Hg  Hg27  1  0.666667  0.333333  0.416915  1
