# generated using pymatgen
data_YEr15(In3Co)2
_symmetry_space_group_name_H-M   'P 1'
_cell_length_a   10.28304900
_cell_length_b   10.29397639
_cell_length_c   6.98914713
_cell_angle_alpha   90.01887347
_cell_angle_beta   90.00000000
_cell_angle_gamma   119.96488136
_symmetry_Int_Tables_number   1
_chemical_formula_structural   YEr15(In3Co)2
_chemical_formula_sum   'Y1 Er15 In6 Co2'
_cell_volume   640.93418395
_cell_formula_units_Z   1
loop_
 _symmetry_equiv_pos_site_id
 _symmetry_equiv_pos_as_xyz
  1  'x, y, z'
loop_
 _atom_site_type_symbol
 _atom_site_label
 _atom_site_symmetry_multiplicity
 _atom_site_fract_x
 _atom_site_fract_y
 _atom_site_fract_z
 _atom_site_occupancy
  Y  Y0  1  0.534247  0.068494  0.791022  1
  Er  Er1  1  0.929472  0.464642  0.791292  1
  Er  Er2  1  0.535171  0.464642  0.791292  1
  Er  Er3  1  0.464318  0.928636  0.291556  1
  Er  Er4  1  0.070539  0.535479  0.292136  1
  Er  Er5  1  0.464941  0.535479  0.292136  1
  Er  Er6  1  0.821856  0.643713  0.498419  1
  Er  Er7  1  0.356972  0.179144  0.497037  1
  Er  Er8  1  0.822173  0.179144  0.497037  1
  Er  Er9  1  0.178608  0.357216  0.999205  1
  Er  Er10  1  0.643297  0.820767  0.999378  1
  Er  Er11  1  0.177471  0.820767  0.999378  1
  Er  Er12  1  0.666930  0.333858  0.182449  1
  Er  Er13  1  0.332972  0.665945  0.682848  1
  Er  Er14  1  0.000103  0.000205  0.779501  1
  Er  Er15  1  0.999900  0.999800  0.279448  1
  In  In16  1  0.836617  0.673234  0.038781  1
  In  In17  1  0.325228  0.162346  0.039614  1
  In  In18  1  0.837117  0.162346  0.039614  1
  In  In19  1  0.163377  0.326754  0.540794  1
  In  In20  1  0.674538  0.837542  0.540531  1
  In  In21  1  0.163005  0.837542  0.540531  1
  Co  Co22  1  0.667739  0.335477  0.564837  1
  Co  Co23  1  0.333411  0.666824  0.067069  1
