# generated using pymatgen
data_Ho12Ni5Pb
_symmetry_space_group_name_H-M   'P 1'
_cell_length_a   8.30837517
_cell_length_b   8.30837450
_cell_length_c   8.30837501
_cell_angle_alpha   111.59328548
_cell_angle_beta   109.70996449
_cell_angle_gamma   107.14106521
_symmetry_Int_Tables_number   1
_chemical_formula_structural   Ho12Ni5Pb
_chemical_formula_sum   'Ho12 Ni5 Pb1'
_cell_volume   440.82631770
_cell_formula_units_Z   1
loop_
 _symmetry_equiv_pos_site_id
 _symmetry_equiv_pos_as_xyz
  1  'x, y, z'
loop_
 _atom_site_type_symbol
 _atom_site_label
 _atom_site_symmetry_multiplicity
 _atom_site_fract_x
 _atom_site_fract_y
 _atom_site_fract_z
 _atom_site_occupancy
  Ho  Ho0  1  0.402516  0.211687  0.190830  1
  Ho  Ho1  1  0.597484  0.788313  0.809170  1
  Ho  Ho2  1  0.020857  0.211687  0.809170  1
  Ho  Ho3  1  0.979143  0.788313  0.190830  1
  Ho  Ho4  1  0.180143  0.292711  0.472851  1
  Ho  Ho5  1  0.819857  0.707289  0.527149  1
  Ho  Ho6  1  0.180143  0.707289  0.887432  1
  Ho  Ho7  1  0.819857  0.292711  0.112568  1
  Ho  Ho8  1  0.321775  0.630223  0.308449  1
  Ho  Ho9  1  0.678225  0.369777  0.691551  1
  Ho  Ho10  1  0.321775  0.013326  0.691551  1
  Ho  Ho11  1  0.678225  0.986674  0.308449  1
  Ni  Ni12  1  0.000000  0.000000  0.000000  1
  Ni  Ni13  1  0.362893  0.000000  0.362893  1
  Ni  Ni14  1  0.637107  0.000000  0.637107  1
  Ni  Ni15  1  0.123831  0.623831  0.500000  1
  Ni  Ni16  1  0.876169  0.376169  0.500000  1
  Pb  Pb17  1  0.500000  0.500000  0.000000  1
