# generated using pymatgen
data_Ho4Al18(OsPt)3
_symmetry_space_group_name_H-M   'P 1'
_cell_length_a   7.57029831
_cell_length_b   7.57029751
_cell_length_c   9.47952650
_cell_angle_alpha   89.94443950
_cell_angle_beta   89.94443705
_cell_angle_gamma   119.16493859
_symmetry_Int_Tables_number   1
_chemical_formula_structural   Ho4Al18(OsPt)3
_chemical_formula_sum   'Ho4 Al18 Os3 Pt3'
_cell_volume   474.39017788
_cell_formula_units_Z   1
loop_
 _symmetry_equiv_pos_site_id
 _symmetry_equiv_pos_as_xyz
  1  'x, y, z'
loop_
 _atom_site_type_symbol
 _atom_site_label
 _atom_site_symmetry_multiplicity
 _atom_site_fract_x
 _atom_site_fract_y
 _atom_site_fract_z
 _atom_site_occupancy
  Ho  Ho0  1  0.993246  0.674464  0.252209  1
  Ho  Ho1  1  0.005457  0.324879  0.748331  1
  Ho  Ho2  1  0.675121  0.994543  0.251669  1
  Ho  Ho3  1  0.325536  0.006754  0.747791  1
  Al  Al4  1  0.127199  0.128547  0.250202  1
  Al  Al5  1  0.871453  0.872801  0.749798  1
  Al  Al6  1  0.000702  0.332966  0.075594  1
  Al  Al7  1  0.998354  0.668693  0.923382  1
  Al  Al8  1  0.994898  0.662459  0.575114  1
  Al  Al9  1  0.337541  0.005102  0.424886  1
  Al  Al10  1  0.997195  0.331443  0.425192  1
  Al  Al11  1  0.668557  0.002805  0.574808  1
  Al  Al12  1  0.667034  0.999298  0.924406  1
  Al  Al13  1  0.331307  0.001646  0.076618  1
  Al  Al14  1  0.333418  0.327366  0.547672  1
  Al  Al15  1  0.672634  0.666582  0.452328  1
  Al  Al16  1  0.670766  0.671650  0.053801  1
  Al  Al17  1  0.328350  0.329234  0.946199  1
  Al  Al18  1  0.341182  0.547377  0.250306  1
  Al  Al19  1  0.657912  0.449859  0.746682  1
  Al  Al20  1  0.550141  0.342088  0.253318  1
  Al  Al21  1  0.452623  0.658818  0.749694  1
  Os  Os22  1  0.672113  0.327887  0.500000  1
  Os  Os23  1  0.999365  0.000635  0.000000  1
  Os  Os24  1  0.000761  0.999239  0.500000  1
  Pt  Pt25  1  0.671332  0.328668  0.000000  1
  Pt  Pt26  1  0.327492  0.672508  0.000000  1
  Pt  Pt27  1  0.328315  0.671685  0.500000  1
