# generated using pymatgen
data_Tm4Th6SnBi3(PbC)2
_symmetry_space_group_name_H-M   'P 1'
_cell_length_a   9.29159500
_cell_length_b   9.29159611
_cell_length_c   6.45487500
_cell_angle_alpha   90.00000000
_cell_angle_beta   90.00000000
_cell_angle_gamma   119.94972126
_symmetry_Int_Tables_number   1
_chemical_formula_structural   Tm4Th6SnBi3(PbC)2
_chemical_formula_sum   'Tm4 Th6 Sn1 Bi3 Pb2 C2'
_cell_volume   482.85737852
_cell_formula_units_Z   1
loop_
 _symmetry_equiv_pos_site_id
 _symmetry_equiv_pos_as_xyz
  1  'x, y, z'
loop_
 _atom_site_type_symbol
 _atom_site_label
 _atom_site_symmetry_multiplicity
 _atom_site_fract_x
 _atom_site_fract_y
 _atom_site_fract_z
 _atom_site_occupancy
  Tm  Tm0  1  0.662215  0.333948  0.999787  1
  Tm  Tm1  1  0.336102  0.664672  0.999768  1
  Tm  Tm2  1  0.336102  0.664672  0.500232  1
  Tm  Tm3  1  0.662215  0.333948  0.500213  1
  Th  Th4  1  0.776038  0.776054  0.750000  1
  Th  Th5  1  0.222574  0.003285  0.750000  1
  Th  Th6  1  0.003118  0.221939  0.750000  1
  Th  Th7  1  0.224384  0.222929  0.250000  1
  Th  Th8  1  0.778242  0.999036  0.250000  1
  Th  Th9  1  0.000472  0.780566  0.250000  1
  Sn  Sn10  1  0.407396  0.407426  0.750000  1
  Bi  Bi11  1  0.593071  0.000274  0.750000  1
  Bi  Bi12  1  0.000547  0.593858  0.750000  1
  Bi  Bi13  1  0.999682  0.406958  0.250000  1
  Pb  Pb14  1  0.591755  0.591637  0.250000  1
  Pb  Pb15  1  0.407832  0.999346  0.250000  1
  C  C16  1  0.999126  0.999724  0.999781  1
  C  C17  1  0.999126  0.999724  0.500219  1
