# generated using pymatgen
data_Zr6Al6Ni5Os
_symmetry_space_group_name_H-M   'P 1'
_cell_length_a   6.96508200
_cell_length_b   6.96508341
_cell_length_c   7.08071700
_cell_angle_alpha   90.00000000
_cell_angle_beta   90.00000000
_cell_angle_gamma   120.00000281
_symmetry_Int_Tables_number   1
_chemical_formula_structural   Zr6Al6Ni5Os
_chemical_formula_sum   'Zr6 Al6 Ni5 Os1'
_cell_volume   297.48180754
_cell_formula_units_Z   1
loop_
 _symmetry_equiv_pos_site_id
 _symmetry_equiv_pos_as_xyz
  1  'x, y, z'
loop_
 _atom_site_type_symbol
 _atom_site_label
 _atom_site_symmetry_multiplicity
 _atom_site_fract_x
 _atom_site_fract_y
 _atom_site_fract_z
 _atom_site_occupancy
  Zr  Zr0  1  0.004694  0.594309  0.747981  1
  Zr  Zr1  1  0.994211  0.586761  0.251664  1
  Zr  Zr2  1  0.592550  0.005789  0.251664  1
  Zr  Zr3  1  0.589615  0.995306  0.747981  1
  Zr  Zr4  1  0.413239  0.407450  0.251664  1
  Zr  Zr5  1  0.405691  0.410385  0.747981  1
  Al  Al6  1  0.997127  0.242402  0.499762  1
  Al  Al7  1  0.748282  0.747489  0.999663  1
  Al  Al8  1  0.999207  0.251718  0.999663  1
  Al  Al9  1  0.245276  0.002873  0.499762  1
  Al  Al10  1  0.252511  0.000793  0.999663  1
  Al  Al11  1  0.757598  0.754724  0.499762  1
  Ni  Ni12  1  0.666667  0.333333  0.514807  1
  Ni  Ni13  1  0.666667  0.333333  0.985653  1
  Ni  Ni14  1  0.000000  0.000000  0.243514  1
  Ni  Ni15  1  0.000000  0.000000  0.755453  1
  Ni  Ni16  1  0.333333  0.666667  0.008946  1
  Os  Os17  1  0.333333  0.666667  0.494416  1
