# generated using pymatgen
data_LiYb2RuO6
_symmetry_space_group_name_H-M   'P 1'
_cell_length_a   5.34787896
_cell_length_b   5.35352338
_cell_length_c   5.45017616
_cell_angle_alpha   60.15644400
_cell_angle_beta   60.12555922
_cell_angle_gamma   59.80368322
_symmetry_Int_Tables_number   1
_chemical_formula_structural   LiYb2RuO6
_chemical_formula_sum   'Li1 Yb2 Ru1 O6'
_cell_volume   110.40477151
_cell_formula_units_Z   1
loop_
 _symmetry_equiv_pos_site_id
 _symmetry_equiv_pos_as_xyz
  1  'x, y, z'
loop_
 _atom_site_type_symbol
 _atom_site_label
 _atom_site_symmetry_multiplicity
 _atom_site_fract_x
 _atom_site_fract_y
 _atom_site_fract_z
 _atom_site_occupancy
  Li  Li0  1  0.499999  0.500001  0.500000  1
  Yb  Yb1  1  0.250410  0.248587  0.232695  1
  Yb  Yb2  1  0.749591  0.751413  0.767304  1
  Ru  Ru3  1  0.000000  0.000000  0.000000  1
  O  O4  1  0.807841  0.305203  0.182972  1
  O  O5  1  0.303538  0.807485  0.185415  1
  O  O6  1  0.760241  0.764280  0.336343  1
  O  O7  1  0.239758  0.235720  0.663656  1
  O  O8  1  0.696462  0.192516  0.814585  1
  O  O9  1  0.192159  0.694798  0.817028  1
