# generated using pymatgen
data_TbPr3Dy(Sn5Rh2)2
_symmetry_space_group_name_H-M   'P 1'
_cell_length_a   14.21485510
_cell_length_b   14.21485510
_cell_length_c   4.59764500
_cell_angle_alpha   90.00000000
_cell_angle_beta   90.00000000
_cell_angle_gamma   90.01370437
_symmetry_Int_Tables_number   1
_chemical_formula_structural   TbPr3Dy(Sn5Rh2)2
_chemical_formula_sum   'Tb2 Pr6 Dy2 Sn20 Rh8'
_cell_volume   929.00980275
_cell_formula_units_Z   2
loop_
 _symmetry_equiv_pos_site_id
 _symmetry_equiv_pos_as_xyz
  1  'x, y, z'
loop_
 _atom_site_type_symbol
 _atom_site_label
 _atom_site_symmetry_multiplicity
 _atom_site_fract_x
 _atom_site_fract_y
 _atom_site_fract_z
 _atom_site_occupancy
  Tb  Tb0  1  0.677242  0.177242  0.500000  1
  Tb  Tb1  1  0.322758  0.822758  0.500000  1
  Pr  Pr2  1  0.500000  0.500000  0.000000  1
  Pr  Pr3  1  0.000000  0.000000  0.000000  1
  Pr  Pr4  1  0.888073  0.388073  0.500000  1
  Pr  Pr5  1  0.111927  0.611927  0.500000  1
  Pr  Pr6  1  0.388042  0.111958  0.500000  1
  Pr  Pr7  1  0.611958  0.888042  0.500000  1
  Dy  Dy8  1  0.177181  0.322819  0.500000  1
  Dy  Dy9  1  0.822819  0.677181  0.500000  1
  Sn  Sn10  1  0.570137  0.070137  0.000000  1
  Sn  Sn11  1  0.429863  0.929863  0.000000  1
  Sn  Sn12  1  0.070201  0.429799  0.000000  1
  Sn  Sn13  1  0.929799  0.570201  0.000000  1
  Sn  Sn14  1  0.654637  0.698067  0.000000  1
  Sn  Sn15  1  0.345363  0.301933  0.000000  1
  Sn  Sn16  1  0.154555  0.801916  0.000000  1
  Sn  Sn17  1  0.845445  0.198084  0.000000  1
  Sn  Sn18  1  0.301916  0.654555  0.000000  1
  Sn  Sn19  1  0.698084  0.345445  0.000000  1
  Sn  Sn20  1  0.198067  0.154637  0.000000  1
  Sn  Sn21  1  0.801933  0.845363  0.000000  1
  Sn  Sn22  1  0.664058  0.505446  0.500000  1
  Sn  Sn23  1  0.335942  0.494554  0.500000  1
  Sn  Sn24  1  0.164034  0.994587  0.500000  1
  Sn  Sn25  1  0.835966  0.005413  0.500000  1
  Sn  Sn26  1  0.494587  0.664034  0.500000  1
  Sn  Sn27  1  0.505413  0.335966  0.500000  1
  Sn  Sn28  1  0.005446  0.164058  0.500000  1
  Sn  Sn29  1  0.994554  0.835942  0.500000  1
  Rh  Rh30  1  0.747116  0.529235  0.000000  1
  Rh  Rh31  1  0.252884  0.470765  0.000000  1
  Rh  Rh32  1  0.247071  0.970856  0.000000  1
  Rh  Rh33  1  0.752929  0.029144  0.000000  1
  Rh  Rh34  1  0.470856  0.747071  0.000000  1
  Rh  Rh35  1  0.529144  0.252929  0.000000  1
  Rh  Rh36  1  0.029235  0.247116  0.000000  1
  Rh  Rh37  1  0.970765  0.752884  0.000000  1
