# generated using pymatgen
data_Tb24HgTe11
_symmetry_space_group_name_H-M   'P 1'
_cell_length_a   4.07052000
_cell_length_b   11.58134767
_cell_length_c   22.18884400
_cell_angle_alpha   89.98049795
_cell_angle_beta   90.00000000
_cell_angle_gamma   90.00000000
_symmetry_Int_Tables_number   1
_chemical_formula_structural   Tb24HgTe11
_chemical_formula_sum   'Tb24 Hg1 Te11'
_cell_volume   1046.02880459
_cell_formula_units_Z   1
loop_
 _symmetry_equiv_pos_site_id
 _symmetry_equiv_pos_as_xyz
  1  'x, y, z'
loop_
 _atom_site_type_symbol
 _atom_site_label
 _atom_site_symmetry_multiplicity
 _atom_site_fract_x
 _atom_site_fract_y
 _atom_site_fract_z
 _atom_site_occupancy
  Tb  Tb0  1  0.250000  0.150869  0.391282  1
  Tb  Tb1  1  0.750000  0.848678  0.608502  1
  Tb  Tb2  1  0.750000  0.651418  0.108958  1
  Tb  Tb3  1  0.250000  0.349455  0.891692  1
  Tb  Tb4  1  0.250000  0.455959  0.340413  1
  Tb  Tb5  1  0.750000  0.543551  0.659742  1
  Tb  Tb6  1  0.750000  0.954965  0.157858  1
  Tb  Tb7  1  0.250000  0.042925  0.841098  1
  Tb  Tb8  1  0.250000  0.734437  0.232525  1
  Tb  Tb9  1  0.750000  0.264950  0.766590  1
  Tb  Tb10  1  0.750000  0.235972  0.266830  1
  Tb  Tb11  1  0.250000  0.764917  0.733220  1
  Tb  Tb12  1  0.250000  0.116095  0.034631  1
  Tb  Tb13  1  0.750000  0.884281  0.966496  1
  Tb  Tb14  1  0.750000  0.614653  0.465297  1
  Tb  Tb15  1  0.250000  0.384978  0.534518  1
  Tb  Tb16  1  0.250000  0.412811  0.147973  1
  Tb  Tb17  1  0.750000  0.587039  0.851370  1
  Tb  Tb18  1  0.750000  0.912538  0.352038  1
  Tb  Tb19  1  0.250000  0.086858  0.647769  1
  Tb  Tb20  1  0.250000  0.612542  0.982897  1
  Tb  Tb21  1  0.750000  0.387514  0.016979  1
  Tb  Tb22  1  0.750000  0.112976  0.516905  1
  Tb  Tb23  1  0.250000  0.887139  0.482922  1
  Hg  Hg24  1  0.250000  0.848635  0.070819  1
  Te  Te25  1  0.750000  0.151623  0.930452  1
  Te  Te26  1  0.750000  0.349701  0.431148  1
  Te  Te27  1  0.250000  0.650523  0.568880  1
  Te  Te28  1  0.250000  0.711015  0.372876  1
  Te  Te29  1  0.750000  0.288398  0.627181  1
  Te  Te30  1  0.750000  0.214069  0.127963  1
  Te  Te31  1  0.250000  0.787241  0.872306  1
  Te  Te32  1  0.250000  0.021696  0.260741  1
  Te  Te33  1  0.750000  0.978871  0.739153  1
  Te  Te34  1  0.750000  0.521754  0.239051  1
  Te  Te35  1  0.250000  0.478957  0.760929  1
