# generated using pymatgen
data_InBiRh2O7
_symmetry_space_group_name_H-M   'P 1'
_cell_length_a   7.21559604
_cell_length_b   7.21559572
_cell_length_c   7.09038000
_cell_angle_alpha   60.57240733
_cell_angle_beta   60.57240878
_cell_angle_gamma   61.30533643
_symmetry_Int_Tables_number   1
_chemical_formula_structural   InBiRh2O7
_chemical_formula_sum   'In2 Bi2 Rh4 O14'
_cell_volume   265.81471191
_cell_formula_units_Z   2
loop_
 _symmetry_equiv_pos_site_id
 _symmetry_equiv_pos_as_xyz
  1  'x, y, z'
loop_
 _atom_site_type_symbol
 _atom_site_label
 _atom_site_symmetry_multiplicity
 _atom_site_fract_x
 _atom_site_fract_y
 _atom_site_fract_z
 _atom_site_occupancy
  In  In0  1  0.125000  0.125000  0.125000  1
  In  In1  1  0.125000  0.125000  0.625000  1
  Bi  Bi2  1  0.125000  0.625000  0.125000  1
  Bi  Bi3  1  0.625000  0.125000  0.125000  1
  Rh  Rh4  1  0.625000  0.625000  0.625000  1
  Rh  Rh5  1  0.625000  0.625000  0.125000  1
  Rh  Rh6  1  0.125000  0.625000  0.625000  1
  Rh  Rh7  1  0.625000  0.125000  0.625000  1
  O  O8  1  0.243815  0.243815  0.256185  1
  O  O9  1  0.289121  0.715782  0.287162  1
  O  O10  1  0.964399  0.964399  0.535601  1
  O  O11  1  0.534218  0.960879  0.542064  1
  O  O12  1  0.711804  0.711804  0.288196  1
  O  O13  1  0.960879  0.534218  0.542064  1
  O  O14  1  0.715782  0.289121  0.707936  1
  O  O15  1  0.285601  0.285601  0.714399  1
  O  O16  1  0.715782  0.289121  0.287162  1
  O  O17  1  0.289121  0.715782  0.707936  1
  O  O18  1  0.960879  0.534218  0.962838  1
  O  O19  1  0.538196  0.538196  0.961804  1
  O  O20  1  0.006185  0.006185  0.993815  1
  O  O21  1  0.534218  0.960879  0.962838  1
