# generated using pymatgen
data_Ce3Tm9(SiOs)8
_symmetry_space_group_name_H-M   'P 1'
_cell_length_a   5.49908662
_cell_length_b   7.73136792
_cell_length_c   13.26612281
_cell_angle_alpha   90.08612327
_cell_angle_beta   90.01387004
_cell_angle_gamma   89.78512702
_symmetry_Int_Tables_number   1
_chemical_formula_structural   Ce3Tm9(SiOs)8
_chemical_formula_sum   'Ce3 Tm9 Si8 Os8'
_cell_volume   564.01071923
_cell_formula_units_Z   1
loop_
 _symmetry_equiv_pos_site_id
 _symmetry_equiv_pos_as_xyz
  1  'x, y, z'
loop_
 _atom_site_type_symbol
 _atom_site_label
 _atom_site_symmetry_multiplicity
 _atom_site_fract_x
 _atom_site_fract_y
 _atom_site_fract_z
 _atom_site_occupancy
  Ce  Ce0  1  0.652266  0.410616  0.903006  1
  Ce  Ce1  1  0.350927  0.905347  0.595602  1
  Ce  Ce2  1  0.651863  0.090297  0.099203  1
  Tm  Tm3  1  0.127093  0.255462  0.749354  1
  Tm  Tm4  1  0.872277  0.740284  0.252586  1
  Tm  Tm5  1  0.127171  0.248629  0.251201  1
  Tm  Tm6  1  0.870852  0.754605  0.748860  1
  Tm  Tm7  1  0.641271  0.393571  0.601939  1
  Tm  Tm8  1  0.352878  0.609619  0.105940  1
  Tm  Tm9  1  0.649316  0.109138  0.394632  1
  Tm  Tm10  1  0.351350  0.891602  0.894761  1
  Tm  Tm11  1  0.352527  0.599639  0.397246  1
  Si  Si12  1  0.089253  0.251847  0.499706  1
  Si  Si13  1  0.915296  0.749971  0.001190  1
  Si  Si14  1  0.901211  0.746670  0.496338  1
  Si  Si15  1  0.103439  0.249236  0.000726  1
  Si  Si16  1  0.638085  0.106071  0.752915  1
  Si  Si17  1  0.361720  0.894770  0.254109  1
  Si  Si18  1  0.633154  0.395776  0.248602  1
  Si  Si19  1  0.357782  0.603959  0.746837  1
  Os  Os20  1  0.843023  0.020063  0.592616  1
  Os  Os21  1  0.158137  0.977783  0.093446  1
  Os  Os22  1  0.844608  0.472870  0.407939  1
  Os  Os23  1  0.159708  0.521722  0.908539  1
  Os  Os24  1  0.153780  0.976284  0.411548  1
  Os  Os25  1  0.846469  0.023662  0.911407  1
  Os  Os26  1  0.147947  0.524997  0.589775  1
  Os  Os27  1  0.846597  0.475509  0.089977  1
