# generated using pymatgen
data_Dy5Er7Tc3Rh
_symmetry_space_group_name_H-M   'P 1'
_cell_length_a   6.28304075
_cell_length_b   7.37264965
_cell_length_c   9.09521612
_cell_angle_alpha   89.98105821
_cell_angle_beta   89.94628096
_cell_angle_gamma   89.87071047
_symmetry_Int_Tables_number   1
_chemical_formula_structural   Dy5Er7Tc3Rh
_chemical_formula_sum   'Dy5 Er7 Tc3 Rh1'
_cell_volume   421.31330696
_cell_formula_units_Z   1
loop_
 _symmetry_equiv_pos_site_id
 _symmetry_equiv_pos_as_xyz
  1  'x, y, z'
loop_
 _atom_site_type_symbol
 _atom_site_label
 _atom_site_symmetry_multiplicity
 _atom_site_fract_x
 _atom_site_fract_y
 _atom_site_fract_z
 _atom_site_occupancy
  Dy  Dy0  1  0.662732  0.174052  0.061039  1
  Dy  Dy1  1  0.876057  0.960884  0.749764  1
  Dy  Dy2  1  0.369392  0.542712  0.250179  1
  Dy  Dy3  1  0.625922  0.459448  0.749792  1
  Dy  Dy4  1  0.127349  0.040758  0.250209  1
  Er  Er5  1  0.167999  0.323385  0.934309  1
  Er  Er6  1  0.836686  0.678520  0.438570  1
  Er  Er7  1  0.336989  0.824300  0.563043  1
  Er  Er8  1  0.336735  0.824001  0.936740  1
  Er  Er9  1  0.836913  0.678373  0.061495  1
  Er  Er10  1  0.168112  0.323079  0.565470  1
  Er  Er11  1  0.662683  0.173800  0.439198  1
  Tc  Tc12  1  0.038407  0.612765  0.750010  1
  Tc  Tc13  1  0.539688  0.883707  0.250175  1
  Tc  Tc14  1  0.459264  0.115176  0.749575  1
  Rh  Rh15  1  0.955073  0.385039  0.250431  1
