# generated using pymatgen
data_TbY9(Al2Ru3)2
_symmetry_space_group_name_H-M   'P 1'
_cell_length_a   8.36801581
_cell_length_b   8.36801575
_cell_length_c   8.36801501
_cell_angle_alpha   109.46821418
_cell_angle_beta   109.46821373
_cell_angle_gamma   109.46820229
_symmetry_Int_Tables_number   1
_chemical_formula_structural   TbY9(Al2Ru3)2
_chemical_formula_sum   'Tb1 Y9 Al4 Ru6'
_cell_volume   451.12192985
_cell_formula_units_Z   1
loop_
 _symmetry_equiv_pos_site_id
 _symmetry_equiv_pos_as_xyz
  1  'x, y, z'
loop_
 _atom_site_type_symbol
 _atom_site_label
 _atom_site_symmetry_multiplicity
 _atom_site_fract_x
 _atom_site_fract_y
 _atom_site_fract_z
 _atom_site_occupancy
  Tb  Tb0  1  0.785542  0.785542  0.785542  1
  Y  Y1  1  0.317895  0.567855  0.750023  1
  Y  Y2  1  0.750023  0.317895  0.567855  1
  Y  Y3  1  0.567855  0.750023  0.317895  1
  Y  Y4  1  0.714869  0.499994  0.999946  1
  Y  Y5  1  0.999946  0.714869  0.499994  1
  Y  Y6  1  0.499994  0.999946  0.714869  1
  Y  Y7  1  0.250099  0.182225  0.932171  1
  Y  Y8  1  0.932171  0.250099  0.182225  1
  Y  Y9  1  0.182225  0.932171  0.250099  1
  Al  Al10  1  0.411301  0.411301  0.411301  1
  Al  Al11  1  0.088636  0.499964  0.999950  1
  Al  Al12  1  0.999950  0.088636  0.499964  1
  Al  Al13  1  0.499964  0.999950  0.088636  1
  Ru  Ru14  1  0.878448  0.128104  0.750164  1
  Ru  Ru15  1  0.750164  0.878448  0.128104  1
  Ru  Ru16  1  0.128104  0.750164  0.878448  1
  Ru  Ru17  1  0.249902  0.621438  0.371475  1
  Ru  Ru18  1  0.371475  0.249902  0.621438  1
  Ru  Ru19  1  0.621438  0.371475  0.249902  1
