# generated using pymatgen
data_SrGeIrO6
_symmetry_space_group_name_H-M   'P 1'
_cell_length_a   5.16438700
_cell_length_b   5.16414930
_cell_length_c   5.44103901
_cell_angle_alpha   89.99863814
_cell_angle_beta   90.00281554
_cell_angle_gamma   120.00156403
_symmetry_Int_Tables_number   1
_chemical_formula_structural   SrGeIrO6
_chemical_formula_sum   'Sr1 Ge1 Ir1 O6'
_cell_volume   125.66756368
_cell_formula_units_Z   1
loop_
 _symmetry_equiv_pos_site_id
 _symmetry_equiv_pos_as_xyz
  1  'x, y, z'
loop_
 _atom_site_type_symbol
 _atom_site_label
 _atom_site_symmetry_multiplicity
 _atom_site_fract_x
 _atom_site_fract_y
 _atom_site_fract_z
 _atom_site_occupancy
  Sr  Sr0  1  0.000000  0.999999  0.000000  1
  Ge  Ge1  1  0.666696  0.333392  0.500000  1
  Ir  Ir2  1  0.333302  0.666603  0.499999  1
  O  O3  1  0.380536  0.003769  0.301968  1
  O  O4  1  0.996237  0.376776  0.301967  1
  O  O5  1  0.623205  0.619460  0.301975  1
  O  O6  1  0.996255  0.619460  0.698026  1
  O  O7  1  0.380539  0.376776  0.698032  1
  O  O8  1  0.623232  0.003769  0.698033  1
