# generated using pymatgen
data_Dy6YHo3(CoSb2)2
_symmetry_space_group_name_H-M   'P 1'
_cell_length_a   7.89154600
_cell_length_b   8.74581649
_cell_length_c   12.22259300
_cell_angle_alpha   90.00000000
_cell_angle_beta   90.00000000
_cell_angle_gamma   90.01934171
_symmetry_Int_Tables_number   1
_chemical_formula_structural   Dy6YHo3(CoSb2)2
_chemical_formula_sum   'Dy12 Y2 Ho6 Co4 Sb8'
_cell_volume   843.57903621
_cell_formula_units_Z   2
loop_
 _symmetry_equiv_pos_site_id
 _symmetry_equiv_pos_as_xyz
  1  'x, y, z'
loop_
 _atom_site_type_symbol
 _atom_site_label
 _atom_site_symmetry_multiplicity
 _atom_site_fract_x
 _atom_site_fract_y
 _atom_site_fract_z
 _atom_site_occupancy
  Dy  Dy0  1  0.845258  0.250070  0.796840  1
  Dy  Dy1  1  0.654742  0.249930  0.296840  1
  Dy  Dy2  1  0.453838  0.749913  0.998148  1
  Dy  Dy3  1  0.046162  0.750087  0.498148  1
  Dy  Dy4  1  0.545573  0.250154  0.001796  1
  Dy  Dy5  1  0.954427  0.249846  0.501796  1
  Dy  Dy6  1  0.621377  0.750270  0.306995  1
  Dy  Dy7  1  0.878623  0.749730  0.806995  1
  Dy  Dy8  1  0.378233  0.249836  0.693027  1
  Dy  Dy9  1  0.121767  0.250164  0.193027  1
  Dy  Dy10  1  0.821275  0.964756  0.065051  1
  Dy  Dy11  1  0.678725  0.535244  0.565051  1
  Y  Y12  1  0.155136  0.749881  0.204084  1
  Y  Y13  1  0.344864  0.750119  0.704084  1
  Ho  Ho14  1  0.822090  0.535317  0.065072  1
  Ho  Ho15  1  0.677910  0.964683  0.565072  1
  Ho  Ho16  1  0.177904  0.035601  0.934843  1
  Ho  Ho17  1  0.322096  0.464399  0.434843  1
  Ho  Ho18  1  0.177808  0.464309  0.934851  1
  Ho  Ho19  1  0.322192  0.035691  0.434851  1
  Co  Co20  1  0.434552  0.750278  0.489719  1
  Co  Co21  1  0.065448  0.749722  0.989719  1
  Co  Co22  1  0.565139  0.249842  0.509144  1
  Co  Co23  1  0.934861  0.250158  0.009144  1
  Sb  Sb24  1  0.928487  0.508357  0.327049  1
  Sb  Sb25  1  0.571513  0.991643  0.827049  1
  Sb  Sb26  1  0.071249  0.008454  0.673123  1
  Sb  Sb27  1  0.428751  0.491546  0.173123  1
  Sb  Sb28  1  0.071781  0.491385  0.673107  1
  Sb  Sb29  1  0.428219  0.008615  0.173107  1
  Sb  Sb30  1  0.928722  0.991660  0.327148  1
  Sb  Sb31  1  0.571278  0.508340  0.827148  1
