# generated using pymatgen
data_Nd10HgBi6As
_symmetry_space_group_name_H-M   'P 1'
_cell_length_a   9.70806000
_cell_length_b   9.70806123
_cell_length_c   6.65932300
_cell_angle_alpha   90.00000000
_cell_angle_beta   90.00000000
_cell_angle_gamma   119.99999581
_symmetry_Int_Tables_number   1
_chemical_formula_structural   Nd10HgBi6As
_chemical_formula_sum   'Nd10 Hg1 Bi6 As1'
_cell_volume   543.53271441
_cell_formula_units_Z   1
loop_
 _symmetry_equiv_pos_site_id
 _symmetry_equiv_pos_as_xyz
  1  'x, y, z'
loop_
 _atom_site_type_symbol
 _atom_site_label
 _atom_site_symmetry_multiplicity
 _atom_site_fract_x
 _atom_site_fract_y
 _atom_site_fract_z
 _atom_site_occupancy
  Nd  Nd0  1  0.666667  0.333333  0.000000  1
  Nd  Nd1  1  0.333333  0.666667  0.000000  1
  Nd  Nd2  1  0.333333  0.666667  0.500000  1
  Nd  Nd3  1  0.666667  0.333333  0.500000  1
  Nd  Nd4  1  0.737631  0.737631  0.761463  1
  Nd  Nd5  1  0.262369  0.000000  0.761463  1
  Nd  Nd6  1  0.000000  0.262369  0.761463  1
  Nd  Nd7  1  0.262369  0.262369  0.238537  1
  Nd  Nd8  1  0.737631  0.000000  0.238537  1
  Nd  Nd9  1  0.000000  0.737631  0.238537  1
  Hg  Hg10  1  0.000000  0.000000  0.500000  1
  Bi  Bi11  1  0.386705  0.386705  0.747136  1
  Bi  Bi12  1  0.613295  0.000000  0.747136  1
  Bi  Bi13  1  0.000000  0.613295  0.747136  1
  Bi  Bi14  1  0.613295  0.613295  0.252864  1
  Bi  Bi15  1  0.386705  0.000000  0.252864  1
  Bi  Bi16  1  0.000000  0.386705  0.252864  1
  As  As17  1  0.000000  0.000000  0.000000  1
