# generated using pymatgen
data_Dy2Sc4CoTe2
_symmetry_space_group_name_H-M   'P 1'
_cell_length_a   3.88523500
_cell_length_b   7.88480636
_cell_length_c   7.94516317
_cell_angle_alpha   119.75256960
_cell_angle_beta   90.00000000
_cell_angle_gamma   90.00000000
_symmetry_Int_Tables_number   1
_chemical_formula_structural   Dy2Sc4CoTe2
_chemical_formula_sum   'Dy2 Sc4 Co1 Te2'
_cell_volume   211.30958694
_cell_formula_units_Z   1
loop_
 _symmetry_equiv_pos_site_id
 _symmetry_equiv_pos_as_xyz
  1  'x, y, z'
loop_
 _atom_site_type_symbol
 _atom_site_label
 _atom_site_symmetry_multiplicity
 _atom_site_fract_x
 _atom_site_fract_y
 _atom_site_fract_z
 _atom_site_occupancy
  Dy  Dy0  1  0.000000  0.394602  0.393733  1
  Dy  Dy1  1  0.000000  0.000866  0.606209  1
  Sc  Sc2  1  0.500000  0.772564  0.769216  1
  Sc  Sc3  1  0.500000  0.003290  0.230749  1
  Sc  Sc4  1  0.500000  0.229062  0.999999  1
  Sc  Sc5  1  0.000000  0.622420  0.999993  1
  Co  Co6  1  0.000000  0.967576  0.000095  1
  Te  Te7  1  0.500000  0.665636  0.321656  1
  Te  Te8  1  0.500000  0.343986  0.678350  1
