# generated using pymatgen
data_Tb4Ga3Ge
_symmetry_space_group_name_H-M   'P 1'
_cell_length_a   4.03477300
_cell_length_b   4.36955400
_cell_length_c   10.92437300
_cell_angle_alpha   90.00000000
_cell_angle_beta   90.00000000
_cell_angle_gamma   90.00000000
_symmetry_Int_Tables_number   1
_chemical_formula_structural   Tb4Ga3Ge
_chemical_formula_sum   'Tb4 Ga3 Ge1'
_cell_volume   192.59842752
_cell_formula_units_Z   1
loop_
 _symmetry_equiv_pos_site_id
 _symmetry_equiv_pos_as_xyz
  1  'x, y, z'
loop_
 _atom_site_type_symbol
 _atom_site_label
 _atom_site_symmetry_multiplicity
 _atom_site_fract_x
 _atom_site_fract_y
 _atom_site_fract_z
 _atom_site_occupancy
  Tb  Tb0  1  0.000000  0.000000  0.139861  1
  Tb  Tb1  1  0.000000  0.500000  0.640130  1
  Tb  Tb2  1  0.500000  0.500000  0.360588  1
  Tb  Tb3  1  0.500000  0.000000  0.859079  1
  Ga  Ga4  1  0.000000  0.500000  0.923029  1
  Ga  Ga5  1  0.500000  0.500000  0.078592  1
  Ga  Ga6  1  0.500000  0.000000  0.577392  1
  Ge  Ge7  1  0.000000  0.000000  0.421330  1
