# generated using pymatgen
data_CsVSn3O8
_symmetry_space_group_name_H-M   'P 1'
_cell_length_a   7.68160059
_cell_length_b   7.68160069
_cell_length_c   10.70004057
_cell_angle_alpha   46.54867041
_cell_angle_beta   46.54866911
_cell_angle_gamma   24.47048426
_symmetry_Int_Tables_number   1
_chemical_formula_structural   CsVSn3O8
_chemical_formula_sum   'Cs1 V1 Sn3 O8'
_cell_volume   185.81176735
_cell_formula_units_Z   1
loop_
 _symmetry_equiv_pos_site_id
 _symmetry_equiv_pos_as_xyz
  1  'x, y, z'
loop_
 _atom_site_type_symbol
 _atom_site_label
 _atom_site_symmetry_multiplicity
 _atom_site_fract_x
 _atom_site_fract_y
 _atom_site_fract_z
 _atom_site_occupancy
  Cs  Cs0  1  0.497472  0.497472  0.999067  1
  V  V1  1  0.347772  0.347772  0.815644  1
  Sn  Sn2  1  0.657671  0.657671  0.172661  1
  Sn  Sn3  1  0.158648  0.158648  0.493885  1
  Sn  Sn4  1  0.837670  0.837670  0.518344  1
  O  O5  1  0.156247  0.156247  0.047980  1
  O  O6  1  0.846658  0.846658  0.942744  1
  O  O7  1  0.205090  0.205090  0.641748  1
  O  O8  1  0.792666  0.792666  0.366239  1
  O  O9  1  0.537790  0.537790  0.628263  1
  O  O10  1  0.461432  0.461432  0.371475  1
  O  O11  1  0.165979  0.165979  0.293064  1
  O  O12  1  0.834907  0.834907  0.708885  1
