# generated using pymatgen
data_Ho3ThAl5Ga13Ir6
_symmetry_space_group_name_H-M   'P 1'
_cell_length_a   7.59003536
_cell_length_b   7.60927482
_cell_length_c   9.48631475
_cell_angle_alpha   90.06932692
_cell_angle_beta   89.96884016
_cell_angle_gamma   119.69028254
_symmetry_Int_Tables_number   1
_chemical_formula_structural   Ho3ThAl5Ga13Ir6
_chemical_formula_sum   'Ho3 Th1 Al5 Ga13 Ir6'
_cell_volume   475.95058678
_cell_formula_units_Z   1
loop_
 _symmetry_equiv_pos_site_id
 _symmetry_equiv_pos_as_xyz
  1  'x, y, z'
loop_
 _atom_site_type_symbol
 _atom_site_label
 _atom_site_symmetry_multiplicity
 _atom_site_fract_x
 _atom_site_fract_y
 _atom_site_fract_z
 _atom_site_occupancy
  Ho  Ho0  1  0.998395  0.329442  0.750052  1
  Ho  Ho1  1  0.673778  0.998776  0.251193  1
  Ho  Ho2  1  0.328802  0.999705  0.746505  1
  Th  Th3  1  0.997226  0.668528  0.251476  1
  Al  Al4  1  0.340250  0.006403  0.071471  1
  Al  Al5  1  0.330788  0.330838  0.557661  1
  Al  Al6  1  0.663290  0.667181  0.451950  1
  Al  Al7  1  0.663914  0.667646  0.048503  1
  Al  Al8  1  0.330981  0.331342  0.941369  1
  Ga  Ga9  1  0.131304  0.131871  0.250001  1
  Ga  Ga10  1  0.872788  0.876409  0.750625  1
  Ga  Ga11  1  0.000427  0.329785  0.076717  1
  Ga  Ga12  1  0.001874  0.666165  0.914515  1
  Ga  Ga13  1  0.999620  0.664353  0.586836  1
  Ga  Ga14  1  0.341371  0.004778  0.420916  1
  Ga  Ga15  1  0.001079  0.329781  0.423226  1
  Ga  Ga16  1  0.664515  0.001317  0.580733  1
  Ga  Ga17  1  0.663293  0.001367  0.920376  1
  Ga  Ga18  1  0.352152  0.552247  0.250420  1
  Ga  Ga19  1  0.652153  0.447835  0.750511  1
  Ga  Ga20  1  0.543299  0.339880  0.249986  1
  Ga  Ga21  1  0.448096  0.654325  0.750739  1
  Ir  Ir22  1  0.669727  0.331105  0.001175  1
  Ir  Ir23  1  0.328489  0.671861  0.002137  1
  Ir  Ir24  1  0.327956  0.668594  0.500233  1
  Ir  Ir25  1  0.672092  0.333343  0.499825  1
  Ir  Ir26  1  0.002676  0.997801  0.001486  1
  Ir  Ir27  1  0.999666  0.997322  0.499364  1
