# generated using pymatgen
data_SrTe28
_symmetry_space_group_name_H-M   'P 1'
_cell_length_a   8.94072172
_cell_length_b   12.26360458
_cell_length_c   11.98178296
_cell_angle_alpha   120.72037410
_cell_angle_beta   96.55679072
_cell_angle_gamma   98.18565099
_symmetry_Int_Tables_number   1
_chemical_formula_structural   SrTe28
_chemical_formula_sum   'Sr1 Te28'
_cell_volume   1090.57841009
_cell_formula_units_Z   1
loop_
 _symmetry_equiv_pos_site_id
 _symmetry_equiv_pos_as_xyz
  1  'x, y, z'
loop_
 _atom_site_type_symbol
 _atom_site_label
 _atom_site_symmetry_multiplicity
 _atom_site_fract_x
 _atom_site_fract_y
 _atom_site_fract_z
 _atom_site_occupancy
  Sr  Sr0  1  0.500000  0.000000  0.000000  1
  Te  Te1  1  0.181747  0.085589  0.422601  1
  Te  Te2  1  0.646910  0.096837  0.424951  1
  Te  Te3  1  0.317012  0.354361  0.824033  1
  Te  Te4  1  0.820420  0.353297  0.833988  1
  Te  Te5  1  0.238249  0.686690  0.798302  1
  Te  Te6  1  0.710235  0.565240  0.702454  1
  Te  Te7  1  0.353090  0.903163  0.575049  1
  Te  Te8  1  0.818253  0.914411  0.577399  1
  Te  Te9  1  0.179580  0.646703  0.166012  1
  Te  Te10  1  0.682988  0.645639  0.175967  1
  Te  Te11  1  0.289765  0.434760  0.297546  1
  Te  Te12  1  0.761751  0.313310  0.201698  1
  Te  Te13  1  0.667165  0.081984  0.776269  1
  Te  Te14  1  0.215461  0.041924  0.799161  1
  Te  Te15  1  0.940304  0.639512  0.951753  1
  Te  Te16  1  0.465375  0.669257  0.005420  1
  Te  Te17  1  0.492111  0.274213  0.301255  1
  Te  Te18  1  0.009129  0.193314  0.293482  1
  Te  Te19  1  0.784539  0.958076  0.200839  1
  Te  Te20  1  0.332835  0.918016  0.223731  1
  Te  Te21  1  0.534625  0.330743  0.994580  1
  Te  Te22  1  0.059696  0.360488  0.048247  1
  Te  Te23  1  0.990871  0.806686  0.706518  1
  Te  Te24  1  0.507889  0.725787  0.698745  1
  Te  Te25  1  0.935824  0.294052  0.597494  1
  Te  Te26  1  0.446296  0.320980  0.600071  1
  Te  Te27  1  0.553704  0.679020  0.399929  1
  Te  Te28  1  0.064176  0.705948  0.402506  1
