# generated using pymatgen
data_Cs2RbCrO4
_symmetry_space_group_name_H-M   'P 1'
_cell_length_a   8.40968988
_cell_length_b   6.52228593
_cell_length_c   6.94385726
_cell_angle_alpha   89.86966602
_cell_angle_beta   91.69601529
_cell_angle_gamma   89.81488902
_symmetry_Int_Tables_number   1
_chemical_formula_structural   Cs2RbCrO4
_chemical_formula_sum   'Cs4 Rb2 Cr2 O8'
_cell_volume   380.70345194
_cell_formula_units_Z   2
loop_
 _symmetry_equiv_pos_site_id
 _symmetry_equiv_pos_as_xyz
  1  'x, y, z'
loop_
 _atom_site_type_symbol
 _atom_site_label
 _atom_site_symmetry_multiplicity
 _atom_site_fract_x
 _atom_site_fract_y
 _atom_site_fract_z
 _atom_site_occupancy
  Cs  Cs0  1  0.494885  0.747861  0.185450  1
  Cs  Cs1  1  0.817338  0.248707  0.419596  1
  Cs  Cs2  1  0.182662  0.751294  0.580404  1
  Cs  Cs3  1  0.505114  0.252140  0.814551  1
  Rb  Rb4  1  0.960924  0.749447  0.116520  1
  Rb  Rb5  1  0.039076  0.250554  0.883481  1
  Cr  Cr6  1  0.274361  0.250081  0.310416  1
  Cr  Cr7  1  0.725639  0.749920  0.689584  1
  O  O8  1  0.200339  0.031800  0.194846  1
  O  O9  1  0.203547  0.469109  0.190829  1
  O  O10  1  0.478396  0.252162  0.297970  1
  O  O11  1  0.797002  0.750575  0.457214  1
  O  O12  1  0.202998  0.249426  0.542787  1
  O  O13  1  0.521605  0.747839  0.702029  1
  O  O14  1  0.796453  0.530891  0.809171  1
  O  O15  1  0.799661  0.968201  0.805154  1
