# generated using pymatgen
data_Ca8YbTmPt4
_symmetry_space_group_name_H-M   'P 1'
_cell_length_a   6.63914398
_cell_length_b   7.73690204
_cell_length_c   8.78193400
_cell_angle_alpha   97.39230150
_cell_angle_beta   112.20986765
_cell_angle_gamma   90.00000131
_symmetry_Int_Tables_number   1
_chemical_formula_structural   Ca8YbTmPt4
_chemical_formula_sum   'Ca8 Yb1 Tm1 Pt4'
_cell_volume   413.57490931
_cell_formula_units_Z   1
loop_
 _symmetry_equiv_pos_site_id
 _symmetry_equiv_pos_as_xyz
  1  'x, y, z'
loop_
 _atom_site_type_symbol
 _atom_site_label
 _atom_site_symmetry_multiplicity
 _atom_site_fract_x
 _atom_site_fract_y
 _atom_site_fract_z
 _atom_site_occupancy
  Ca  Ca0  1  0.971745  0.921168  0.174991  1
  Ca  Ca1  1  0.796753  0.578832  0.825009  1
  Ca  Ca2  1  0.022607  0.080984  0.823438  1
  Ca  Ca3  1  0.199171  0.419016  0.176562  1
  Ca  Ca4  1  0.638886  0.822266  0.434233  1
  Ca  Ca5  1  0.204654  0.677734  0.565767  1
  Ca  Ca6  1  0.361464  0.177428  0.563486  1
  Ca  Ca7  1  0.797978  0.322572  0.436514  1
  Yb  Yb8  1  0.425953  0.750000  0.000000  1
  Tm  Tm9  1  0.567739  0.250000  0.000000  1
  Pt  Pt10  1  0.806715  0.570999  0.206166  1
  Pt  Pt11  1  0.600547  0.929001  0.793834  1
  Pt  Pt12  1  0.198856  0.414734  0.791925  1
  Pt  Pt13  1  0.406930  0.085266  0.208075  1
