# generated using pymatgen
data_Ac2PaSn7
_symmetry_space_group_name_H-M   'P 1'
_cell_length_a   13.46547382
_cell_length_b   13.46547326
_cell_length_c   4.65002800
_cell_angle_alpha   90.00000000
_cell_angle_beta   90.00000000
_cell_angle_gamma   159.39572810
_symmetry_Int_Tables_number   1
_chemical_formula_structural   Ac2PaSn7
_chemical_formula_sum   'Ac2 Pa1 Sn7'
_cell_volume   296.71002041
_cell_formula_units_Z   1
loop_
 _symmetry_equiv_pos_site_id
 _symmetry_equiv_pos_as_xyz
  1  'x, y, z'
loop_
 _atom_site_type_symbol
 _atom_site_label
 _atom_site_symmetry_multiplicity
 _atom_site_fract_x
 _atom_site_fract_y
 _atom_site_fract_z
 _atom_site_occupancy
  Ac  Ac0  1  0.820682  0.179318  0.000000  1
  Ac  Ac1  1  0.179318  0.820682  0.000000  1
  Pa  Pa2  1  0.000000  0.000000  0.000000  1
  Sn  Sn3  1  0.713812  0.286188  0.500000  1
  Sn  Sn4  1  0.286188  0.713812  0.500000  1
  Sn  Sn5  1  0.913538  0.086462  0.500000  1
  Sn  Sn6  1  0.500000  0.500000  0.500000  1
  Sn  Sn7  1  0.412360  0.587640  0.000000  1
  Sn  Sn8  1  0.587640  0.412360  0.000000  1
  Sn  Sn9  1  0.086462  0.913538  0.500000  1
