# generated using pymatgen
data_KBaNbSe4
_symmetry_space_group_name_H-M   'P 1'
_cell_length_a   7.32861700
_cell_length_b   9.70815000
_cell_length_c   13.28246200
_cell_angle_alpha   90.00000000
_cell_angle_beta   90.00000000
_cell_angle_gamma   90.00000000
_symmetry_Int_Tables_number   1
_chemical_formula_structural   KBaNbSe4
_chemical_formula_sum   'K4 Ba4 Nb4 Se16'
_cell_volume   945.01148303
_cell_formula_units_Z   4
loop_
 _symmetry_equiv_pos_site_id
 _symmetry_equiv_pos_as_xyz
  1  'x, y, z'
loop_
 _atom_site_type_symbol
 _atom_site_label
 _atom_site_symmetry_multiplicity
 _atom_site_fract_x
 _atom_site_fract_y
 _atom_site_fract_z
 _atom_site_occupancy
  K  K0  1  0.250000  0.633845  0.574044  1
  K  K1  1  0.750000  0.366155  0.425956  1
  K  K2  1  0.250000  0.133845  0.925956  1
  K  K3  1  0.750000  0.866155  0.074044  1
  Ba  Ba4  1  0.750000  0.021104  0.672615  1
  Ba  Ba5  1  0.750000  0.521104  0.827385  1
  Ba  Ba6  1  0.250000  0.478896  0.172615  1
  Ba  Ba7  1  0.250000  0.978896  0.327385  1
  Nb  Nb8  1  0.250000  0.728302  0.924390  1
  Nb  Nb9  1  0.750000  0.771698  0.424390  1
  Nb  Nb10  1  0.750000  0.271698  0.075610  1
  Nb  Nb11  1  0.250000  0.228302  0.575610  1
  Se  Se12  1  0.250000  0.979636  0.583324  1
  Se  Se13  1  0.750000  0.020364  0.416676  1
  Se  Se14  1  0.250000  0.479636  0.916676  1
  Se  Se15  1  0.750000  0.520364  0.083324  1
  Se  Se16  1  0.487845  0.679308  0.339980  1
  Se  Se17  1  0.987845  0.320692  0.660020  1
  Se  Se18  1  0.012155  0.179308  0.160020  1
  Se  Se19  1  0.512155  0.820692  0.839980  1
  Se  Se20  1  0.512155  0.320692  0.660020  1
  Se  Se21  1  0.012155  0.679308  0.339980  1
  Se  Se22  1  0.987845  0.820692  0.839980  1
  Se  Se23  1  0.487845  0.179308  0.160020  1
  Se  Se24  1  0.750000  0.192329  0.902819  1
  Se  Se25  1  0.250000  0.807671  0.097181  1
  Se  Se26  1  0.750000  0.692329  0.597181  1
  Se  Se27  1  0.250000  0.307671  0.402819  1
