# generated using pymatgen
data_Tb8Ti2Si16Tc9Mo
_symmetry_space_group_name_H-M   'P 1'
_cell_length_a   6.78680071
_cell_length_b   6.78680129
_cell_length_c   12.97681200
_cell_angle_alpha   89.97967129
_cell_angle_beta   90.02033196
_cell_angle_gamma   89.13090458
_symmetry_Int_Tables_number   1
_chemical_formula_structural   Tb8Ti2Si16Tc9Mo
_chemical_formula_sum   'Tb8 Ti2 Si16 Tc9 Mo1'
_cell_volume   597.65178845
_cell_formula_units_Z   1
loop_
 _symmetry_equiv_pos_site_id
 _symmetry_equiv_pos_as_xyz
  1  'x, y, z'
loop_
 _atom_site_type_symbol
 _atom_site_label
 _atom_site_symmetry_multiplicity
 _atom_site_fract_x
 _atom_site_fract_y
 _atom_site_fract_z
 _atom_site_occupancy
  Tb  Tb0  1  0.336469  0.002248  0.472145  1
  Tb  Tb1  1  0.511134  0.821199  0.717034  1
  Tb  Tb2  1  0.488764  0.178815  0.216988  1
  Tb  Tb3  1  0.821199  0.511134  0.282966  1
  Tb  Tb4  1  0.178815  0.488764  0.783012  1
  Tb  Tb5  1  0.662830  0.998170  0.971813  1
  Tb  Tb6  1  0.002248  0.336469  0.527855  1
  Tb  Tb7  1  0.998170  0.662830  0.028187  1
  Ti  Ti8  1  0.156538  0.843688  0.249522  1
  Ti  Ti9  1  0.843688  0.156538  0.750478  1
  Si  Si10  1  0.211929  0.116487  0.682648  1
  Si  Si11  1  0.398829  0.680820  0.941332  1
  Si  Si12  1  0.604250  0.314778  0.440085  1
  Si  Si13  1  0.680820  0.398829  0.058668  1
  Si  Si14  1  0.314778  0.604250  0.559915  1
  Si  Si15  1  0.787752  0.883957  0.182675  1
  Si  Si16  1  0.116487  0.211929  0.317352  1
  Si  Si17  1  0.883957  0.787752  0.817325  1
  Si  Si18  1  0.262487  0.985450  0.055201  1
  Si  Si19  1  0.527978  0.802525  0.316896  1
  Si  Si20  1  0.471889  0.197276  0.816294  1
  Si  Si21  1  0.802525  0.527978  0.683104  1
  Si  Si22  1  0.197276  0.471889  0.183706  1
  Si  Si23  1  0.735854  0.017782  0.556093  1
  Si  Si24  1  0.985450  0.262487  0.944799  1
  Si  Si25  1  0.017782  0.735854  0.443907  1
  Tc  Tc26  1  0.334008  0.334008  0.000000  1
  Tc  Tc27  1  0.181904  0.982839  0.864661  1
  Tc  Tc28  1  0.473119  0.693171  0.133631  1
  Tc  Tc29  1  0.523562  0.308270  0.634023  1
  Tc  Tc30  1  0.693171  0.473119  0.866369  1
  Tc  Tc31  1  0.308270  0.523562  0.365977  1
  Tc  Tc32  1  0.820203  0.016808  0.363901  1
  Tc  Tc33  1  0.982839  0.181904  0.135339  1
  Tc  Tc34  1  0.016808  0.820203  0.636099  1
  Mo  Mo35  1  0.666221  0.666221  0.500000  1
