# generated using pymatgen
data_Yb3Th(MnOs3)2
_symmetry_space_group_name_H-M   'P 1'
_cell_length_a   5.34837100
_cell_length_b   5.34837012
_cell_length_c   8.66248900
_cell_angle_alpha   90.00000000
_cell_angle_beta   90.00000000
_cell_angle_gamma   119.99998691
_symmetry_Int_Tables_number   1
_chemical_formula_structural   Yb3Th(MnOs3)2
_chemical_formula_sum   'Yb3 Th1 Mn2 Os6'
_cell_volume   214.59340157
_cell_formula_units_Z   1
loop_
 _symmetry_equiv_pos_site_id
 _symmetry_equiv_pos_as_xyz
  1  'x, y, z'
loop_
 _atom_site_type_symbol
 _atom_site_label
 _atom_site_symmetry_multiplicity
 _atom_site_fract_x
 _atom_site_fract_y
 _atom_site_fract_z
 _atom_site_occupancy
  Yb  Yb0  1  0.666667  0.333333  0.574757  1
  Yb  Yb1  1  0.666667  0.333333  0.932580  1
  Yb  Yb2  1  0.333333  0.666667  0.060209  1
  Th  Th3  1  0.333333  0.666667  0.428365  1
  Mn  Mn4  1  0.000000  0.000000  0.504438  1
  Mn  Mn5  1  0.000000  0.000000  0.002002  1
  Os  Os6  1  0.829615  0.170385  0.248548  1
  Os  Os7  1  0.829615  0.659231  0.248548  1
  Os  Os8  1  0.340769  0.170385  0.248548  1
  Os  Os9  1  0.169920  0.830080  0.750669  1
  Os  Os10  1  0.169920  0.339840  0.750669  1
  Os  Os11  1  0.660160  0.830080  0.750669  1
