# generated using pymatgen
data_Tb8Dy7Er5(CoBi2)4
_symmetry_space_group_name_H-M   'P 1'
_cell_length_a   8.00267836
_cell_length_b   8.88151893
_cell_length_c   12.42378304
_cell_angle_alpha   89.94178671
_cell_angle_beta   90.02175193
_cell_angle_gamma   90.01787849
_symmetry_Int_Tables_number   1
_chemical_formula_structural   Tb8Dy7Er5(CoBi2)4
_chemical_formula_sum   'Tb8 Dy7 Er5 Co4 Bi8'
_cell_volume   883.03148681
_cell_formula_units_Z   1
loop_
 _symmetry_equiv_pos_site_id
 _symmetry_equiv_pos_as_xyz
  1  'x, y, z'
loop_
 _atom_site_type_symbol
 _atom_site_label
 _atom_site_symmetry_multiplicity
 _atom_site_fract_x
 _atom_site_fract_y
 _atom_site_fract_z
 _atom_site_occupancy
  Tb  Tb0  1  0.848030  0.750342  0.801521  1
  Tb  Tb1  1  0.152048  0.249679  0.198663  1
  Tb  Tb2  1  0.348141  0.249842  0.698416  1
  Tb  Tb3  1  0.651766  0.750037  0.301612  1
  Tb  Tb4  1  0.379981  0.750014  0.688177  1
  Tb  Tb5  1  0.618964  0.249819  0.311752  1
  Tb  Tb6  1  0.880409  0.249300  0.811446  1
  Tb  Tb7  1  0.119419  0.750835  0.188607  1
  Dy  Dy8  1  0.951592  0.750501  0.502574  1
  Dy  Dy9  1  0.050630  0.249643  0.497368  1
  Dy  Dy10  1  0.450774  0.249201  0.997463  1
  Dy  Dy11  1  0.549265  0.750761  0.002557  1
  Dy  Dy12  1  0.676127  0.464944  0.562892  1
  Dy  Dy13  1  0.823722  0.464786  0.063163  1
  Dy  Dy14  1  0.176258  0.535273  0.936998  1
  Er  Er15  1  0.673896  0.035360  0.562831  1
  Er  Er16  1  0.325957  0.964147  0.436722  1
  Er  Er17  1  0.173991  0.964174  0.936960  1
  Er  Er18  1  0.325781  0.535498  0.436999  1
  Er  Er19  1  0.825901  0.035736  0.063151  1
  Co  Co20  1  0.559393  0.750423  0.507228  1
  Co  Co21  1  0.438499  0.249399  0.492333  1
  Co  Co22  1  0.060776  0.248961  0.992416  1
  Co  Co23  1  0.939063  0.751063  0.007712  1
  Bi  Bi24  1  0.570302  0.492125  0.826543  1
  Bi  Bi25  1  0.429395  0.508073  0.173582  1
  Bi  Bi26  1  0.069899  0.507856  0.673577  1
  Bi  Bi27  1  0.430659  0.992167  0.173554  1
  Bi  Bi28  1  0.930621  0.492231  0.326830  1
  Bi  Bi29  1  0.569122  0.007643  0.826197  1
  Bi  Bi30  1  0.930343  0.007949  0.326639  1
  Bi  Bi31  1  0.069279  0.992214  0.673515  1
