# generated using pymatgen
data_AgHg3(Pt2O7)2
_symmetry_space_group_name_H-M   'P 1'
_cell_length_a   7.28881583
_cell_length_b   7.29840706
_cell_length_c   7.29840800
_cell_angle_alpha   59.99999576
_cell_angle_beta   59.95645709
_cell_angle_gamma   59.95645421
_symmetry_Int_Tables_number   1
_chemical_formula_structural   AgHg3(Pt2O7)2
_chemical_formula_sum   'Ag1 Hg3 Pt4 O14'
_cell_volume   274.35446366
_cell_formula_units_Z   1
loop_
 _symmetry_equiv_pos_site_id
 _symmetry_equiv_pos_as_xyz
  1  'x, y, z'
loop_
 _atom_site_type_symbol
 _atom_site_label
 _atom_site_symmetry_multiplicity
 _atom_site_fract_x
 _atom_site_fract_y
 _atom_site_fract_z
 _atom_site_occupancy
  Ag  Ag0  1  0.625000  0.125000  0.125000  1
  Hg  Hg1  1  0.125000  0.125000  0.125000  1
  Hg  Hg2  1  0.125000  0.625000  0.125000  1
  Hg  Hg3  1  0.125000  0.125000  0.625000  1
  Pt  Pt4  1  0.625000  0.625000  0.125000  1
  Pt  Pt5  1  0.625000  0.625000  0.625000  1
  Pt  Pt6  1  0.625000  0.125000  0.625000  1
  Pt  Pt7  1  0.125000  0.625000  0.625000  1
  O  O8  1  0.701834  0.295963  0.295963  1
  O  O9  1  0.701834  0.295963  0.706241  1
  O  O10  1  0.980699  0.006434  0.006434  1
  O  O11  1  0.295575  0.704411  0.295603  1
  O  O12  1  0.701834  0.706241  0.295963  1
  O  O13  1  0.954425  0.545589  0.545589  1
  O  O14  1  0.295575  0.704411  0.704411  1
  O  O15  1  0.269301  0.243566  0.243566  1
  O  O16  1  0.954425  0.545589  0.954397  1
  O  O17  1  0.548166  0.954037  0.543759  1
  O  O18  1  0.548166  0.543759  0.954037  1
  O  O19  1  0.954425  0.954397  0.545589  1
  O  O20  1  0.548166  0.954037  0.954037  1
  O  O21  1  0.295575  0.295603  0.704411  1
