# generated using pymatgen
data_Tb(ThTe2)6
_symmetry_space_group_name_H-M   'P 1'
_cell_length_a   12.56336226
_cell_length_b   12.61757855
_cell_length_c   4.32604100
_cell_angle_alpha   90.00000000
_cell_angle_beta   90.00000000
_cell_angle_gamma   119.97180961
_symmetry_Int_Tables_number   1
_chemical_formula_structural   Tb(ThTe2)6
_chemical_formula_sum   'Tb1 Th6 Te12'
_cell_volume   594.05473291
_cell_formula_units_Z   1
loop_
 _symmetry_equiv_pos_site_id
 _symmetry_equiv_pos_as_xyz
  1  'x, y, z'
loop_
 _atom_site_type_symbol
 _atom_site_label
 _atom_site_symmetry_multiplicity
 _atom_site_fract_x
 _atom_site_fract_y
 _atom_site_fract_z
 _atom_site_occupancy
  Tb  Tb0  1  0.550560  0.712616  0.500000  1
  Th  Th1  1  0.722578  0.157078  0.000000  1
  Th  Th2  1  0.839811  0.565603  0.000000  1
  Th  Th3  1  0.435968  0.278258  0.000000  1
  Th  Th4  1  0.289735  0.837754  0.500000  1
  Th  Th5  1  0.164111  0.451368  0.500000  1
  Th  Th6  1  0.996182  0.997188  0.000000  1
  Te  Te7  1  0.741925  0.751801  0.000000  1
  Te  Te8  1  0.247290  0.992933  0.000000  1
  Te  Te9  1  0.008153  0.254686  0.000000  1
  Te  Te10  1  0.493315  0.864487  0.000000  1
  Te  Te11  1  0.133490  0.625191  0.000000  1
  Te  Te12  1  0.378669  0.511626  0.000000  1
  Te  Te13  1  0.863221  0.385765  0.500000  1
  Te  Te14  1  0.215867  0.212540  0.500000  1
  Te  Te15  1  0.996750  0.783766  0.500000  1
  Te  Te16  1  0.786266  0.002996  0.500000  1
  Te  Te17  1  0.521990  0.136698  0.500000  1
  Te  Te18  1  0.614119  0.477643  0.500000  1
