# generated using pymatgen
data_Tb2Zn5Si
_symmetry_space_group_name_H-M   'P 1'
_cell_length_a   8.17243200
_cell_length_b   8.17243218
_cell_length_c   8.75942600
_cell_angle_alpha   90.00000000
_cell_angle_beta   90.00000000
_cell_angle_gamma   149.37302738
_symmetry_Int_Tables_number   1
_chemical_formula_structural   Tb2Zn5Si
_chemical_formula_sum   'Tb4 Zn10 Si2'
_cell_volume   298.04162704
_cell_formula_units_Z   2
loop_
 _symmetry_equiv_pos_site_id
 _symmetry_equiv_pos_as_xyz
  1  'x, y, z'
loop_
 _atom_site_type_symbol
 _atom_site_label
 _atom_site_symmetry_multiplicity
 _atom_site_fract_x
 _atom_site_fract_y
 _atom_site_fract_z
 _atom_site_occupancy
  Tb  Tb0  1  0.200041  0.799959  0.250000  1
  Tb  Tb1  1  0.799959  0.200041  0.750000  1
  Tb  Tb2  1  0.000000  0.000000  0.500000  1
  Tb  Tb3  1  0.000000  0.000000  0.000000  1
  Zn  Zn4  1  0.813370  0.186630  0.393104  1
  Zn  Zn5  1  0.186630  0.813370  0.606896  1
  Zn  Zn6  1  0.813370  0.186630  0.106896  1
  Zn  Zn7  1  0.186630  0.813370  0.893104  1
  Zn  Zn8  1  0.648867  0.351133  0.474383  1
  Zn  Zn9  1  0.351133  0.648867  0.525617  1
  Zn  Zn10  1  0.648867  0.351133  0.025617  1
  Zn  Zn11  1  0.351133  0.648867  0.974383  1
  Zn  Zn12  1  0.403117  0.596883  0.250000  1
  Zn  Zn13  1  0.596883  0.403117  0.750000  1
  Si  Si14  1  0.556031  0.443969  0.250000  1
  Si  Si15  1  0.443969  0.556031  0.750000  1
