# generated using pymatgen
data_ErTm2In3Ag2Ir
_symmetry_space_group_name_H-M   'P 1'
_cell_length_a   7.80473900
_cell_length_b   7.80611535
_cell_length_c   3.85231100
_cell_angle_alpha   90.00000000
_cell_angle_beta   90.00000000
_cell_angle_gamma   120.03442105
_symmetry_Int_Tables_number   1
_chemical_formula_structural   ErTm2In3Ag2Ir
_chemical_formula_sum   'Er1 Tm2 In3 Ag2 Ir1'
_cell_volume   203.18637499
_cell_formula_units_Z   1
loop_
 _symmetry_equiv_pos_site_id
 _symmetry_equiv_pos_as_xyz
  1  'x, y, z'
loop_
 _atom_site_type_symbol
 _atom_site_label
 _atom_site_symmetry_multiplicity
 _atom_site_fract_x
 _atom_site_fract_y
 _atom_site_fract_z
 _atom_site_occupancy
  Er  Er0  1  0.392503  0.423162  0.500000  1
  Tm  Tm1  1  0.575932  0.968372  0.500000  1
  Tm  Tm2  1  0.031819  0.608207  0.500000  1
  In  In3  1  0.734549  0.730374  0.000000  1
  In  In4  1  0.269635  0.004346  0.000000  1
  In  In5  1  0.995540  0.265316  0.000000  1
  Ag  Ag6  1  0.667612  0.333368  0.000000  1
  Ag  Ag7  1  0.999396  0.999502  0.500000  1
  Ir  Ir8  1  0.333014  0.667350  0.000000  1
