# generated using pymatgen
data_Tb3ThHgOs
_symmetry_space_group_name_H-M   'P 1'
_cell_length_a   9.69806778
_cell_length_b   9.69806878
_cell_length_c   9.69806900
_cell_angle_alpha   60.00000267
_cell_angle_beta   59.99999924
_cell_angle_gamma   59.99999702
_symmetry_Int_Tables_number   1
_chemical_formula_structural   Tb3ThHgOs
_chemical_formula_sum   'Tb12 Th4 Hg4 Os4'
_cell_volume   644.97182522
_cell_formula_units_Z   4
loop_
 _symmetry_equiv_pos_site_id
 _symmetry_equiv_pos_as_xyz
  1  'x, y, z'
loop_
 _atom_site_type_symbol
 _atom_site_label
 _atom_site_symmetry_multiplicity
 _atom_site_fract_x
 _atom_site_fract_y
 _atom_site_fract_z
 _atom_site_occupancy
  Tb  Tb0  1  0.060612  0.439388  0.439388  1
  Tb  Tb1  1  0.439388  0.060612  0.060612  1
  Tb  Tb2  1  0.439388  0.060612  0.439388  1
  Tb  Tb3  1  0.060612  0.439388  0.060612  1
  Tb  Tb4  1  0.439388  0.439388  0.060612  1
  Tb  Tb5  1  0.060612  0.060612  0.439388  1
  Tb  Tb6  1  0.188362  0.811638  0.811638  1
  Tb  Tb7  1  0.811638  0.188362  0.188362  1
  Tb  Tb8  1  0.811638  0.188362  0.811638  1
  Tb  Tb9  1  0.188362  0.811638  0.188362  1
  Tb  Tb10  1  0.811638  0.811638  0.188362  1
  Tb  Tb11  1  0.188362  0.188362  0.811638  1
  Th  Th12  1  0.599113  0.599113  0.599113  1
  Th  Th13  1  0.599113  0.599113  0.202661  1
  Th  Th14  1  0.599113  0.202661  0.599113  1
  Th  Th15  1  0.202661  0.599113  0.599113  1
  Hg  Hg16  1  0.835196  0.835196  0.835196  1
  Hg  Hg17  1  0.835196  0.835196  0.494412  1
  Hg  Hg18  1  0.835196  0.494412  0.835196  1
  Hg  Hg19  1  0.494412  0.835196  0.835196  1
  Os  Os20  1  0.392545  0.392545  0.392545  1
  Os  Os21  1  0.392545  0.392545  0.822366  1
  Os  Os22  1  0.392545  0.822366  0.392545  1
  Os  Os23  1  0.822366  0.392545  0.392545  1
