# generated using pymatgen
data_Eu3Mg3HgIr2
_symmetry_space_group_name_H-M   'P 1'
_cell_length_a   7.60662600
_cell_length_b   7.60662569
_cell_length_c   4.34057200
_cell_angle_alpha   90.00000000
_cell_angle_beta   90.00000000
_cell_angle_gamma   120.00000133
_symmetry_Int_Tables_number   1
_chemical_formula_structural   Eu3Mg3HgIr2
_chemical_formula_sum   'Eu3 Mg3 Hg1 Ir2'
_cell_volume   217.50122136
_cell_formula_units_Z   1
loop_
 _symmetry_equiv_pos_site_id
 _symmetry_equiv_pos_as_xyz
  1  'x, y, z'
loop_
 _atom_site_type_symbol
 _atom_site_label
 _atom_site_symmetry_multiplicity
 _atom_site_fract_x
 _atom_site_fract_y
 _atom_site_fract_z
 _atom_site_occupancy
  Eu  Eu0  1  0.418868  0.028541  0.000000  1
  Eu  Eu1  1  0.971459  0.390328  0.000000  1
  Eu  Eu2  1  0.609672  0.581132  0.000000  1
  Mg  Mg3  1  0.772314  0.009664  0.500000  1
  Mg  Mg4  1  0.237351  0.227686  0.500000  1
  Mg  Mg5  1  0.990336  0.762649  0.500000  1
  Hg  Hg6  1  0.333333  0.666666  0.500000  1
  Ir  Ir7  1  0.000000  0.000000  0.000000  1
  Ir  Ir8  1  0.666667  0.333333  0.500000  1
