# generated using pymatgen
data_Tb3Co7(P3Rh)2
_symmetry_space_group_name_H-M   'P 1'
_cell_length_a   3.74590400
_cell_length_b   10.70167800
_cell_length_c   12.44225200
_cell_angle_alpha   90.00000000
_cell_angle_beta   90.00000000
_cell_angle_gamma   90.00000000
_symmetry_Int_Tables_number   1
_chemical_formula_structural   Tb3Co7(P3Rh)2
_chemical_formula_sum   'Tb6 Co14 P12 Rh4'
_cell_volume   498.77825979
_cell_formula_units_Z   2
loop_
 _symmetry_equiv_pos_site_id
 _symmetry_equiv_pos_as_xyz
  1  'x, y, z'
loop_
 _atom_site_type_symbol
 _atom_site_label
 _atom_site_symmetry_multiplicity
 _atom_site_fract_x
 _atom_site_fract_y
 _atom_site_fract_z
 _atom_site_occupancy
  Tb  Tb0  1  0.000000  0.500000  0.520348  1
  Tb  Tb1  1  0.500000  0.000000  0.479652  1
  Tb  Tb2  1  0.500000  0.813869  0.205733  1
  Tb  Tb3  1  0.500000  0.186131  0.205733  1
  Tb  Tb4  1  0.000000  0.686131  0.794267  1
  Tb  Tb5  1  0.000000  0.313869  0.794267  1
  Co  Co6  1  0.000000  0.500000  0.988169  1
  Co  Co7  1  0.500000  0.000000  0.011831  1
  Co  Co8  1  0.500000  0.332169  0.993866  1
  Co  Co9  1  0.500000  0.667831  0.993866  1
  Co  Co10  1  0.000000  0.167831  0.006134  1
  Co  Co11  1  0.000000  0.832169  0.006134  1
  Co  Co12  1  0.500000  0.299846  0.429743  1
  Co  Co13  1  0.500000  0.700154  0.429743  1
  Co  Co14  1  0.000000  0.200154  0.570257  1
  Co  Co15  1  0.000000  0.799846  0.570257  1
  Co  Co16  1  0.500000  0.880738  0.709647  1
  Co  Co17  1  0.500000  0.119262  0.709647  1
  Co  Co18  1  0.000000  0.619262  0.290353  1
  Co  Co19  1  0.000000  0.380738  0.290353  1
  P  P20  1  0.500000  0.500000  0.890230  1
  P  P21  1  0.000000  0.000000  0.109770  1
  P  P22  1  0.500000  0.500000  0.349227  1
  P  P23  1  0.000000  0.000000  0.650773  1
  P  P24  1  0.500000  0.301587  0.613047  1
  P  P25  1  0.500000  0.698413  0.613047  1
  P  P26  1  0.000000  0.198413  0.386953  1
  P  P27  1  0.000000  0.801587  0.386953  1
  P  P28  1  0.500000  0.844884  0.895264  1
  P  P29  1  0.500000  0.155116  0.895264  1
  P  P30  1  0.000000  0.655116  0.104736  1
  P  P31  1  0.000000  0.344884  0.104736  1
  Rh  Rh32  1  0.500000  0.500000  0.159877  1
  Rh  Rh33  1  0.000000  0.000000  0.840123  1
  Rh  Rh34  1  0.500000  0.500000  0.703415  1
  Rh  Rh35  1  0.000000  0.000000  0.296585  1
