# generated using pymatgen
data_BaEu(ThI6)2
_symmetry_space_group_name_H-M   'P 1'
_cell_length_a   8.28933735
_cell_length_b   8.28356933
_cell_length_c   15.68837029
_cell_angle_alpha   84.38376718
_cell_angle_beta   84.43792692
_cell_angle_gamma   120.13332551
_symmetry_Int_Tables_number   1
_chemical_formula_structural   BaEu(ThI6)2
_chemical_formula_sum   'Ba1 Eu1 Th2 I12'
_cell_volume   913.74815825
_cell_formula_units_Z   1
loop_
 _symmetry_equiv_pos_site_id
 _symmetry_equiv_pos_as_xyz
  1  'x, y, z'
loop_
 _atom_site_type_symbol
 _atom_site_label
 _atom_site_symmetry_multiplicity
 _atom_site_fract_x
 _atom_site_fract_y
 _atom_site_fract_z
 _atom_site_occupancy
  Ba  Ba0  1  0.335808  0.172107  0.496341  1
  Eu  Eu1  1  0.172387  0.335305  0.997229  1
  Th  Th2  1  0.666555  0.840148  0.499710  1
  Th  Th3  1  0.840130  0.666764  0.999431  1
  I  I4  1  0.567133  0.695272  0.885575  1
  I  I5  1  0.716035  0.588147  0.380141  1
  I  I6  1  0.905301  0.418381  0.881085  1
  I  I7  1  0.608361  0.082038  0.622984  1
  I  I8  1  0.420893  0.888823  0.375300  1
  I  I9  1  0.008945  0.192555  0.383328  1
  I  I10  1  0.190010  0.025719  0.888105  1
  I  I11  1  0.923163  0.800336  0.619112  1
  I  I12  1  0.084507  0.593220  0.117037  1
  I  I13  1  0.477219  0.325682  0.112716  1
  I  I14  1  0.323591  0.492265  0.617720  1
  I  I15  1  0.819962  0.943238  0.113386  1
