# generated using pymatgen
data_Sm(YSe2)2
_symmetry_space_group_name_H-M   'P 1'
_cell_length_a   4.10460900
_cell_length_b   7.06414394
_cell_length_c   7.15590383
_cell_angle_alpha   71.85553643
_cell_angle_beta   90.00000000
_cell_angle_gamma   90.00000000
_symmetry_Int_Tables_number   1
_chemical_formula_structural   Sm(YSe2)2
_chemical_formula_sum   'Sm1 Y2 Se4'
_cell_volume   197.17181531
_cell_formula_units_Z   1
loop_
 _symmetry_equiv_pos_site_id
 _symmetry_equiv_pos_as_xyz
  1  'x, y, z'
loop_
 _atom_site_type_symbol
 _atom_site_label
 _atom_site_symmetry_multiplicity
 _atom_site_fract_x
 _atom_site_fract_y
 _atom_site_fract_z
 _atom_site_occupancy
  Sm  Sm0  1  0.000000  0.500000  0.500000  1
  Y  Y1  1  0.000000  0.000000  0.000000  1
  Y  Y2  1  0.500000  0.500000  0.000000  1
  Se  Se3  1  0.500000  0.756734  0.247824  1
  Se  Se4  1  0.000000  0.256704  0.238661  1
  Se  Se5  1  0.500000  0.243266  0.752176  1
  Se  Se6  1  0.000000  0.743296  0.761339  1
