# generated using pymatgen
data_Tm16In3Co4Ag
_symmetry_space_group_name_H-M   'P 1'
_cell_length_a   9.37783420
_cell_length_b   9.37571352
_cell_length_c   9.37571300
_cell_angle_alpha   59.99999829
_cell_angle_beta   60.00747858
_cell_angle_gamma   60.00747955
_symmetry_Int_Tables_number   1
_chemical_formula_structural   Tm16In3Co4Ag
_chemical_formula_sum   'Tm16 In3 Co4 Ag1'
_cell_volume   582.96873772
_cell_formula_units_Z   1
loop_
 _symmetry_equiv_pos_site_id
 _symmetry_equiv_pos_as_xyz
  1  'x, y, z'
loop_
 _atom_site_type_symbol
 _atom_site_label
 _atom_site_symmetry_multiplicity
 _atom_site_fract_x
 _atom_site_fract_y
 _atom_site_fract_z
 _atom_site_occupancy
  Tm  Tm0  1  0.347843  0.346000  0.346000  1
  Tm  Tm1  1  0.347843  0.346000  0.960157  1
  Tm  Tm2  1  0.347843  0.960157  0.346000  1
  Tm  Tm3  1  0.958818  0.347061  0.347061  1
  Tm  Tm4  1  0.809962  0.189823  0.189823  1
  Tm  Tm5  1  0.188046  0.811912  0.811912  1
  Tm  Tm6  1  0.188046  0.811912  0.188132  1
  Tm  Tm7  1  0.809962  0.189823  0.810392  1
  Tm  Tm8  1  0.188046  0.188132  0.811912  1
  Tm  Tm9  1  0.809962  0.810392  0.189823  1
  Tm  Tm10  1  0.944794  0.560027  0.560027  1
  Tm  Tm11  1  0.561222  0.938468  0.938468  1
  Tm  Tm12  1  0.561222  0.938468  0.561842  1
  Tm  Tm13  1  0.944794  0.560027  0.935153  1
  Tm  Tm14  1  0.561222  0.561842  0.938468  1
  Tm  Tm15  1  0.944794  0.935153  0.560027  1
  In  In16  1  0.579572  0.583196  0.583196  1
  In  In17  1  0.579572  0.583196  0.254036  1
  In  In18  1  0.579572  0.254036  0.583196  1
  Co  Co19  1  0.139013  0.141308  0.141308  1
  Co  Co20  1  0.139013  0.141308  0.578371  1
  Co  Co21  1  0.139013  0.578371  0.141308  1
  Co  Co22  1  0.577052  0.140983  0.140983  1
  Ag  Ag23  1  0.252773  0.582409  0.582409  1
