# generated using pymatgen
data_U8PtS17
_symmetry_space_group_name_H-M   'P 1'
_cell_length_a   7.82582756
_cell_length_b   7.82582791
_cell_length_c   10.35094976
_cell_angle_alpha   79.72600380
_cell_angle_beta   79.72600643
_cell_angle_gamma   64.56945196
_symmetry_Int_Tables_number   1
_chemical_formula_structural   U8PtS17
_chemical_formula_sum   'U8 Pt1 S17'
_cell_volume   559.61982776
_cell_formula_units_Z   1
loop_
 _symmetry_equiv_pos_site_id
 _symmetry_equiv_pos_as_xyz
  1  'x, y, z'
loop_
 _atom_site_type_symbol
 _atom_site_label
 _atom_site_symmetry_multiplicity
 _atom_site_fract_x
 _atom_site_fract_y
 _atom_site_fract_z
 _atom_site_occupancy
  U  U0  1  0.820405  0.306292  0.300266  1
  U  U1  1  0.693708  0.179595  0.699734  1
  U  U2  1  0.179595  0.693708  0.699734  1
  U  U3  1  0.306292  0.820405  0.300266  1
  U  U4  1  0.203665  0.203665  0.544059  1
  U  U5  1  0.796335  0.796335  0.455941  1
  U  U6  1  0.676294  0.676294  0.985414  1
  U  U7  1  0.323706  0.323706  0.014586  1
  Pt  Pt8  1  0.000000  0.000000  0.000000  1
  S  S9  1  0.820628  0.432764  0.536105  1
  S  S10  1  0.567236  0.179372  0.463895  1
  S  S11  1  0.179372  0.567236  0.463895  1
  S  S12  1  0.432764  0.820628  0.536105  1
  S  S13  1  0.952031  0.327479  0.027878  1
  S  S14  1  0.672520  0.047969  0.972122  1
  S  S15  1  0.047969  0.672520  0.972122  1
  S  S16  1  0.327480  0.952031  0.027878  1
  S  S17  1  0.214792  0.214792  0.278656  1
  S  S18  1  0.785208  0.785208  0.721344  1
  S  S19  1  0.051168  0.051168  0.769366  1
  S  S20  1  0.948832  0.948832  0.230634  1
  S  S21  1  0.297817  0.297817  0.756826  1
  S  S22  1  0.702183  0.702183  0.243174  1
  S  S23  1  0.518324  0.518324  0.830055  1
  S  S24  1  0.481676  0.481676  0.169945  1
  S  S25  1  0.000000  0.000000  0.500000  1
