# generated using pymatgen
data_Tb2Al9TcPd2
_symmetry_space_group_name_H-M   'P 1'
_cell_length_a   7.60836668
_cell_length_b   7.60836711
_cell_length_c   9.56609300
_cell_angle_alpha   90.00000000
_cell_angle_beta   90.00000000
_cell_angle_gamma   118.61549983
_symmetry_Int_Tables_number   1
_chemical_formula_structural   Tb2Al9TcPd2
_chemical_formula_sum   'Tb4 Al18 Tc2 Pd4'
_cell_volume   486.11554793
_cell_formula_units_Z   2
loop_
 _symmetry_equiv_pos_site_id
 _symmetry_equiv_pos_as_xyz
  1  'x, y, z'
loop_
 _atom_site_type_symbol
 _atom_site_label
 _atom_site_symmetry_multiplicity
 _atom_site_fract_x
 _atom_site_fract_y
 _atom_site_fract_z
 _atom_site_occupancy
  Tb  Tb0  1  0.994291  0.676837  0.250000  1
  Tb  Tb1  1  0.005709  0.323163  0.750000  1
  Tb  Tb2  1  0.676837  0.994291  0.250000  1
  Tb  Tb3  1  0.323163  0.005709  0.750000  1
  Al  Al4  1  0.128727  0.128727  0.250000  1
  Al  Al5  1  0.871273  0.871273  0.750000  1
  Al  Al6  1  0.002113  0.332883  0.075724  1
  Al  Al7  1  0.997887  0.667117  0.924276  1
  Al  Al8  1  0.997887  0.667117  0.575724  1
  Al  Al9  1  0.332883  0.002113  0.424276  1
  Al  Al10  1  0.002113  0.332883  0.424276  1
  Al  Al11  1  0.667117  0.997887  0.575724  1
  Al  Al12  1  0.667117  0.997887  0.924276  1
  Al  Al13  1  0.332883  0.002113  0.075724  1
  Al  Al14  1  0.328820  0.328820  0.549956  1
  Al  Al15  1  0.671180  0.671180  0.450044  1
  Al  Al16  1  0.671180  0.671180  0.049956  1
  Al  Al17  1  0.328820  0.328820  0.950044  1
  Al  Al18  1  0.342698  0.549561  0.250000  1
  Al  Al19  1  0.657302  0.450439  0.750000  1
  Al  Al20  1  0.549561  0.342698  0.250000  1
  Al  Al21  1  0.450439  0.657302  0.750000  1
  Tc  Tc22  1  0.000000  0.000000  0.000000  1
  Tc  Tc23  1  0.000000  0.000000  0.500000  1
  Pd  Pd24  1  0.671820  0.328180  0.000000  1
  Pd  Pd25  1  0.328180  0.671820  0.000000  1
  Pd  Pd26  1  0.328180  0.671820  0.500000  1
  Pd  Pd27  1  0.671820  0.328180  0.500000  1
