# generated using pymatgen
data_ErTmLu5CoI12
_symmetry_space_group_name_H-M   'P 1'
_cell_length_a   9.62474877
_cell_length_b   9.62227204
_cell_length_c   9.63136681
_cell_angle_alpha   106.82969385
_cell_angle_beta   106.81802262
_cell_angle_gamma   106.79680455
_symmetry_Int_Tables_number   1
_chemical_formula_structural   ErTmLu5CoI12
_chemical_formula_sum   'Er1 Tm1 Lu5 Co1 I12'
_cell_volume   746.56947188
_cell_formula_units_Z   1
loop_
 _symmetry_equiv_pos_site_id
 _symmetry_equiv_pos_as_xyz
  1  'x, y, z'
loop_
 _atom_site_type_symbol
 _atom_site_label
 _atom_site_symmetry_multiplicity
 _atom_site_fract_x
 _atom_site_fract_y
 _atom_site_fract_z
 _atom_site_occupancy
  Er  Er0  1  0.499971  0.499889  0.500000  1
  Tm  Tm1  1  0.909460  0.978719  0.715539  1
  Lu  Lu2  1  0.281903  0.089379  0.021481  1
  Lu  Lu3  1  0.021154  0.281891  0.089997  1
  Lu  Lu4  1  0.089276  0.020934  0.281486  1
  Lu  Lu5  1  0.718435  0.910699  0.979497  1
  Lu  Lu6  1  0.979215  0.718314  0.911137  1
  Co  Co7  1  0.000127  0.000036  0.000400  1
  I  I8  1  0.462716  0.159909  0.386164  1
  I  I9  1  0.386136  0.462624  0.159897  1
  I  I10  1  0.159927  0.386237  0.462678  1
  I  I11  1  0.536847  0.840053  0.614001  1
  I  I12  1  0.613873  0.537391  0.840149  1
  I  I13  1  0.840255  0.613430  0.537403  1
  I  I14  1  0.323959  0.776618  0.929699  1
  I  I15  1  0.929779  0.324547  0.776993  1
  I  I16  1  0.776348  0.929538  0.323505  1
  I  I17  1  0.676043  0.223382  0.070366  1
  I  I18  1  0.070277  0.675818  0.223336  1
  I  I19  1  0.224300  0.070591  0.676273  1
