# generated using pymatgen
data_HoZr3(Co3Si5)2
_symmetry_space_group_name_H-M   'P 1'
_cell_length_a   7.67756763
_cell_length_b   7.68153193
_cell_length_c   7.68153208
_cell_angle_alpha   137.83323209
_cell_angle_beta   104.71454127
_cell_angle_gamma   90.28281802
_symmetry_Int_Tables_number   1
_chemical_formula_structural   HoZr3(Co3Si5)2
_chemical_formula_sum   'Ho1 Zr3 Co6 Si10'
_cell_volume   280.81179143
_cell_formula_units_Z   1
loop_
 _symmetry_equiv_pos_site_id
 _symmetry_equiv_pos_as_xyz
  1  'x, y, z'
loop_
 _atom_site_type_symbol
 _atom_site_label
 _atom_site_symmetry_multiplicity
 _atom_site_fract_x
 _atom_site_fract_y
 _atom_site_fract_z
 _atom_site_occupancy
  Ho  Ho0  1  0.631305  0.364928  0.266377  1
  Zr  Zr1  1  0.367084  0.636253  0.730832  1
  Zr  Zr2  1  0.903652  0.135110  0.768541  1
  Zr  Zr3  1  0.094683  0.863670  0.231013  1
  Co  Co4  1  0.027165  0.638367  0.388797  1
  Co  Co5  1  0.972618  0.362027  0.610591  1
  Co  Co6  1  0.498859  0.749897  0.249814  1
  Co  Co7  1  0.498859  0.249045  0.748962  1
  Co  Co8  1  0.248379  0.137838  0.110542  1
  Co  Co9  1  0.756068  0.862735  0.893330  1
  Si  Si10  1  0.270938  0.523916  0.251620  1
  Si  Si11  1  0.726382  0.977005  0.251075  1
  Si  Si12  1  0.003323  0.751900  0.751252  1
  Si  Si13  1  0.239658  0.400647  0.839011  1
  Si  Si14  1  0.762241  0.602800  0.159441  1
  Si  Si15  1  0.435671  0.096842  0.338828  1
  Si  Si16  1  0.003323  0.252072  0.251423  1
  Si  Si17  1  0.562473  0.900322  0.662151  1
  Si  Si18  1  0.726382  0.475307  0.749377  1
  Si  Si19  1  0.270938  0.019317  0.747021  1
