# generated using pymatgen
data_HfZr3(Ta3Ge4)2
_symmetry_space_group_name_H-M   'P 1'
_cell_length_a   6.85749500
_cell_length_b   6.96997109
_cell_length_c   13.32061317
_cell_angle_alpha   90.01859194
_cell_angle_beta   90.00000000
_cell_angle_gamma   90.00000000
_symmetry_Int_Tables_number   1
_chemical_formula_structural   HfZr3(Ta3Ge4)2
_chemical_formula_sum   'Hf2 Zr6 Ta12 Ge16'
_cell_volume   636.67921241
_cell_formula_units_Z   2
loop_
 _symmetry_equiv_pos_site_id
 _symmetry_equiv_pos_as_xyz
  1  'x, y, z'
loop_
 _atom_site_type_symbol
 _atom_site_label
 _atom_site_symmetry_multiplicity
 _atom_site_fract_x
 _atom_site_fract_y
 _atom_site_fract_z
 _atom_site_occupancy
  Hf  Hf0  1  0.487344  0.674564  0.909268  1
  Hf  Hf1  1  0.987344  0.825436  0.590732  1
  Zr  Zr2  1  0.487837  0.674601  0.590674  1
  Zr  Zr3  1  0.987837  0.825399  0.909326  1
  Zr  Zr4  1  0.511929  0.325793  0.090513  1
  Zr  Zr5  1  0.011929  0.174207  0.409487  1
  Zr  Zr6  1  0.511870  0.325236  0.409390  1
  Zr  Zr7  1  0.011870  0.174764  0.090610  1
  Ta  Ta8  1  0.659633  0.163372  0.624892  1
  Ta  Ta9  1  0.159633  0.336628  0.875108  1
  Ta  Ta10  1  0.341514  0.835659  0.124527  1
  Ta  Ta11  1  0.841514  0.664341  0.375473  1
  Ta  Ta12  1  0.340865  0.836117  0.375095  1
  Ta  Ta13  1  0.840865  0.663883  0.124905  1
  Ta  Ta14  1  0.659284  0.163486  0.874851  1
  Ta  Ta15  1  0.159284  0.336514  0.625149  1
  Ta  Ta16  1  0.836225  0.489902  0.750065  1
  Ta  Ta17  1  0.336225  0.010098  0.749935  1
  Ta  Ta18  1  0.163852  0.510632  0.250016  1
  Ta  Ta19  1  0.663852  0.989368  0.249984  1
  Ge  Ge20  1  0.683423  0.960066  0.459788  1
  Ge  Ge21  1  0.183423  0.539934  0.040212  1
  Ge  Ge22  1  0.317171  0.039105  0.959267  1
  Ge  Ge23  1  0.817171  0.460895  0.540733  1
  Ge  Ge24  1  0.315941  0.039094  0.540788  1
  Ge  Ge25  1  0.815941  0.460906  0.959212  1
  Ge  Ge26  1  0.682928  0.960065  0.040217  1
  Ge  Ge27  1  0.182928  0.539935  0.459783  1
  Ge  Ge28  1  0.462345  0.388651  0.750141  1
  Ge  Ge29  1  0.962345  0.111349  0.749859  1
  Ge  Ge30  1  0.538066  0.611770  0.250072  1
  Ge  Ge31  1  0.038066  0.888230  0.249928  1
  Ge  Ge32  1  0.692247  0.847271  0.750183  1
  Ge  Ge33  1  0.192247  0.652729  0.749817  1
  Ge  Ge34  1  0.307527  0.151862  0.249939  1
  Ge  Ge35  1  0.807527  0.348138  0.250061  1
