# generated using pymatgen
data_K6(RhO3)5
_symmetry_space_group_name_H-M   'P 1'
_cell_length_a   7.52758048
_cell_length_b   7.52758071
_cell_length_c   7.52758136
_cell_angle_alpha   88.78547981
_cell_angle_beta   88.78548332
_cell_angle_gamma   88.78548810
_symmetry_Int_Tables_number   1
_chemical_formula_structural   K6(RhO3)5
_chemical_formula_sum   'K6 Rh5 O15'
_cell_volume   426.26292872
_cell_formula_units_Z   1
loop_
 _symmetry_equiv_pos_site_id
 _symmetry_equiv_pos_as_xyz
  1  'x, y, z'
loop_
 _atom_site_type_symbol
 _atom_site_label
 _atom_site_symmetry_multiplicity
 _atom_site_fract_x
 _atom_site_fract_y
 _atom_site_fract_z
 _atom_site_occupancy
  K  K0  1  0.318339  0.681661  0.000000  1
  K  K1  1  0.681661  0.000000  0.318339  1
  K  K2  1  0.000000  0.318339  0.681661  1
  K  K3  1  0.144370  0.855630  0.500000  1
  K  K4  1  0.855630  0.500000  0.144370  1
  K  K5  1  0.500000  0.144370  0.855630  1
  Rh  Rh6  1  0.898696  0.898696  0.898696  1
  Rh  Rh7  1  0.101304  0.101304  0.101304  1
  Rh  Rh8  1  0.704610  0.704610  0.704610  1
  Rh  Rh9  1  0.295390  0.295390  0.295390  1
  Rh  Rh10  1  0.500000  0.500000  0.500000  1
  O  O11  1  0.286403  0.552824  0.352921  1
  O  O12  1  0.352921  0.286403  0.552824  1
  O  O13  1  0.552824  0.352921  0.286403  1
  O  O14  1  0.713597  0.647079  0.447176  1
  O  O15  1  0.447176  0.713597  0.647079  1
  O  O16  1  0.647079  0.447176  0.713597  1
  O  O17  1  0.000000  0.858835  0.141165  1
  O  O18  1  0.141165  0.000000  0.858835  1
  O  O19  1  0.858835  0.141165  0.000000  1
  O  O20  1  0.333716  0.043839  0.215485  1
  O  O21  1  0.215485  0.333716  0.043839  1
  O  O22  1  0.784515  0.956161  0.666284  1
  O  O23  1  0.956161  0.666284  0.784515  1
  O  O24  1  0.666284  0.784515  0.956161  1
  O  O25  1  0.043839  0.215485  0.333716  1
