# generated using pymatgen
data_Ho6Co13Ni(P3Ru)4
_symmetry_space_group_name_H-M   'P 1'
_cell_length_a   3.73751300
_cell_length_b   10.54389000
_cell_length_c   12.33195700
_cell_angle_alpha   90.00000000
_cell_angle_beta   90.00000000
_cell_angle_gamma   90.00000000
_symmetry_Int_Tables_number   1
_chemical_formula_structural   Ho6Co13Ni(P3Ru)4
_chemical_formula_sum   'Ho6 Co13 Ni1 P12 Ru4'
_cell_volume   485.97684822
_cell_formula_units_Z   1
loop_
 _symmetry_equiv_pos_site_id
 _symmetry_equiv_pos_as_xyz
  1  'x, y, z'
loop_
 _atom_site_type_symbol
 _atom_site_label
 _atom_site_symmetry_multiplicity
 _atom_site_fract_x
 _atom_site_fract_y
 _atom_site_fract_z
 _atom_site_occupancy
  Ho  Ho0  1  0.000000  0.500000  0.526210  1
  Ho  Ho1  1  0.500000  0.000000  0.478732  1
  Ho  Ho2  1  0.500000  0.818182  0.203421  1
  Ho  Ho3  1  0.500000  0.181818  0.203421  1
  Ho  Ho4  1  0.000000  0.684593  0.795926  1
  Ho  Ho5  1  0.000000  0.315407  0.795926  1
  Co  Co6  1  0.000000  0.500000  0.986453  1
  Co  Co7  1  0.500000  0.000000  0.013985  1
  Co  Co8  1  0.000000  0.199032  0.573088  1
  Co  Co9  1  0.000000  0.800968  0.573088  1
  Co  Co10  1  0.500000  0.879435  0.710900  1
  Co  Co11  1  0.500000  0.120565  0.710900  1
  Co  Co12  1  0.000000  0.620975  0.286589  1
  Co  Co13  1  0.000000  0.379025  0.286589  1
  Co  Co14  1  0.500000  0.331958  0.989718  1
  Co  Co15  1  0.500000  0.668042  0.989718  1
  Co  Co16  1  0.000000  0.167057  0.008792  1
  Co  Co17  1  0.000000  0.832943  0.008792  1
  Co  Co18  1  0.000000  0.000000  0.293863  1
  Ni  Ni19  1  0.500000  0.500000  0.705373  1
  P  P20  1  0.500000  0.309504  0.620842  1
  P  P21  1  0.500000  0.690496  0.620842  1
  P  P22  1  0.000000  0.182994  0.381601  1
  P  P23  1  0.000000  0.817006  0.381601  1
  P  P24  1  0.500000  0.500000  0.883682  1
  P  P25  1  0.000000  0.000000  0.117072  1
  P  P26  1  0.500000  0.847030  0.894020  1
  P  P27  1  0.500000  0.152970  0.894020  1
  P  P28  1  0.000000  0.654373  0.105144  1
  P  P29  1  0.000000  0.345627  0.105144  1
  P  P30  1  0.500000  0.500000  0.345134  1
  P  P31  1  0.000000  0.000000  0.651165  1
  Ru  Ru32  1  0.500000  0.296493  0.430581  1
  Ru  Ru33  1  0.500000  0.703507  0.430581  1
  Ru  Ru34  1  0.500000  0.500000  0.156543  1
  Ru  Ru35  1  0.000000  0.000000  0.840546  1
