# generated using pymatgen
data_LaPr3(AlPd2)4
_symmetry_space_group_name_H-M   'P 1'
_cell_length_a   5.95642044
_cell_length_b   7.06682100
_cell_length_c   7.62955685
_cell_angle_alpha   90.00000000
_cell_angle_beta   89.92029139
_cell_angle_gamma   90.00000000
_symmetry_Int_Tables_number   1
_chemical_formula_structural   LaPr3(AlPd2)4
_chemical_formula_sum   'La1 Pr3 Al4 Pd8'
_cell_volume   321.15029790
_cell_formula_units_Z   1
loop_
 _symmetry_equiv_pos_site_id
 _symmetry_equiv_pos_as_xyz
  1  'x, y, z'
loop_
 _atom_site_type_symbol
 _atom_site_label
 _atom_site_symmetry_multiplicity
 _atom_site_fract_x
 _atom_site_fract_y
 _atom_site_fract_z
 _atom_site_occupancy
  La  La0  1  0.344094  0.750000  0.035256  1
  Pr  Pr1  1  0.154545  0.750000  0.533259  1
  Pr  Pr2  1  0.656159  0.250000  0.965499  1
  Pr  Pr3  1  0.845470  0.250000  0.466686  1
  Al  Al4  1  0.656238  0.750000  0.383357  1
  Al  Al5  1  0.844118  0.750000  0.880259  1
  Al  Al6  1  0.344749  0.250000  0.619066  1
  Al  Al7  1  0.155321  0.250000  0.118701  1
  Pd  Pd8  1  0.910998  0.552715  0.176307  1
  Pd  Pd9  1  0.588709  0.947486  0.675503  1
  Pd  Pd10  1  0.087558  0.052547  0.823458  1
  Pd  Pd11  1  0.412389  0.447186  0.323691  1
  Pd  Pd12  1  0.087558  0.447453  0.823458  1
  Pd  Pd13  1  0.412389  0.052814  0.323691  1
  Pd  Pd14  1  0.910998  0.947285  0.176307  1
  Pd  Pd15  1  0.588709  0.552514  0.675503  1
