# generated using pymatgen
data_PrCoP3N7
_symmetry_space_group_name_H-M   'P 1'
_cell_length_a   7.61224761
_cell_length_b   7.61224891
_cell_length_c   5.16674643
_cell_angle_alpha   82.41156965
_cell_angle_beta   82.41155703
_cell_angle_gamma   73.00169896
_symmetry_Int_Tables_number   1
_chemical_formula_structural   PrCoP3N7
_chemical_formula_sum   'Pr2 Co2 P6 N14'
_cell_volume   282.42451244
_cell_formula_units_Z   2
loop_
 _symmetry_equiv_pos_site_id
 _symmetry_equiv_pos_as_xyz
  1  'x, y, z'
loop_
 _atom_site_type_symbol
 _atom_site_label
 _atom_site_symmetry_multiplicity
 _atom_site_fract_x
 _atom_site_fract_y
 _atom_site_fract_z
 _atom_site_occupancy
  Pr  Pr0  1  0.784279  0.215721  0.250000  1
  Pr  Pr1  1  0.259050  0.740950  0.750000  1
  Co  Co2  1  0.277665  0.464010  0.287116  1
  Co  Co3  1  0.535990  0.722335  0.212884  1
  P  P4  1  0.098253  0.263103  0.710349  1
  P  P5  1  0.736897  0.901747  0.789651  1
  P  P6  1  0.900870  0.749008  0.295901  1
  P  P7  1  0.250992  0.099130  0.204099  1
  P  P8  1  0.461480  0.277848  0.805578  1
  P  P9  1  0.722152  0.538520  0.694422  1
  N  N10  1  0.265299  0.367730  0.667486  1
  N  N11  1  0.632270  0.734701  0.832514  1
  N  N12  1  0.776672  0.595602  0.380764  1
  N  N13  1  0.404398  0.223328  0.119236  1
  N  N14  1  0.895999  0.388287  0.824131  1
  N  N15  1  0.611713  0.104001  0.675869  1
  N  N16  1  0.100829  0.663995  0.160027  1
  N  N17  1  0.336005  0.899171  0.339973  1
  N  N18  1  0.911894  0.850458  0.560018  1
  N  N19  1  0.149542  0.088106  0.939982  1
  N  N20  1  0.469929  0.530071  0.250000  1
  N  N21  1  0.548938  0.451062  0.750000  1
  N  N22  1  0.787316  0.918435  0.084238  1
  N  N23  1  0.081565  0.212684  0.415762  1
