# generated using pymatgen
data_NdPa5Cr2(Co4P3)4
_symmetry_space_group_name_H-M   'P 1'
_cell_length_a   3.75761400
_cell_length_b   10.49725200
_cell_length_c   12.29622800
_cell_angle_alpha   90.00000000
_cell_angle_beta   90.00000000
_cell_angle_gamma   90.00000000
_symmetry_Int_Tables_number   1
_chemical_formula_structural   NdPa5Cr2(Co4P3)4
_chemical_formula_sum   'Nd1 Pa5 Cr2 Co16 P12'
_cell_volume   485.02005413
_cell_formula_units_Z   1
loop_
 _symmetry_equiv_pos_site_id
 _symmetry_equiv_pos_as_xyz
  1  'x, y, z'
loop_
 _atom_site_type_symbol
 _atom_site_label
 _atom_site_symmetry_multiplicity
 _atom_site_fract_x
 _atom_site_fract_y
 _atom_site_fract_z
 _atom_site_occupancy
  Nd  Nd0  1  0.500000  0.000000  0.480711  1
  Pa  Pa1  1  0.000000  0.500000  0.522793  1
  Pa  Pa2  1  0.500000  0.819657  0.207808  1
  Pa  Pa3  1  0.500000  0.180343  0.207808  1
  Pa  Pa4  1  0.000000  0.681879  0.792352  1
  Pa  Pa5  1  0.000000  0.318121  0.792352  1
  Cr  Cr6  1  0.500000  0.500000  0.154031  1
  Cr  Cr7  1  0.000000  0.000000  0.846186  1
  Co  Co8  1  0.500000  0.500000  0.701317  1
  Co  Co9  1  0.000000  0.000000  0.290681  1
  Co  Co10  1  0.000000  0.500000  0.983044  1
  Co  Co11  1  0.500000  0.000000  0.016181  1
  Co  Co12  1  0.500000  0.333455  0.992269  1
  Co  Co13  1  0.500000  0.666545  0.992269  1
  Co  Co14  1  0.000000  0.168775  0.007218  1
  Co  Co15  1  0.000000  0.831225  0.007218  1
  Co  Co16  1  0.500000  0.305609  0.427520  1
  Co  Co17  1  0.500000  0.694391  0.427520  1
  Co  Co18  1  0.000000  0.204398  0.573843  1
  Co  Co19  1  0.000000  0.795602  0.573843  1
  Co  Co20  1  0.500000  0.876467  0.716423  1
  Co  Co21  1  0.500000  0.123533  0.716423  1
  Co  Co22  1  0.000000  0.621567  0.286203  1
  Co  Co23  1  0.000000  0.378433  0.286203  1
  P  P24  1  0.500000  0.500000  0.882337  1
  P  P25  1  0.000000  0.000000  0.113476  1
  P  P26  1  0.500000  0.500000  0.338944  1
  P  P27  1  0.000000  0.000000  0.661436  1
  P  P28  1  0.500000  0.310036  0.612771  1
  P  P29  1  0.500000  0.689964  0.612771  1
  P  P30  1  0.000000  0.190837  0.387063  1
  P  P31  1  0.000000  0.809163  0.387063  1
  P  P32  1  0.500000  0.848645  0.896048  1
  P  P33  1  0.500000  0.151355  0.896048  1
  P  P34  1  0.000000  0.650829  0.104913  1
  P  P35  1  0.000000  0.349171  0.104913  1
