# generated using pymatgen
data_Si12P12Ir3Os
_symmetry_space_group_name_H-M   'P 1'
_cell_length_a   5.90834625
_cell_length_b   6.12873745
_cell_length_c   13.06418937
_cell_angle_alpha   90.09174716
_cell_angle_beta   89.95565017
_cell_angle_gamma   90.12425055
_symmetry_Int_Tables_number   1
_chemical_formula_structural   Si12P12Ir3Os
_chemical_formula_sum   'Si12 P12 Ir3 Os1'
_cell_volume   473.06162045
_cell_formula_units_Z   1
loop_
 _symmetry_equiv_pos_site_id
 _symmetry_equiv_pos_as_xyz
  1  'x, y, z'
loop_
 _atom_site_type_symbol
 _atom_site_label
 _atom_site_symmetry_multiplicity
 _atom_site_fract_x
 _atom_site_fract_y
 _atom_site_fract_z
 _atom_site_occupancy
  Si  Si0  1  0.971322  0.161630  0.317913  1
  Si  Si1  1  0.467260  0.839767  0.680879  1
  Si  Si2  1  0.930818  0.628195  0.215726  1
  Si  Si3  1  0.431054  0.369659  0.786268  1
  Si  Si4  1  0.340130  0.914787  0.950519  1
  Si  Si5  1  0.841421  0.086840  0.048729  1
  Si  Si6  1  0.917692  0.527341  0.672889  1
  Si  Si7  1  0.412572  0.473074  0.327616  1
  Si  Si8  1  0.000086  0.063779  0.569620  1
  Si  Si9  1  0.498456  0.936463  0.428633  1
  Si  Si10  1  0.906886  0.623438  0.927339  1
  Si  Si11  1  0.405151  0.376479  0.073463  1
  P  P12  1  0.578137  0.027223  0.825290  1
  P  P13  1  0.076881  0.971400  0.174008  1
  P  P14  1  0.516308  0.559463  0.930123  1
  P  P15  1  0.015236  0.441398  0.070454  1
  P  P16  1  0.612340  0.113312  0.572739  1
  P  P17  1  0.112325  0.884415  0.425141  1
  P  P18  1  0.543422  0.645758  0.181244  1
  P  P19  1  0.044108  0.353832  0.818935  1
  P  P20  1  0.580367  0.133551  0.288899  1
  P  P21  1  0.079661  0.867281  0.709576  1
  P  P22  1  0.156002  0.406120  0.551967  1
  P  P23  1  0.657817  0.595743  0.448467  1
  Ir  Ir24  1  0.964524  0.985927  0.878608  1
  Ir  Ir25  1  0.464364  0.013142  0.121873  1
  Ir  Ir26  1  0.537578  0.483568  0.619851  1
  Os  Os27  1  0.031881  0.516418  0.383230  1
