# generated using pymatgen
data_Hf3MnTc2As3
_symmetry_space_group_name_H-M   'P 1'
_cell_length_a   7.72873142
_cell_length_b   7.72862367
_cell_length_c   7.72883160
_cell_angle_alpha   128.20196763
_cell_angle_beta   123.61510632
_cell_angle_gamma   80.09346231
_symmetry_Int_Tables_number   1
_chemical_formula_structural   Hf3MnTc2As3
_chemical_formula_sum   'Hf6 Mn2 Tc4 As6'
_cell_volume   291.71008153
_cell_formula_units_Z   2
loop_
 _symmetry_equiv_pos_site_id
 _symmetry_equiv_pos_as_xyz
  1  'x, y, z'
loop_
 _atom_site_type_symbol
 _atom_site_label
 _atom_site_symmetry_multiplicity
 _atom_site_fract_x
 _atom_site_fract_y
 _atom_site_fract_z
 _atom_site_occupancy
  Hf  Hf0  1  0.464129  0.675369  0.711241  1
  Hf  Hf1  1  0.535891  0.247102  0.211240  1
  Hf  Hf2  1  0.748613  0.843283  0.594642  1
  Hf  Hf3  1  0.251377  0.846033  0.094651  1
  Hf  Hf4  1  0.048904  0.249690  0.700753  1
  Hf  Hf5  1  0.951056  0.651842  0.200748  1
  Mn  Mn6  1  0.500000  0.503642  0.003659  1
  Mn  Mn7  1  0.000045  0.503588  0.503620  1
  Tc  Tc8  1  0.099515  0.253008  0.105345  1
  Tc  Tc9  1  0.900510  0.005844  0.153536  1
  Tc  Tc10  1  0.352255  0.005740  0.605263  1
  Tc  Tc11  1  0.647732  0.253036  0.653481  1
  As  As12  1  0.266846  0.284600  0.517640  1
  As  As13  1  0.733160  0.250756  0.017740  1
  As  As14  1  0.334087  0.582957  0.244172  1
  As  As15  1  0.665871  0.910072  0.248857  1
  As  As16  1  0.161239  0.910089  0.744169  1
  As  As17  1  0.838772  0.582948  0.748840  1
