# generated using pymatgen
data_SrY2Hg(Ir2O7)2
_symmetry_space_group_name_H-M   'P 1'
_cell_length_a   7.23868058
_cell_length_b   7.39694201
_cell_length_c   7.39825454
_cell_angle_alpha   60.00586812
_cell_angle_beta   59.16953771
_cell_angle_gamma   59.27408632
_symmetry_Int_Tables_number   1
_chemical_formula_structural   SrY2Hg(Ir2O7)2
_chemical_formula_sum   'Sr1 Y2 Hg1 Ir4 O14'
_cell_volume   276.77970007
_cell_formula_units_Z   1
loop_
 _symmetry_equiv_pos_site_id
 _symmetry_equiv_pos_as_xyz
  1  'x, y, z'
loop_
 _atom_site_type_symbol
 _atom_site_label
 _atom_site_symmetry_multiplicity
 _atom_site_fract_x
 _atom_site_fract_y
 _atom_site_fract_z
 _atom_site_occupancy
  Sr  Sr0  1  0.125000  0.125000  0.625000  1
  Y  Y1  1  0.125000  0.625000  0.125000  1
  Y  Y2  1  0.125000  0.125000  0.125000  1
  Hg  Hg3  1  0.625000  0.125000  0.125000  1
  Ir  Ir4  1  0.125000  0.625000  0.625000  1
  Ir  Ir5  1  0.625000  0.125000  0.625000  1
  Ir  Ir6  1  0.625000  0.625000  0.125000  1
  Ir  Ir7  1  0.625000  0.625000  0.625000  1
  O  O8  1  0.711522  0.686852  0.299218  1
  O  O9  1  0.290333  0.296259  0.718432  1
  O  O10  1  0.692735  0.305286  0.696694  1
  O  O11  1  0.290275  0.708366  0.292994  1
  O  O12  1  0.290333  0.694976  0.718432  1
  O  O13  1  0.711522  0.302408  0.299218  1
  O  O14  1  0.538478  0.563148  0.950782  1
  O  O15  1  0.959667  0.953741  0.531568  1
  O  O16  1  0.557265  0.944714  0.553306  1
  O  O17  1  0.959725  0.541634  0.957006  1
  O  O18  1  0.959667  0.555024  0.531568  1
  O  O19  1  0.538478  0.947592  0.950782  1
  O  O20  1  0.262079  0.257473  0.222975  1
  O  O21  1  0.987921  0.992527  0.027025  1
