# generated using pymatgen
data_Tb2Ho2In(CoB3)2
_symmetry_space_group_name_H-M   'P 1'
_cell_length_a   5.35987701
_cell_length_b   5.35987633
_cell_length_c   8.18109859
_cell_angle_alpha   70.87823189
_cell_angle_beta   70.87823634
_cell_angle_gamma   60.00000444
_symmetry_Int_Tables_number   1
_chemical_formula_structural   Tb2Ho2In(CoB3)2
_chemical_formula_sum   'Tb2 Ho2 In1 Co2 B6'
_cell_volume   188.41833421
_cell_formula_units_Z   1
loop_
 _symmetry_equiv_pos_site_id
 _symmetry_equiv_pos_as_xyz
  1  'x, y, z'
loop_
 _atom_site_type_symbol
 _atom_site_label
 _atom_site_symmetry_multiplicity
 _atom_site_fract_x
 _atom_site_fract_y
 _atom_site_fract_z
 _atom_site_occupancy
  Tb  Tb0  1  0.252342  0.252342  0.242976  1
  Tb  Tb1  1  0.747658  0.747658  0.757024  1
  Ho  Ho2  1  0.415348  0.415348  0.753956  1
  Ho  Ho3  1  0.584652  0.584652  0.246044  1
  In  In4  1  0.000000  0.000000  0.000000  1
  Co  Co5  1  0.117293  0.117293  0.648120  1
  Co  Co6  1  0.882707  0.882707  0.351880  1
  B  B7  1  0.168923  0.831077  0.500000  1
  B  B8  1  0.831077  0.500000  0.500000  1
  B  B9  1  0.500000  0.168923  0.500000  1
  B  B10  1  0.168923  0.500000  0.500000  1
  B  B11  1  0.500000  0.831077  0.500000  1
  B  B12  1  0.831077  0.168923  0.500000  1
