# generated using pymatgen
data_ErZr(Ga2Ni)2
_symmetry_space_group_name_H-M   'P 1'
_cell_length_a   5.30629559
_cell_length_b   5.30629549
_cell_length_c   6.46002700
_cell_angle_alpha   90.00000000
_cell_angle_beta   90.00000000
_cell_angle_gamma   134.21495799
_symmetry_Int_Tables_number   1
_chemical_formula_structural   ErZr(Ga2Ni)2
_chemical_formula_sum   'Er1 Zr1 Ga4 Ni2'
_cell_volume   130.36827630
_cell_formula_units_Z   1
loop_
 _symmetry_equiv_pos_site_id
 _symmetry_equiv_pos_as_xyz
  1  'x, y, z'
loop_
 _atom_site_type_symbol
 _atom_site_label
 _atom_site_symmetry_multiplicity
 _atom_site_fract_x
 _atom_site_fract_y
 _atom_site_fract_z
 _atom_site_occupancy
  Er  Er0  1  0.425005  0.574995  0.750000  1
  Zr  Zr1  1  0.575809  0.424191  0.250000  1
  Ga  Ga2  1  0.862618  0.137382  0.054359  1
  Ga  Ga3  1  0.135373  0.864627  0.954160  1
  Ga  Ga4  1  0.135373  0.864627  0.545840  1
  Ga  Ga5  1  0.862618  0.137382  0.445641  1
  Ni  Ni6  1  0.294361  0.705639  0.250000  1
  Ni  Ni7  1  0.708842  0.291158  0.750000  1
