# generated using pymatgen
data_Li3DyHo2Si2Ge
_symmetry_space_group_name_H-M   'P 1'
_cell_length_a   6.99153755
_cell_length_b   6.98672669
_cell_length_c   4.23649100
_cell_angle_alpha   90.00000000
_cell_angle_beta   90.00000000
_cell_angle_gamma   119.97723917
_symmetry_Int_Tables_number   1
_chemical_formula_structural   Li3DyHo2Si2Ge
_chemical_formula_sum   'Li3 Dy1 Ho2 Si2 Ge1'
_cell_volume   179.25980931
_cell_formula_units_Z   1
loop_
 _symmetry_equiv_pos_site_id
 _symmetry_equiv_pos_as_xyz
  1  'x, y, z'
loop_
 _atom_site_type_symbol
 _atom_site_label
 _atom_site_symmetry_multiplicity
 _atom_site_fract_x
 _atom_site_fract_y
 _atom_site_fract_z
 _atom_site_occupancy
  Li  Li0  1  0.234241  0.000036  0.500000  1
  Li  Li1  1  0.765759  0.765796  0.500000  1
  Li  Li2  1  0.000000  0.234180  0.500000  1
  Dy  Dy3  1  0.000000  0.574931  0.000000  1
  Ho  Ho4  1  0.574975  0.999984  0.000000  1
  Ho  Ho5  1  0.425025  0.425009  0.000000  1
  Si  Si6  1  0.333598  0.666758  0.500000  1
  Si  Si7  1  0.666402  0.333158  0.500000  1
  Ge  Ge8  1  0.000000  0.000149  0.000000  1
