# generated using pymatgen
data_Rb2(TiSe2)5
_symmetry_space_group_name_H-M   'P 1'
_cell_length_a   6.20735177
_cell_length_b   11.28604840
_cell_length_c   9.40208988
_cell_angle_alpha   53.74457453
_cell_angle_beta   70.87145324
_cell_angle_gamma   89.90837894
_symmetry_Int_Tables_number   1
_chemical_formula_structural   Rb2(TiSe2)5
_chemical_formula_sum   'Rb2 Ti5 Se10'
_cell_volume   485.59299946
_cell_formula_units_Z   1
loop_
 _symmetry_equiv_pos_site_id
 _symmetry_equiv_pos_as_xyz
  1  'x, y, z'
loop_
 _atom_site_type_symbol
 _atom_site_label
 _atom_site_symmetry_multiplicity
 _atom_site_fract_x
 _atom_site_fract_y
 _atom_site_fract_z
 _atom_site_occupancy
  Rb  Rb0  1  0.782377  0.065822  0.434652  1
  Rb  Rb1  1  0.017623  0.534178  0.965348  1
  Ti  Ti2  1  0.400000  0.800000  0.200000  1
  Ti  Ti3  1  0.803421  0.599646  0.397757  1
  Ti  Ti4  1  0.198582  0.400436  0.599187  1
  Ti  Ti5  1  0.601418  0.199564  0.800813  1
  Ti  Ti6  1  0.996579  0.000354  0.002243  1
  Se  Se7  1  0.995944  0.832086  0.343436  1
  Se  Se8  1  0.591958  0.035747  0.142963  1
  Se  Se9  1  0.195319  0.236329  0.943753  1
  Se  Se10  1  0.794408  0.435933  0.740009  1
  Se  Se11  1  0.401143  0.635943  0.538587  1
  Se  Se12  1  0.398857  0.964057  0.861413  1
  Se  Se13  1  0.005592  0.164067  0.659991  1
  Se  Se14  1  0.604681  0.363671  0.456247  1
  Se  Se15  1  0.208042  0.564253  0.257037  1
  Se  Se16  1  0.804056  0.767914  0.056564  1
