# generated using pymatgen
data_Eu3Cd3GaGe2
_symmetry_space_group_name_H-M   'P 1'
_cell_length_a   7.53288100
_cell_length_b   7.53288098
_cell_length_c   4.52722700
_cell_angle_alpha   90.00000000
_cell_angle_beta   90.00000000
_cell_angle_gamma   120.00000447
_symmetry_Int_Tables_number   1
_chemical_formula_structural   Eu3Cd3GaGe2
_chemical_formula_sum   'Eu3 Cd3 Ga1 Ge2'
_cell_volume   222.47698770
_cell_formula_units_Z   1
loop_
 _symmetry_equiv_pos_site_id
 _symmetry_equiv_pos_as_xyz
  1  'x, y, z'
loop_
 _atom_site_type_symbol
 _atom_site_label
 _atom_site_symmetry_multiplicity
 _atom_site_fract_x
 _atom_site_fract_y
 _atom_site_fract_z
 _atom_site_occupancy
  Eu  Eu0  1  0.421325  0.000000  0.500000  1
  Eu  Eu1  1  0.000000  0.421325  0.500000  1
  Eu  Eu2  1  0.578675  0.578675  0.500000  1
  Cd  Cd3  1  0.751554  0.000000  0.000000  1
  Cd  Cd4  1  0.248446  0.248446  0.000000  1
  Cd  Cd5  1  0.000000  0.751555  0.000000  1
  Ga  Ga6  1  0.000000  0.000000  0.500000  1
  Ge  Ge7  1  0.666667  0.333334  0.000000  1
  Ge  Ge8  1  0.333333  0.666666  0.000000  1
