# generated using pymatgen
data_Dy2TmCo8ReP6
_symmetry_space_group_name_H-M   'P 1'
_cell_length_a   3.71916000
_cell_length_b   10.50905900
_cell_length_c   12.21960000
_cell_angle_alpha   90.00000000
_cell_angle_beta   90.00000000
_cell_angle_gamma   90.00000000
_symmetry_Int_Tables_number   1
_chemical_formula_structural   Dy2TmCo8ReP6
_chemical_formula_sum   'Dy4 Tm2 Co16 Re2 P12'
_cell_volume   477.60150031
_cell_formula_units_Z   2
loop_
 _symmetry_equiv_pos_site_id
 _symmetry_equiv_pos_as_xyz
  1  'x, y, z'
loop_
 _atom_site_type_symbol
 _atom_site_label
 _atom_site_symmetry_multiplicity
 _atom_site_fract_x
 _atom_site_fract_y
 _atom_site_fract_z
 _atom_site_occupancy
  Dy  Dy0  1  0.000000  0.500000  0.524484  1
  Dy  Dy1  1  0.500000  0.000000  0.474946  1
  Dy  Dy2  1  0.000000  0.681936  0.794251  1
  Dy  Dy3  1  0.000000  0.318064  0.794251  1
  Tm  Tm4  1  0.500000  0.818669  0.205835  1
  Tm  Tm5  1  0.500000  0.181331  0.205835  1
  Co  Co6  1  0.500000  0.500000  0.702431  1
  Co  Co7  1  0.000000  0.000000  0.296909  1
  Co  Co8  1  0.000000  0.500000  0.988795  1
  Co  Co9  1  0.500000  0.000000  0.012995  1
  Co  Co10  1  0.500000  0.332048  0.990582  1
  Co  Co11  1  0.500000  0.667952  0.990582  1
  Co  Co12  1  0.000000  0.167118  0.011493  1
  Co  Co13  1  0.000000  0.832882  0.011493  1
  Co  Co14  1  0.500000  0.296509  0.430211  1
  Co  Co15  1  0.500000  0.703491  0.430211  1
  Co  Co16  1  0.000000  0.203273  0.568084  1
  Co  Co17  1  0.000000  0.796727  0.568084  1
  Co  Co18  1  0.500000  0.879244  0.708224  1
  Co  Co19  1  0.500000  0.120756  0.708224  1
  Co  Co20  1  0.000000  0.621513  0.290988  1
  Co  Co21  1  0.000000  0.378487  0.290988  1
  Re  Re22  1  0.500000  0.500000  0.156747  1
  Re  Re23  1  0.000000  0.000000  0.843633  1
  P  P24  1  0.500000  0.500000  0.880832  1
  P  P25  1  0.000000  0.000000  0.120869  1
  P  P26  1  0.500000  0.500000  0.349199  1
  P  P27  1  0.000000  0.000000  0.650497  1
  P  P28  1  0.500000  0.311460  0.615501  1
  P  P29  1  0.500000  0.688540  0.615501  1
  P  P30  1  0.000000  0.187940  0.382568  1
  P  P31  1  0.000000  0.812060  0.382568  1
  P  P32  1  0.500000  0.846125  0.892703  1
  P  P33  1  0.500000  0.153875  0.892703  1
  P  P34  1  0.000000  0.655113  0.108391  1
  P  P35  1  0.000000  0.344887  0.108391  1
