# generated using pymatgen
data_La8InIr6
_symmetry_space_group_name_H-M   'P 1'
_cell_length_a   7.77016916
_cell_length_b   7.77016894
_cell_length_c   7.77016964
_cell_angle_alpha   69.79748870
_cell_angle_beta   69.79748825
_cell_angle_gamma   69.79747759
_symmetry_Int_Tables_number   1
_chemical_formula_structural   La8InIr6
_chemical_formula_sum   'La8 In1 Ir6'
_cell_volume   399.33575323
_cell_formula_units_Z   1
loop_
 _symmetry_equiv_pos_site_id
 _symmetry_equiv_pos_as_xyz
  1  'x, y, z'
loop_
 _atom_site_type_symbol
 _atom_site_label
 _atom_site_symmetry_multiplicity
 _atom_site_fract_x
 _atom_site_fract_y
 _atom_site_fract_z
 _atom_site_occupancy
  La  La0  1  0.809192  0.809192  0.809192  1
  La  La1  1  0.190808  0.190808  0.190808  1
  La  La2  1  0.141697  0.384231  0.686136  1
  La  La3  1  0.686136  0.141697  0.384231  1
  La  La4  1  0.384231  0.686136  0.141697  1
  La  La5  1  0.858303  0.615769  0.313864  1
  La  La6  1  0.313864  0.858303  0.615769  1
  La  La7  1  0.615769  0.313864  0.858303  1
  In  In8  1  0.000000  0.000000  0.000000  1
  Ir  Ir9  1  0.951655  0.180430  0.580127  1
  Ir  Ir10  1  0.580127  0.951655  0.180430  1
  Ir  Ir11  1  0.180430  0.580127  0.951655  1
  Ir  Ir12  1  0.048345  0.819570  0.419873  1
  Ir  Ir13  1  0.419873  0.048345  0.819570  1
  Ir  Ir14  1  0.819570  0.419873  0.048345  1
