# generated using pymatgen
data_Hf9NbCoRe3
_symmetry_space_group_name_H-M   'P 1'
_cell_length_a   8.65135400
_cell_length_b   8.65135234
_cell_length_c   8.45197300
_cell_angle_alpha   90.00000000
_cell_angle_beta   90.00000000
_cell_angle_gamma   119.99999871
_symmetry_Int_Tables_number   1
_chemical_formula_structural   Hf9NbCoRe3
_chemical_formula_sum   'Hf18 Nb2 Co2 Re6'
_cell_volume   547.84388829
_cell_formula_units_Z   2
loop_
 _symmetry_equiv_pos_site_id
 _symmetry_equiv_pos_as_xyz
  1  'x, y, z'
loop_
 _atom_site_type_symbol
 _atom_site_label
 _atom_site_symmetry_multiplicity
 _atom_site_fract_x
 _atom_site_fract_y
 _atom_site_fract_z
 _atom_site_occupancy
  Hf  Hf0  1  0.201467  0.798533  0.440427  1
  Hf  Hf1  1  0.201467  0.402935  0.440427  1
  Hf  Hf2  1  0.597065  0.798533  0.440427  1
  Hf  Hf3  1  0.798533  0.201467  0.559573  1
  Hf  Hf4  1  0.798533  0.597065  0.559573  1
  Hf  Hf5  1  0.402935  0.201467  0.559573  1
  Hf  Hf6  1  0.798533  0.201467  0.940427  1
  Hf  Hf7  1  0.798533  0.597065  0.940427  1
  Hf  Hf8  1  0.402935  0.201467  0.940427  1
  Hf  Hf9  1  0.201467  0.798533  0.059573  1
  Hf  Hf10  1  0.201467  0.402935  0.059573  1
  Hf  Hf11  1  0.597065  0.798533  0.059573  1
  Hf  Hf12  1  0.541952  0.458048  0.250000  1
  Hf  Hf13  1  0.541952  0.083905  0.250000  1
  Hf  Hf14  1  0.916095  0.458048  0.250000  1
  Hf  Hf15  1  0.458048  0.541952  0.750000  1
  Hf  Hf16  1  0.458048  0.916095  0.750000  1
  Hf  Hf17  1  0.083905  0.541952  0.750000  1
  Nb  Nb18  1  0.000000  0.000000  0.500000  1
  Nb  Nb19  1  0.000000  0.000000  0.000000  1
  Co  Co20  1  0.333333  0.666667  0.250000  1
  Co  Co21  1  0.666667  0.333333  0.750000  1
  Re  Re22  1  0.885698  0.114302  0.250000  1
  Re  Re23  1  0.885698  0.771396  0.250000  1
  Re  Re24  1  0.228604  0.114302  0.250000  1
  Re  Re25  1  0.114302  0.885698  0.750000  1
  Re  Re26  1  0.114302  0.228604  0.750000  1
  Re  Re27  1  0.771396  0.885698  0.750000  1
