# generated using pymatgen
data_Hf(TiBr4)3
_symmetry_space_group_name_H-M   'P 1'
_cell_length_a   6.10161045
_cell_length_b   12.78563900
_cell_length_c   7.32301848
_cell_angle_alpha   90.00000000
_cell_angle_beta   90.14672516
_cell_angle_gamma   90.00000000
_symmetry_Int_Tables_number   1
_chemical_formula_structural   Hf(TiBr4)3
_chemical_formula_sum   'Hf1 Ti3 Br12'
_cell_volume   571.28868413
_cell_formula_units_Z   1
loop_
 _symmetry_equiv_pos_site_id
 _symmetry_equiv_pos_as_xyz
  1  'x, y, z'
loop_
 _atom_site_type_symbol
 _atom_site_label
 _atom_site_symmetry_multiplicity
 _atom_site_fract_x
 _atom_site_fract_y
 _atom_site_fract_z
 _atom_site_occupancy
  Hf  Hf0  1  0.250569  0.000000  0.247673  1
  Ti  Ti1  1  0.749675  0.000000  0.247473  1
  Ti  Ti2  1  0.229850  0.500000  0.752007  1
  Ti  Ti3  1  0.769601  0.500000  0.752142  1
  Br  Br4  1  0.000459  0.500000  0.041883  1
  Br  Br5  1  0.996492  0.145017  0.102160  1
  Br  Br6  1  0.996492  0.854984  0.102160  1
  Br  Br7  1  0.504385  0.145082  0.393282  1
  Br  Br8  1  0.504385  0.854918  0.393282  1
  Br  Br9  1  0.499149  0.500000  0.473607  1
  Br  Br10  1  0.995210  0.000000  0.539383  1
  Br  Br11  1  0.999434  0.355617  0.607808  1
  Br  Br12  1  0.999434  0.644384  0.607808  1
  Br  Br13  1  0.499973  0.361629  0.891691  1
  Br  Br14  1  0.499973  0.638372  0.891691  1
  Br  Br15  1  0.504928  0.000000  0.955962  1
