# generated using pymatgen
data_Sc4Al18NiRh5
_symmetry_space_group_name_H-M   'P 1'
_cell_length_a   7.44895314
_cell_length_b   7.44895389
_cell_length_c   9.21589301
_cell_angle_alpha   90.14738723
_cell_angle_beta   90.14738665
_cell_angle_gamma   120.08787963
_symmetry_Int_Tables_number   1
_chemical_formula_structural   Sc4Al18NiRh5
_chemical_formula_sum   'Sc4 Al18 Ni1 Rh5'
_cell_volume   442.45342120
_cell_formula_units_Z   1
loop_
 _symmetry_equiv_pos_site_id
 _symmetry_equiv_pos_as_xyz
  1  'x, y, z'
loop_
 _atom_site_type_symbol
 _atom_site_label
 _atom_site_symmetry_multiplicity
 _atom_site_fract_x
 _atom_site_fract_y
 _atom_site_fract_z
 _atom_site_occupancy
  Sc  Sc0  1  0.995847  0.668079  0.250045  1
  Sc  Sc1  1  0.004153  0.331921  0.749955  1
  Sc  Sc2  1  0.668079  0.995847  0.250045  1
  Sc  Sc3  1  0.331921  0.004153  0.749955  1
  Al  Al4  1  0.116870  0.116870  0.246161  1
  Al  Al5  1  0.883130  0.883130  0.753839  1
  Al  Al6  1  0.996454  0.331582  0.076941  1
  Al  Al7  1  0.003546  0.668418  0.923059  1
  Al  Al8  1  0.002809  0.666533  0.578093  1
  Al  Al9  1  0.333467  0.997191  0.421907  1
  Al  Al10  1  0.997191  0.333467  0.421907  1
  Al  Al11  1  0.666533  0.002809  0.578093  1
  Al  Al12  1  0.668418  0.003546  0.923059  1
  Al  Al13  1  0.331582  0.996454  0.076941  1
  Al  Al14  1  0.330988  0.330988  0.558320  1
  Al  Al15  1  0.669012  0.669012  0.441680  1
  Al  Al16  1  0.672811  0.672811  0.056413  1
  Al  Al17  1  0.327189  0.327189  0.943587  1
  Al  Al18  1  0.339273  0.552221  0.249529  1
  Al  Al19  1  0.660727  0.447779  0.750471  1
  Al  Al20  1  0.552221  0.339273  0.249529  1
  Al  Al21  1  0.447779  0.660727  0.750471  1
  Ni  Ni22  1  0.000000  0.000000  0.000000  1
  Rh  Rh23  1  0.672294  0.327706  0.000000  1
  Rh  Rh24  1  0.327706  0.672294  0.000000  1
  Rh  Rh25  1  0.327466  0.672534  0.500000  1
  Rh  Rh26  1  0.672534  0.327466  0.500000  1
  Rh  Rh27  1  0.000000  0.000000  0.500000  1
