# generated using pymatgen
data_Y4Sc8In2Tc3
_symmetry_space_group_name_H-M   'P 1'
_cell_length_a   8.16320345
_cell_length_b   8.16320438
_cell_length_c   8.16320500
_cell_angle_alpha   108.86668499
_cell_angle_beta   108.86669465
_cell_angle_gamma   110.68716127
_symmetry_Int_Tables_number   1
_chemical_formula_structural   Y4Sc8In2Tc3
_chemical_formula_sum   'Y4 Sc8 In2 Tc3'
_cell_volume   418.61333446
_cell_formula_units_Z   1
loop_
 _symmetry_equiv_pos_site_id
 _symmetry_equiv_pos_as_xyz
  1  'x, y, z'
loop_
 _atom_site_type_symbol
 _atom_site_label
 _atom_site_symmetry_multiplicity
 _atom_site_fract_x
 _atom_site_fract_y
 _atom_site_fract_z
 _atom_site_occupancy
  Y  Y0  1  0.300421  0.300418  0.601025  1
  Y  Y1  1  0.699579  0.699582  0.398975  1
  Y  Y2  1  0.699393  0.300418  0.999997  1
  Y  Y3  1  0.300607  0.699582  0.000003  1
  Sc  Sc4  1  0.187477  0.422920  0.235444  1
  Sc  Sc5  1  0.812523  0.577080  0.764556  1
  Sc  Sc6  1  0.187510  0.951959  0.764449  1
  Sc  Sc7  1  0.951966  0.187545  0.764422  1
  Sc  Sc8  1  0.812490  0.048041  0.235551  1
  Sc  Sc9  1  0.048034  0.812455  0.235578  1
  Sc  Sc10  1  0.423123  0.187545  0.235578  1
  Sc  Sc11  1  0.576877  0.812455  0.764422  1
  In  In12  1  0.000000  0.500000  0.500000  1
  In  In13  1  0.500000  0.000000  0.500000  1
  Tc  Tc14  1  0.361740  0.361707  0.999966  1
  Tc  Tc15  1  0.638260  0.638293  0.000034  1
  Tc  Tc16  1  0.000000  0.000000  0.000000  1
