# generated using pymatgen
data_NaYSnBr6
_symmetry_space_group_name_H-M   'P 1'
_cell_length_a   7.97914889
_cell_length_b   7.97915539
_cell_length_c   7.97905337
_cell_angle_alpha   55.86557766
_cell_angle_beta   55.86574505
_cell_angle_gamma   55.86502575
_symmetry_Int_Tables_number   1
_chemical_formula_structural   NaYSnBr6
_chemical_formula_sum   'Na1 Y1 Sn1 Br6'
_cell_volume   324.78322571
_cell_formula_units_Z   1
loop_
 _symmetry_equiv_pos_site_id
 _symmetry_equiv_pos_as_xyz
  1  'x, y, z'
loop_
 _atom_site_type_symbol
 _atom_site_label
 _atom_site_symmetry_multiplicity
 _atom_site_fract_x
 _atom_site_fract_y
 _atom_site_fract_z
 _atom_site_occupancy
  Na  Na0  1  0.669779  0.669781  0.669784  1
  Y  Y1  1  0.999729  0.999702  0.999712  1
  Sn  Sn2  1  0.330949  0.330954  0.330951  1
  Br  Br3  1  0.234380  0.610960  0.917104  1
  Br  Br4  1  0.610948  0.917106  0.234382  1
  Br  Br5  1  0.917104  0.234388  0.610941  1
  Br  Br6  1  0.761621  0.386679  0.088822  1
  Br  Br7  1  0.386675  0.088812  0.761625  1
  Br  Br8  1  0.088816  0.761618  0.386678  1
