# generated using pymatgen
data_Yb2Y2Al13Si5Ir6
_symmetry_space_group_name_H-M   'P 1'
_cell_length_a   7.49358905
_cell_length_b   7.46385412
_cell_length_c   9.39269337
_cell_angle_alpha   89.98087288
_cell_angle_beta   90.04651419
_cell_angle_gamma   119.91089730
_symmetry_Int_Tables_number   1
_chemical_formula_structural   Yb2Y2Al13Si5Ir6
_chemical_formula_sum   'Yb2 Y2 Al13 Si5 Ir6'
_cell_volume   455.36839210
_cell_formula_units_Z   1
loop_
 _symmetry_equiv_pos_site_id
 _symmetry_equiv_pos_as_xyz
  1  'x, y, z'
loop_
 _atom_site_type_symbol
 _atom_site_label
 _atom_site_symmetry_multiplicity
 _atom_site_fract_x
 _atom_site_fract_y
 _atom_site_fract_z
 _atom_site_occupancy
  Yb  Yb0  1  0.674968  0.007439  0.252336  1
  Yb  Yb1  1  0.319865  0.991470  0.745425  1
  Y  Y2  1  0.000005  0.663065  0.252909  1
  Y  Y3  1  0.005354  0.340381  0.749337  1
  Al  Al4  1  0.129227  0.127566  0.250291  1
  Al  Al5  1  0.871408  0.872433  0.750768  1
  Al  Al6  1  0.664587  0.996629  0.577858  1
  Al  Al7  1  0.661481  0.997429  0.924166  1
  Al  Al8  1  0.339417  0.003071  0.071280  1
  Al  Al9  1  0.337088  0.334803  0.558723  1
  Al  Al10  1  0.664095  0.669146  0.439796  1
  Al  Al11  1  0.663748  0.669010  0.059013  1
  Al  Al12  1  0.336804  0.331769  0.941088  1
  Al  Al13  1  0.337652  0.546527  0.250213  1
  Al  Al14  1  0.660521  0.449980  0.750649  1
  Al  Al15  1  0.546558  0.344154  0.250028  1
  Al  Al16  1  0.453246  0.657601  0.749468  1
  Si  Si17  1  0.000808  0.326220  0.068175  1
  Si  Si18  1  0.998286  0.672268  0.932694  1
  Si  Si19  1  0.991531  0.666457  0.571812  1
  Si  Si20  1  0.340322  0.006268  0.423269  1
  Si  Si21  1  0.002304  0.326965  0.429708  1
  Ir  Ir22  1  0.688911  0.338192  0.003136  1
  Ir  Ir23  1  0.310692  0.661130  0.999067  1
  Ir  Ir24  1  0.310974  0.670606  0.499762  1
  Ir  Ir25  1  0.682269  0.331576  0.497915  1
  Ir  Ir26  1  0.000856  0.999593  0.001142  1
  Ir  Ir27  1  0.007027  0.998255  0.499975  1
