# generated using pymatgen
data_Eu5Cu2Ag
_symmetry_space_group_name_H-M   'P 1'
_cell_length_a   9.38706575
_cell_length_b   9.38706604
_cell_length_c   9.38706670
_cell_angle_alpha   129.13365678
_cell_angle_beta   129.13365509
_cell_angle_gamma   74.79560868
_symmetry_Int_Tables_number   1
_chemical_formula_structural   Eu5Cu2Ag
_chemical_formula_sum   'Eu10 Cu4 Ag2'
_cell_volume   484.78714074
_cell_formula_units_Z   2
loop_
 _symmetry_equiv_pos_site_id
 _symmetry_equiv_pos_as_xyz
  1  'x, y, z'
loop_
 _atom_site_type_symbol
 _atom_site_label
 _atom_site_symmetry_multiplicity
 _atom_site_fract_x
 _atom_site_fract_y
 _atom_site_fract_z
 _atom_site_occupancy
  Eu  Eu0  1  0.500000  0.500000  0.000000  1
  Eu  Eu1  1  0.000000  0.000000  0.000000  1
  Eu  Eu2  1  0.527056  0.027056  0.835027  1
  Eu  Eu3  1  0.192029  0.692029  0.164973  1
  Eu  Eu4  1  0.027056  0.192029  0.500000  1
  Eu  Eu5  1  0.692029  0.527056  0.500000  1
  Eu  Eu6  1  0.472944  0.972944  0.164973  1
  Eu  Eu7  1  0.807971  0.307971  0.835027  1
  Eu  Eu8  1  0.972944  0.807971  0.500000  1
  Eu  Eu9  1  0.307971  0.472944  0.500000  1
  Cu  Cu10  1  0.115086  0.615086  0.730172  1
  Cu  Cu11  1  0.884914  0.384914  0.269828  1
  Cu  Cu12  1  0.615086  0.884914  0.500000  1
  Cu  Cu13  1  0.384914  0.115086  0.500000  1
  Ag  Ag14  1  0.250000  0.250000  0.000000  1
  Ag  Ag15  1  0.750000  0.750000  0.000000  1
