# generated using pymatgen
data_DyEr4Np5O20
_symmetry_space_group_name_H-M   'P 1'
_cell_length_a   6.42155496
_cell_length_b   7.63228665
_cell_length_c   8.48556744
_cell_angle_alpha   103.23174456
_cell_angle_beta   96.63146214
_cell_angle_gamma   107.19992923
_symmetry_Int_Tables_number   1
_chemical_formula_structural   DyEr4Np5O20
_chemical_formula_sum   'Dy1 Er4 Np5 O20'
_cell_volume   379.16473575
_cell_formula_units_Z   1
loop_
 _symmetry_equiv_pos_site_id
 _symmetry_equiv_pos_as_xyz
  1  'x, y, z'
loop_
 _atom_site_type_symbol
 _atom_site_label
 _atom_site_symmetry_multiplicity
 _atom_site_fract_x
 _atom_site_fract_y
 _atom_site_fract_z
 _atom_site_occupancy
  Dy  Dy0  1  0.003006  0.002449  0.002193  1
  Er  Er1  1  0.798487  0.599677  0.599373  1
  Er  Er2  1  0.998262  0.498421  0.001066  1
  Er  Er3  1  0.604661  0.200706  0.200731  1
  Er  Er4  1  0.797851  0.099126  0.598808  1
  Np  Np5  1  0.601346  0.701186  0.199483  1
  Np  Np6  1  0.193281  0.395711  0.397032  1
  Np  Np7  1  0.399338  0.299143  0.802092  1
  Np  Np8  1  0.199412  0.900362  0.397038  1
  Np  Np9  1  0.399764  0.801897  0.801043  1
  O  O10  1  0.864366  0.330563  0.453509  1
  O  O11  1  0.642241  0.916878  0.055177  1
  O  O12  1  0.950202  0.774336  0.153404  1
  O  O13  1  0.852691  0.822632  0.445873  1
  O  O14  1  0.426758  0.518600  0.651214  1
  O  O15  1  0.643148  0.432484  0.058571  1
  O  O16  1  0.728183  0.370688  0.754746  1
  O  O17  1  0.249443  0.120969  0.255996  1
  O  O18  1  0.434988  0.021584  0.644908  1
  O  O19  1  0.963861  0.281278  0.153147  1
  O  O20  1  0.546673  0.967956  0.351519  1
  O  O21  1  0.069436  0.725255  0.842960  1
  O  O22  1  0.253517  0.631747  0.250432  1
  O  O23  1  0.728458  0.871078  0.752240  1
  O  O24  1  0.364116  0.578775  0.954425  1
  O  O25  1  0.068954  0.229779  0.842509  1
  O  O26  1  0.534261  0.478080  0.353601  1
  O  O27  1  0.156218  0.169580  0.542197  1
  O  O28  1  0.367835  0.078313  0.943323  1
  O  O29  1  0.159242  0.680746  0.541389  1
