# generated using pymatgen
data_TbY3Ti4Al3CoO20
_symmetry_space_group_name_H-M   'P 1'
_cell_length_a   5.71059900
_cell_length_b   7.44240100
_cell_length_c   8.48761200
_cell_angle_alpha   89.99943031
_cell_angle_beta   90.00000000
_cell_angle_gamma   90.00000000
_symmetry_Int_Tables_number   1
_chemical_formula_structural   TbY3Ti4Al3CoO20
_chemical_formula_sum   'Tb1 Y3 Ti4 Al3 Co1 O20'
_cell_volume   360.72832849
_cell_formula_units_Z   1
loop_
 _symmetry_equiv_pos_site_id
 _symmetry_equiv_pos_as_xyz
  1  'x, y, z'
loop_
 _atom_site_type_symbol
 _atom_site_label
 _atom_site_symmetry_multiplicity
 _atom_site_fract_x
 _atom_site_fract_y
 _atom_site_fract_z
 _atom_site_occupancy
  Tb  Tb0  1  0.002262  0.359648  0.329269  1
  Y  Y1  1  0.002253  0.641336  0.670803  1
  Y  Y2  1  0.000852  0.857431  0.170245  1
  Y  Y3  1  0.000834  0.142653  0.829720  1
  Ti  Ti4  1  0.499816  0.123159  0.146109  1
  Ti  Ti5  1  0.499795  0.876618  0.853878  1
  Ti  Ti6  1  0.501138  0.623705  0.354153  1
  Ti  Ti7  1  0.501059  0.376434  0.646005  1
  Al  Al8  1  0.757387  0.999950  0.500027  1
  Al  Al9  1  0.754444  0.499973  0.999879  1
  Al  Al10  1  0.242801  0.999940  0.500028  1
  Co  Co11  1  0.245711  0.499970  0.999965  1
  O  O12  1  0.996515  0.340476  0.057326  1
  O  O13  1  0.996609  0.659386  0.942147  1
  O  O14  1  0.000210  0.840062  0.441889  1
  O  O15  1  0.000223  0.159610  0.558228  1
  O  O16  1  0.503289  0.348752  0.071751  1
  O  O17  1  0.503282  0.651157  0.928435  1
  O  O18  1  0.500052  0.849935  0.428608  1
  O  O19  1  0.500035  0.150079  0.571473  1
  O  O20  1  0.250758  0.107379  0.293956  1
  O  O21  1  0.250833  0.892255  0.705966  1
  O  O22  1  0.747744  0.607959  0.206178  1
  O  O23  1  0.747617  0.392042  0.793761  1
  O  O24  1  0.749142  0.891822  0.706032  1
  O  O25  1  0.749207  0.107773  0.293892  1
  O  O26  1  0.247181  0.392927  0.792212  1
  O  O27  1  0.247258  0.607186  0.207817  1
  O  O28  1  0.276714  0.999960  0.999942  1
  O  O29  1  0.723143  0.500203  0.500161  1
  O  O30  1  0.723545  0.999955  0.999938  1
  O  O31  1  0.278290  0.500261  0.500208  1
