# generated using pymatgen
data_Er7TmRe2(B12Rh)2
_symmetry_space_group_name_H-M   'P 1'
_cell_length_a   3.65349700
_cell_length_b   9.10031526
_cell_length_c   11.48669205
_cell_angle_alpha   90.42523291
_cell_angle_beta   90.00000000
_cell_angle_gamma   90.00000000
_symmetry_Int_Tables_number   1
_chemical_formula_structural   Er7TmRe2(B12Rh)2
_chemical_formula_sum   'Er7 Tm1 Re2 B24 Rh2'
_cell_volume   381.89872620
_cell_formula_units_Z   1
loop_
 _symmetry_equiv_pos_site_id
 _symmetry_equiv_pos_as_xyz
  1  'x, y, z'
loop_
 _atom_site_type_symbol
 _atom_site_label
 _atom_site_symmetry_multiplicity
 _atom_site_fract_x
 _atom_site_fract_y
 _atom_site_fract_z
 _atom_site_occupancy
  Er  Er0  1  0.500000  0.317984  0.410812  1
  Er  Er1  1  0.500000  0.681930  0.589109  1
  Er  Er2  1  0.500000  0.173823  0.917384  1
  Er  Er3  1  0.500000  0.826172  0.082730  1
  Er  Er4  1  0.500000  0.442454  0.126763  1
  Er  Er5  1  0.500000  0.557500  0.873286  1
  Er  Er6  1  0.500000  0.054674  0.627911  1
  Tm  Tm7  1  0.500000  0.945396  0.371848  1
  Re  Re8  1  0.500000  0.138639  0.179803  1
  Re  Re9  1  0.500000  0.861066  0.820368  1
  B  B10  1  0.000000  0.106837  0.470943  1
  B  B11  1  0.000000  0.892981  0.528568  1
  B  B12  1  0.000000  0.394165  0.970695  1
  B  B13  1  0.000000  0.605835  0.029332  1
  B  B14  1  0.000000  0.131738  0.315259  1
  B  B15  1  0.000000  0.868029  0.684820  1
  B  B16  1  0.000000  0.367359  0.816715  1
  B  B17  1  0.000000  0.632689  0.183323  1
  B  B18  1  0.000000  0.052959  0.067306  1
  B  B19  1  0.000000  0.947010  0.932766  1
  B  B20  1  0.000000  0.445661  0.565563  1
  B  B21  1  0.000000  0.554420  0.434416  1
  B  B22  1  0.000000  0.483385  0.287822  1
  B  B23  1  0.000000  0.516643  0.712189  1
  B  B24  1  0.000000  0.017305  0.786907  1
  B  B25  1  0.000000  0.982534  0.213319  1
  B  B26  1  0.000000  0.248737  0.081116  1
  B  B27  1  0.000000  0.751228  0.918912  1
  B  B28  1  0.000000  0.250781  0.578427  1
  B  B29  1  0.000000  0.749495  0.421481  1
  B  B30  1  0.000000  0.293175  0.235035  1
  B  B31  1  0.000000  0.706724  0.764989  1
  B  B32  1  0.000000  0.208450  0.734932  1
  B  B33  1  0.000000  0.791808  0.265160  1
  Rh  Rh34  1  0.500000  0.362031  0.678561  1
  Rh  Rh35  1  0.500000  0.638382  0.321427  1
