# generated using pymatgen
data_CoHgTeO6
_symmetry_space_group_name_H-M   'P 1'
_cell_length_a   5.08107500
_cell_length_b   5.08107559
_cell_length_c   5.04189300
_cell_angle_alpha   90.00000000
_cell_angle_beta   90.00000000
_cell_angle_gamma   119.99998964
_symmetry_Int_Tables_number   1
_chemical_formula_structural   CoHgTeO6
_chemical_formula_sum   'Co1 Hg1 Te1 O6'
_cell_volume   112.72897631
_cell_formula_units_Z   1
loop_
 _symmetry_equiv_pos_site_id
 _symmetry_equiv_pos_as_xyz
  1  'x, y, z'
loop_
 _atom_site_type_symbol
 _atom_site_label
 _atom_site_symmetry_multiplicity
 _atom_site_fract_x
 _atom_site_fract_y
 _atom_site_fract_z
 _atom_site_occupancy
  Co  Co0  1  0.000000  0.000000  0.500000  1
  Hg  Hg1  1  0.333333  0.666667  0.000000  1
  Te  Te2  1  0.666667  0.333333  0.500000  1
  O  O3  1  0.715617  0.038766  0.714141  1
  O  O4  1  0.961234  0.676851  0.714141  1
  O  O5  1  0.323149  0.284383  0.714141  1
  O  O6  1  0.715617  0.676851  0.285859  1
  O  O7  1  0.323149  0.038766  0.285859  1
  O  O8  1  0.961234  0.284383  0.285859  1
