# generated using pymatgen
data_TmHf(B4Ir3)2
_symmetry_space_group_name_H-M   'P 1'
_cell_length_a   7.65499400
_cell_length_b   7.65499463
_cell_length_c   3.52561700
_cell_angle_alpha   90.00000000
_cell_angle_beta   90.00000000
_cell_angle_gamma   119.99999727
_symmetry_Int_Tables_number   1
_chemical_formula_structural   TmHf(B4Ir3)2
_chemical_formula_sum   'Tm1 Hf1 B8 Ir6'
_cell_volume   178.91861201
_cell_formula_units_Z   1
loop_
 _symmetry_equiv_pos_site_id
 _symmetry_equiv_pos_as_xyz
  1  'x, y, z'
loop_
 _atom_site_type_symbol
 _atom_site_label
 _atom_site_symmetry_multiplicity
 _atom_site_fract_x
 _atom_site_fract_y
 _atom_site_fract_z
 _atom_site_occupancy
  Tm  Tm0  1  0.333333  0.666667  0.250000  1
  Hf  Hf1  1  0.666667  0.333333  0.750000  1
  B  B2  1  0.049716  0.601883  0.750000  1
  B  B3  1  0.552166  0.950284  0.750000  1
  B  B4  1  0.398117  0.447834  0.750000  1
  B  B5  1  0.947523  0.397562  0.250000  1
  B  B6  1  0.450040  0.052477  0.250000  1
  B  B7  1  0.602438  0.549960  0.250000  1
  B  B8  1  0.000000  0.000000  0.999329  1
  B  B9  1  0.000000  0.000000  0.500671  1
  Ir  Ir10  1  0.254883  0.928208  0.750000  1
  Ir  Ir11  1  0.673325  0.745117  0.750000  1
  Ir  Ir12  1  0.071792  0.326675  0.750000  1
  Ir  Ir13  1  0.744771  0.076601  0.250000  1
  Ir  Ir14  1  0.331829  0.255229  0.250000  1
  Ir  Ir15  1  0.923399  0.668171  0.250000  1
