# generated using pymatgen
data_Er5Tm11(Ga3Fe)2
_symmetry_space_group_name_H-M   'P 1'
_cell_length_a   9.84142200
_cell_length_b   9.84142160
_cell_length_c   6.89503000
_cell_angle_alpha   90.00000000
_cell_angle_beta   90.00000000
_cell_angle_gamma   120.00000134
_symmetry_Int_Tables_number   1
_chemical_formula_structural   Er5Tm11(Ga3Fe)2
_chemical_formula_sum   'Er5 Tm11 Ga6 Fe2'
_cell_volume   578.33899743
_cell_formula_units_Z   1
loop_
 _symmetry_equiv_pos_site_id
 _symmetry_equiv_pos_as_xyz
  1  'x, y, z'
loop_
 _atom_site_type_symbol
 _atom_site_label
 _atom_site_symmetry_multiplicity
 _atom_site_fract_x
 _atom_site_fract_y
 _atom_site_fract_z
 _atom_site_occupancy
  Er  Er0  1  0.463607  0.927215  0.292098  1
  Er  Er1  1  0.072785  0.536393  0.292098  1
  Er  Er2  1  0.463607  0.536393  0.292098  1
  Er  Er3  1  0.000000  0.000000  0.767752  1
  Er  Er4  1  0.000000  0.000000  0.267361  1
  Tm  Tm5  1  0.826308  0.652617  0.489331  1
  Tm  Tm6  1  0.347383  0.173692  0.489331  1
  Tm  Tm7  1  0.826308  0.173692  0.489331  1
  Tm  Tm8  1  0.173496  0.346990  0.987453  1
  Tm  Tm9  1  0.653010  0.826504  0.987453  1
  Tm  Tm10  1  0.173496  0.826504  0.987453  1
  Tm  Tm11  1  0.666667  0.333333  0.170547  1
  Tm  Tm12  1  0.333333  0.666667  0.671150  1
  Tm  Tm13  1  0.536977  0.073954  0.793113  1
  Tm  Tm14  1  0.926046  0.463023  0.793113  1
  Tm  Tm15  1  0.536977  0.463023  0.793113  1
  Ga  Ga16  1  0.835841  0.671685  0.042335  1
  Ga  Ga17  1  0.328315  0.164159  0.042335  1
  Ga  Ga18  1  0.835841  0.164159  0.042335  1
  Ga  Ga19  1  0.163945  0.327889  0.542574  1
  Ga  Ga20  1  0.672111  0.836055  0.542574  1
  Ga  Ga21  1  0.163945  0.836055  0.542574  1
  Fe  Fe22  1  0.666667  0.333333  0.554806  1
  Fe  Fe23  1  0.333333  0.666667  0.053748  1
