# generated using pymatgen
data_LaCuAgSn2
_symmetry_space_group_name_H-M   'P 1'
_cell_length_a   4.58402200
_cell_length_b   4.58402200
_cell_length_c   11.09307500
_cell_angle_alpha   90.00000000
_cell_angle_beta   90.00000000
_cell_angle_gamma   90.00000000
_symmetry_Int_Tables_number   1
_chemical_formula_structural   LaCuAgSn2
_chemical_formula_sum   'La2 Cu2 Ag2 Sn4'
_cell_volume   233.10164362
_cell_formula_units_Z   2
loop_
 _symmetry_equiv_pos_site_id
 _symmetry_equiv_pos_as_xyz
  1  'x, y, z'
loop_
 _atom_site_type_symbol
 _atom_site_label
 _atom_site_symmetry_multiplicity
 _atom_site_fract_x
 _atom_site_fract_y
 _atom_site_fract_z
 _atom_site_occupancy
  La  La0  1  0.500000  0.000000  0.745920  1
  La  La1  1  0.000000  0.500000  0.254080  1
  Cu  Cu2  1  0.000000  0.500000  0.624889  1
  Cu  Cu3  1  0.500000  0.000000  0.375111  1
  Ag  Ag4  1  0.000000  0.000000  0.000000  1
  Ag  Ag5  1  0.500000  0.500000  0.000000  1
  Sn  Sn6  1  0.500000  0.500000  0.500000  1
  Sn  Sn7  1  0.000000  0.500000  0.854479  1
  Sn  Sn8  1  0.500000  0.000000  0.145521  1
  Sn  Sn9  1  0.000000  0.000000  0.500000  1
