# generated using pymatgen
data_Ho4Hf3O12
_symmetry_space_group_name_H-M   'P 1'
_cell_length_a   6.31154728
_cell_length_b   6.35237327
_cell_length_c   6.54320382
_cell_angle_alpha   99.87884896
_cell_angle_beta   98.28059274
_cell_angle_gamma   99.73268234
_symmetry_Int_Tables_number   1
_chemical_formula_structural   Ho4Hf3O12
_chemical_formula_sum   'Ho4 Hf3 O12'
_cell_volume   250.65228353
_cell_formula_units_Z   1
loop_
 _symmetry_equiv_pos_site_id
 _symmetry_equiv_pos_as_xyz
  1  'x, y, z'
loop_
 _atom_site_type_symbol
 _atom_site_label
 _atom_site_symmetry_multiplicity
 _atom_site_fract_x
 _atom_site_fract_y
 _atom_site_fract_z
 _atom_site_occupancy
  Ho  Ho0  1  0.386564  0.699367  0.866014  1
  Ho  Ho1  1  0.695722  0.864804  0.389714  1
  Ho  Ho2  1  0.613436  0.300633  0.133986  1
  Ho  Ho3  1  0.304278  0.135196  0.610286  1
  Hf  Hf4  1  0.000000  0.000000  0.000000  1
  Hf  Hf5  1  0.849491  0.397430  0.669694  1
  Hf  Hf6  1  0.150509  0.602570  0.330306  1
  O  O7  1  0.022785  0.678409  0.882455  1
  O  O8  1  0.686232  0.932395  0.058767  1
  O  O9  1  0.919883  0.087015  0.697791  1
  O  O10  1  0.977215  0.321591  0.117545  1
  O  O11  1  0.313768  0.067605  0.941233  1
  O  O12  1  0.080117  0.912985  0.302209  1
  O  O13  1  0.591073  0.189778  0.435946  1
  O  O14  1  0.169796  0.428321  0.572191  1
  O  O15  1  0.412428  0.581576  0.180049  1
  O  O16  1  0.408927  0.810222  0.564054  1
  O  O17  1  0.830204  0.571679  0.427809  1
  O  O18  1  0.587572  0.418424  0.819951  1
