# generated using pymatgen
data_LaNdHo4IrI10
_symmetry_space_group_name_H-M   'P 1'
_cell_length_a   7.82023916
_cell_length_b   9.85722387
_cell_length_c   9.87558601
_cell_angle_alpha   106.82398017
_cell_angle_beta   95.99010281
_cell_angle_gamma   105.19023621
_symmetry_Int_Tables_number   1
_chemical_formula_structural   LaNdHo4IrI10
_chemical_formula_sum   'La1 Nd1 Ho4 Ir1 I10'
_cell_volume   689.71592009
_cell_formula_units_Z   1
loop_
 _symmetry_equiv_pos_site_id
 _symmetry_equiv_pos_as_xyz
  1  'x, y, z'
loop_
 _atom_site_type_symbol
 _atom_site_label
 _atom_site_symmetry_multiplicity
 _atom_site_fract_x
 _atom_site_fract_y
 _atom_site_fract_z
 _atom_site_occupancy
  La  La0  1  0.117931  0.044117  0.760852  1
  Nd  Nd1  1  0.882930  0.956367  0.235395  1
  Ho  Ho2  1  0.971115  0.286388  0.087666  1
  Ho  Ho3  1  0.029067  0.714231  0.914483  1
  Ho  Ho4  1  0.346895  0.125300  0.163459  1
  Ho  Ho5  1  0.653031  0.874064  0.836011  1
  Ir  Ir6  1  0.001111  0.000771  0.997553  1
  I  I7  1  0.347386  0.446630  0.269417  1
  I  I8  1  0.653485  0.553150  0.730866  1
  I  I9  1  0.263472  0.087451  0.454104  1
  I  I10  1  0.729980  0.910243  0.542107  1
  I  I11  1  0.082351  0.381259  0.827411  1
  I  I12  1  0.915949  0.623277  0.176226  1
  I  I13  1  0.449255  0.818711  0.089637  1
  I  I14  1  0.555017  0.183049  0.913436  1
  I  I15  1  0.772853  0.258549  0.341471  1
  I  I16  1  0.228170  0.736444  0.659907  1
