# generated using pymatgen
data_Pr3MgAu5
_symmetry_space_group_name_H-M   'P 1'
_cell_length_a   8.15856324
_cell_length_b   8.15856254
_cell_length_c   8.15856364
_cell_angle_alpha   65.86312073
_cell_angle_beta   65.86312111
_cell_angle_gamma   65.86310730
_symmetry_Int_Tables_number   1
_chemical_formula_structural   Pr3MgAu5
_chemical_formula_sum   'Pr6 Mg2 Au10'
_cell_volume   432.77893975
_cell_formula_units_Z   2
loop_
 _symmetry_equiv_pos_site_id
 _symmetry_equiv_pos_as_xyz
  1  'x, y, z'
loop_
 _atom_site_type_symbol
 _atom_site_label
 _atom_site_symmetry_multiplicity
 _atom_site_fract_x
 _atom_site_fract_y
 _atom_site_fract_z
 _atom_site_occupancy
  Pr  Pr0  1  0.892119  0.193403  0.619185  1
  Pr  Pr1  1  0.619185  0.892119  0.193403  1
  Pr  Pr2  1  0.193403  0.619185  0.892119  1
  Pr  Pr3  1  0.107881  0.806597  0.380815  1
  Pr  Pr4  1  0.380815  0.107881  0.806597  1
  Pr  Pr5  1  0.806597  0.380815  0.107881  1
  Mg  Mg6  1  0.654697  0.654697  0.654697  1
  Mg  Mg7  1  0.345303  0.345303  0.345303  1
  Au  Au8  1  0.000000  0.000000  0.000000  1
  Au  Au9  1  0.500000  0.500000  0.500000  1
  Au  Au10  1  0.800218  0.800218  0.800218  1
  Au  Au11  1  0.199782  0.199782  0.199782  1
  Au  Au12  1  0.941799  0.550741  0.318312  1
  Au  Au13  1  0.318312  0.941799  0.550741  1
  Au  Au14  1  0.550741  0.318312  0.941799  1
  Au  Au15  1  0.058201  0.449259  0.681688  1
  Au  Au16  1  0.681688  0.058201  0.449259  1
  Au  Au17  1  0.449259  0.681688  0.058201  1
