# generated using pymatgen
data_Hf4Pa3Ni10
_symmetry_space_group_name_H-M   'P 1'
_cell_length_a   7.82712408
_cell_length_b   7.82712301
_cell_length_c   9.27135700
_cell_angle_alpha   90.00000000
_cell_angle_beta   90.00000000
_cell_angle_gamma   106.51707127
_symmetry_Int_Tables_number   1
_chemical_formula_structural   Hf4Pa3Ni10
_chemical_formula_sum   'Hf8 Pa6 Ni20'
_cell_volume   544.56070017
_cell_formula_units_Z   2
loop_
 _symmetry_equiv_pos_site_id
 _symmetry_equiv_pos_as_xyz
  1  'x, y, z'
loop_
 _atom_site_type_symbol
 _atom_site_label
 _atom_site_symmetry_multiplicity
 _atom_site_fract_x
 _atom_site_fract_y
 _atom_site_fract_z
 _atom_site_occupancy
  Hf  Hf0  1  0.003765  0.503765  0.250000  1
  Hf  Hf1  1  0.996235  0.496235  0.750000  1
  Hf  Hf2  1  0.496235  0.996235  0.750000  1
  Hf  Hf3  1  0.503765  0.003765  0.250000  1
  Hf  Hf4  1  0.308249  0.308249  0.192292  1
  Hf  Hf5  1  0.691751  0.691751  0.807708  1
  Hf  Hf6  1  0.191751  0.191751  0.692292  1
  Hf  Hf7  1  0.808249  0.808249  0.307708  1
  Pa  Pa8  1  0.686924  0.313076  0.000000  1
  Pa  Pa9  1  0.313076  0.686924  0.000000  1
  Pa  Pa10  1  0.813076  0.186924  0.500000  1
  Pa  Pa11  1  0.186924  0.813076  0.500000  1
  Pa  Pa12  1  0.000000  0.000000  0.000000  1
  Pa  Pa13  1  0.500000  0.500000  0.500000  1
  Ni  Ni14  1  0.862396  0.151616  0.206062  1
  Ni  Ni15  1  0.137604  0.848384  0.793938  1
  Ni  Ni16  1  0.637604  0.348384  0.706062  1
  Ni  Ni17  1  0.651616  0.362396  0.293938  1
  Ni  Ni18  1  0.362396  0.651616  0.293938  1
  Ni  Ni19  1  0.348384  0.637604  0.706062  1
  Ni  Ni20  1  0.848384  0.137604  0.793938  1
  Ni  Ni21  1  0.151616  0.862396  0.206062  1
  Ni  Ni22  1  0.939563  0.648121  0.004313  1
  Ni  Ni23  1  0.060437  0.351879  0.995687  1
  Ni  Ni24  1  0.560437  0.851879  0.504313  1
  Ni  Ni25  1  0.148121  0.439563  0.495687  1
  Ni  Ni26  1  0.439563  0.148121  0.495687  1
  Ni  Ni27  1  0.851879  0.560437  0.504313  1
  Ni  Ni28  1  0.351879  0.060437  0.995687  1
  Ni  Ni29  1  0.648121  0.939563  0.004313  1
  Ni  Ni30  1  0.104809  0.104809  0.397462  1
  Ni  Ni31  1  0.895191  0.895191  0.602538  1
  Ni  Ni32  1  0.395191  0.395191  0.897462  1
  Ni  Ni33  1  0.604809  0.604809  0.102538  1
