# generated using pymatgen
data_Li2AcNd2Al7
_symmetry_space_group_name_H-M   'P 1'
_cell_length_a   9.54168818
_cell_length_b   9.54168792
_cell_length_c   9.54168706
_cell_angle_alpha   34.71534408
_cell_angle_beta   34.71534514
_cell_angle_gamma   34.71534754
_symmetry_Int_Tables_number   1
_chemical_formula_structural   Li2AcNd2Al7
_chemical_formula_sum   'Li2 Ac1 Nd2 Al7'
_cell_volume   251.44648798
_cell_formula_units_Z   1
loop_
 _symmetry_equiv_pos_site_id
 _symmetry_equiv_pos_as_xyz
  1  'x, y, z'
loop_
 _atom_site_type_symbol
 _atom_site_label
 _atom_site_symmetry_multiplicity
 _atom_site_fract_x
 _atom_site_fract_y
 _atom_site_fract_z
 _atom_site_occupancy
  Li  Li0  1  0.335446  0.335446  0.335446  1
  Li  Li1  1  0.664554  0.664554  0.664554  1
  Ac  Ac2  1  0.000000  0.000000  0.000000  1
  Nd  Nd3  1  0.141120  0.141120  0.141120  1
  Nd  Nd4  1  0.858880  0.858880  0.858880  1
  Al  Al5  1  0.587042  0.587042  0.075892  1
  Al  Al6  1  0.412958  0.924108  0.412958  1
  Al  Al7  1  0.587042  0.075892  0.587042  1
  Al  Al8  1  0.075892  0.587042  0.587042  1
  Al  Al9  1  0.412958  0.412958  0.924108  1
  Al  Al10  1  0.500000  0.500000  0.500000  1
  Al  Al11  1  0.924108  0.412958  0.412958  1
