# generated using pymatgen
data_Pr5Al4Si5Au
_symmetry_space_group_name_H-M   'P 1'
_cell_length_a   4.15299808
_cell_length_b   4.34872653
_cell_length_c   37.13246927
_cell_angle_alpha   86.64741017
_cell_angle_beta   86.78819060
_cell_angle_gamma   89.99874789
_symmetry_Int_Tables_number   1
_chemical_formula_structural   Pr5Al4Si5Au
_chemical_formula_sum   'Pr10 Al8 Si10 Au2'
_cell_volume   668.41890960
_cell_formula_units_Z   2
loop_
 _symmetry_equiv_pos_site_id
 _symmetry_equiv_pos_as_xyz
  1  'x, y, z'
loop_
 _atom_site_type_symbol
 _atom_site_label
 _atom_site_symmetry_multiplicity
 _atom_site_fract_x
 _atom_site_fract_y
 _atom_site_fract_z
 _atom_site_occupancy
  Pr  Pr0  1  0.950328  0.450290  0.099358  1
  Pr  Pr1  1  0.350981  0.851053  0.297939  1
  Pr  Pr2  1  0.751743  0.251727  0.496507  1
  Pr  Pr3  1  0.146862  0.646842  0.706255  1
  Pr  Pr4  1  0.545443  0.045472  0.909119  1
  Pr  Pr5  1  0.000033  0.000028  0.999940  1
  Pr  Pr6  1  0.400980  0.400954  0.197996  1
  Pr  Pr7  1  0.801653  0.801728  0.396630  1
  Pr  Pr8  1  0.202561  0.202657  0.594866  1
  Pr  Pr9  1  0.601135  0.601151  0.797790  1
  Al  Al10  1  0.467320  0.967353  0.065319  1
  Al  Al11  1  0.868103  0.368134  0.263774  1
  Al  Al12  1  0.268683  0.768703  0.462679  1
  Al  Al13  1  0.666406  0.166406  0.667211  1
  Al  Al14  1  0.064934  0.564962  0.870093  1
  Al  Al15  1  0.917100  0.917130  0.165747  1
  Al  Al16  1  0.317821  0.317819  0.364339  1
  Al  Al17  1  0.717820  0.717808  0.564336  1
  Si  Si18  1  0.115491  0.115552  0.768940  1
  Si  Si19  1  0.515112  0.515104  0.969741  1
  Si  Si20  1  0.434403  0.934394  0.131250  1
  Si  Si21  1  0.835163  0.335087  0.329726  1
  Si  Si22  1  0.235629  0.735634  0.528772  1
  Si  Si23  1  0.632570  0.132545  0.734927  1
  Si  Si24  1  0.031450  0.531448  0.937097  1
  Si  Si25  1  0.483171  0.483175  0.033664  1
  Si  Si26  1  0.884219  0.884171  0.231668  1
  Si  Si27  1  0.284872  0.284812  0.430255  1
  Au  Au28  1  0.683492  0.683391  0.633082  1
  Au  Au29  1  0.081720  0.081672  0.836581  1
