# generated using pymatgen
data_CaZr4Cd3(PO4)8
_symmetry_space_group_name_H-M   'P 1'
_cell_length_a   14.96059952
_cell_length_b   6.70771100
_cell_length_c   6.34867141
_cell_angle_alpha   89.99613233
_cell_angle_beta   89.90085556
_cell_angle_gamma   89.99872951
_symmetry_Int_Tables_number   1
_chemical_formula_structural   CaZr4Cd3(PO4)8
_chemical_formula_sum   'Ca1 Zr4 Cd3 P8 O32'
_cell_volume   637.09696967
_cell_formula_units_Z   1
loop_
 _symmetry_equiv_pos_site_id
 _symmetry_equiv_pos_as_xyz
  1  'x, y, z'
loop_
 _atom_site_type_symbol
 _atom_site_label
 _atom_site_symmetry_multiplicity
 _atom_site_fract_x
 _atom_site_fract_y
 _atom_site_fract_z
 _atom_site_occupancy
  Ca  Ca0  1  0.344202  0.500264  0.807345  1
  Zr  Zr1  1  0.390729  0.000198  0.072751  1
  Zr  Zr2  1  0.608846  0.500130  0.424236  1
  Zr  Zr3  1  0.110551  0.999862  0.576093  1
  Zr  Zr4  1  0.890046  0.499823  0.924279  1
  Cd  Cd5  1  0.839439  0.999765  0.201020  1
  Cd  Cd6  1  0.160515  0.499776  0.298246  1
  Cd  Cd7  1  0.660902  0.000201  0.701463  1
  P  P8  1  0.150633  0.999855  0.118887  1
  P  P9  1  0.613782  0.000127  0.210279  1
  P  P10  1  0.385226  0.500151  0.291359  1
  P  P11  1  0.848886  0.499815  0.380720  1
  P  P12  1  0.351295  0.000199  0.618240  1
  P  P13  1  0.886297  0.999844  0.710263  1
  P  P14  1  0.113701  0.499867  0.790224  1
  P  P15  1  0.649639  0.500136  0.881042  1
  O  O16  1  0.530576  0.000137  0.064696  1
  O  O17  1  0.697475  0.000234  0.065026  1
  O  O18  1  0.252082  0.000012  0.081247  1
  O  O19  1  0.599062  0.500066  0.089343  1
  O  O20  1  0.385670  0.680964  0.138391  1
  O  O21  1  0.385614  0.319354  0.138386  1
  O  O22  1  0.877563  0.675421  0.232492  1
  O  O23  1  0.877497  0.324146  0.232549  1
  O  O24  1  0.122496  0.824230  0.267561  1
  O  O25  1  0.122408  0.175383  0.267599  1
  O  O26  1  0.614119  0.817993  0.361099  1
  O  O27  1  0.614051  0.182134  0.361259  1
  O  O28  1  0.399960  0.000195  0.407511  1
  O  O29  1  0.747343  0.499949  0.416201  1
  O  O30  1  0.301830  0.500180  0.435421  1
  O  O31  1  0.468143  0.500091  0.438546  1
  O  O32  1  0.970145  0.999942  0.566330  1
  O  O33  1  0.802805  0.999750  0.564563  1
  O  O34  1  0.249405  0.000001  0.584508  1
  O  O35  1  0.898460  0.499839  0.589590  1
  O  O36  1  0.114487  0.317845  0.638931  1
  O  O37  1  0.114531  0.681994  0.639058  1
  O  O38  1  0.621019  0.324508  0.732614  1
  O  O39  1  0.621076  0.675863  0.732670  1
  O  O40  1  0.379827  0.175336  0.764688  1
  O  O41  1  0.379948  0.825168  0.764750  1
  O  O42  1  0.885054  0.181826  0.861388  1
  O  O43  1  0.885163  0.817870  0.861420  1
  O  O44  1  0.100419  0.999898  0.910856  1
  O  O45  1  0.750842  0.500020  0.917463  1
  O  O46  1  0.196973  0.499789  0.934491  1
  O  O47  1  0.029271  0.499844  0.932903  1
