# generated using pymatgen
data_DyY3OsRu7
_symmetry_space_group_name_H-M   'P 1'
_cell_length_a   5.34368101
_cell_length_b   5.22732836
_cell_length_c   8.96238600
_cell_angle_alpha   89.99754565
_cell_angle_beta   89.99950418
_cell_angle_gamma   120.29115848
_symmetry_Int_Tables_number   1
_chemical_formula_structural   DyY3OsRu7
_chemical_formula_sum   'Dy1 Y3 Os1 Ru7'
_cell_volume   216.16875050
_cell_formula_units_Z   1
loop_
 _symmetry_equiv_pos_site_id
 _symmetry_equiv_pos_as_xyz
  1  'x, y, z'
loop_
 _atom_site_type_symbol
 _atom_site_label
 _atom_site_symmetry_multiplicity
 _atom_site_fract_x
 _atom_site_fract_y
 _atom_site_fract_z
 _atom_site_occupancy
  Dy  Dy0  1  0.669100  0.336503  0.933452  1
  Y  Y1  1  0.669076  0.336477  0.566557  1
  Y  Y2  1  0.332662  0.666410  0.432877  1
  Y  Y3  1  0.332683  0.666443  0.067090  1
  Os  Os4  1  0.164168  0.328679  0.750058  1
  Ru  Ru5  1  0.004646  0.008151  0.499918  1
  Ru  Ru6  1  0.004633  0.008145  0.000008  1
  Ru  Ru7  1  0.168865  0.822317  0.750050  1
  Ru  Ru8  1  0.650138  0.820618  0.750062  1
  Ru  Ru9  1  0.831777  0.662790  0.249976  1
  Ru  Ru10  1  0.827698  0.170534  0.249974  1
  Ru  Ru11  1  0.344555  0.172934  0.249977  1
