# generated using pymatgen
data_USiGeRu2
_symmetry_space_group_name_H-M   'P 1'
_cell_length_a   4.20341822
_cell_length_b   4.20341739
_cell_length_c   5.69566579
_cell_angle_alpha   111.65404633
_cell_angle_beta   111.65404181
_cell_angle_gamma   90.00001093
_symmetry_Int_Tables_number   1
_chemical_formula_structural   USiGeRu2
_chemical_formula_sum   'U1 Si1 Ge1 Ru2'
_cell_volume   85.84571207
_cell_formula_units_Z   1
loop_
 _symmetry_equiv_pos_site_id
 _symmetry_equiv_pos_as_xyz
  1  'x, y, z'
loop_
 _atom_site_type_symbol
 _atom_site_label
 _atom_site_symmetry_multiplicity
 _atom_site_fract_x
 _atom_site_fract_y
 _atom_site_fract_z
 _atom_site_occupancy
  U  U0  1  0.996117  0.996117  0.992234  1
  Si  Si1  1  0.369469  0.369469  0.738939  1
  Ge  Ge2  1  0.622114  0.622114  0.244229  1
  Ru  Ru3  1  0.756148  0.256149  0.512297  1
  Ru  Ru4  1  0.256149  0.756148  0.512297  1
