# generated using pymatgen
data_LiHf6Co17P12
_symmetry_space_group_name_H-M   'P 1'
_cell_length_a   3.62157700
_cell_length_b   10.32638900
_cell_length_c   11.89848200
_cell_angle_alpha   90.00000000
_cell_angle_beta   90.00000000
_cell_angle_gamma   90.00000000
_symmetry_Int_Tables_number   1
_chemical_formula_structural   LiHf6Co17P12
_chemical_formula_sum   'Li1 Hf6 Co17 P12'
_cell_volume   444.97720358
_cell_formula_units_Z   1
loop_
 _symmetry_equiv_pos_site_id
 _symmetry_equiv_pos_as_xyz
  1  'x, y, z'
loop_
 _atom_site_type_symbol
 _atom_site_label
 _atom_site_symmetry_multiplicity
 _atom_site_fract_x
 _atom_site_fract_y
 _atom_site_fract_z
 _atom_site_occupancy
  Li  Li0  1  0.250000  0.250000  0.843931  1
  Hf  Hf1  1  0.750000  0.250000  0.474498  1
  Hf  Hf2  1  0.250000  0.750000  0.528196  1
  Hf  Hf3  1  0.250000  0.927982  0.792503  1
  Hf  Hf4  1  0.250000  0.572018  0.792503  1
  Hf  Hf5  1  0.750000  0.071946  0.206113  1
  Hf  Hf6  1  0.750000  0.428054  0.206113  1
  Co  Co7  1  0.750000  0.750000  0.164676  1
  Co  Co8  1  0.250000  0.250000  0.295518  1
  Co  Co9  1  0.750000  0.750000  0.703665  1
  Co  Co10  1  0.750000  0.250000  0.011120  1
  Co  Co11  1  0.250000  0.750000  0.989743  1
  Co  Co12  1  0.250000  0.419866  0.004680  1
  Co  Co13  1  0.250000  0.080134  0.004680  1
  Co  Co14  1  0.750000  0.584359  0.996562  1
  Co  Co15  1  0.750000  0.915641  0.996562  1
  Co  Co16  1  0.250000  0.452472  0.565161  1
  Co  Co17  1  0.250000  0.047528  0.565161  1
  Co  Co18  1  0.750000  0.550337  0.431651  1
  Co  Co19  1  0.750000  0.949663  0.431651  1
  Co  Co20  1  0.250000  0.873957  0.293589  1
  Co  Co21  1  0.250000  0.626043  0.293589  1
  Co  Co22  1  0.750000  0.123546  0.704879  1
  Co  Co23  1  0.750000  0.376454  0.704879  1
  P  P24  1  0.250000  0.250000  0.118073  1
  P  P25  1  0.750000  0.750000  0.880554  1
  P  P26  1  0.250000  0.250000  0.647003  1
  P  P27  1  0.750000  0.750000  0.353172  1
  P  P28  1  0.250000  0.432399  0.381482  1
  P  P29  1  0.250000  0.067601  0.381482  1
  P  P30  1  0.750000  0.567214  0.617021  1
  P  P31  1  0.750000  0.932786  0.617021  1
  P  P32  1  0.250000  0.906538  0.112811  1
  P  P33  1  0.250000  0.593462  0.112811  1
  P  P34  1  0.750000  0.089937  0.888475  1
  P  P35  1  0.750000  0.410063  0.888475  1
