# generated using pymatgen
data_Tm4Cu2IrPt
_symmetry_space_group_name_H-M   'P 1'
_cell_length_a   4.35997200
_cell_length_b   5.51799601
_cell_length_c   6.94535368
_cell_angle_alpha   89.89554835
_cell_angle_beta   90.00000000
_cell_angle_gamma   90.00000000
_symmetry_Int_Tables_number   1
_chemical_formula_structural   Tm4Cu2IrPt
_chemical_formula_sum   'Tm4 Cu2 Ir1 Pt1'
_cell_volume   167.09318113
_cell_formula_units_Z   1
loop_
 _symmetry_equiv_pos_site_id
 _symmetry_equiv_pos_as_xyz
  1  'x, y, z'
loop_
 _atom_site_type_symbol
 _atom_site_label
 _atom_site_symmetry_multiplicity
 _atom_site_fract_x
 _atom_site_fract_y
 _atom_site_fract_z
 _atom_site_occupancy
  Tm  Tm0  1  0.250000  0.639181  0.171533  1
  Tm  Tm1  1  0.750000  0.364007  0.817748  1
  Tm  Tm2  1  0.750000  0.135557  0.320937  1
  Tm  Tm3  1  0.250000  0.861606  0.690015  1
  Cu  Cu4  1  0.250000  0.137691  0.040280  1
  Cu  Cu5  1  0.750000  0.641961  0.458883  1
  Ir  Ir6  1  0.750000  0.857892  0.967484  1
  Pt  Pt7  1  0.250000  0.362104  0.533122  1
