# generated using pymatgen
data_Ho4LuTl3S
_symmetry_space_group_name_H-M   'P 1'
_cell_length_a   9.05046700
_cell_length_b   9.05046869
_cell_length_c   6.65248700
_cell_angle_alpha   90.00000000
_cell_angle_beta   90.00000000
_cell_angle_gamma   119.99999748
_symmetry_Int_Tables_number   1
_chemical_formula_structural   Ho4LuTl3S
_chemical_formula_sum   'Ho8 Lu2 Tl6 S2'
_cell_volume   471.90734469
_cell_formula_units_Z   2
loop_
 _symmetry_equiv_pos_site_id
 _symmetry_equiv_pos_as_xyz
  1  'x, y, z'
loop_
 _atom_site_type_symbol
 _atom_site_label
 _atom_site_symmetry_multiplicity
 _atom_site_fract_x
 _atom_site_fract_y
 _atom_site_fract_z
 _atom_site_occupancy
  Ho  Ho0  1  0.666667  0.333333  0.000000  1
  Ho  Ho1  1  0.333333  0.666667  0.000000  1
  Ho  Ho2  1  0.757656  0.757656  0.749623  1
  Ho  Ho3  1  0.242344  0.000000  0.749623  1
  Ho  Ho4  1  0.000000  0.242344  0.749623  1
  Ho  Ho5  1  0.242344  0.242344  0.250377  1
  Ho  Ho6  1  0.757656  0.000000  0.250377  1
  Ho  Ho7  1  0.000000  0.757656  0.250377  1
  Lu  Lu8  1  0.333333  0.666667  0.500000  1
  Lu  Lu9  1  0.666667  0.333333  0.500000  1
  Tl  Tl10  1  0.401625  0.401625  0.748448  1
  Tl  Tl11  1  0.598375  0.000000  0.748448  1
  Tl  Tl12  1  0.000000  0.598375  0.748448  1
  Tl  Tl13  1  0.598375  0.598375  0.251552  1
  Tl  Tl14  1  0.401625  0.000000  0.251552  1
  Tl  Tl15  1  0.000000  0.401625  0.251552  1
  S  S16  1  0.000000  0.000000  0.000000  1
  S  S17  1  0.000000  0.000000  0.500000  1
