# generated using pymatgen
data_Tb2HoCo7(P3Ru)2
_symmetry_space_group_name_H-M   'P 1'
_cell_length_a   3.75112800
_cell_length_b   10.58938200
_cell_length_c   12.35483000
_cell_angle_alpha   90.00000000
_cell_angle_beta   90.00000000
_cell_angle_gamma   90.00000000
_symmetry_Int_Tables_number   1
_chemical_formula_structural   Tb2HoCo7(P3Ru)2
_chemical_formula_sum   'Tb4 Ho2 Co14 P12 Ru4'
_cell_volume   490.76013031
_cell_formula_units_Z   2
loop_
 _symmetry_equiv_pos_site_id
 _symmetry_equiv_pos_as_xyz
  1  'x, y, z'
loop_
 _atom_site_type_symbol
 _atom_site_label
 _atom_site_symmetry_multiplicity
 _atom_site_fract_x
 _atom_site_fract_y
 _atom_site_fract_z
 _atom_site_occupancy
  Tb  Tb0  1  0.000000  0.500000  0.528258  1
  Tb  Tb1  1  0.500000  0.000000  0.478622  1
  Tb  Tb2  1  0.000000  0.683442  0.795858  1
  Tb  Tb3  1  0.000000  0.316558  0.795858  1
  Ho  Ho4  1  0.500000  0.818206  0.202647  1
  Ho  Ho5  1  0.500000  0.181794  0.202647  1
  Co  Co6  1  0.000000  0.500000  0.986380  1
  Co  Co7  1  0.500000  0.000000  0.014008  1
  Co  Co8  1  0.000000  0.200130  0.573422  1
  Co  Co9  1  0.000000  0.799870  0.573422  1
  Co  Co10  1  0.500000  0.880302  0.710855  1
  Co  Co11  1  0.500000  0.119698  0.710855  1
  Co  Co12  1  0.000000  0.621113  0.286183  1
  Co  Co13  1  0.000000  0.378887  0.286183  1
  Co  Co14  1  0.500000  0.332134  0.990779  1
  Co  Co15  1  0.500000  0.667866  0.990779  1
  Co  Co16  1  0.000000  0.166860  0.009200  1
  Co  Co17  1  0.000000  0.833140  0.009200  1
  Co  Co18  1  0.500000  0.500000  0.705316  1
  Co  Co19  1  0.000000  0.000000  0.293856  1
  P  P20  1  0.500000  0.308710  0.620610  1
  P  P21  1  0.500000  0.691290  0.620610  1
  P  P22  1  0.000000  0.184085  0.381041  1
  P  P23  1  0.000000  0.815915  0.381041  1
  P  P24  1  0.500000  0.500000  0.883226  1
  P  P25  1  0.000000  0.000000  0.117082  1
  P  P26  1  0.500000  0.847088  0.894620  1
  P  P27  1  0.500000  0.152912  0.894620  1
  P  P28  1  0.000000  0.654037  0.104702  1
  P  P29  1  0.000000  0.345963  0.104702  1
  P  P30  1  0.500000  0.500000  0.344308  1
  P  P31  1  0.000000  0.000000  0.652075  1
  Ru  Ru32  1  0.500000  0.295710  0.429803  1
  Ru  Ru33  1  0.500000  0.704290  0.429803  1
  Ru  Ru34  1  0.500000  0.500000  0.156242  1
  Ru  Ru35  1  0.000000  0.000000  0.841186  1
