# generated using pymatgen
data_DyHoTcC2
_symmetry_space_group_name_H-M   'P 1'
_cell_length_a   5.09195700
_cell_length_b   6.56822400
_cell_length_c   9.85902500
_cell_angle_alpha   90.00000000
_cell_angle_beta   90.00000000
_cell_angle_gamma   90.00000000
_symmetry_Int_Tables_number   1
_chemical_formula_structural   DyHoTcC2
_chemical_formula_sum   'Dy4 Ho4 Tc4 C8'
_cell_volume   329.73621677
_cell_formula_units_Z   4
loop_
 _symmetry_equiv_pos_site_id
 _symmetry_equiv_pos_as_xyz
  1  'x, y, z'
loop_
 _atom_site_type_symbol
 _atom_site_label
 _atom_site_symmetry_multiplicity
 _atom_site_fract_x
 _atom_site_fract_y
 _atom_site_fract_z
 _atom_site_occupancy
  Dy  Dy0  1  0.250000  0.467374  0.784161  1
  Dy  Dy1  1  0.750000  0.032626  0.284161  1
  Dy  Dy2  1  0.250000  0.967374  0.715839  1
  Dy  Dy3  1  0.750000  0.532626  0.215839  1
  Ho  Ho4  1  0.250000  0.822693  0.057730  1
  Ho  Ho5  1  0.750000  0.677307  0.557730  1
  Ho  Ho6  1  0.250000  0.322693  0.442270  1
  Ho  Ho7  1  0.750000  0.177307  0.942270  1
  Tc  Tc8  1  0.250000  0.280066  0.133705  1
  Tc  Tc9  1  0.750000  0.219934  0.633705  1
  Tc  Tc10  1  0.250000  0.780066  0.366295  1
  Tc  Tc11  1  0.750000  0.719934  0.866295  1
  C  C12  1  0.250000  0.176674  0.951079  1
  C  C13  1  0.750000  0.823326  0.048921  1
  C  C14  1  0.250000  0.676674  0.548921  1
  C  C15  1  0.750000  0.323326  0.451079  1
  C  C16  1  0.250000  0.047429  0.258667  1
  C  C17  1  0.750000  0.452571  0.758667  1
  C  C18  1  0.250000  0.547429  0.241333  1
  C  C19  1  0.750000  0.952571  0.741333  1
