# generated using pymatgen
data_Sc12Fe3Si12Ir
_symmetry_space_group_name_H-M   'P 1'
_cell_length_a   4.00150000
_cell_length_b   10.07608225
_cell_length_c   11.62577602
_cell_angle_alpha   89.85096989
_cell_angle_beta   90.00000000
_cell_angle_gamma   90.00000000
_symmetry_Int_Tables_number   1
_chemical_formula_structural   Sc12Fe3Si12Ir
_chemical_formula_sum   'Sc12 Fe3 Si12 Ir1'
_cell_volume   468.74322940
_cell_formula_units_Z   1
loop_
 _symmetry_equiv_pos_site_id
 _symmetry_equiv_pos_as_xyz
  1  'x, y, z'
loop_
 _atom_site_type_symbol
 _atom_site_label
 _atom_site_symmetry_multiplicity
 _atom_site_fract_x
 _atom_site_fract_y
 _atom_site_fract_z
 _atom_site_occupancy
  Sc  Sc0  1  0.250000  0.881157  0.024445  1
  Sc  Sc1  1  0.250000  0.617936  0.523652  1
  Sc  Sc2  1  0.750000  0.123609  0.979338  1
  Sc  Sc3  1  0.750000  0.380710  0.473833  1
  Sc  Sc4  1  0.250000  0.920267  0.604119  1
  Sc  Sc5  1  0.250000  0.579357  0.101928  1
  Sc  Sc6  1  0.750000  0.078522  0.399526  1
  Sc  Sc7  1  0.750000  0.421236  0.899817  1
  Sc  Sc8  1  0.250000  0.654272  0.798605  1
  Sc  Sc9  1  0.250000  0.839257  0.299002  1
  Sc  Sc10  1  0.750000  0.340379  0.200867  1
  Sc  Sc11  1  0.750000  0.165815  0.698800  1
  Fe  Fe12  1  0.250000  0.390301  0.675575  1
  Fe  Fe13  1  0.250000  0.108986  0.177137  1
  Fe  Fe14  1  0.750000  0.609339  0.323034  1
  Si  Si15  1  0.250000  0.016577  0.823339  1
  Si  Si16  1  0.250000  0.494301  0.320901  1
  Si  Si17  1  0.750000  0.994806  0.179763  1
  Si  Si18  1  0.750000  0.501801  0.678123  1
  Si  Si19  1  0.250000  0.256840  0.838121  1
  Si  Si20  1  0.250000  0.245523  0.337684  1
  Si  Si21  1  0.750000  0.746070  0.162124  1
  Si  Si22  1  0.750000  0.746944  0.656860  1
  Si  Si23  1  0.250000  0.200375  0.545403  1
  Si  Si24  1  0.250000  0.301623  0.047181  1
  Si  Si25  1  0.750000  0.799917  0.452532  1
  Si  Si26  1  0.750000  0.694598  0.956013  1
  Ir  Ir27  1  0.750000  0.889485  0.822281  1
