# generated using pymatgen
data_Y2Tm4Al19Si5Os8
_symmetry_space_group_name_H-M   'P 1'
_cell_length_a   8.68975104
_cell_length_b   8.67516198
_cell_length_c   9.57324600
_cell_angle_alpha   90.00000000
_cell_angle_beta   90.00000000
_cell_angle_gamma   120.06614803
_symmetry_Int_Tables_number   1
_chemical_formula_structural   Y2Tm4Al19Si5Os8
_chemical_formula_sum   'Y2 Tm4 Al19 Si5 Os8'
_cell_volume   624.57545247
_cell_formula_units_Z   1
loop_
 _symmetry_equiv_pos_site_id
 _symmetry_equiv_pos_as_xyz
  1  'x, y, z'
loop_
 _atom_site_type_symbol
 _atom_site_label
 _atom_site_symmetry_multiplicity
 _atom_site_fract_x
 _atom_site_fract_y
 _atom_site_fract_z
 _atom_site_occupancy
  Y  Y0  1  0.806615  0.612721  0.750000  1
  Y  Y1  1  0.388389  0.194238  0.750000  1
  Tm  Tm2  1  0.195692  0.391335  0.250000  1
  Tm  Tm3  1  0.606104  0.805462  0.250000  1
  Tm  Tm4  1  0.199468  0.805429  0.250000  1
  Tm  Tm5  1  0.805080  0.196092  0.750000  1
  Al  Al6  1  0.164380  0.329451  0.577945  1
  Al  Al7  1  0.834786  0.669555  0.420965  1
  Al  Al8  1  0.669772  0.835677  0.576566  1
  Al  Al9  1  0.834786  0.669555  0.079035  1
  Al  Al10  1  0.328897  0.165397  0.421118  1
  Al  Al11  1  0.164380  0.329451  0.922055  1
  Al  Al12  1  0.165744  0.835040  0.576243  1
  Al  Al13  1  0.328897  0.165397  0.078882  1
  Al  Al14  1  0.836531  0.165295  0.421659  1
  Al  Al15  1  0.669772  0.835677  0.923434  1
  Al  Al16  1  0.836531  0.165295  0.078341  1
  Al  Al17  1  0.165744  0.835040  0.923757  1
  Al  Al18  1  0.437829  0.874562  0.750000  1
  Al  Al19  1  0.873420  0.433751  0.250000  1
  Al  Al20  1  0.127674  0.564065  0.750000  1
  Al  Al21  1  0.560479  0.433779  0.250000  1
  Al  Al22  1  0.436571  0.564856  0.750000  1
  Al  Al23  1  0.999773  0.999494  0.250000  1
  Al  Al24  1  0.999366  0.001819  0.750000  1
  Si  Si25  1  0.332614  0.664970  0.039537  1
  Si  Si26  1  0.667682  0.334199  0.961214  1
  Si  Si27  1  0.667682  0.334199  0.538786  1
  Si  Si28  1  0.332614  0.664970  0.460463  1
  Si  Si29  1  0.563556  0.127022  0.250000  1
  Os  Os30  1  0.500714  0.000769  0.007132  1
  Os  Os31  1  0.999649  0.498880  0.001103  1
  Os  Os32  1  0.500714  0.000769  0.492868  1
  Os  Os33  1  0.499617  0.499373  0.001547  1
  Os  Os34  1  0.999649  0.498880  0.498897  1
  Os  Os35  1  0.499617  0.499373  0.498453  1
  Os  Os36  1  0.999607  0.999081  0.000048  1
  Os  Os37  1  0.999607  0.999081  0.499952  1
