# generated using pymatgen
data_Hf3Ti3Ge2Sb
_symmetry_space_group_name_H-M   'P 1'
_cell_length_a   7.13054900
_cell_length_b   7.13054825
_cell_length_c   3.82018800
_cell_angle_alpha   90.00000000
_cell_angle_beta   90.00000000
_cell_angle_gamma   119.99999884
_symmetry_Int_Tables_number   1
_chemical_formula_structural   Hf3Ti3Ge2Sb
_chemical_formula_sum   'Hf3 Ti3 Ge2 Sb1'
_cell_volume   168.21366159
_cell_formula_units_Z   1
loop_
 _symmetry_equiv_pos_site_id
 _symmetry_equiv_pos_as_xyz
  1  'x, y, z'
loop_
 _atom_site_type_symbol
 _atom_site_label
 _atom_site_symmetry_multiplicity
 _atom_site_fract_x
 _atom_site_fract_y
 _atom_site_fract_z
 _atom_site_occupancy
  Hf  Hf0  1  0.394644  0.985995  0.500001  1
  Hf  Hf1  1  0.014005  0.408648  0.500001  1
  Hf  Hf2  1  0.591351  0.605356  0.500001  1
  Ti  Ti3  1  0.753113  0.991513  0.000000  1
  Ti  Ti4  1  0.238400  0.246888  0.000000  1
  Ti  Ti5  1  0.008487  0.761599  0.000000  1
  Ge  Ge6  1  0.333333  0.666666  0.000000  1
  Ge  Ge7  1  0.000000  0.000000  0.500001  1
  Sb  Sb8  1  0.666667  0.333333  0.000000  1
