# generated using pymatgen
data_Ta4Mn5FeOs2
_symmetry_space_group_name_H-M   'P 1'
_cell_length_a   4.80848300
_cell_length_b   4.84806806
_cell_length_c   8.16332600
_cell_angle_alpha   90.00000000
_cell_angle_beta   90.00000000
_cell_angle_gamma   119.73027238
_symmetry_Int_Tables_number   1
_chemical_formula_structural   Ta4Mn5FeOs2
_chemical_formula_sum   'Ta4 Mn5 Fe1 Os2'
_cell_volume   165.25269566
_cell_formula_units_Z   1
loop_
 _symmetry_equiv_pos_site_id
 _symmetry_equiv_pos_as_xyz
  1  'x, y, z'
loop_
 _atom_site_type_symbol
 _atom_site_label
 _atom_site_symmetry_multiplicity
 _atom_site_fract_x
 _atom_site_fract_y
 _atom_site_fract_z
 _atom_site_occupancy
  Ta  Ta0  1  0.333550  0.667100  0.068206  1
  Ta  Ta1  1  0.666691  0.333380  0.566863  1
  Ta  Ta2  1  0.666691  0.333380  0.933137  1
  Ta  Ta3  1  0.333550  0.667100  0.431794  1
  Mn  Mn4  1  0.178488  0.822046  0.750000  1
  Mn  Mn5  1  0.643559  0.822046  0.750000  1
  Mn  Mn6  1  0.357111  0.175026  0.250000  1
  Mn  Mn7  1  0.817915  0.175026  0.250000  1
  Mn  Mn8  1  0.179116  0.358232  0.750000  1
  Fe  Fe9  1  0.822962  0.645923  0.250000  1
  Os  Os10  1  0.000185  0.000370  0.001544  1
  Os  Os11  1  0.000185  0.000370  0.498456  1
