# generated using pymatgen
data_CePr2Al12Ir3Ru
_symmetry_space_group_name_H-M   'P 1'
_cell_length_a   8.90219500
_cell_length_b   8.92715395
_cell_length_c   9.60799200
_cell_angle_alpha   90.00000000
_cell_angle_beta   90.00000000
_cell_angle_gamma   119.90755347
_symmetry_Int_Tables_number   1
_chemical_formula_structural   CePr2Al12Ir3Ru
_chemical_formula_sum   'Ce2 Pr4 Al24 Ir6 Ru2'
_cell_volume   661.87687329
_cell_formula_units_Z   2
loop_
 _symmetry_equiv_pos_site_id
 _symmetry_equiv_pos_as_xyz
  1  'x, y, z'
loop_
 _atom_site_type_symbol
 _atom_site_label
 _atom_site_symmetry_multiplicity
 _atom_site_fract_x
 _atom_site_fract_y
 _atom_site_fract_z
 _atom_site_occupancy
  Ce  Ce0  1  0.191050  0.382099  0.250000  1
  Ce  Ce1  1  0.808950  0.617901  0.750000  1
  Pr  Pr2  1  0.619646  0.809505  0.250000  1
  Pr  Pr3  1  0.380354  0.190495  0.750000  1
  Pr  Pr4  1  0.189858  0.809505  0.250000  1
  Pr  Pr5  1  0.810142  0.190495  0.750000  1
  Al  Al6  1  0.333499  0.667000  0.024640  1
  Al  Al7  1  0.666501  0.333000  0.975360  1
  Al  Al8  1  0.666501  0.333000  0.524640  1
  Al  Al9  1  0.333499  0.667000  0.475360  1
  Al  Al10  1  0.163586  0.327171  0.573297  1
  Al  Al11  1  0.836414  0.672829  0.426703  1
  Al  Al12  1  0.673036  0.836076  0.576399  1
  Al  Al13  1  0.836414  0.672829  0.073297  1
  Al  Al14  1  0.326964  0.163924  0.423601  1
  Al  Al15  1  0.163586  0.327171  0.926703  1
  Al  Al16  1  0.163041  0.836076  0.576399  1
  Al  Al17  1  0.326964  0.163924  0.076399  1
  Al  Al18  1  0.836959  0.163924  0.423601  1
  Al  Al19  1  0.673036  0.836076  0.923601  1
  Al  Al20  1  0.836959  0.163924  0.076399  1
  Al  Al21  1  0.163041  0.836076  0.923601  1
  Al  Al22  1  0.563390  0.126779  0.250000  1
  Al  Al23  1  0.436610  0.873221  0.750000  1
  Al  Al24  1  0.873271  0.436530  0.250000  1
  Al  Al25  1  0.126729  0.563470  0.750000  1
  Al  Al26  1  0.563259  0.436530  0.250000  1
  Al  Al27  1  0.436741  0.563470  0.750000  1
  Al  Al28  1  0.001988  0.003975  0.250000  1
  Al  Al29  1  0.998012  0.996025  0.750000  1
  Ir  Ir30  1  0.500000  0.000000  0.000000  1
  Ir  Ir31  1  0.000000  0.500000  0.000000  1
  Ir  Ir32  1  0.500000  0.000000  0.500000  1
  Ir  Ir33  1  0.500000  0.500000  0.000000  1
  Ir  Ir34  1  0.000000  0.500000  0.500000  1
  Ir  Ir35  1  0.500000  0.500000  0.500000  1
  Ru  Ru36  1  0.000000  0.000000  0.000000  1
  Ru  Ru37  1  0.000000  0.000000  0.500000  1
