# generated using pymatgen
data_Pr3Sm2Si12Rh19
_symmetry_space_group_name_H-M   'P 1'
_cell_length_a   12.88786900
_cell_length_b   12.86146980
_cell_length_c   4.02589300
_cell_angle_alpha   90.00000000
_cell_angle_beta   90.00000000
_cell_angle_gamma   119.93226678
_symmetry_Int_Tables_number   1
_chemical_formula_structural   Pr3Sm2Si12Rh19
_chemical_formula_sum   'Pr3 Sm2 Si12 Rh19'
_cell_volume   578.30984731
_cell_formula_units_Z   1
loop_
 _symmetry_equiv_pos_site_id
 _symmetry_equiv_pos_as_xyz
  1  'x, y, z'
loop_
 _atom_site_type_symbol
 _atom_site_label
 _atom_site_symmetry_multiplicity
 _atom_site_fract_x
 _atom_site_fract_y
 _atom_site_fract_z
 _atom_site_occupancy
  Pr  Pr0  1  0.000000  0.186023  0.500000  1
  Pr  Pr1  1  0.667638  0.334116  0.000000  1
  Pr  Pr2  1  0.332362  0.666480  0.000000  1
  Sm  Sm3  1  0.812739  0.812442  0.500000  1
  Sm  Sm4  1  0.187261  0.999703  0.500000  1
  Si  Si5  1  0.476439  0.313032  0.500000  1
  Si  Si6  1  0.814729  0.997756  0.000000  1
  Si  Si7  1  0.185271  0.183026  0.000000  1
  Si  Si8  1  0.000000  0.816907  0.000000  1
  Si  Si9  1  0.373482  0.000135  0.000000  1
  Si  Si10  1  0.686529  0.161942  0.500000  1
  Si  Si11  1  0.837837  0.525151  0.500000  1
  Si  Si12  1  0.523561  0.836595  0.500000  1
  Si  Si13  1  0.162163  0.687314  0.500000  1
  Si  Si14  1  0.313471  0.475413  0.500000  1
  Si  Si15  1  0.000000  0.374256  0.000000  1
  Si  Si16  1  0.626518  0.626653  0.000000  1
  Rh  Rh17  1  0.805875  0.181850  0.000000  1
  Rh  Rh18  1  0.376722  0.193426  0.000000  1
  Rh  Rh19  1  0.639844  0.514608  0.500000  1
  Rh  Rh20  1  0.874538  0.360560  0.500000  1
  Rh  Rh21  1  0.360156  0.874762  0.500000  1
  Rh  Rh22  1  0.514201  0.639677  0.500000  1
  Rh  Rh23  1  0.125462  0.486021  0.500000  1
  Rh  Rh24  1  0.817609  0.625091  0.000000  1
  Rh  Rh25  1  0.623278  0.816704  0.000000  1
  Rh  Rh26  1  0.182391  0.807482  0.000000  1
  Rh  Rh27  1  0.194125  0.375976  0.000000  1
  Rh  Rh28  1  0.000000  0.721980  0.500000  1
  Rh  Rh29  1  0.280364  0.278989  0.500000  1
  Rh  Rh30  1  0.719636  0.998625  0.500000  1
  Rh  Rh31  1  0.000000  0.556300  0.000000  1
  Rh  Rh32  1  0.444300  0.445241  0.000000  1
  Rh  Rh33  1  0.555700  0.000941  0.000000  1
  Rh  Rh34  1  0.000000  0.999350  0.000000  1
  Rh  Rh35  1  0.485799  0.125475  0.500000  1
