# generated using pymatgen
data_Y3Zn2Si2AgAu
_symmetry_space_group_name_H-M   'P 1'
_cell_length_a   4.25971000
_cell_length_b   7.08320476
_cell_length_c   6.97836880
_cell_angle_alpha   120.49821370
_cell_angle_beta   90.00000000
_cell_angle_gamma   90.00000000
_symmetry_Int_Tables_number   1
_chemical_formula_structural   Y3Zn2Si2AgAu
_chemical_formula_sum   'Y3 Zn2 Si2 Ag1 Au1'
_cell_volume   181.42290284
_cell_formula_units_Z   1
loop_
 _symmetry_equiv_pos_site_id
 _symmetry_equiv_pos_as_xyz
  1  'x, y, z'
loop_
 _atom_site_type_symbol
 _atom_site_label
 _atom_site_symmetry_multiplicity
 _atom_site_fract_x
 _atom_site_fract_y
 _atom_site_fract_z
 _atom_site_occupancy
  Y  Y0  1  0.000000  0.421310  0.000000  1
  Y  Y1  1  0.000000  0.581778  0.584514  1
  Y  Y2  1  0.000000  0.997265  0.415486  1
  Zn  Zn3  1  0.500000  0.250487  0.251018  1
  Zn  Zn4  1  0.500000  0.999468  0.748982  1
  Si  Si5  1  0.500000  0.667100  0.341510  1
  Si  Si6  1  0.500000  0.325589  0.658490  1
  Ag  Ag7  1  0.500000  0.740601  0.000000  1
  Au  Au8  1  0.000000  0.016500  0.000000  1
