# generated using pymatgen
data_Pr5NdPtBr10
_symmetry_space_group_name_H-M   'P 1'
_cell_length_a   7.70349390
_cell_length_b   9.64503727
_cell_length_c   9.69311623
_cell_angle_alpha   108.18322975
_cell_angle_beta   96.92521421
_cell_angle_gamma   105.76130938
_symmetry_Int_Tables_number   1
_chemical_formula_structural   Pr5NdPtBr10
_chemical_formula_sum   'Pr5 Nd1 Pt1 Br10'
_cell_volume   641.69210424
_cell_formula_units_Z   1
loop_
 _symmetry_equiv_pos_site_id
 _symmetry_equiv_pos_as_xyz
  1  'x, y, z'
loop_
 _atom_site_type_symbol
 _atom_site_label
 _atom_site_symmetry_multiplicity
 _atom_site_fract_x
 _atom_site_fract_y
 _atom_site_fract_z
 _atom_site_occupancy
  Pr  Pr0  1  0.870536  0.951906  0.249901  1
  Pr  Pr1  1  0.129260  0.047594  0.749875  1
  Pr  Pr2  1  0.366512  0.138713  0.182964  1
  Pr  Pr3  1  0.633424  0.860373  0.816866  1
  Pr  Pr4  1  0.968388  0.302855  0.094655  1
  Nd  Nd5  1  0.030952  0.698541  0.905461  1
  Pt  Pt6  1  0.999959  0.999443  0.999808  1
  Br  Br7  1  0.351880  0.453275  0.268849  1
  Br  Br8  1  0.651820  0.547144  0.732453  1
  Br  Br9  1  0.917291  0.635111  0.171484  1
  Br  Br10  1  0.083360  0.366924  0.826771  1
  Br  Br11  1  0.451367  0.824134  0.082428  1
  Br  Br12  1  0.546824  0.175006  0.916581  1
  Br  Br13  1  0.251343  0.082330  0.452973  1
  Br  Br14  1  0.748565  0.917672  0.547123  1
  Br  Br15  1  0.791188  0.255904  0.347003  1
  Br  Br16  1  0.207331  0.743075  0.654804  1
