# generated using pymatgen
data_PrTm4(CoO6)2
_symmetry_space_group_name_H-M   'P 1'
_cell_length_a   6.75821102
_cell_length_b   6.75821036
_cell_length_c   7.17770936
_cell_angle_alpha   74.69500429
_cell_angle_beta   74.69500367
_cell_angle_gamma   50.02792502
_symmetry_Int_Tables_number   1
_chemical_formula_structural   PrTm4(CoO6)2
_chemical_formula_sum   'Pr1 Tm4 Co2 O12'
_cell_volume   240.34146280
_cell_formula_units_Z   1
loop_
 _symmetry_equiv_pos_site_id
 _symmetry_equiv_pos_as_xyz
  1  'x, y, z'
loop_
 _atom_site_type_symbol
 _atom_site_label
 _atom_site_symmetry_multiplicity
 _atom_site_fract_x
 _atom_site_fract_y
 _atom_site_fract_z
 _atom_site_occupancy
  Pr  Pr0  1  0.000000  0.000000  0.500000  1
  Tm  Tm1  1  0.306554  0.306554  0.355581  1
  Tm  Tm2  1  0.693446  0.693446  0.644419  1
  Tm  Tm3  1  0.694899  0.694899  0.161827  1
  Tm  Tm4  1  0.305101  0.305101  0.838173  1
  Co  Co5  1  0.753971  0.246029  0.000000  1
  Co  Co6  1  0.246029  0.753971  0.000000  1
  O  O7  1  0.095144  0.583187  0.583301  1
  O  O8  1  0.998603  0.998603  0.167325  1
  O  O9  1  0.416813  0.904856  0.416699  1
  O  O10  1  0.500130  0.500130  0.179246  1
  O  O11  1  0.101075  0.581324  0.076756  1
  O  O12  1  0.904856  0.416813  0.416699  1
  O  O13  1  0.001397  0.001397  0.832675  1
  O  O14  1  0.583187  0.095143  0.583301  1
  O  O15  1  0.499870  0.499870  0.820754  1
  O  O16  1  0.581324  0.101075  0.076756  1
  O  O17  1  0.418676  0.898925  0.923244  1
  O  O18  1  0.898925  0.418676  0.923244  1
