# generated using pymatgen
data_Er3Tm3Sc4(In2Pt)4
_symmetry_space_group_name_H-M   'P 1'
_cell_length_a   3.57501700
_cell_length_b   7.91725652
_cell_length_c   17.80988516
_cell_angle_alpha   90.04140564
_cell_angle_beta   90.00000000
_cell_angle_gamma   90.00000000
_symmetry_Int_Tables_number   1
_chemical_formula_structural   Er3Tm3Sc4(In2Pt)4
_chemical_formula_sum   'Er3 Tm3 Sc4 In8 Pt4'
_cell_volume   504.09667545
_cell_formula_units_Z   1
loop_
 _symmetry_equiv_pos_site_id
 _symmetry_equiv_pos_as_xyz
  1  'x, y, z'
loop_
 _atom_site_type_symbol
 _atom_site_label
 _atom_site_symmetry_multiplicity
 _atom_site_fract_x
 _atom_site_fract_y
 _atom_site_fract_z
 _atom_site_occupancy
  Er  Er0  1  0.000000  0.243318  0.218792  1
  Er  Er1  1  0.000000  0.000036  0.999989  1
  Er  Er2  1  0.000000  0.500035  0.500041  1
  Tm  Tm3  1  0.000000  0.756504  0.781018  1
  Tm  Tm4  1  0.000000  0.256488  0.719014  1
  Tm  Tm5  1  0.000000  0.743502  0.281010  1
  Sc  Sc6  1  0.000000  0.116915  0.414686  1
  Sc  Sc7  1  0.000000  0.883038  0.585381  1
  Sc  Sc8  1  0.000000  0.383031  0.914626  1
  Sc  Sc9  1  0.000000  0.617041  0.085312  1
  In  In10  1  0.500000  0.416464  0.352020  1
  In  In11  1  0.500000  0.583658  0.648051  1
  In  In12  1  0.500000  0.083672  0.851963  1
  In  In13  1  0.500000  0.916078  0.148014  1
  In  In14  1  0.500000  0.302553  0.061813  1
  In  In15  1  0.500000  0.697561  0.938073  1
  In  In16  1  0.500000  0.197536  0.561931  1
  In  In17  1  0.500000  0.802371  0.438070  1
  Pt  Pt18  1  0.500000  0.029721  0.307252  1
  Pt  Pt19  1  0.500000  0.969717  0.693006  1
  Pt  Pt20  1  0.500000  0.469729  0.807023  1
  Pt  Pt21  1  0.500000  0.531035  0.192913  1
