# generated using pymatgen
data_Yb10CdSiPd4
_symmetry_space_group_name_H-M   'P 1'
_cell_length_a   8.83245005
_cell_length_b   8.83245009
_cell_length_c   8.83245017
_cell_angle_alpha   127.54840348
_cell_angle_beta   127.54839048
_cell_angle_gamma   77.35775217
_symmetry_Int_Tables_number   1
_chemical_formula_structural   Yb10CdSiPd4
_chemical_formula_sum   'Yb10 Cd1 Si1 Pd4'
_cell_volume   420.17805729
_cell_formula_units_Z   1
loop_
 _symmetry_equiv_pos_site_id
 _symmetry_equiv_pos_as_xyz
  1  'x, y, z'
loop_
 _atom_site_type_symbol
 _atom_site_label
 _atom_site_symmetry_multiplicity
 _atom_site_fract_x
 _atom_site_fract_y
 _atom_site_fract_z
 _atom_site_occupancy
  Yb  Yb0  1  0.497491  0.497491  0.000000  1
  Yb  Yb1  1  0.002509  0.002509  0.000000  1
  Yb  Yb2  1  0.522776  0.035635  0.833484  1
  Yb  Yb3  1  0.202152  0.689294  0.166516  1
  Yb  Yb4  1  0.035635  0.202152  0.512859  1
  Yb  Yb5  1  0.689294  0.522776  0.487141  1
  Yb  Yb6  1  0.464365  0.977224  0.166516  1
  Yb  Yb7  1  0.810706  0.297848  0.833484  1
  Yb  Yb8  1  0.977224  0.810706  0.512859  1
  Yb  Yb9  1  0.297848  0.464365  0.487141  1
  Cd  Cd10  1  0.750000  0.750000  0.000000  1
  Si  Si11  1  0.250000  0.250000  0.000000  1
  Pd  Pd12  1  0.129497  0.629497  0.758995  1
  Pd  Pd13  1  0.870503  0.370503  0.241005  1
  Pd  Pd14  1  0.629497  0.870503  0.500000  1
  Pd  Pd15  1  0.370503  0.129497  0.500000  1
