# generated using pymatgen
data_HfSc3Si4(MoW)2
_symmetry_space_group_name_H-M   'P 1'
_cell_length_a   3.52596500
_cell_length_b   7.00894646
_cell_length_c   8.21353202
_cell_angle_alpha   90.11319357
_cell_angle_beta   90.00000000
_cell_angle_gamma   90.00000000
_symmetry_Int_Tables_number   1
_chemical_formula_structural   HfSc3Si4(MoW)2
_chemical_formula_sum   'Hf1 Sc3 Si4 Mo2 W2'
_cell_volume   202.98308392
_cell_formula_units_Z   1
loop_
 _symmetry_equiv_pos_site_id
 _symmetry_equiv_pos_as_xyz
  1  'x, y, z'
loop_
 _atom_site_type_symbol
 _atom_site_label
 _atom_site_symmetry_multiplicity
 _atom_site_fract_x
 _atom_site_fract_y
 _atom_site_fract_z
 _atom_site_occupancy
  Hf  Hf0  1  0.750000  0.457179  0.833162  1
  Sc  Sc1  1  0.250000  0.043457  0.333698  1
  Sc  Sc2  1  0.750000  0.956531  0.666634  1
  Sc  Sc3  1  0.250000  0.542774  0.164733  1
  Si  Si4  1  0.250000  0.255607  0.638045  1
  Si  Si5  1  0.750000  0.742661  0.361672  1
  Si  Si6  1  0.250000  0.757476  0.861882  1
  Si  Si7  1  0.750000  0.243115  0.138521  1
  Mo  Mo8  1  0.750000  0.372124  0.442388  1
  Mo  Mo9  1  0.750000  0.871094  0.059073  1
  W  W10  1  0.250000  0.627316  0.560907  1
  W  W11  1  0.250000  0.130668  0.939284  1
