# generated using pymatgen
data_Pr2Co2P6Ru3Rh5
_symmetry_space_group_name_H-M   'P 1'
_cell_length_a   3.88737600
_cell_length_b   10.90063100
_cell_length_c   12.38780100
_cell_angle_alpha   90.00000000
_cell_angle_beta   90.00000000
_cell_angle_gamma   90.00000000
_symmetry_Int_Tables_number   1
_chemical_formula_structural   Pr2Co2P6Ru3Rh5
_chemical_formula_sum   'Pr4 Co4 P12 Ru6 Rh10'
_cell_volume   524.93122573
_cell_formula_units_Z   2
loop_
 _symmetry_equiv_pos_site_id
 _symmetry_equiv_pos_as_xyz
  1  'x, y, z'
loop_
 _atom_site_type_symbol
 _atom_site_label
 _atom_site_symmetry_multiplicity
 _atom_site_fract_x
 _atom_site_fract_y
 _atom_site_fract_z
 _atom_site_occupancy
  Pr  Pr0  1  0.250000  0.586257  0.706201  1
  Pr  Pr1  1  0.250000  0.913743  0.206201  1
  Pr  Pr2  1  0.750000  0.413010  0.294163  1
  Pr  Pr3  1  0.750000  0.086990  0.794163  1
  Co  Co4  1  0.250000  0.464696  0.934454  1
  Co  Co5  1  0.250000  0.035304  0.434454  1
  Co  Co6  1  0.750000  0.534557  0.065216  1
  Co  Co7  1  0.750000  0.965443  0.565216  1
  P  P8  1  0.250000  0.423564  0.105016  1
  P  P9  1  0.250000  0.076436  0.605016  1
  P  P10  1  0.750000  0.576408  0.894753  1
  P  P11  1  0.750000  0.923592  0.394753  1
  P  P12  1  0.250000  0.273306  0.879439  1
  P  P13  1  0.250000  0.226694  0.379439  1
  P  P14  1  0.750000  0.723573  0.122693  1
  P  P15  1  0.750000  0.776427  0.622693  1
  P  P16  1  0.250000  0.599115  0.392554  1
  P  P17  1  0.250000  0.900885  0.892554  1
  P  P18  1  0.750000  0.398065  0.605657  1
  P  P19  1  0.750000  0.101935  0.105657  1
  Ru  Ru20  1  0.250000  0.715929  0.988527  1
  Ru  Ru21  1  0.250000  0.784071  0.488527  1
  Ru  Ru22  1  0.750000  0.285366  0.010521  1
  Ru  Ru23  1  0.750000  0.214634  0.510521  1
  Ru  Ru24  1  0.250000  0.406510  0.491245  1
  Ru  Ru25  1  0.250000  0.093490  0.991245  1
  Rh  Rh26  1  0.750000  0.595150  0.511275  1
  Rh  Rh27  1  0.750000  0.904850  0.011275  1
  Rh  Rh28  1  0.250000  0.229526  0.179507  1
  Rh  Rh29  1  0.250000  0.270474  0.679507  1
  Rh  Rh30  1  0.750000  0.771418  0.820278  1
  Rh  Rh31  1  0.750000  0.728582  0.320278  1
  Rh  Rh32  1  0.250000  0.888002  0.698737  1
  Rh  Rh33  1  0.250000  0.611998  0.198737  1
  Rh  Rh34  1  0.750000  0.111170  0.299764  1
  Rh  Rh35  1  0.750000  0.388830  0.799764  1
