# generated using pymatgen
data_Dy4PtI6
_symmetry_space_group_name_H-M   'P 1'
_cell_length_a   4.19172400
_cell_length_b   14.11806800
_cell_length_c   14.89614300
_cell_angle_alpha   90.00000000
_cell_angle_beta   90.00000000
_cell_angle_gamma   90.00000000
_symmetry_Int_Tables_number   1
_chemical_formula_structural   Dy4PtI6
_chemical_formula_sum   'Dy8 Pt2 I12'
_cell_volume   881.53950902
_cell_formula_units_Z   2
loop_
 _symmetry_equiv_pos_site_id
 _symmetry_equiv_pos_as_xyz
  1  'x, y, z'
loop_
 _atom_site_type_symbol
 _atom_site_label
 _atom_site_symmetry_multiplicity
 _atom_site_fract_x
 _atom_site_fract_y
 _atom_site_fract_z
 _atom_site_occupancy
  Dy  Dy0  1  0.500000  0.116643  0.344758  1
  Dy  Dy1  1  0.500000  0.883357  0.655242  1
  Dy  Dy2  1  0.500000  0.616643  0.155242  1
  Dy  Dy3  1  0.500000  0.383357  0.844758  1
  Dy  Dy4  1  0.000000  0.105045  0.570967  1
  Dy  Dy5  1  0.000000  0.894955  0.429033  1
  Dy  Dy6  1  0.000000  0.605045  0.929033  1
  Dy  Dy7  1  0.000000  0.394955  0.070967  1
  Pt  Pt8  1  0.500000  0.000000  0.500000  1
  Pt  Pt9  1  0.500000  0.500000  0.000000  1
  I  I10  1  0.500000  0.247078  0.164566  1
  I  I11  1  0.500000  0.752922  0.835434  1
  I  I12  1  0.500000  0.747078  0.335434  1
  I  I13  1  0.500000  0.252922  0.664566  1
  I  I14  1  0.000000  0.262291  0.414811  1
  I  I15  1  0.000000  0.737709  0.585189  1
  I  I16  1  0.000000  0.762291  0.085189  1
  I  I17  1  0.000000  0.237709  0.914811  1
  I  I18  1  0.000000  0.999668  0.236813  1
  I  I19  1  0.000000  0.000332  0.763187  1
  I  I20  1  0.000000  0.499668  0.263187  1
  I  I21  1  0.000000  0.500332  0.736813  1
