# generated using pymatgen
data_TbYHo3CoBi2
_symmetry_space_group_name_H-M   'P 1'
_cell_length_a   8.00627000
_cell_length_b   8.88838000
_cell_length_c   12.42255300
_cell_angle_alpha   90.00000000
_cell_angle_beta   90.00000000
_cell_angle_gamma   90.00000000
_symmetry_Int_Tables_number   1
_chemical_formula_structural   TbYHo3CoBi2
_chemical_formula_sum   'Tb4 Y4 Ho12 Co4 Bi8'
_cell_volume   884.02328372
_cell_formula_units_Z   4
loop_
 _symmetry_equiv_pos_site_id
 _symmetry_equiv_pos_as_xyz
  1  'x, y, z'
loop_
 _atom_site_type_symbol
 _atom_site_label
 _atom_site_symmetry_multiplicity
 _atom_site_fract_x
 _atom_site_fract_y
 _atom_site_fract_z
 _atom_site_occupancy
  Tb  Tb0  1  0.884264  0.750000  0.810396  1
  Tb  Tb1  1  0.115736  0.250000  0.189604  1
  Tb  Tb2  1  0.384264  0.250000  0.689604  1
  Tb  Tb3  1  0.615736  0.750000  0.310396  1
  Y  Y4  1  0.346509  0.750000  0.700272  1
  Y  Y5  1  0.653491  0.250000  0.299728  1
  Y  Y6  1  0.846509  0.250000  0.799728  1
  Y  Y7  1  0.153491  0.750000  0.200272  1
  Ho  Ho8  1  0.675672  0.537872  0.562812  1
  Ho  Ho9  1  0.324328  0.462128  0.437188  1
  Ho  Ho10  1  0.175672  0.462128  0.937188  1
  Ho  Ho11  1  0.324328  0.037872  0.437188  1
  Ho  Ho12  1  0.824328  0.537872  0.062812  1
  Ho  Ho13  1  0.675672  0.962128  0.562812  1
  Ho  Ho14  1  0.824328  0.962128  0.062812  1
  Ho  Ho15  1  0.175672  0.037872  0.937188  1
  Ho  Ho16  1  0.052503  0.750000  0.497831  1
  Ho  Ho17  1  0.947497  0.250000  0.502169  1
  Ho  Ho18  1  0.552503  0.250000  0.002169  1
  Ho  Ho19  1  0.447497  0.750000  0.997831  1
  Co  Co20  1  0.066110  0.750000  0.991097  1
  Co  Co21  1  0.933890  0.250000  0.008903  1
  Co  Co22  1  0.566110  0.250000  0.508903  1
  Co  Co23  1  0.433890  0.750000  0.491097  1
  Bi  Bi24  1  0.571553  0.509511  0.827360  1
  Bi  Bi25  1  0.428447  0.490489  0.172640  1
  Bi  Bi26  1  0.071553  0.490489  0.672640  1
  Bi  Bi27  1  0.428447  0.009511  0.172640  1
  Bi  Bi28  1  0.928447  0.509511  0.327360  1
  Bi  Bi29  1  0.571553  0.990489  0.827360  1
  Bi  Bi30  1  0.928447  0.990489  0.327360  1
  Bi  Bi31  1  0.071553  0.009511  0.672640  1
