# generated using pymatgen
data_Ti7Mn2B4MoP2
_symmetry_space_group_name_H-M   'P 1'
_cell_length_a   6.98945400
_cell_length_b   6.98945444
_cell_length_c   6.98796968
_cell_angle_alpha   130.55723496
_cell_angle_beta   130.55723697
_cell_angle_gamma   72.63860934
_symmetry_Int_Tables_number   1
_chemical_formula_structural   Ti7Mn2B4MoP2
_chemical_formula_sum   'Ti7 Mn2 B4 Mo1 P2'
_cell_volume   192.42625321
_cell_formula_units_Z   1
loop_
 _symmetry_equiv_pos_site_id
 _symmetry_equiv_pos_as_xyz
  1  'x, y, z'
loop_
 _atom_site_type_symbol
 _atom_site_label
 _atom_site_symmetry_multiplicity
 _atom_site_fract_x
 _atom_site_fract_y
 _atom_site_fract_z
 _atom_site_occupancy
  Ti  Ti0  1  0.190453  0.690453  0.154919  1
  Ti  Ti1  1  0.463602  0.963602  0.155522  1
  Ti  Ti2  1  0.535908  0.035908  0.843597  1
  Ti  Ti3  1  0.036357  0.191700  0.499378  1
  Ti  Ti4  1  0.691700  0.536357  0.499378  1
  Ti  Ti5  1  0.962491  0.809268  0.500535  1
  Ti  Ti6  1  0.309268  0.462491  0.500535  1
  Mn  Mn7  1  0.001141  0.999601  0.000220  1
  Mn  Mn8  1  0.499601  0.501141  0.000220  1
  B  B9  1  0.883118  0.383118  0.265389  1
  B  B10  1  0.384664  0.116016  0.501579  1
  B  B11  1  0.616016  0.884664  0.501579  1
  B  B12  1  0.116003  0.616003  0.730814  1
  Mo  Mo13  1  0.809278  0.309278  0.843982  1
  P  P14  1  0.749721  0.750680  0.001175  1
  P  P15  1  0.250680  0.249721  0.001175  1
