# generated using pymatgen
data_Sc2SiP6(Ru5Rh)2
_symmetry_space_group_name_H-M   'P 1'
_cell_length_a   9.37568017
_cell_length_b   9.42768095
_cell_length_c   3.91116300
_cell_angle_alpha   90.00000000
_cell_angle_beta   90.00000000
_cell_angle_gamma   120.28812037
_symmetry_Int_Tables_number   1
_chemical_formula_structural   Sc2SiP6(Ru5Rh)2
_chemical_formula_sum   'Sc2 Si1 P6 Ru10 Rh2'
_cell_volume   298.52175699
_cell_formula_units_Z   1
loop_
 _symmetry_equiv_pos_site_id
 _symmetry_equiv_pos_as_xyz
  1  'x, y, z'
loop_
 _atom_site_type_symbol
 _atom_site_label
 _atom_site_symmetry_multiplicity
 _atom_site_fract_x
 _atom_site_fract_y
 _atom_site_fract_z
 _atom_site_occupancy
  Sc  Sc0  1  0.669071  0.333563  0.500000  1
  Sc  Sc1  1  0.326377  0.663841  0.000000  1
  Si  Si2  1  0.999203  0.001618  0.000000  1
  P  P3  1  0.601960  0.718855  0.500000  1
  P  P4  1  0.277560  0.879625  0.500000  1
  P  P5  1  0.116560  0.401383  0.500000  1
  P  P6  1  0.882452  0.574233  0.000000  1
  P  P7  1  0.426704  0.302528  0.000000  1
  P  P8  1  0.697233  0.120599  0.000000  1
  Ru  Ru9  1  0.912891  0.123470  0.500000  1
  Ru  Ru10  1  0.214217  0.090471  0.500000  1
  Ru  Ru11  1  0.878119  0.791150  0.500000  1
  Ru  Ru12  1  0.715247  0.884510  0.000000  1
  Ru  Ru13  1  0.113202  0.834936  0.000000  1
  Ru  Ru14  1  0.170686  0.283131  0.000000  1
  Ru  Ru15  1  0.431889  0.066597  0.000000  1
  Ru  Ru16  1  0.934052  0.362037  0.000000  1
  Ru  Ru17  1  0.638509  0.568572  0.000000  1
  Ru  Ru18  1  0.052015  0.606407  0.500000  1
  Rh  Rh19  1  0.547405  0.941604  0.500000  1
  Rh  Rh20  1  0.394651  0.450870  0.500000  1
