# generated using pymatgen
data_Ho4ErIrPt2
_symmetry_space_group_name_H-M   'P 1'
_cell_length_a   11.01075800
_cell_length_b   11.01075800
_cell_length_c   6.29481400
_cell_angle_alpha   90.00000000
_cell_angle_beta   90.00000000
_cell_angle_gamma   90.00000000
_symmetry_Int_Tables_number   1
_chemical_formula_structural   Ho4ErIrPt2
_chemical_formula_sum   'Ho16 Er4 Ir4 Pt8'
_cell_volume   763.16305393
_cell_formula_units_Z   4
loop_
 _symmetry_equiv_pos_site_id
 _symmetry_equiv_pos_as_xyz
  1  'x, y, z'
loop_
 _atom_site_type_symbol
 _atom_site_label
 _atom_site_symmetry_multiplicity
 _atom_site_fract_x
 _atom_site_fract_y
 _atom_site_fract_z
 _atom_site_occupancy
  Ho  Ho0  1  0.294430  0.087440  0.374586  1
  Ho  Ho1  1  0.294430  0.912560  0.874586  1
  Ho  Ho2  1  0.705570  0.087440  0.874586  1
  Ho  Ho3  1  0.705570  0.912560  0.374586  1
  Ho  Ho4  1  0.587440  0.794430  0.874586  1
  Ho  Ho5  1  0.587440  0.205570  0.374586  1
  Ho  Ho6  1  0.412560  0.794430  0.374586  1
  Ho  Ho7  1  0.412560  0.205570  0.874586  1
  Ho  Ho8  1  0.205570  0.412560  0.625414  1
  Ho  Ho9  1  0.205570  0.587440  0.125414  1
  Ho  Ho10  1  0.794430  0.412560  0.125414  1
  Ho  Ho11  1  0.794430  0.587440  0.625414  1
  Ho  Ho12  1  0.912560  0.705570  0.125414  1
  Ho  Ho13  1  0.912560  0.294430  0.625414  1
  Ho  Ho14  1  0.087440  0.705570  0.625414  1
  Ho  Ho15  1  0.087440  0.294430  0.125414  1
  Er  Er16  1  0.000000  0.000000  0.500000  1
  Er  Er17  1  0.000000  0.000000  0.000000  1
  Er  Er18  1  0.500000  0.500000  0.000000  1
  Er  Er19  1  0.500000  0.500000  0.500000  1
  Ir  Ir20  1  0.500000  0.000000  0.120662  1
  Ir  Ir21  1  0.500000  0.000000  0.620662  1
  Ir  Ir22  1  0.000000  0.500000  0.879338  1
  Ir  Ir23  1  0.000000  0.500000  0.379338  1
  Pt  Pt24  1  0.846520  0.153480  0.250000  1
  Pt  Pt25  1  0.846520  0.846520  0.750000  1
  Pt  Pt26  1  0.153480  0.153480  0.750000  1
  Pt  Pt27  1  0.153480  0.846520  0.250000  1
  Pt  Pt28  1  0.653480  0.346520  0.750000  1
  Pt  Pt29  1  0.653480  0.653480  0.250000  1
  Pt  Pt30  1  0.346520  0.346520  0.250000  1
  Pt  Pt31  1  0.346520  0.653480  0.750000  1
