# generated using pymatgen
data_LiEr2Rh5C
_symmetry_space_group_name_H-M   'P 1'
_cell_length_a   5.83068719
_cell_length_b   5.76463335
_cell_length_c   5.76463285
_cell_angle_alpha   60.75954143
_cell_angle_beta   59.62022542
_cell_angle_gamma   59.62023208
_symmetry_Int_Tables_number   1
_chemical_formula_structural   LiEr2Rh5C
_chemical_formula_sum   'Li1 Er2 Rh5 C1'
_cell_volume   136.97228485
_cell_formula_units_Z   1
loop_
 _symmetry_equiv_pos_site_id
 _symmetry_equiv_pos_as_xyz
  1  'x, y, z'
loop_
 _atom_site_type_symbol
 _atom_site_label
 _atom_site_symmetry_multiplicity
 _atom_site_fract_x
 _atom_site_fract_y
 _atom_site_fract_z
 _atom_site_occupancy
  Li  Li0  1  0.761576  0.238423  0.238423  1
  Er  Er1  1  0.252272  0.247728  0.247728  1
  Er  Er2  1  0.752272  0.747728  0.747728  1
  Rh  Rh3  1  0.254052  0.745947  0.248184  1
  Rh  Rh4  1  0.751815  0.745947  0.248184  1
  Rh  Rh5  1  0.254052  0.248184  0.745947  1
  Rh  Rh6  1  0.751815  0.248184  0.745947  1
  Rh  Rh7  1  0.237772  0.762227  0.762227  1
  C  C8  1  0.484370  0.515628  0.515628  1
