# generated using pymatgen
data_Dy2HoCo8MoP6
_symmetry_space_group_name_H-M   'P 1'
_cell_length_a   3.71953700
_cell_length_b   10.56048200
_cell_length_c   12.23860900
_cell_angle_alpha   90.00000000
_cell_angle_beta   90.00000000
_cell_angle_gamma   90.00000000
_symmetry_Int_Tables_number   1
_chemical_formula_structural   Dy2HoCo8MoP6
_chemical_formula_sum   'Dy4 Ho2 Co16 Mo2 P12'
_cell_volume   480.73382867
_cell_formula_units_Z   2
loop_
 _symmetry_equiv_pos_site_id
 _symmetry_equiv_pos_as_xyz
  1  'x, y, z'
loop_
 _atom_site_type_symbol
 _atom_site_label
 _atom_site_symmetry_multiplicity
 _atom_site_fract_x
 _atom_site_fract_y
 _atom_site_fract_z
 _atom_site_occupancy
  Dy  Dy0  1  0.000000  0.500000  0.524763  1
  Dy  Dy1  1  0.500000  0.000000  0.475477  1
  Dy  Dy2  1  0.500000  0.818776  0.204947  1
  Dy  Dy3  1  0.500000  0.181224  0.204947  1
  Ho  Ho4  1  0.000000  0.681024  0.795140  1
  Ho  Ho5  1  0.000000  0.318976  0.795140  1
  Co  Co6  1  0.000000  0.500000  0.985999  1
  Co  Co7  1  0.500000  0.000000  0.013338  1
  Co  Co8  1  0.500000  0.295845  0.431636  1
  Co  Co9  1  0.500000  0.704155  0.431636  1
  Co  Co10  1  0.000000  0.204356  0.568911  1
  Co  Co11  1  0.000000  0.795644  0.568911  1
  Co  Co12  1  0.500000  0.878081  0.706856  1
  Co  Co13  1  0.500000  0.121919  0.706856  1
  Co  Co14  1  0.000000  0.621647  0.293362  1
  Co  Co15  1  0.000000  0.378353  0.293362  1
  Co  Co16  1  0.500000  0.332565  0.989781  1
  Co  Co17  1  0.500000  0.667435  0.989781  1
  Co  Co18  1  0.000000  0.167705  0.009537  1
  Co  Co19  1  0.000000  0.832295  0.009537  1
  Co  Co20  1  0.500000  0.500000  0.701719  1
  Co  Co21  1  0.000000  0.000000  0.298661  1
  Mo  Mo22  1  0.500000  0.500000  0.156075  1
  Mo  Mo23  1  0.000000  0.000000  0.843749  1
  P  P24  1  0.500000  0.311236  0.616299  1
  P  P25  1  0.500000  0.688764  0.616299  1
  P  P26  1  0.000000  0.189033  0.384315  1
  P  P27  1  0.000000  0.810967  0.384315  1
  P  P28  1  0.500000  0.500000  0.880762  1
  P  P29  1  0.000000  0.000000  0.118701  1
  P  P30  1  0.500000  0.844496  0.892905  1
  P  P31  1  0.500000  0.155504  0.892905  1
  P  P32  1  0.000000  0.655132  0.106672  1
  P  P33  1  0.000000  0.344868  0.106672  1
  P  P34  1  0.500000  0.500000  0.349293  1
  P  P35  1  0.000000  0.000000  0.650738  1
