# generated using pymatgen
data_Y8Ti11Si16Os
_symmetry_space_group_name_H-M   'P 1'
_cell_length_a   7.03025714
_cell_length_b   7.03025716
_cell_length_c   12.90294106
_cell_angle_alpha   90.03672296
_cell_angle_beta   89.96327659
_cell_angle_gamma   89.93206489
_symmetry_Int_Tables_number   1
_chemical_formula_structural   Y8Ti11Si16Os
_chemical_formula_sum   'Y8 Ti11 Si16 Os1'
_cell_volume   637.72090197
_cell_formula_units_Z   1
loop_
 _symmetry_equiv_pos_site_id
 _symmetry_equiv_pos_as_xyz
  1  'x, y, z'
loop_
 _atom_site_type_symbol
 _atom_site_label
 _atom_site_symmetry_multiplicity
 _atom_site_fract_x
 _atom_site_fract_y
 _atom_site_fract_z
 _atom_site_occupancy
  Y  Y0  1  0.340801  0.003889  0.467298  1
  Y  Y1  1  0.496980  0.840770  0.718162  1
  Y  Y2  1  0.500181  0.159252  0.215077  1
  Y  Y3  1  0.840770  0.496980  0.281838  1
  Y  Y4  1  0.159252  0.500181  0.784923  1
  Y  Y5  1  0.658317  0.998528  0.968718  1
  Y  Y6  1  0.003889  0.340801  0.532702  1
  Y  Y7  1  0.998528  0.658317  0.031282  1
  Ti  Ti8  1  0.174268  0.827667  0.248285  1
  Ti  Ti9  1  0.827667  0.174268  0.751715  1
  Ti  Ti10  1  0.673957  0.673957  0.500000  1
  Ti  Ti11  1  0.151195  0.003911  0.875420  1
  Ti  Ti12  1  0.491914  0.655374  0.124555  1
  Ti  Ti13  1  0.507200  0.349022  0.628029  1
  Ti  Ti14  1  0.655374  0.491914  0.875445  1
  Ti  Ti15  1  0.349022  0.507200  0.371971  1
  Ti  Ti16  1  0.848523  0.993593  0.375199  1
  Ti  Ti17  1  0.003911  0.151195  0.124580  1
  Ti  Ti18  1  0.993593  0.848523  0.624801  1
  Si  Si19  1  0.202887  0.131594  0.685017  1
  Si  Si20  1  0.372441  0.699448  0.933537  1
  Si  Si21  1  0.631158  0.296975  0.434522  1
  Si  Si22  1  0.699448  0.372441  0.066463  1
  Si  Si23  1  0.296975  0.631158  0.565478  1
  Si  Si24  1  0.796383  0.868445  0.183892  1
  Si  Si25  1  0.131594  0.202887  0.314983  1
  Si  Si26  1  0.868445  0.796383  0.816108  1
  Si  Si27  1  0.287090  0.955191  0.064326  1
  Si  Si28  1  0.547094  0.791989  0.315278  1
  Si  Si29  1  0.450481  0.209244  0.818279  1
  Si  Si30  1  0.791989  0.547094  0.684722  1
  Si  Si31  1  0.209244  0.450481  0.181721  1
  Si  Si32  1  0.708778  0.048166  0.565629  1
  Si  Si33  1  0.955191  0.287090  0.935674  1
  Si  Si34  1  0.048166  0.708778  0.434371  1
  Os  Os35  1  0.327298  0.327298  0.000000  1
