# generated using pymatgen
data_Ti2Nb2AlInC2
_symmetry_space_group_name_H-M   'P 1'
_cell_length_a   3.12004500
_cell_length_b   3.12004418
_cell_length_c   14.13677600
_cell_angle_alpha   90.00000000
_cell_angle_beta   90.00000000
_cell_angle_gamma   120.00001925
_symmetry_Int_Tables_number   1
_chemical_formula_structural   Ti2Nb2AlInC2
_chemical_formula_sum   'Ti2 Nb2 Al1 In1 C2'
_cell_volume   119.17976537
_cell_formula_units_Z   1
loop_
 _symmetry_equiv_pos_site_id
 _symmetry_equiv_pos_as_xyz
  1  'x, y, z'
loop_
 _atom_site_type_symbol
 _atom_site_label
 _atom_site_symmetry_multiplicity
 _atom_site_fract_x
 _atom_site_fract_y
 _atom_site_fract_z
 _atom_site_occupancy
  Ti  Ti0  1  0.666667  0.333333  0.578725  1
  Ti  Ti1  1  0.666667  0.333333  0.921275  1
  Nb  Nb2  1  0.333333  0.666667  0.090979  1
  Nb  Nb3  1  0.333333  0.666667  0.409021  1
  Al  Al4  1  0.666667  0.333333  0.250000  1
  In  In5  1  0.333333  0.666667  0.750000  1
  C  C6  1  0.000000  0.000000  0.999568  1
  C  C7  1  0.000000  0.000000  0.500432  1
