# generated using pymatgen
data_Ti2GaIr5
_symmetry_space_group_name_H-M   'P 1'
_cell_length_a   3.98123300
_cell_length_b   5.43685000
_cell_length_c   10.82351400
_cell_angle_alpha   90.00000000
_cell_angle_beta   90.00000000
_cell_angle_gamma   90.00000000
_symmetry_Int_Tables_number   1
_chemical_formula_structural   Ti2GaIr5
_chemical_formula_sum   'Ti4 Ga2 Ir10'
_cell_volume   234.27892882
_cell_formula_units_Z   2
loop_
 _symmetry_equiv_pos_site_id
 _symmetry_equiv_pos_as_xyz
  1  'x, y, z'
loop_
 _atom_site_type_symbol
 _atom_site_label
 _atom_site_symmetry_multiplicity
 _atom_site_fract_x
 _atom_site_fract_y
 _atom_site_fract_z
 _atom_site_occupancy
  Ti  Ti0  1  0.500000  0.306826  0.137736  1
  Ti  Ti1  1  0.500000  0.693174  0.862264  1
  Ti  Ti2  1  0.500000  0.806826  0.362264  1
  Ti  Ti3  1  0.500000  0.193174  0.637736  1
  Ga  Ga4  1  0.000000  0.000000  0.000000  1
  Ga  Ga5  1  0.000000  0.500000  0.500000  1
  Ir  Ir6  1  0.000000  0.000000  0.500000  1
  Ir  Ir7  1  0.000000  0.500000  0.000000  1
  Ir  Ir8  1  0.000000  0.050488  0.252599  1
  Ir  Ir9  1  0.000000  0.949512  0.747401  1
  Ir  Ir10  1  0.000000  0.550488  0.247401  1
  Ir  Ir11  1  0.000000  0.449512  0.752599  1
  Ir  Ir12  1  0.500000  0.297634  0.385135  1
  Ir  Ir13  1  0.500000  0.702366  0.614865  1
  Ir  Ir14  1  0.500000  0.797634  0.114865  1
  Ir  Ir15  1  0.500000  0.202366  0.885135  1
