# generated using pymatgen
data_Tm3MgIn2IrAu2
_symmetry_space_group_name_H-M   'P 1'
_cell_length_a   7.78820390
_cell_length_b   7.75552070
_cell_length_c   3.79937800
_cell_angle_alpha   90.00000000
_cell_angle_beta   90.00000000
_cell_angle_gamma   120.02613299
_symmetry_Int_Tables_number   1
_chemical_formula_structural   Tm3MgIn2IrAu2
_chemical_formula_sum   'Tm3 Mg1 In2 Ir1 Au2'
_cell_volume   198.69044629
_cell_formula_units_Z   1
loop_
 _symmetry_equiv_pos_site_id
 _symmetry_equiv_pos_as_xyz
  1  'x, y, z'
loop_
 _atom_site_type_symbol
 _atom_site_label
 _atom_site_symmetry_multiplicity
 _atom_site_fract_x
 _atom_site_fract_y
 _atom_site_fract_z
 _atom_site_occupancy
  Tm  Tm0  1  0.417709  0.394149  0.500000  1
  Tm  Tm1  1  0.605279  0.026697  0.500000  1
  Tm  Tm2  1  0.974147  0.581721  0.500000  1
  Mg  Mg3  1  0.734648  0.736426  0.000000  1
  In  In4  1  0.265052  0.998024  0.000000  1
  In  In5  1  0.003932  0.269062  0.000000  1
  Ir  Ir6  1  0.668439  0.338560  0.000000  1
  Au  Au7  1  0.344802  0.668942  0.000000  1
  Au  Au8  1  0.985993  0.986418  0.500000  1
