# generated using pymatgen
data_MgNb4V(B2Ru5)2
_symmetry_space_group_name_H-M   'P 1'
_cell_length_a   9.40748305
_cell_length_b   9.38224405
_cell_length_c   3.02191300
_cell_angle_alpha   90.00000000
_cell_angle_beta   90.00000000
_cell_angle_gamma   89.71402838
_symmetry_Int_Tables_number   1
_chemical_formula_structural   MgNb4V(B2Ru5)2
_chemical_formula_sum   'Mg1 Nb4 V1 B4 Ru10'
_cell_volume   266.72069689
_cell_formula_units_Z   1
loop_
 _symmetry_equiv_pos_site_id
 _symmetry_equiv_pos_as_xyz
  1  'x, y, z'
loop_
 _atom_site_type_symbol
 _atom_site_label
 _atom_site_symmetry_multiplicity
 _atom_site_fract_x
 _atom_site_fract_y
 _atom_site_fract_z
 _atom_site_occupancy
  Mg  Mg0  1  0.820428  0.677921  0.000000  1
  Nb  Nb1  1  0.175330  0.326849  0.000000  1
  Nb  Nb2  1  0.326104  0.820585  0.000000  1
  Nb  Nb3  1  0.675388  0.177458  0.000000  1
  Nb  Nb4  1  0.998168  0.993920  0.000000  1
  V  V5  1  0.507001  0.501151  0.000000  1
  B  B6  1  0.621219  0.872451  0.000000  1
  B  B7  1  0.378790  0.127264  0.000000  1
  B  B8  1  0.127015  0.615808  0.000000  1
  B  B9  1  0.877020  0.381089  0.000000  1
  Ru  Ru10  1  0.559001  0.715040  0.500000  1
  Ru  Ru11  1  0.430080  0.288777  0.500000  1
  Ru  Ru12  1  0.082365  0.780545  0.500000  1
  Ru  Ru13  1  0.928523  0.217973  0.500000  1
  Ru  Ru14  1  0.289775  0.564530  0.500000  1
  Ru  Ru15  1  0.711384  0.425638  0.500000  1
  Ru  Ru16  1  0.217246  0.075915  0.500000  1
  Ru  Ru17  1  0.776531  0.936268  0.500000  1
  Ru  Ru18  1  0.497001  0.001676  0.500000  1
  Ru  Ru19  1  0.001631  0.499143  0.500000  1
