# generated using pymatgen
data_La4TbYb5Sn8
_symmetry_space_group_name_H-M   'P 1'
_cell_length_a   7.98114200
_cell_length_b   8.51711366
_cell_length_c   16.09116500
_cell_angle_alpha   90.04530054
_cell_angle_beta   90.00000000
_cell_angle_gamma   90.00000000
_symmetry_Int_Tables_number   1
_chemical_formula_structural   La4TbYb5Sn8
_chemical_formula_sum   'La8 Tb2 Yb10 Sn16'
_cell_volume   1093.81741400
_cell_formula_units_Z   2
loop_
 _symmetry_equiv_pos_site_id
 _symmetry_equiv_pos_as_xyz
  1  'x, y, z'
loop_
 _atom_site_type_symbol
 _atom_site_label
 _atom_site_symmetry_multiplicity
 _atom_site_fract_x
 _atom_site_fract_y
 _atom_site_fract_z
 _atom_site_occupancy
  La  La0  1  0.494463  0.316986  0.904409  1
  La  La1  1  0.994463  0.183014  0.595591  1
  La  La2  1  0.504940  0.685376  0.403450  1
  La  La3  1  0.004940  0.814624  0.096550  1
  La  La4  1  0.506745  0.684348  0.096683  1
  La  La5  1  0.006745  0.815652  0.403317  1
  La  La6  1  0.494242  0.315379  0.594929  1
  La  La7  1  0.994242  0.184621  0.905071  1
  Tb  Tb8  1  0.331787  0.827438  0.875710  1
  Tb  Tb9  1  0.831787  0.672562  0.624290  1
  Yb  Yb10  1  0.667391  0.171210  0.376275  1
  Yb  Yb11  1  0.167391  0.328790  0.123725  1
  Yb  Yb12  1  0.668866  0.171434  0.123659  1
  Yb  Yb13  1  0.168866  0.328566  0.376341  1
  Yb  Yb14  1  0.331224  0.828941  0.623010  1
  Yb  Yb15  1  0.831224  0.671059  0.876990  1
  Yb  Yb16  1  0.162380  0.502323  0.749915  1
  Yb  Yb17  1  0.662380  0.997677  0.750085  1
  Yb  Yb18  1  0.839227  0.494070  0.250380  1
  Yb  Yb19  1  0.339227  0.005930  0.249620  1
  Sn  Sn20  1  0.328924  0.034587  0.037510  1
  Sn  Sn21  1  0.828924  0.465413  0.462490  1
  Sn  Sn22  1  0.671688  0.962283  0.539269  1
  Sn  Sn23  1  0.171688  0.537717  0.960731  1
  Sn  Sn24  1  0.666868  0.963290  0.959950  1
  Sn  Sn25  1  0.166868  0.536710  0.540050  1
  Sn  Sn26  1  0.330054  0.036257  0.461341  1
  Sn  Sn27  1  0.830054  0.463743  0.038659  1
  Sn  Sn28  1  0.534079  0.610867  0.748761  1
  Sn  Sn29  1  0.034079  0.889133  0.751239  1
  Sn  Sn30  1  0.466471  0.394448  0.249709  1
  Sn  Sn31  1  0.966471  0.105552  0.250291  1
  Sn  Sn32  1  0.288514  0.137745  0.750964  1
  Sn  Sn33  1  0.788514  0.362255  0.749036  1
  Sn  Sn34  1  0.712137  0.860173  0.250049  1
  Sn  Sn35  1  0.212137  0.639827  0.249951  1
