# generated using pymatgen
data_Zr6Al6PdAu5
_symmetry_space_group_name_H-M   'P 1'
_cell_length_a   6.83596300
_cell_length_b   6.83596308
_cell_length_c   8.25608000
_cell_angle_alpha   90.00000000
_cell_angle_beta   90.00000000
_cell_angle_gamma   119.99999477
_symmetry_Int_Tables_number   1
_chemical_formula_structural   Zr6Al6PdAu5
_chemical_formula_sum   'Zr6 Al6 Pd1 Au5'
_cell_volume   334.12114355
_cell_formula_units_Z   1
loop_
 _symmetry_equiv_pos_site_id
 _symmetry_equiv_pos_as_xyz
  1  'x, y, z'
loop_
 _atom_site_type_symbol
 _atom_site_label
 _atom_site_symmetry_multiplicity
 _atom_site_fract_x
 _atom_site_fract_y
 _atom_site_fract_z
 _atom_site_occupancy
  Zr  Zr0  1  0.586638  0.999683  0.750000  1
  Zr  Zr1  1  0.000317  0.586953  0.750000  1
  Zr  Zr2  1  0.413047  0.413362  0.750000  1
  Zr  Zr3  1  0.999887  0.580167  0.250000  1
  Zr  Zr4  1  0.580280  0.000113  0.250000  1
  Zr  Zr5  1  0.419833  0.419720  0.250000  1
  Al  Al6  1  0.754396  0.754300  0.994926  1
  Al  Al7  1  0.245700  0.000095  0.994926  1
  Al  Al8  1  0.999905  0.245604  0.994926  1
  Al  Al9  1  0.754396  0.754300  0.505074  1
  Al  Al10  1  0.245700  0.000095  0.505074  1
  Al  Al11  1  0.999905  0.245604  0.505074  1
  Pd  Pd12  1  0.000000  0.000000  0.750000  1
  Au  Au13  1  0.000000  0.000000  0.250000  1
  Au  Au14  1  0.666667  0.333333  0.000272  1
  Au  Au15  1  0.666667  0.333333  0.499728  1
  Au  Au16  1  0.333333  0.666667  0.499369  1
  Au  Au17  1  0.333333  0.666667  0.000631  1
