# generated using pymatgen
data_Tb8Ta11TiSi15Sn
_symmetry_space_group_name_H-M   'P 1'
_cell_length_a   7.11186365
_cell_length_b   7.07330504
_cell_length_c   13.08107724
_cell_angle_alpha   89.99052062
_cell_angle_beta   89.87521946
_cell_angle_gamma   89.90172929
_symmetry_Int_Tables_number   1
_chemical_formula_structural   Tb8Ta11TiSi15Sn
_chemical_formula_sum   'Tb8 Ta11 Ti1 Si15 Sn1'
_cell_volume   658.03295641
_cell_formula_units_Z   1
loop_
 _symmetry_equiv_pos_site_id
 _symmetry_equiv_pos_as_xyz
  1  'x, y, z'
loop_
 _atom_site_type_symbol
 _atom_site_label
 _atom_site_symmetry_multiplicity
 _atom_site_fract_x
 _atom_site_fract_y
 _atom_site_fract_z
 _atom_site_occupancy
  Tb  Tb0  1  0.344657  0.000123  0.462821  1
  Tb  Tb1  1  0.505199  0.836802  0.720004  1
  Tb  Tb2  1  0.502727  0.158770  0.217800  1
  Tb  Tb3  1  0.841255  0.497557  0.281254  1
  Tb  Tb4  1  0.159485  0.508233  0.784916  1
  Tb  Tb5  1  0.659976  0.996360  0.969891  1
  Tb  Tb6  1  0.994119  0.347686  0.526174  1
  Tb  Tb7  1  0.998315  0.659312  0.032980  1
  Ta  Ta8  1  0.329437  0.329437  0.001219  1
  Ta  Ta9  1  0.171118  0.828431  0.249652  1
  Ta  Ta10  1  0.818140  0.174122  0.752009  1
  Ta  Ta11  1  0.670815  0.670752  0.499355  1
  Ta  Ta12  1  0.153156  0.006260  0.881369  1
  Ta  Ta13  1  0.493513  0.652614  0.124782  1
  Ta  Ta14  1  0.515105  0.352925  0.623506  1
  Ta  Ta15  1  0.655017  0.492362  0.878104  1
  Ta  Ta16  1  0.346676  0.507840  0.375078  1
  Ta  Ta17  1  0.843963  0.991502  0.373637  1
  Ta  Ta18  1  0.008533  0.153772  0.125341  1
  Ti  Ti19  1  0.979476  0.833213  0.620941  1
  Si  Si20  1  0.369169  0.704710  0.934273  1
  Si  Si21  1  0.630746  0.296776  0.431502  1
  Si  Si22  1  0.704517  0.367018  0.068470  1
  Si  Si23  1  0.295084  0.634140  0.566871  1
  Si  Si24  1  0.797591  0.867344  0.182512  1
  Si  Si25  1  0.132073  0.203167  0.316895  1
  Si  Si26  1  0.868863  0.800665  0.817278  1
  Si  Si27  1  0.295195  0.954102  0.065838  1
  Si  Si28  1  0.546614  0.791837  0.312759  1
  Si  Si29  1  0.458823  0.207149  0.817850  1
  Si  Si30  1  0.797718  0.543876  0.687321  1
  Si  Si31  1  0.206866  0.454671  0.186441  1
  Si  Si32  1  0.706797  0.046263  0.564009  1
  Si  Si33  1  0.954422  0.294552  0.936225  1
  Si  Si34  1  0.046373  0.709225  0.434618  1
  Sn  Sn35  1  0.198466  0.126430  0.676302  1
