# generated using pymatgen
data_TaNb3(ReB2)2
_symmetry_space_group_name_H-M   'P 1'
_cell_length_a   6.06077671
_cell_length_b   6.06077591
_cell_length_c   3.31520400
_cell_angle_alpha   90.00000000
_cell_angle_beta   90.00000000
_cell_angle_gamma   89.96431277
_symmetry_Int_Tables_number   1
_chemical_formula_structural   TaNb3(ReB2)2
_chemical_formula_sum   'Ta1 Nb3 Re2 B4'
_cell_volume   121.77739631
_cell_formula_units_Z   1
loop_
 _symmetry_equiv_pos_site_id
 _symmetry_equiv_pos_as_xyz
  1  'x, y, z'
loop_
 _atom_site_type_symbol
 _atom_site_label
 _atom_site_symmetry_multiplicity
 _atom_site_fract_x
 _atom_site_fract_y
 _atom_site_fract_z
 _atom_site_occupancy
  Ta  Ta0  1  0.676084  0.176084  0.500000  1
  Nb  Nb1  1  0.824726  0.674702  0.500000  1
  Nb  Nb2  1  0.324796  0.824796  0.500000  1
  Nb  Nb3  1  0.174702  0.324726  0.500000  1
  Re  Re4  1  0.499838  0.499280  0.000000  1
  Re  Re5  1  0.999280  0.999838  0.000000  1
  B  B6  1  0.111397  0.611397  0.000000  1
  B  B7  1  0.612433  0.890115  0.000000  1
  B  B8  1  0.390115  0.112433  0.000000  1
  B  B9  1  0.886629  0.386629  0.000000  1
