# generated using pymatgen
data_CsThAgS3
_symmetry_space_group_name_H-M   'P 1'
_cell_length_a   4.25439500
_cell_length_b   8.06137883
_cell_length_c   10.81768600
_cell_angle_alpha   90.00000000
_cell_angle_beta   90.00000000
_cell_angle_gamma   74.69987193
_symmetry_Int_Tables_number   1
_chemical_formula_structural   CsThAgS3
_chemical_formula_sum   'Cs2 Th2 Ag2 S6'
_cell_volume   357.85684721
_cell_formula_units_Z   2
loop_
 _symmetry_equiv_pos_site_id
 _symmetry_equiv_pos_as_xyz
  1  'x, y, z'
loop_
 _atom_site_type_symbol
 _atom_site_label
 _atom_site_symmetry_multiplicity
 _atom_site_fract_x
 _atom_site_fract_y
 _atom_site_fract_z
 _atom_site_occupancy
  Cs  Cs0  1  0.739632  0.520740  0.250000  1
  Cs  Cs1  1  0.260370  0.479260  0.750000  1
  Th  Th2  1  0.000000  0.000000  0.000000  1
  Th  Th3  1  0.000000  0.000000  0.500000  1
  Ag  Ag4  1  0.455893  0.088215  0.250000  1
  Ag  Ag5  1  0.544109  0.911785  0.750000  1
  S  S6  1  0.384348  0.231304  0.041610  1
  S  S7  1  0.053437  0.893126  0.250000  1
  S  S8  1  0.384348  0.231304  0.458390  1
  S  S9  1  0.615654  0.768696  0.541610  1
  S  S10  1  0.946564  0.106875  0.750000  1
  S  S11  1  0.615654  0.768696  0.958390  1
