# generated using pymatgen
data_UFeBC
_symmetry_space_group_name_H-M   'P 1'
_cell_length_a   3.49309200
_cell_length_b   3.49309200
_cell_length_c   7.60096800
_cell_angle_alpha   90.00000000
_cell_angle_beta   90.00000000
_cell_angle_gamma   90.00000000
_symmetry_Int_Tables_number   1
_chemical_formula_structural   UFeBC
_chemical_formula_sum   'U2 Fe2 B2 C2'
_cell_volume   92.74466831
_cell_formula_units_Z   2
loop_
 _symmetry_equiv_pos_site_id
 _symmetry_equiv_pos_as_xyz
  1  'x, y, z'
loop_
 _atom_site_type_symbol
 _atom_site_label
 _atom_site_symmetry_multiplicity
 _atom_site_fract_x
 _atom_site_fract_y
 _atom_site_fract_z
 _atom_site_occupancy
  U  U0  1  0.000000  0.500000  0.676662  1
  U  U1  1  0.500000  0.000000  0.323338  1
  Fe  Fe2  1  0.000000  0.000000  0.000000  1
  Fe  Fe3  1  0.500000  0.500000  0.000000  1
  B  B4  1  0.000000  0.500000  0.163974  1
  B  B5  1  0.500000  0.000000  0.836026  1
  C  C6  1  0.000000  0.500000  0.371250  1
  C  C7  1  0.500000  0.000000  0.628750  1
