# generated using pymatgen
data_Ba4AlSn3Pt4
_symmetry_space_group_name_H-M   'P 1'
_cell_length_a   7.13984259
_cell_length_b   7.13984254
_cell_length_c   7.13984363
_cell_angle_alpha   89.84200775
_cell_angle_beta   90.15799851
_cell_angle_gamma   90.15799517
_symmetry_Int_Tables_number   1
_chemical_formula_structural   Ba4AlSn3Pt4
_chemical_formula_sum   'Ba4 Al1 Sn3 Pt4'
_cell_volume   363.96617736
_cell_formula_units_Z   1
loop_
 _symmetry_equiv_pos_site_id
 _symmetry_equiv_pos_as_xyz
  1  'x, y, z'
loop_
 _atom_site_type_symbol
 _atom_site_label
 _atom_site_symmetry_multiplicity
 _atom_site_fract_x
 _atom_site_fract_y
 _atom_site_fract_z
 _atom_site_occupancy
  Ba  Ba0  1  0.905401  0.901115  0.902762  1
  Ba  Ba1  1  0.597238  0.094599  0.401115  1
  Ba  Ba2  1  0.098885  0.402762  0.594599  1
  Ba  Ba3  1  0.401722  0.598278  0.098278  1
  Al  Al4  1  0.097004  0.902996  0.402996  1
  Sn  Sn5  1  0.589196  0.595432  0.585882  1
  Sn  Sn6  1  0.914118  0.410804  0.095432  1
  Sn  Sn7  1  0.404568  0.085882  0.910804  1
  Pt  Pt8  1  0.165874  0.155946  0.184449  1
  Pt  Pt9  1  0.315551  0.834126  0.655946  1
  Pt  Pt10  1  0.844054  0.684449  0.334126  1
  Pt  Pt11  1  0.666388  0.333612  0.833612  1
