# generated using pymatgen
data_TbDy5(Er2Pb3)2
_symmetry_space_group_name_H-M   'P 1'
_cell_length_a   9.05729811
_cell_length_b   9.05729789
_cell_length_c   6.58940000
_cell_angle_alpha   90.00000000
_cell_angle_beta   90.00000000
_cell_angle_gamma   120.01773747
_symmetry_Int_Tables_number   1
_chemical_formula_structural   TbDy5(Er2Pb3)2
_chemical_formula_sum   'Tb1 Dy5 Er4 Pb6'
_cell_volume   468.05422073
_cell_formula_units_Z   1
loop_
 _symmetry_equiv_pos_site_id
 _symmetry_equiv_pos_as_xyz
  1  'x, y, z'
loop_
 _atom_site_type_symbol
 _atom_site_label
 _atom_site_symmetry_multiplicity
 _atom_site_fract_x
 _atom_site_fract_y
 _atom_site_fract_z
 _atom_site_occupancy
  Tb  Tb0  1  0.760904  0.760904  0.750000  1
  Dy  Dy1  1  0.239165  0.000036  0.750000  1
  Dy  Dy2  1  0.000036  0.239165  0.750000  1
  Dy  Dy3  1  0.239073  0.239073  0.250000  1
  Dy  Dy4  1  0.760882  0.000033  0.250000  1
  Dy  Dy5  1  0.000033  0.760882  0.250000  1
  Er  Er6  1  0.666667  0.333313  0.000019  1
  Er  Er7  1  0.333313  0.666667  0.000019  1
  Er  Er8  1  0.333313  0.666667  0.499981  1
  Er  Er9  1  0.666667  0.333313  0.499981  1
  Pb  Pb10  1  0.394030  0.394030  0.750000  1
  Pb  Pb11  1  0.605812  0.000093  0.750000  1
  Pb  Pb12  1  0.000093  0.605812  0.750000  1
  Pb  Pb13  1  0.605892  0.605892  0.250000  1
  Pb  Pb14  1  0.394115  0.000003  0.250000  1
  Pb  Pb15  1  0.000003  0.394115  0.250000  1
