# generated using pymatgen
data_CrFe(BMo)2
_symmetry_space_group_name_H-M   'P 1'
_cell_length_a   3.10085600
_cell_length_b   5.90648449
_cell_length_c   7.03176447
_cell_angle_alpha   89.67004250
_cell_angle_beta   90.00000000
_cell_angle_gamma   90.00000000
_symmetry_Int_Tables_number   1
_chemical_formula_structural   CrFe(BMo)2
_chemical_formula_sum   'Cr2 Fe2 B4 Mo4'
_cell_volume   128.78574080
_cell_formula_units_Z   2
loop_
 _symmetry_equiv_pos_site_id
 _symmetry_equiv_pos_as_xyz
  1  'x, y, z'
loop_
 _atom_site_type_symbol
 _atom_site_label
 _atom_site_symmetry_multiplicity
 _atom_site_fract_x
 _atom_site_fract_y
 _atom_site_fract_z
 _atom_site_occupancy
  Cr  Cr0  1  0.750000  0.861231  0.559442  1
  Cr  Cr1  1  0.250000  0.138769  0.440558  1
  Fe  Fe2  1  0.750000  0.357936  0.943971  1
  Fe  Fe3  1  0.250000  0.642064  0.056029  1
  B  B4  1  0.250000  0.762266  0.356192  1
  B  B5  1  0.750000  0.237734  0.643808  1
  B  B6  1  0.250000  0.268055  0.131325  1
  B  B7  1  0.750000  0.731945  0.868675  1
  Mo  Mo8  1  0.250000  0.532159  0.670473  1
  Mo  Mo9  1  0.750000  0.467841  0.329527  1
  Mo  Mo10  1  0.250000  0.027427  0.830398  1
  Mo  Mo11  1  0.750000  0.972573  0.169602  1
