# generated using pymatgen
data_NdY4HgPd14
_symmetry_space_group_name_H-M   'P 1'
_cell_length_a   4.19458700
_cell_length_b   4.12712200
_cell_length_c   21.05120200
_cell_angle_alpha   90.00000000
_cell_angle_beta   90.00000000
_cell_angle_gamma   90.00000000
_symmetry_Int_Tables_number   1
_chemical_formula_structural   NdY4HgPd14
_chemical_formula_sum   'Nd1 Y4 Hg1 Pd14'
_cell_volume   364.42940519
_cell_formula_units_Z   1
loop_
 _symmetry_equiv_pos_site_id
 _symmetry_equiv_pos_as_xyz
  1  'x, y, z'
loop_
 _atom_site_type_symbol
 _atom_site_label
 _atom_site_symmetry_multiplicity
 _atom_site_fract_x
 _atom_site_fract_y
 _atom_site_fract_z
 _atom_site_occupancy
  Nd  Nd0  1  0.000000  0.000000  0.000000  1
  Y  Y1  1  0.000000  0.000000  0.196845  1
  Y  Y2  1  0.000000  0.000000  0.388892  1
  Y  Y3  1  0.000000  0.000000  0.611108  1
  Y  Y4  1  0.000000  0.000000  0.803155  1
  Hg  Hg5  1  0.500000  0.000000  0.500000  1
  Pd  Pd6  1  0.500000  0.500000  0.000000  1
  Pd  Pd7  1  0.500000  0.500000  0.199158  1
  Pd  Pd8  1  0.500000  0.500000  0.396513  1
  Pd  Pd9  1  0.500000  0.500000  0.603487  1
  Pd  Pd10  1  0.500000  0.500000  0.800842  1
  Pd  Pd11  1  0.500000  0.000000  0.101626  1
  Pd  Pd12  1  0.500000  0.000000  0.297138  1
  Pd  Pd13  1  0.500000  0.000000  0.702862  1
  Pd  Pd14  1  0.500000  0.000000  0.898374  1
  Pd  Pd15  1  0.000000  0.500000  0.101194  1
  Pd  Pd16  1  0.000000  0.500000  0.296841  1
  Pd  Pd17  1  0.000000  0.500000  0.500000  1
  Pd  Pd18  1  0.000000  0.500000  0.703159  1
  Pd  Pd19  1  0.000000  0.500000  0.898806  1
