# generated using pymatgen
data_Y4TmBe4P8Ir19
_symmetry_space_group_name_H-M   'P 1'
_cell_length_a   12.64511543
_cell_length_b   12.54371825
_cell_length_c   3.94893100
_cell_angle_alpha   90.00000000
_cell_angle_beta   90.00000000
_cell_angle_gamma   120.05133904
_symmetry_Int_Tables_number   1
_chemical_formula_structural   Y4TmBe4P8Ir19
_chemical_formula_sum   'Y4 Tm1 Be4 P8 Ir19'
_cell_volume   542.16859945
_cell_formula_units_Z   1
loop_
 _symmetry_equiv_pos_site_id
 _symmetry_equiv_pos_as_xyz
  1  'x, y, z'
loop_
 _atom_site_type_symbol
 _atom_site_label
 _atom_site_symmetry_multiplicity
 _atom_site_fract_x
 _atom_site_fract_y
 _atom_site_fract_z
 _atom_site_occupancy
  Y  Y0  1  0.333860  0.666736  0.500000  1
  Y  Y1  1  0.183676  0.191239  0.000000  1
  Y  Y2  1  0.808799  0.999836  0.000000  1
  Y  Y3  1  0.004649  0.814883  0.000000  1
  Tm  Tm4  1  0.677441  0.331519  0.500000  1
  Be  Be5  1  0.314500  0.836120  0.000000  1
  Be  Be6  1  0.163798  0.477397  0.000000  1
  Be  Be7  1  0.521622  0.684699  0.000000  1
  Be  Be8  1  0.830202  0.307824  0.000000  1
  P  P9  1  0.485675  0.177256  0.000000  1
  P  P10  1  0.697761  0.517108  0.000000  1
  P  P11  1  0.361793  0.374562  0.500000  1
  P  P12  1  0.625826  0.993162  0.500000  1
  P  P13  1  0.007789  0.631268  0.500000  1
  P  P14  1  0.817753  0.819564  0.500000  1
  P  P15  1  0.182233  0.002484  0.500000  1
  P  P16  1  0.995244  0.181216  0.500000  1
  Ir  Ir17  1  0.195118  0.820636  0.500000  1
  Ir  Ir18  1  0.177213  0.376105  0.500000  1
  Ir  Ir19  1  0.624371  0.804416  0.500000  1
  Ir  Ir20  1  0.810458  0.187996  0.500000  1
  Ir  Ir21  1  0.378862  0.190968  0.500000  1
  Ir  Ir22  1  0.807406  0.621480  0.500000  1
  Ir  Ir23  1  0.126860  0.641089  0.000000  1
  Ir  Ir24  1  0.357135  0.483107  0.000000  1
  Ir  Ir25  1  0.513302  0.869810  0.000000  1
  Ir  Ir26  1  0.633313  0.128449  0.000000  1
  Ir  Ir27  1  0.501175  0.368800  0.000000  1
  Ir  Ir28  1  0.875038  0.509463  0.000000  1
  Ir  Ir29  1  0.546992  0.554077  0.500000  1
  Ir  Ir30  1  0.443345  0.991373  0.500000  1
  Ir  Ir31  1  0.995447  0.443069  0.500000  1
  Ir  Ir32  1  0.718531  0.713965  0.000000  1
  Ir  Ir33  1  0.287461  0.007318  0.000000  1
  Ir  Ir34  1  0.995464  0.280887  0.000000  1
  Ir  Ir35  1  0.999885  0.000116  0.500000  1
