# generated using pymatgen
data_HoTh7(Si4Mo3)4
_symmetry_space_group_name_H-M   'P 1'
_cell_length_a   7.00018508
_cell_length_b   7.06764113
_cell_length_c   13.15916442
_cell_angle_alpha   89.99154364
_cell_angle_beta   89.90253021
_cell_angle_gamma   89.82028950
_symmetry_Int_Tables_number   1
_chemical_formula_structural   HoTh7(Si4Mo3)4
_chemical_formula_sum   'Ho1 Th7 Si16 Mo12'
_cell_volume   651.04282323
_cell_formula_units_Z   1
loop_
 _symmetry_equiv_pos_site_id
 _symmetry_equiv_pos_as_xyz
  1  'x, y, z'
loop_
 _atom_site_type_symbol
 _atom_site_label
 _atom_site_symmetry_multiplicity
 _atom_site_fract_x
 _atom_site_fract_y
 _atom_site_fract_z
 _atom_site_occupancy
  Ho  Ho0  1  0.993716  0.167667  0.095650  1
  Th  Th1  1  0.491424  0.338270  0.095811  1
  Th  Th2  1  0.991967  0.161633  0.404990  1
  Th  Th3  1  0.508725  0.663776  0.595475  1
  Th  Th4  1  0.006192  0.834579  0.905687  1
  Th  Th5  1  0.507824  0.663429  0.906681  1
  Th  Th6  1  0.009523  0.837540  0.594799  1
  Th  Th7  1  0.490137  0.334733  0.402736  1
  Si  Si8  1  0.655778  0.049570  0.548553  1
  Si  Si9  1  0.152576  0.447383  0.953602  1
  Si  Si10  1  0.337845  0.954828  0.049584  1
  Si  Si11  1  0.842153  0.547892  0.451601  1
  Si  Si12  1  0.348471  0.947200  0.449170  1
  Si  Si13  1  0.847110  0.542911  0.049255  1
  Si  Si14  1  0.657424  0.049047  0.954481  1
  Si  Si15  1  0.155650  0.450871  0.548077  1
  Si  Si16  1  0.539076  0.350907  0.750375  1
  Si  Si17  1  0.039160  0.147598  0.751184  1
  Si  Si18  1  0.460838  0.652305  0.252825  1
  Si  Si19  1  0.963137  0.858701  0.245240  1
  Si  Si20  1  0.815619  0.615031  0.750443  1
  Si  Si21  1  0.314104  0.884308  0.751097  1
  Si  Si22  1  0.179775  0.380756  0.247904  1
  Si  Si23  1  0.692269  0.117605  0.246005  1
  Mo  Mo24  1  0.831888  0.335805  0.625562  1
  Mo  Mo25  1  0.333071  0.163752  0.876091  1
  Mo  Mo26  1  0.167044  0.662473  0.125048  1
  Mo  Mo27  1  0.679367  0.840555  0.372912  1
  Mo  Mo28  1  0.160674  0.661835  0.372697  1
  Mo  Mo29  1  0.663748  0.835009  0.123907  1
  Mo  Mo30  1  0.831034  0.336845  0.875309  1
  Mo  Mo31  1  0.331838  0.161821  0.625642  1
  Mo  Mo32  1  0.670783  0.996840  0.751729  1
  Mo  Mo33  1  0.172260  0.501261  0.750312  1
  Mo  Mo34  1  0.330280  0.004933  0.249488  1
  Mo  Mo35  1  0.827520  0.500328  0.250077  1
