# generated using pymatgen
data_Ta7Ir8Os13
_symmetry_space_group_name_H-M   'P 1'
_cell_length_a   5.56565400
_cell_length_b   5.57182013
_cell_length_c   15.84820256
_cell_angle_alpha   89.95587939
_cell_angle_beta   90.00000000
_cell_angle_gamma   119.96339860
_symmetry_Int_Tables_number   1
_chemical_formula_structural   Ta7Ir8Os13
_chemical_formula_sum   'Ta7 Ir8 Os13'
_cell_volume   425.77859483
_cell_formula_units_Z   1
loop_
 _symmetry_equiv_pos_site_id
 _symmetry_equiv_pos_as_xyz
  1  'x, y, z'
loop_
 _atom_site_type_symbol
 _atom_site_label
 _atom_site_symmetry_multiplicity
 _atom_site_fract_x
 _atom_site_fract_y
 _atom_site_fract_z
 _atom_site_occupancy
  Ta  Ta0  1  0.999881  0.999763  0.005243  1
  Ta  Ta1  1  0.333648  0.667294  0.141891  1
  Ta  Ta2  1  0.999601  0.999201  0.283799  1
  Ta  Ta3  1  0.666433  0.332868  0.429997  1
  Ta  Ta4  1  0.333195  0.666390  0.572162  1
  Ta  Ta5  1  0.000837  0.001674  0.710510  1
  Ta  Ta6  1  0.665216  0.330435  0.856263  1
  Ir  Ir7  1  0.499204  0.998410  0.998426  1
  Ir  Ir8  1  0.339534  0.170835  0.142301  1
  Ir  Ir9  1  0.831301  0.170835  0.142301  1
  Ir  Ir10  1  0.830549  0.661100  0.142410  1
  Ir  Ir11  1  0.500376  0.000753  0.286007  1
  Ir  Ir12  1  0.500139  0.502155  0.285668  1
  Ir  Ir13  1  0.002017  0.502155  0.285668  1
  Ir  Ir14  1  0.166923  0.333846  0.428233  1
  Os  Os15  1  0.003993  0.502102  0.997930  1
  Os  Os16  1  0.498109  0.502102  0.997930  1
  Os  Os17  1  0.167454  0.833610  0.428654  1
  Os  Os18  1  0.666157  0.833610  0.428654  1
  Os  Os19  1  0.330945  0.164139  0.571349  1
  Os  Os20  1  0.833193  0.164139  0.571349  1
  Os  Os21  1  0.833630  0.667261  0.572130  1
  Os  Os22  1  0.003696  0.502831  0.716449  1
  Os  Os23  1  0.499135  0.502831  0.716449  1
  Os  Os24  1  0.498936  0.997870  0.715201  1
  Os  Os25  1  0.165140  0.330278  0.856986  1
  Os  Os26  1  0.163075  0.830761  0.858024  1
  Os  Os27  1  0.667686  0.830761  0.858024  1
