# generated using pymatgen
data_LiLa2Pr3(P2Ru3)6
_symmetry_space_group_name_H-M   'P 1'
_cell_length_a   12.58718912
_cell_length_b   12.76148729
_cell_length_c   4.02339800
_cell_angle_alpha   90.00000000
_cell_angle_beta   90.00000000
_cell_angle_gamma   119.53329851
_symmetry_Int_Tables_number   1
_chemical_formula_structural   LiLa2Pr3(P2Ru3)6
_chemical_formula_sum   'Li1 La2 Pr3 P12 Ru18'
_cell_volume   562.31144673
_cell_formula_units_Z   1
loop_
 _symmetry_equiv_pos_site_id
 _symmetry_equiv_pos_as_xyz
  1  'x, y, z'
loop_
 _atom_site_type_symbol
 _atom_site_label
 _atom_site_symmetry_multiplicity
 _atom_site_fract_x
 _atom_site_fract_y
 _atom_site_fract_z
 _atom_site_occupancy
  Li  Li0  1  0.437341  0.000042  0.000000  1
  La  La1  1  0.818659  0.000240  0.500000  1
  La  La2  1  0.002780  0.818008  0.500000  1
  Pr  Pr3  1  0.185132  0.182753  0.500000  1
  Pr  Pr4  1  0.329954  0.659132  0.000000  1
  Pr  Pr5  1  0.670635  0.340519  0.000000  1
  P  P6  1  0.197066  0.000661  0.000000  1
  P  P7  1  0.998988  0.185772  0.000000  1
  P  P8  1  0.812484  0.814116  0.000000  1
  P  P9  1  0.520912  0.692503  0.500000  1
  P  P10  1  0.298364  0.819143  0.500000  1
  P  P11  1  0.166714  0.471600  0.500000  1
  P  P12  1  0.479314  0.180959  0.500000  1
  P  P13  1  0.695056  0.528393  0.500000  1
  P  P14  1  0.828490  0.307366  0.500000  1
  P  P15  1  0.628750  0.999979  0.000000  1
  P  P16  1  0.999624  0.622294  0.000000  1
  P  P17  1  0.376833  0.377101  0.000000  1
  Ru  Ru18  1  0.998551  0.443134  0.000000  1
  Ru  Ru19  1  0.555115  0.556694  0.000000  1
  Ru  Ru20  1  0.292640  0.000238  0.500000  1
  Ru  Ru21  1  0.997370  0.282946  0.500000  1
  Ru  Ru22  1  0.714060  0.717003  0.500000  1
  Ru  Ru23  1  0.617592  0.804369  0.000000  1
  Ru  Ru24  1  0.195770  0.812859  0.000000  1
  Ru  Ru25  1  0.182755  0.374009  0.000000  1
  Ru  Ru26  1  0.382886  0.187314  0.000000  1
  Ru  Ru27  1  0.808411  0.625615  0.000000  1
  Ru  Ru28  1  0.813305  0.195563  0.000000  1
  Ru  Ru29  1  0.508861  0.877992  0.500000  1
  Ru  Ru30  1  0.120500  0.629314  0.500000  1
  Ru  Ru31  1  0.364547  0.490583  0.500000  1
  Ru  Ru32  1  0.491016  0.370584  0.500000  1
  Ru  Ru33  1  0.873922  0.509225  0.500000  1
  Ru  Ru34  1  0.630914  0.121988  0.500000  1
  Ru  Ru35  1  0.004688  0.999989  0.000000  1
