# generated using pymatgen
data_Ti8Tc4Ir3Os
_symmetry_space_group_name_H-M   'P 1'
_cell_length_a   6.20245600
_cell_length_b   4.38382200
_cell_length_c   8.77417600
_cell_angle_alpha   90.00000000
_cell_angle_beta   90.00081132
_cell_angle_gamma   90.00000000
_symmetry_Int_Tables_number   1
_chemical_formula_structural   Ti8Tc4Ir3Os
_chemical_formula_sum   'Ti8 Tc4 Ir3 Os1'
_cell_volume   238.57390846
_cell_formula_units_Z   1
loop_
 _symmetry_equiv_pos_site_id
 _symmetry_equiv_pos_as_xyz
  1  'x, y, z'
loop_
 _atom_site_type_symbol
 _atom_site_label
 _atom_site_symmetry_multiplicity
 _atom_site_fract_x
 _atom_site_fract_y
 _atom_site_fract_z
 _atom_site_occupancy
  Ti  Ti0  1  0.998733  0.749999  0.123234  1
  Ti  Ti1  1  0.501296  0.749999  0.123237  1
  Ti  Ti2  1  0.999873  0.249999  0.374995  1
  Ti  Ti3  1  0.500160  0.249999  0.375002  1
  Ti  Ti4  1  0.501258  0.749999  0.626768  1
  Ti  Ti5  1  0.998707  0.749999  0.626771  1
  Ti  Ti6  1  0.502647  0.249999  0.874995  1
  Ti  Ti7  1  0.997322  0.249999  0.874998  1
  Tc  Tc8  1  0.750021  0.249999  0.126493  1
  Tc  Tc9  1  0.250014  0.749999  0.374997  1
  Tc  Tc10  1  0.749987  0.249999  0.623519  1
  Tc  Tc11  1  0.249980  0.749999  0.874997  1
  Ir  Ir12  1  0.250018  0.249999  0.125427  1
  Ir  Ir13  1  0.750020  0.749999  0.375000  1
  Ir  Ir14  1  0.249981  0.249999  0.624575  1
  Os  Os15  1  0.749981  0.749999  0.874994  1
