# generated using pymatgen
data_Zr8Ti3Nb9Ge16
_symmetry_space_group_name_H-M   'P 1'
_cell_length_a   6.85481513
_cell_length_b   6.97112112
_cell_length_c   13.32747933
_cell_angle_alpha   89.98274662
_cell_angle_beta   90.01860731
_cell_angle_gamma   90.01211022
_symmetry_Int_Tables_number   1
_chemical_formula_structural   Zr8Ti3Nb9Ge16
_chemical_formula_sum   'Zr8 Ti3 Nb9 Ge16'
_cell_volume   636.86347196
_cell_formula_units_Z   1
loop_
 _symmetry_equiv_pos_site_id
 _symmetry_equiv_pos_as_xyz
  1  'x, y, z'
loop_
 _atom_site_type_symbol
 _atom_site_label
 _atom_site_symmetry_multiplicity
 _atom_site_fract_x
 _atom_site_fract_y
 _atom_site_fract_z
 _atom_site_occupancy
  Zr  Zr0  1  0.491988  0.676693  0.092041  1
  Zr  Zr1  1  0.992309  0.823687  0.407530  1
  Zr  Zr2  1  0.508822  0.324608  0.591251  1
  Zr  Zr3  1  0.009560  0.173459  0.908014  1
  Zr  Zr4  1  0.510756  0.325127  0.907884  1
  Zr  Zr5  1  0.011021  0.174575  0.591398  1
  Zr  Zr6  1  0.488838  0.674275  0.407690  1
  Zr  Zr7  1  0.989494  0.825337  0.092559  1
  Ti  Ti8  1  0.838917  0.666515  0.624349  1
  Ti  Ti9  1  0.661148  0.166753  0.375090  1
  Ti  Ti10  1  0.160219  0.333836  0.125760  1
  Nb  Nb11  1  0.335553  0.007444  0.249912  1
  Nb  Nb12  1  0.835324  0.492552  0.250635  1
  Nb  Nb13  1  0.664223  0.992195  0.749667  1
  Nb  Nb14  1  0.164611  0.508498  0.751006  1
  Nb  Nb15  1  0.659323  0.166885  0.124745  1
  Nb  Nb16  1  0.158707  0.333986  0.375700  1
  Nb  Nb17  1  0.340195  0.834364  0.624015  1
  Nb  Nb18  1  0.841578  0.666768  0.875593  1
  Nb  Nb19  1  0.339190  0.832902  0.875613  1
  Ge  Ge20  1  0.694968  0.854554  0.251802  1
  Ge  Ge21  1  0.195391  0.645635  0.248614  1
  Ge  Ge22  1  0.304651  0.148306  0.749787  1
  Ge  Ge23  1  0.805705  0.353210  0.748785  1
  Ge  Ge24  1  0.679911  0.960943  0.960477  1
  Ge  Ge25  1  0.177663  0.539635  0.540408  1
  Ge  Ge26  1  0.322781  0.039909  0.459187  1
  Ge  Ge27  1  0.822234  0.460373  0.040721  1
  Ge  Ge28  1  0.314724  0.043768  0.040707  1
  Ge  Ge29  1  0.814655  0.459200  0.461384  1
  Ge  Ge30  1  0.684507  0.959448  0.538137  1
  Ge  Ge31  1  0.182054  0.536189  0.962795  1
  Ge  Ge32  1  0.460801  0.383263  0.250699  1
  Ge  Ge33  1  0.961098  0.116666  0.249875  1
  Ge  Ge34  1  0.540565  0.614956  0.748383  1
  Ge  Ge35  1  0.036517  0.883484  0.747787  1
