# generated using pymatgen
data_TbScReB6
_symmetry_space_group_name_H-M   'P 1'
_cell_length_a   3.59728000
_cell_length_b   9.01632000
_cell_length_c   11.41304400
_cell_angle_alpha   90.00000000
_cell_angle_beta   90.00000000
_cell_angle_gamma   90.00000000
_symmetry_Int_Tables_number   1
_chemical_formula_structural   TbScReB6
_chemical_formula_sum   'Tb4 Sc4 Re4 B24'
_cell_volume   370.17326681
_cell_formula_units_Z   4
loop_
 _symmetry_equiv_pos_site_id
 _symmetry_equiv_pos_as_xyz
  1  'x, y, z'
loop_
 _atom_site_type_symbol
 _atom_site_label
 _atom_site_symmetry_multiplicity
 _atom_site_fract_x
 _atom_site_fract_y
 _atom_site_fract_z
 _atom_site_occupancy
  Tb  Tb0  1  0.000000  0.321902  0.414243  1
  Tb  Tb1  1  0.000000  0.678098  0.585757  1
  Tb  Tb2  1  0.000000  0.821902  0.085757  1
  Tb  Tb3  1  0.000000  0.178098  0.914243  1
  Sc  Sc4  1  0.000000  0.944495  0.371004  1
  Sc  Sc5  1  0.000000  0.055505  0.628996  1
  Sc  Sc6  1  0.000000  0.444495  0.128996  1
  Sc  Sc7  1  0.000000  0.555505  0.871004  1
  Re  Re8  1  0.000000  0.641204  0.318200  1
  Re  Re9  1  0.000000  0.358796  0.681800  1
  Re  Re10  1  0.000000  0.141204  0.181800  1
  Re  Re11  1  0.000000  0.858796  0.818200  1
  B  B12  1  0.500000  0.554495  0.432069  1
  B  B13  1  0.500000  0.445505  0.567931  1
  B  B14  1  0.500000  0.054495  0.067931  1
  B  B15  1  0.500000  0.945505  0.932069  1
  B  B16  1  0.500000  0.754054  0.417906  1
  B  B17  1  0.500000  0.245946  0.582094  1
  B  B18  1  0.500000  0.254054  0.082094  1
  B  B19  1  0.500000  0.745946  0.917906  1
  B  B20  1  0.500000  0.795206  0.265321  1
  B  B21  1  0.500000  0.204794  0.734679  1
  B  B22  1  0.500000  0.295206  0.234679  1
  B  B23  1  0.500000  0.704794  0.765321  1
  B  B24  1  0.500000  0.628928  0.183258  1
  B  B25  1  0.500000  0.371072  0.816742  1
  B  B26  1  0.500000  0.128928  0.316742  1
  B  B27  1  0.500000  0.871072  0.683258  1
  B  B28  1  0.500000  0.981450  0.213967  1
  B  B29  1  0.500000  0.018550  0.786033  1
  B  B30  1  0.500000  0.481450  0.286033  1
  B  B31  1  0.500000  0.518550  0.713967  1
  B  B32  1  0.500000  0.595553  0.026082  1
  B  B33  1  0.500000  0.404447  0.973918  1
  B  B34  1  0.500000  0.095553  0.473918  1
  B  B35  1  0.500000  0.904447  0.526082  1
