# generated using pymatgen
data_Zr6Al6Pd5Pt
_symmetry_space_group_name_H-M   'P 1'
_cell_length_a   7.20292800
_cell_length_b   7.20292782
_cell_length_c   7.19120400
_cell_angle_alpha   90.00000000
_cell_angle_beta   90.00000000
_cell_angle_gamma   119.99999164
_symmetry_Int_Tables_number   1
_chemical_formula_structural   Zr6Al6Pd5Pt
_chemical_formula_sum   'Zr6 Al6 Pd5 Pt1'
_cell_volume   323.11001072
_cell_formula_units_Z   1
loop_
 _symmetry_equiv_pos_site_id
 _symmetry_equiv_pos_as_xyz
  1  'x, y, z'
loop_
 _atom_site_type_symbol
 _atom_site_label
 _atom_site_symmetry_multiplicity
 _atom_site_fract_x
 _atom_site_fract_y
 _atom_site_fract_z
 _atom_site_occupancy
  Zr  Zr0  1  0.019681  0.605080  0.750500  1
  Zr  Zr1  1  0.982533  0.587270  0.249612  1
  Zr  Zr2  1  0.604737  0.017467  0.249612  1
  Zr  Zr3  1  0.585399  0.980319  0.750500  1
  Zr  Zr4  1  0.412730  0.395263  0.249612  1
  Zr  Zr5  1  0.394920  0.414601  0.750500  1
  Al  Al6  1  0.999465  0.256512  0.500465  1
  Al  Al7  1  0.741655  0.740944  0.000901  1
  Al  Al8  1  0.999288  0.258345  0.000901  1
  Al  Al9  1  0.257049  0.000535  0.500465  1
  Al  Al10  1  0.259056  0.000712  0.000901  1
  Al  Al11  1  0.743488  0.742951  0.500465  1
  Pd  Pd12  1  0.333333  0.666667  0.469655  1
  Pd  Pd13  1  0.666667  0.333333  0.526808  1
  Pd  Pd14  1  0.666667  0.333333  0.973356  1
  Pd  Pd15  1  0.000000  0.000000  0.248453  1
  Pd  Pd16  1  0.000000  0.000000  0.752752  1
  Pt  Pt17  1  0.333333  0.666667  0.024543  1
