# generated using pymatgen
data_Sm6P12Ru13Rh5
_symmetry_space_group_name_H-M   'P 1'
_cell_length_a   4.00558300
_cell_length_b   11.28774394
_cell_length_c   12.65058357
_cell_angle_alpha   89.73827196
_cell_angle_beta   90.00000000
_cell_angle_gamma   90.00000000
_symmetry_Int_Tables_number   1
_chemical_formula_structural   Sm6P12Ru13Rh5
_chemical_formula_sum   'Sm6 P12 Ru13 Rh5'
_cell_volume   571.97745730
_cell_formula_units_Z   1
loop_
 _symmetry_equiv_pos_site_id
 _symmetry_equiv_pos_as_xyz
  1  'x, y, z'
loop_
 _atom_site_type_symbol
 _atom_site_label
 _atom_site_symmetry_multiplicity
 _atom_site_fract_x
 _atom_site_fract_y
 _atom_site_fract_z
 _atom_site_occupancy
  Sm  Sm0  1  0.000000  0.499001  0.522863  1
  Sm  Sm1  1  0.500000  0.001962  0.477468  1
  Sm  Sm2  1  0.500000  0.819356  0.204466  1
  Sm  Sm3  1  0.500000  0.179555  0.204784  1
  Sm  Sm4  1  0.000000  0.681126  0.795186  1
  Sm  Sm5  1  0.000000  0.320171  0.795130  1
  P  P6  1  0.500000  0.500979  0.886542  1
  P  P7  1  0.000000  0.999198  0.113352  1
  P  P8  1  0.500000  0.500014  0.343595  1
  P  P9  1  0.000000  0.992703  0.659069  1
  P  P10  1  0.500000  0.303767  0.614095  1
  P  P11  1  0.500000  0.699074  0.615899  1
  P  P12  1  0.000000  0.195637  0.386120  1
  P  P13  1  0.000000  0.802867  0.384664  1
  P  P14  1  0.500000  0.845292  0.895638  1
  P  P15  1  0.500000  0.156820  0.898734  1
  P  P16  1  0.000000  0.656112  0.101637  1
  P  P17  1  0.000000  0.343617  0.101952  1
  Ru  Ru18  1  0.500000  0.500060  0.159947  1
  Ru  Ru19  1  0.000000  0.001623  0.841657  1
  Ru  Ru20  1  0.000000  0.500387  0.989295  1
  Ru  Ru21  1  0.500000  0.999662  0.011039  1
  Ru  Ru22  1  0.500000  0.332853  0.992936  1
  Ru  Ru23  1  0.500000  0.668425  0.992154  1
  Ru  Ru24  1  0.000000  0.167862  0.007857  1
  Ru  Ru25  1  0.000000  0.832213  0.007570  1
  Ru  Ru26  1  0.500000  0.298932  0.428196  1
  Ru  Ru27  1  0.500000  0.700609  0.428041  1
  Ru  Ru28  1  0.000000  0.199649  0.571938  1
  Ru  Ru29  1  0.000000  0.797735  0.569340  1
  Ru  Ru30  1  0.500000  0.878846  0.713527  1
  Rh  Rh31  1  0.500000  0.500278  0.697435  1
  Rh  Rh32  1  0.000000  0.999501  0.302534  1
  Rh  Rh33  1  0.500000  0.125439  0.716905  1
  Rh  Rh34  1  0.000000  0.623237  0.284277  1
  Rh  Rh35  1  0.000000  0.375435  0.284158  1
