# generated using pymatgen
data_Hf6NbTc12W5
_symmetry_space_group_name_H-M   'P 1'
_cell_length_a   4.49518500
_cell_length_b   6.39072900
_cell_length_c   13.61316000
_cell_angle_alpha   90.00000000
_cell_angle_beta   90.00011845
_cell_angle_gamma   90.00000000
_symmetry_Int_Tables_number   1
_chemical_formula_structural   Hf6NbTc12W5
_chemical_formula_sum   'Hf6 Nb1 Tc12 W5'
_cell_volume   391.07217832
_cell_formula_units_Z   1
loop_
 _symmetry_equiv_pos_site_id
 _symmetry_equiv_pos_as_xyz
  1  'x, y, z'
loop_
 _atom_site_type_symbol
 _atom_site_label
 _atom_site_symmetry_multiplicity
 _atom_site_fract_x
 _atom_site_fract_y
 _atom_site_fract_z
 _atom_site_occupancy
  Hf  Hf0  1  0.000000  0.500000  0.000000  1
  Hf  Hf1  1  0.499987  0.000000  0.167109  1
  Hf  Hf2  1  0.999990  0.500000  0.333110  1
  Hf  Hf3  1  0.500001  0.000000  0.500000  1
  Hf  Hf4  1  0.000010  0.500000  0.666889  1
  Hf  Hf5  1  0.500014  0.000000  0.832890  1
  Nb  Nb6  1  0.000000  0.000000  0.000000  1
  Tc  Tc7  1  0.500000  0.253336  0.000000  1
  Tc  Tc8  1  0.500000  0.746665  0.000000  1
  Tc  Tc9  1  0.999989  0.251774  0.168681  1
  Tc  Tc10  1  0.999989  0.748226  0.168681  1
  Tc  Tc11  1  0.499994  0.249454  0.333965  1
  Tc  Tc12  1  0.499994  0.750545  0.333965  1
  Tc  Tc13  1  0.000000  0.250579  0.500000  1
  Tc  Tc14  1  0.000000  0.749422  0.500000  1
  Tc  Tc15  1  0.500008  0.249454  0.666035  1
  Tc  Tc16  1  0.500008  0.750545  0.666035  1
  Tc  Tc17  1  0.000011  0.251774  0.831319  1
  Tc  Tc18  1  0.000011  0.748226  0.831319  1
  W  W19  1  0.499987  0.500000  0.166048  1
  W  W20  1  0.999994  0.000000  0.333303  1
  W  W21  1  0.500001  0.500000  0.500000  1
  W  W22  1  0.000006  0.000000  0.666696  1
  W  W23  1  0.500012  0.500000  0.833952  1
