# generated using pymatgen
data_Pa8B24Mo3W
_symmetry_space_group_name_H-M   'P 1'
_cell_length_a   3.76448900
_cell_length_b   9.37077115
_cell_length_c   11.52481807
_cell_angle_alpha   90.03461730
_cell_angle_beta   90.00000000
_cell_angle_gamma   90.00000000
_symmetry_Int_Tables_number   1
_chemical_formula_structural   Pa8B24Mo3W
_chemical_formula_sum   'Pa8 B24 Mo3 W1'
_cell_volume   406.55130852
_cell_formula_units_Z   1
loop_
 _symmetry_equiv_pos_site_id
 _symmetry_equiv_pos_as_xyz
  1  'x, y, z'
loop_
 _atom_site_type_symbol
 _atom_site_label
 _atom_site_symmetry_multiplicity
 _atom_site_fract_x
 _atom_site_fract_y
 _atom_site_fract_z
 _atom_site_occupancy
  Pa  Pa0  1  0.000000  0.334542  0.408242  1
  Pa  Pa1  1  0.000000  0.665749  0.591947  1
  Pa  Pa2  1  0.000000  0.834350  0.091599  1
  Pa  Pa3  1  0.000000  0.165625  0.908274  1
  Pa  Pa4  1  0.000000  0.952517  0.386918  1
  Pa  Pa5  1  0.000000  0.047612  0.612676  1
  Pa  Pa6  1  0.000000  0.452509  0.113182  1
  Pa  Pa7  1  0.000000  0.547091  0.887083  1
  B  B8  1  0.500000  0.550437  0.432330  1
  B  B9  1  0.500000  0.449611  0.567682  1
  B  B10  1  0.500000  0.050489  0.067729  1
  B  B11  1  0.500000  0.949661  0.932363  1
  B  B12  1  0.500000  0.742345  0.423538  1
  B  B13  1  0.500000  0.257773  0.576345  1
  B  B14  1  0.500000  0.242333  0.076455  1
  B  B15  1  0.500000  0.757455  0.923653  1
  B  B16  1  0.500000  0.801202  0.273706  1
  B  B17  1  0.500000  0.198842  0.726255  1
  B  B18  1  0.500000  0.301149  0.226305  1
  B  B19  1  0.500000  0.698736  0.773755  1
  B  B20  1  0.500000  0.644970  0.188592  1
  B  B21  1  0.500000  0.354946  0.811461  1
  B  B22  1  0.500000  0.145038  0.311413  1
  B  B23  1  0.500000  0.855104  0.688496  1
  B  B24  1  0.500000  0.987816  0.217630  1
  B  B25  1  0.500000  0.012317  0.782347  1
  B  B26  1  0.500000  0.487810  0.282407  1
  B  B27  1  0.500000  0.512137  0.717670  1
  B  B28  1  0.500000  0.643159  0.039874  1
  B  B29  1  0.500000  0.356507  0.960262  1
  B  B30  1  0.500000  0.143483  0.460072  1
  B  B31  1  0.500000  0.856802  0.539636  1
  Mo  Mo32  1  0.000000  0.644844  0.320244  1
  Mo  Mo33  1  0.000000  0.355177  0.679783  1
  Mo  Mo34  1  0.000000  0.144704  0.179780  1
  W  W35  1  0.000000  0.855159  0.820294  1
