# generated using pymatgen
data_YEr11ZnGaCo4
_symmetry_space_group_name_H-M   'P 1'
_cell_length_a   8.21272107
_cell_length_b   8.21180644
_cell_length_c   8.21180718
_cell_angle_alpha   111.99884766
_cell_angle_beta   109.65902603
_cell_angle_gamma   106.79333199
_symmetry_Int_Tables_number   1
_chemical_formula_structural   YEr11ZnGaCo4
_chemical_formula_sum   'Y1 Er11 Zn1 Ga1 Co4'
_cell_volume   425.46885892
_cell_formula_units_Z   1
loop_
 _symmetry_equiv_pos_site_id
 _symmetry_equiv_pos_as_xyz
  1  'x, y, z'
loop_
 _atom_site_type_symbol
 _atom_site_label
 _atom_site_symmetry_multiplicity
 _atom_site_fract_x
 _atom_site_fract_y
 _atom_site_fract_z
 _atom_site_occupancy
  Y  Y0  1  0.956934  0.261712  0.695221  1
  Er  Er1  1  0.041604  0.737616  0.303988  1
  Er  Er2  1  0.672677  0.861329  0.187660  1
  Er  Er3  1  0.326853  0.515264  0.189084  1
  Er  Er4  1  0.326853  0.137768  0.811591  1
  Er  Er5  1  0.672677  0.485016  0.811348  1
  Er  Er6  1  0.566325  0.262539  0.303786  1
  Er  Er7  1  0.432871  0.737415  0.695456  1
  Er  Er8  1  0.180456  0.781177  0.960701  1
  Er  Er9  1  0.819918  0.779187  0.600268  1
  Er  Er10  1  0.180456  0.219755  0.399278  1
  Er  Er11  1  0.819918  0.219651  0.040729  1
  Zn  Zn12  1  0.000066  0.500898  0.499167  1
  Ga  Ga13  1  0.498961  0.999591  0.499371  1
  Co  Co14  1  0.116313  0.115304  0.001009  1
  Co  Co15  1  0.884282  0.884444  0.999839  1
  Co  Co16  1  0.663510  0.500054  0.163455  1
  Co  Co17  1  0.339330  0.501281  0.838048  1
