# generated using pymatgen
data_Ta4CrS8
_symmetry_space_group_name_H-M   'P 1'
_cell_length_a   6.64901200
_cell_length_b   6.64901124
_cell_length_c   12.16672700
_cell_angle_alpha   90.00000000
_cell_angle_beta   90.00000000
_cell_angle_gamma   119.99999384
_symmetry_Int_Tables_number   1
_chemical_formula_structural   Ta4CrS8
_chemical_formula_sum   'Ta8 Cr2 S16'
_cell_volume   465.82050920
_cell_formula_units_Z   2
loop_
 _symmetry_equiv_pos_site_id
 _symmetry_equiv_pos_as_xyz
  1  'x, y, z'
loop_
 _atom_site_type_symbol
 _atom_site_label
 _atom_site_symmetry_multiplicity
 _atom_site_fract_x
 _atom_site_fract_y
 _atom_site_fract_z
 _atom_site_occupancy
  Ta  Ta0  1  0.000000  0.000000  0.250000  1
  Ta  Ta1  1  0.000000  0.000000  0.750000  1
  Ta  Ta2  1  0.506366  0.012731  0.250000  1
  Ta  Ta3  1  0.493634  0.987269  0.750000  1
  Ta  Ta4  1  0.987269  0.493634  0.250000  1
  Ta  Ta5  1  0.012731  0.506366  0.750000  1
  Ta  Ta6  1  0.506366  0.493634  0.250000  1
  Ta  Ta7  1  0.493634  0.506366  0.750000  1
  Cr  Cr8  1  0.000000  0.000000  0.000000  1
  Cr  Cr9  1  0.000000  0.000000  0.500000  1
  S  S10  1  0.333333  0.666667  0.617268  1
  S  S11  1  0.666667  0.333333  0.382732  1
  S  S12  1  0.666667  0.333333  0.117268  1
  S  S13  1  0.333333  0.666667  0.882732  1
  S  S14  1  0.166667  0.333334  0.120837  1
  S  S15  1  0.833333  0.666666  0.879163  1
  S  S16  1  0.666666  0.833333  0.120837  1
  S  S17  1  0.833333  0.666666  0.620837  1
  S  S18  1  0.333334  0.166667  0.879163  1
  S  S19  1  0.166667  0.333334  0.379163  1
  S  S20  1  0.166667  0.833333  0.120837  1
  S  S21  1  0.333334  0.166667  0.620837  1
  S  S22  1  0.833333  0.166667  0.879163  1
  S  S23  1  0.666666  0.833333  0.379163  1
  S  S24  1  0.833333  0.166667  0.620837  1
  S  S25  1  0.166667  0.833333  0.379163  1
