# generated using pymatgen
data_La2Y3Ho3(CdNi)2
_symmetry_space_group_name_H-M   'P 1'
_cell_length_a   9.68400892
_cell_length_b   9.68400785
_cell_length_c   9.68400900
_cell_angle_alpha   59.99999950
_cell_angle_beta   60.00000314
_cell_angle_gamma   59.99999648
_symmetry_Int_Tables_number   1
_chemical_formula_structural   La2Y3Ho3(CdNi)2
_chemical_formula_sum   'La4 Y6 Ho6 Cd4 Ni4'
_cell_volume   642.17071642
_cell_formula_units_Z   2
loop_
 _symmetry_equiv_pos_site_id
 _symmetry_equiv_pos_as_xyz
  1  'x, y, z'
loop_
 _atom_site_type_symbol
 _atom_site_label
 _atom_site_symmetry_multiplicity
 _atom_site_fract_x
 _atom_site_fract_y
 _atom_site_fract_z
 _atom_site_occupancy
  La  La0  1  0.600167  0.600167  0.600167  1
  La  La1  1  0.600167  0.600167  0.199500  1
  La  La2  1  0.600167  0.199500  0.600167  1
  La  La3  1  0.199500  0.600167  0.600167  1
  Y  Y4  1  0.184220  0.815780  0.815780  1
  Y  Y5  1  0.815780  0.184220  0.184220  1
  Y  Y6  1  0.815780  0.184220  0.815780  1
  Y  Y7  1  0.184220  0.815780  0.184220  1
  Y  Y8  1  0.815780  0.815780  0.184220  1
  Y  Y9  1  0.184220  0.184220  0.815780  1
  Ho  Ho10  1  0.064278  0.435722  0.435722  1
  Ho  Ho11  1  0.435722  0.064278  0.064278  1
  Ho  Ho12  1  0.435722  0.064278  0.435722  1
  Ho  Ho13  1  0.064278  0.435722  0.064278  1
  Ho  Ho14  1  0.435722  0.435722  0.064278  1
  Ho  Ho15  1  0.064278  0.064278  0.435722  1
  Cd  Cd16  1  0.832686  0.832686  0.832686  1
  Cd  Cd17  1  0.832686  0.832686  0.501940  1
  Cd  Cd18  1  0.832686  0.501940  0.832686  1
  Cd  Cd19  1  0.501940  0.832686  0.832686  1
  Ni  Ni20  1  0.390679  0.390679  0.390679  1
  Ni  Ni21  1  0.390679  0.390679  0.827966  1
  Ni  Ni22  1  0.390679  0.827966  0.390679  1
  Ni  Ni23  1  0.827966  0.390679  0.390679  1
