# generated using pymatgen
data_NdSm2V(Co4P3)2
_symmetry_space_group_name_H-M   'P 1'
_cell_length_a   3.74026600
_cell_length_b   10.66312200
_cell_length_c   12.35983900
_cell_angle_alpha   90.00000000
_cell_angle_beta   90.00000000
_cell_angle_gamma   90.00000000
_symmetry_Int_Tables_number   1
_chemical_formula_structural   NdSm2V(Co4P3)2
_chemical_formula_sum   'Nd2 Sm4 V2 Co16 P12'
_cell_volume   492.94637946
_cell_formula_units_Z   2
loop_
 _symmetry_equiv_pos_site_id
 _symmetry_equiv_pos_as_xyz
  1  'x, y, z'
loop_
 _atom_site_type_symbol
 _atom_site_label
 _atom_site_symmetry_multiplicity
 _atom_site_fract_x
 _atom_site_fract_y
 _atom_site_fract_z
 _atom_site_occupancy
  Nd  Nd0  1  0.000000  0.500000  0.523269  1
  Nd  Nd1  1  0.500000  0.000000  0.476731  1
  Sm  Sm2  1  0.500000  0.818418  0.204342  1
  Sm  Sm3  1  0.500000  0.181582  0.204342  1
  Sm  Sm4  1  0.000000  0.681582  0.795658  1
  Sm  Sm5  1  0.000000  0.318418  0.795658  1
  V  V6  1  0.500000  0.500000  0.152202  1
  V  V7  1  0.000000  0.000000  0.847798  1
  Co  Co8  1  0.500000  0.500000  0.704289  1
  Co  Co9  1  0.000000  0.000000  0.295711  1
  Co  Co10  1  0.000000  0.500000  0.987573  1
  Co  Co11  1  0.500000  0.000000  0.012427  1
  Co  Co12  1  0.500000  0.332466  0.993726  1
  Co  Co13  1  0.500000  0.667534  0.993726  1
  Co  Co14  1  0.000000  0.167534  0.006274  1
  Co  Co15  1  0.000000  0.832466  0.006274  1
  Co  Co16  1  0.500000  0.295635  0.430534  1
  Co  Co17  1  0.500000  0.704365  0.430534  1
  Co  Co18  1  0.000000  0.204365  0.569466  1
  Co  Co19  1  0.000000  0.795635  0.569466  1
  Co  Co20  1  0.500000  0.880227  0.709219  1
  Co  Co21  1  0.500000  0.119773  0.709219  1
  Co  Co22  1  0.000000  0.619773  0.290781  1
  Co  Co23  1  0.000000  0.380227  0.290781  1
  P  P24  1  0.500000  0.500000  0.884921  1
  P  P25  1  0.000000  0.000000  0.115079  1
  P  P26  1  0.500000  0.500000  0.342772  1
  P  P27  1  0.000000  0.000000  0.657228  1
  P  P28  1  0.500000  0.307381  0.615483  1
  P  P29  1  0.500000  0.692619  0.615483  1
  P  P30  1  0.000000  0.192619  0.384517  1
  P  P31  1  0.000000  0.807381  0.384517  1
  P  P32  1  0.500000  0.847038  0.893716  1
  P  P33  1  0.500000  0.152962  0.893716  1
  P  P34  1  0.000000  0.652962  0.106284  1
  P  P35  1  0.000000  0.347038  0.106284  1
