# generated using pymatgen
data_Ho5Er11Cd4Ir3Ru
_symmetry_space_group_name_H-M   'P 1'
_cell_length_a   9.59050071
_cell_length_b   9.58959431
_cell_length_c   9.58959411
_cell_angle_alpha   59.70133222
_cell_angle_beta   59.70757636
_cell_angle_gamma   59.70757809
_symmetry_Int_Tables_number   1
_chemical_formula_structural   Ho5Er11Cd4Ir3Ru
_chemical_formula_sum   'Ho5 Er11 Cd4 Ir3 Ru1'
_cell_volume   619.45791405
_cell_formula_units_Z   1
loop_
 _symmetry_equiv_pos_site_id
 _symmetry_equiv_pos_as_xyz
  1  'x, y, z'
loop_
 _atom_site_type_symbol
 _atom_site_label
 _atom_site_symmetry_multiplicity
 _atom_site_fract_x
 _atom_site_fract_y
 _atom_site_fract_z
 _atom_site_occupancy
  Ho  Ho0  1  0.809993  0.188212  0.188212  1
  Ho  Ho1  1  0.811746  0.188651  0.811643  1
  Ho  Ho2  1  0.188222  0.810066  0.188075  1
  Ho  Ho3  1  0.811746  0.811643  0.188651  1
  Ho  Ho4  1  0.188222  0.188075  0.810066  1
  Er  Er5  1  0.598869  0.598958  0.598958  1
  Er  Er6  1  0.598361  0.598408  0.206226  1
  Er  Er7  1  0.598361  0.206226  0.598408  1
  Er  Er8  1  0.206225  0.598375  0.598375  1
  Er  Er9  1  0.061983  0.438623  0.438623  1
  Er  Er10  1  0.438078  0.060259  0.060259  1
  Er  Er11  1  0.438555  0.061893  0.438803  1
  Er  Er12  1  0.060255  0.438254  0.060086  1
  Er  Er13  1  0.438555  0.438803  0.061893  1
  Er  Er14  1  0.060255  0.060086  0.438254  1
  Er  Er15  1  0.188771  0.811586  0.811586  1
  Cd  Cd16  1  0.830116  0.829967  0.829967  1
  Cd  Cd17  1  0.830679  0.830701  0.507061  1
  Cd  Cd18  1  0.830679  0.507061  0.830701  1
  Cd  Cd19  1  0.506964  0.830681  0.830681  1
  Ir  Ir20  1  0.393026  0.393180  0.825910  1
  Ir  Ir21  1  0.393026  0.825910  0.393180  1
  Ir  Ir22  1  0.825969  0.393076  0.393076  1
  Ru  Ru23  1  0.391346  0.391310  0.391310  1
