# generated using pymatgen
data_Sr(ZrSe2)4
_symmetry_space_group_name_H-M   'P 1'
_cell_length_a   8.74138398
_cell_length_b   8.74138436
_cell_length_c   8.74138389
_cell_angle_alpha   51.28250223
_cell_angle_beta   51.28249666
_cell_angle_gamma   51.28249816
_symmetry_Int_Tables_number   1
_chemical_formula_structural   Sr(ZrSe2)4
_chemical_formula_sum   'Sr1 Zr4 Se8'
_cell_volume   375.31725883
_cell_formula_units_Z   1
loop_
 _symmetry_equiv_pos_site_id
 _symmetry_equiv_pos_as_xyz
  1  'x, y, z'
loop_
 _atom_site_type_symbol
 _atom_site_label
 _atom_site_symmetry_multiplicity
 _atom_site_fract_x
 _atom_site_fract_y
 _atom_site_fract_z
 _atom_site_occupancy
  Sr  Sr0  1  0.500000  0.500000  0.500000  1
  Zr  Zr1  1  0.000000  0.500000  0.500000  1
  Zr  Zr2  1  0.500000  0.000000  0.500000  1
  Zr  Zr3  1  0.500000  0.500000  0.000000  1
  Zr  Zr4  1  0.000000  0.000000  0.000000  1
  Se  Se5  1  0.256613  0.763158  0.763158  1
  Se  Se6  1  0.236842  0.236842  0.743387  1
  Se  Se7  1  0.743387  0.236842  0.236842  1
  Se  Se8  1  0.236842  0.743387  0.236842  1
  Se  Se9  1  0.262541  0.262541  0.262541  1
  Se  Se10  1  0.737459  0.737459  0.737459  1
  Se  Se11  1  0.763158  0.256613  0.763158  1
  Se  Se12  1  0.763158  0.763158  0.256613  1
