# generated using pymatgen
data_EuP12(RuRh)2
_symmetry_space_group_name_H-M   'P 1'
_cell_length_a   7.02576798
_cell_length_b   7.03257561
_cell_length_c   7.02576892
_cell_angle_alpha   109.48773449
_cell_angle_beta   109.41318197
_cell_angle_gamma   109.47348058
_symmetry_Int_Tables_number   1
_chemical_formula_structural   EuP12(RuRh)2
_chemical_formula_sum   'Eu1 P12 Ru2 Rh2'
_cell_volume   267.35622536
_cell_formula_units_Z   1
loop_
 _symmetry_equiv_pos_site_id
 _symmetry_equiv_pos_as_xyz
  1  'x, y, z'
loop_
 _atom_site_type_symbol
 _atom_site_label
 _atom_site_symmetry_multiplicity
 _atom_site_fract_x
 _atom_site_fract_y
 _atom_site_fract_z
 _atom_site_occupancy
  Eu  Eu0  1  0.000000  0.000000  0.000000  1
  P  P1  1  0.355989  0.212832  0.856843  1
  P  P2  1  0.644011  0.787168  0.143157  1
  P  P3  1  0.642127  0.500827  0.858700  1
  P  P4  1  0.357873  0.499173  0.141300  1
  P  P5  1  0.214859  0.859833  0.358905  1
  P  P6  1  0.785141  0.140167  0.641095  1
  P  P7  1  0.500928  0.859833  0.644973  1
  P  P8  1  0.499072  0.140167  0.355027  1
  P  P9  1  0.855493  0.354639  0.214749  1
  P  P10  1  0.144507  0.645361  0.785251  1
  P  P11  1  0.860110  0.645361  0.500854  1
  P  P12  1  0.139890  0.354639  0.499146  1
  Ru  Ru13  1  0.000000  0.000000  0.500000  1
  Ru  Ru14  1  0.500000  0.000000  0.000000  1
  Rh  Rh15  1  0.000000  0.500000  0.000000  1
  Rh  Rh16  1  0.500000  0.500000  0.500000  1
