# generated using pymatgen
data_Tb4Y2TcSb2
_symmetry_space_group_name_H-M   'P 1'
_cell_length_a   8.23751642
_cell_length_b   8.22658697
_cell_length_c   4.26052600
_cell_angle_alpha   90.00000000
_cell_angle_beta   90.00000000
_cell_angle_gamma   119.95612906
_symmetry_Int_Tables_number   1
_chemical_formula_structural   Tb4Y2TcSb2
_chemical_formula_sum   'Tb4 Y2 Tc1 Sb2'
_cell_volume   250.15066273
_cell_formula_units_Z   1
loop_
 _symmetry_equiv_pos_site_id
 _symmetry_equiv_pos_as_xyz
  1  'x, y, z'
loop_
 _atom_site_type_symbol
 _atom_site_label
 _atom_site_symmetry_multiplicity
 _atom_site_fract_x
 _atom_site_fract_y
 _atom_site_fract_z
 _atom_site_occupancy
  Tb  Tb0  1  0.236628  0.999969  0.000000  1
  Tb  Tb1  1  0.000000  0.600579  0.500000  1
  Tb  Tb2  1  0.763372  0.763341  0.000000  1
  Tb  Tb3  1  0.000000  0.236852  0.000000  1
  Y  Y4  1  0.399530  0.399456  0.500000  1
  Y  Y5  1  0.600470  0.999926  0.500000  1
  Tc  Tc6  1  0.000000  0.999982  0.500000  1
  Sb  Sb7  1  0.333573  0.666735  0.000000  1
  Sb  Sb8  1  0.666427  0.333161  0.000000  1
