# generated using pymatgen
data_Ho5ErTmCoI12
_symmetry_space_group_name_H-M   'P 1'
_cell_length_a   9.69793603
_cell_length_b   9.70043490
_cell_length_c   9.69343100
_cell_angle_alpha   106.82234404
_cell_angle_beta   106.82952883
_cell_angle_gamma   106.84908281
_symmetry_Int_Tables_number   1
_chemical_formula_structural   Ho5ErTmCoI12
_chemical_formula_sum   'Ho5 Er1 Tm1 Co1 I12'
_cell_volume   762.86040646
_cell_formula_units_Z   1
loop_
 _symmetry_equiv_pos_site_id
 _symmetry_equiv_pos_as_xyz
  1  'x, y, z'
loop_
 _atom_site_type_symbol
 _atom_site_label
 _atom_site_symmetry_multiplicity
 _atom_site_fract_x
 _atom_site_fract_y
 _atom_site_fract_z
 _atom_site_occupancy
  Ho  Ho0  1  0.286251  0.091222  0.021045  1
  Ho  Ho1  1  0.021326  0.286310  0.090711  1
  Ho  Ho2  1  0.091303  0.021492  0.286645  1
  Ho  Ho3  1  0.713488  0.908753  0.978170  1
  Ho  Ho4  1  0.978382  0.713550  0.908370  1
  Er  Er5  1  0.500054  0.500007  0.499936  1
  Tm  Tm6  1  0.909708  0.978801  0.715760  1
  Co  Co7  1  0.999923  0.999978  0.999750  1
  I  I8  1  0.463183  0.161082  0.386611  1
  I  I9  1  0.386630  0.463242  0.161114  1
  I  I10  1  0.161063  0.386558  0.463183  1
  I  I11  1  0.537321  0.839017  0.613283  1
  I  I12  1  0.613358  0.536740  0.838845  1
  I  I13  1  0.838817  0.613839  0.536775  1
  I  I14  1  0.323412  0.775794  0.929429  1
  I  I15  1  0.929331  0.322832  0.775410  1
  I  I16  1  0.775980  0.929567  0.323842  1
  I  I17  1  0.676562  0.224218  0.070520  1
  I  I18  1  0.070559  0.676722  0.224209  1
  I  I19  1  0.223350  0.070272  0.676392  1
