# generated using pymatgen
data_Hg3Sb2F12
_symmetry_space_group_name_H-M   'P 1'
_cell_length_a   9.01771200
_cell_length_b   6.15668876
_cell_length_c   12.12862576
_cell_angle_alpha   86.09697962
_cell_angle_beta   90.00000000
_cell_angle_gamma   90.00000000
_symmetry_Int_Tables_number   1
_chemical_formula_structural   Hg3Sb2F12
_chemical_formula_sum   'Hg6 Sb4 F24'
_cell_volume   671.81040136
_cell_formula_units_Z   2
loop_
 _symmetry_equiv_pos_site_id
 _symmetry_equiv_pos_as_xyz
  1  'x, y, z'
loop_
 _atom_site_type_symbol
 _atom_site_label
 _atom_site_symmetry_multiplicity
 _atom_site_fract_x
 _atom_site_fract_y
 _atom_site_fract_z
 _atom_site_occupancy
  Hg  Hg0  1  0.732912  0.760588  0.559258  1
  Hg  Hg1  1  0.232912  0.239412  0.940742  1
  Hg  Hg2  1  0.267088  0.239412  0.440742  1
  Hg  Hg3  1  0.767088  0.760588  0.059258  1
  Hg  Hg4  1  0.500000  0.000000  0.500000  1
  Hg  Hg5  1  0.000000  0.000000  0.000000  1
  Sb  Sb6  1  0.144957  0.705764  0.669641  1
  Sb  Sb7  1  0.644957  0.294236  0.830359  1
  Sb  Sb8  1  0.855043  0.294236  0.330359  1
  Sb  Sb9  1  0.355043  0.705764  0.169641  1
  F  F10  1  0.958848  0.584082  0.618031  1
  F  F11  1  0.458848  0.415918  0.881969  1
  F  F12  1  0.041152  0.415918  0.381969  1
  F  F13  1  0.541152  0.584082  0.118031  1
  F  F14  1  0.206722  0.416394  0.718057  1
  F  F15  1  0.706722  0.583606  0.781943  1
  F  F16  1  0.793278  0.583606  0.281943  1
  F  F17  1  0.293278  0.416394  0.218057  1
  F  F18  1  0.058410  0.735250  0.812146  1
  F  F19  1  0.558410  0.264750  0.687854  1
  F  F20  1  0.172831  0.833884  0.213290  1
  F  F21  1  0.672831  0.166116  0.286710  1
  F  F22  1  0.827169  0.166116  0.786710  1
  F  F23  1  0.327169  0.833884  0.713290  1
  F  F24  1  0.267898  0.660239  0.027518  1
  F  F25  1  0.767898  0.339761  0.472482  1
  F  F26  1  0.732102  0.339761  0.972482  1
  F  F27  1  0.232102  0.660239  0.527518  1
  F  F28  1  0.427435  0.985189  0.115542  1
  F  F29  1  0.927435  0.014811  0.384458  1
  F  F30  1  0.572565  0.014811  0.884458  1
  F  F31  1  0.072565  0.985189  0.615542  1
  F  F32  1  0.441590  0.735250  0.312146  1
  F  F33  1  0.941590  0.264750  0.187854  1
