# generated using pymatgen
data_HoTm2TlSi2Ag3
_symmetry_space_group_name_H-M   'P 1'
_cell_length_a   7.18621000
_cell_length_b   7.18620976
_cell_length_c   4.19914100
_cell_angle_alpha   90.00000000
_cell_angle_beta   90.00000000
_cell_angle_gamma   119.99799411
_symmetry_Int_Tables_number   1
_chemical_formula_structural   HoTm2TlSi2Ag3
_chemical_formula_sum   'Ho1 Tm2 Tl1 Si2 Ag3'
_cell_volume   187.80176156
_cell_formula_units_Z   1
loop_
 _symmetry_equiv_pos_site_id
 _symmetry_equiv_pos_as_xyz
  1  'x, y, z'
loop_
 _atom_site_type_symbol
 _atom_site_label
 _atom_site_symmetry_multiplicity
 _atom_site_fract_x
 _atom_site_fract_y
 _atom_site_fract_z
 _atom_site_occupancy
  Ho  Ho0  1  0.427143  0.427143  0.500000  1
  Tm  Tm1  1  0.572495  0.000165  0.500000  1
  Tm  Tm2  1  0.000165  0.572495  0.500000  1
  Tl  Tl3  1  0.999091  0.999091  0.500000  1
  Si  Si4  1  0.667486  0.333199  0.000000  1
  Si  Si5  1  0.333199  0.667486  0.000000  1
  Ag  Ag6  1  0.727437  0.727437  0.000000  1
  Ag  Ag7  1  0.273316  0.999667  0.000000  1
  Ag  Ag8  1  0.999667  0.273316  0.000000  1
