# generated using pymatgen
data_Y2Lu4ReBi2
_symmetry_space_group_name_H-M   'P 1'
_cell_length_a   8.13590500
_cell_length_b   8.17601419
_cell_length_c   4.31699200
_cell_angle_alpha   90.00000000
_cell_angle_beta   90.00000000
_cell_angle_gamma   119.83784848
_symmetry_Int_Tables_number   1
_chemical_formula_structural   Y2Lu4ReBi2
_chemical_formula_sum   'Y2 Lu4 Re1 Bi2'
_cell_volume   249.09595688
_cell_formula_units_Z   1
loop_
 _symmetry_equiv_pos_site_id
 _symmetry_equiv_pos_as_xyz
  1  'x, y, z'
loop_
 _atom_site_type_symbol
 _atom_site_label
 _atom_site_symmetry_multiplicity
 _atom_site_fract_x
 _atom_site_fract_y
 _atom_site_fract_z
 _atom_site_occupancy
  Y  Y0  1  0.000337  0.612993  0.000000  1
  Y  Y1  1  0.387345  0.387007  0.000000  1
  Lu  Lu2  1  0.229224  0.000000  0.500000  1
  Lu  Lu3  1  0.998455  0.229948  0.500000  1
  Lu  Lu4  1  0.768506  0.770052  0.500000  1
  Lu  Lu5  1  0.619367  0.000000  0.000000  1
  Re  Re6  1  0.995734  0.000000  0.000000  1
  Bi  Bi7  1  0.334759  0.668485  0.500000  1
  Bi  Bi8  1  0.666275  0.331515  0.500000  1
