# generated using pymatgen
data_HoSi3NiIr4
_symmetry_space_group_name_H-M   'P 1'
_cell_length_a   3.87271300
_cell_length_b   10.99172200
_cell_length_c   12.50086900
_cell_angle_alpha   90.00000000
_cell_angle_beta   90.00000000
_cell_angle_gamma   90.00000000
_symmetry_Int_Tables_number   1
_chemical_formula_structural   HoSi3NiIr4
_chemical_formula_sum   'Ho4 Si12 Ni4 Ir16'
_cell_volume   532.13429993
_cell_formula_units_Z   4
loop_
 _symmetry_equiv_pos_site_id
 _symmetry_equiv_pos_as_xyz
  1  'x, y, z'
loop_
 _atom_site_type_symbol
 _atom_site_label
 _atom_site_symmetry_multiplicity
 _atom_site_fract_x
 _atom_site_fract_y
 _atom_site_fract_z
 _atom_site_occupancy
  Ho  Ho0  1  0.250000  0.590138  0.704965  1
  Ho  Ho1  1  0.250000  0.909862  0.204965  1
  Ho  Ho2  1  0.750000  0.409862  0.295035  1
  Ho  Ho3  1  0.750000  0.090138  0.795035  1
  Si  Si4  1  0.250000  0.411627  0.107417  1
  Si  Si5  1  0.250000  0.088373  0.607417  1
  Si  Si6  1  0.750000  0.588373  0.892583  1
  Si  Si7  1  0.750000  0.911627  0.392583  1
  Si  Si8  1  0.250000  0.275954  0.878189  1
  Si  Si9  1  0.250000  0.224046  0.378189  1
  Si  Si10  1  0.750000  0.724046  0.121811  1
  Si  Si11  1  0.750000  0.775954  0.621811  1
  Si  Si12  1  0.250000  0.596024  0.386906  1
  Si  Si13  1  0.250000  0.903976  0.886906  1
  Si  Si14  1  0.750000  0.403976  0.613094  1
  Si  Si15  1  0.750000  0.096024  0.113094  1
  Ni  Ni16  1  0.250000  0.472744  0.935177  1
  Ni  Ni17  1  0.250000  0.027256  0.435177  1
  Ni  Ni18  1  0.750000  0.527256  0.064823  1
  Ni  Ni19  1  0.750000  0.972744  0.564823  1
  Ir  Ir20  1  0.250000  0.713521  0.985090  1
  Ir  Ir21  1  0.250000  0.786479  0.485090  1
  Ir  Ir22  1  0.750000  0.286479  0.014910  1
  Ir  Ir23  1  0.750000  0.213521  0.514910  1
  Ir  Ir24  1  0.250000  0.406361  0.487007  1
  Ir  Ir25  1  0.250000  0.093639  0.987007  1
  Ir  Ir26  1  0.750000  0.593639  0.512993  1
  Ir  Ir27  1  0.750000  0.906361  0.012993  1
  Ir  Ir28  1  0.250000  0.220042  0.183222  1
  Ir  Ir29  1  0.250000  0.279958  0.683222  1
  Ir  Ir30  1  0.750000  0.779958  0.816778  1
  Ir  Ir31  1  0.750000  0.720042  0.316778  1
  Ir  Ir32  1  0.250000  0.895985  0.694512  1
  Ir  Ir33  1  0.250000  0.604015  0.194512  1
  Ir  Ir34  1  0.750000  0.104015  0.305488  1
  Ir  Ir35  1  0.750000  0.395985  0.805488  1
