# generated using pymatgen
data_Tb4DyYNiI10
_symmetry_space_group_name_H-M   'P 1'
_cell_length_a   7.72563592
_cell_length_b   9.71058995
_cell_length_c   9.73355652
_cell_angle_alpha   107.11025557
_cell_angle_beta   96.92966887
_cell_angle_gamma   104.57716651
_symmetry_Int_Tables_number   1
_chemical_formula_structural   Tb4DyYNiI10
_chemical_formula_sum   'Tb4 Dy1 Y1 Ni1 I10'
_cell_volume   660.29884676
_cell_formula_units_Z   1
loop_
 _symmetry_equiv_pos_site_id
 _symmetry_equiv_pos_as_xyz
  1  'x, y, z'
loop_
 _atom_site_type_symbol
 _atom_site_label
 _atom_site_symmetry_multiplicity
 _atom_site_fract_x
 _atom_site_fract_y
 _atom_site_fract_z
 _atom_site_occupancy
  Tb  Tb0  1  0.113131  0.040537  0.763979  1
  Tb  Tb1  1  0.031474  0.720224  0.916670  1
  Tb  Tb2  1  0.968908  0.279808  0.083933  1
  Tb  Tb3  1  0.659260  0.879127  0.838096  1
  Dy  Dy4  1  0.888081  0.959810  0.235218  1
  Y  Y5  1  0.340681  0.120760  0.162083  1
  Ni  Ni6  1  0.999573  0.999789  0.999876  1
  I  I7  1  0.648332  0.549043  0.728166  1
  I  I8  1  0.352052  0.450338  0.271924  1
  I  I9  1  0.742143  0.912550  0.537344  1
  I  I10  1  0.257522  0.087385  0.461498  1
  I  I11  1  0.085217  0.371786  0.819448  1
  I  I12  1  0.914729  0.628920  0.181062  1
  I  I13  1  0.454841  0.815770  0.093407  1
  I  I14  1  0.545576  0.185361  0.907792  1
  I  I15  1  0.224442  0.743458  0.654943  1
  I  I16  1  0.774037  0.255336  0.344562  1
