# generated using pymatgen
data_Tb4Tm4Re3B24Ir
_symmetry_space_group_name_H-M   'P 1'
_cell_length_a   3.66039400
_cell_length_b   9.13815337
_cell_length_c   11.53441614
_cell_angle_alpha   90.11193085
_cell_angle_beta   90.00000000
_cell_angle_gamma   90.00000000
_symmetry_Int_Tables_number   1
_chemical_formula_structural   Tb4Tm4Re3B24Ir
_chemical_formula_sum   'Tb4 Tm4 Re3 B24 Ir1'
_cell_volume   385.81673823
_cell_formula_units_Z   1
loop_
 _symmetry_equiv_pos_site_id
 _symmetry_equiv_pos_as_xyz
  1  'x, y, z'
loop_
 _atom_site_type_symbol
 _atom_site_label
 _atom_site_symmetry_multiplicity
 _atom_site_fract_x
 _atom_site_fract_y
 _atom_site_fract_z
 _atom_site_occupancy
  Tb  Tb0  1  0.000000  0.318078  0.415624  1
  Tb  Tb1  1  0.000000  0.678731  0.591043  1
  Tb  Tb2  1  0.000000  0.826567  0.081705  1
  Tb  Tb3  1  0.000000  0.177782  0.912643  1
  Tm  Tm4  1  0.000000  0.944409  0.370588  1
  Tm  Tm5  1  0.000000  0.055830  0.628954  1
  Tm  Tm6  1  0.000000  0.440974  0.128093  1
  Tm  Tm7  1  0.000000  0.556651  0.871575  1
  Re  Re8  1  0.000000  0.362175  0.678345  1
  Re  Re9  1  0.000000  0.138833  0.180591  1
  Re  Re10  1  0.000000  0.861284  0.820337  1
  B  B11  1  0.500000  0.554110  0.433277  1
  B  B12  1  0.500000  0.446361  0.567176  1
  B  B13  1  0.500000  0.053764  0.067128  1
  B  B14  1  0.500000  0.946783  0.932168  1
  B  B15  1  0.500000  0.749989  0.419494  1
  B  B16  1  0.500000  0.249606  0.581475  1
  B  B17  1  0.500000  0.249967  0.081719  1
  B  B18  1  0.500000  0.750755  0.918452  1
  B  B19  1  0.500000  0.791541  0.265325  1
  B  B20  1  0.500000  0.208127  0.733963  1
  B  B21  1  0.500000  0.291996  0.234899  1
  B  B22  1  0.500000  0.707845  0.766077  1
  B  B23  1  0.500000  0.630932  0.184077  1
  B  B24  1  0.500000  0.369993  0.814434  1
  B  B25  1  0.500000  0.130183  0.315130  1
  B  B26  1  0.500000  0.869110  0.685153  1
  B  B27  1  0.500000  0.982779  0.212701  1
  B  B28  1  0.500000  0.017531  0.786323  1
  B  B29  1  0.500000  0.482806  0.287263  1
  B  B30  1  0.500000  0.518252  0.713052  1
  B  B31  1  0.500000  0.601756  0.028754  1
  B  B32  1  0.500000  0.399242  0.972530  1
  B  B33  1  0.500000  0.099925  0.471795  1
  B  B34  1  0.500000  0.897122  0.527631  1
  Ir  Ir35  1  0.000000  0.638212  0.320506  1
