# generated using pymatgen
data_YbY4Rh5
_symmetry_space_group_name_H-M   'P 1'
_cell_length_a   3.41692700
_cell_length_b   3.41692700
_cell_length_c   17.20139900
_cell_angle_alpha   90.00000000
_cell_angle_beta   90.00000000
_cell_angle_gamma   90.00000000
_symmetry_Int_Tables_number   1
_chemical_formula_structural   YbY4Rh5
_chemical_formula_sum   'Yb1 Y4 Rh5'
_cell_volume   200.83304399
_cell_formula_units_Z   1
loop_
 _symmetry_equiv_pos_site_id
 _symmetry_equiv_pos_as_xyz
  1  'x, y, z'
loop_
 _atom_site_type_symbol
 _atom_site_label
 _atom_site_symmetry_multiplicity
 _atom_site_fract_x
 _atom_site_fract_y
 _atom_site_fract_z
 _atom_site_occupancy
  Yb  Yb0  1  0.000000  0.000000  0.000000  1
  Y  Y1  1  0.000000  0.000000  0.195636  1
  Y  Y2  1  0.000000  0.000000  0.399062  1
  Y  Y3  1  0.000000  0.000000  0.600938  1
  Y  Y4  1  0.000000  0.000000  0.804364  1
  Rh  Rh5  1  0.500000  0.500000  0.099644  1
  Rh  Rh6  1  0.500000  0.500000  0.298834  1
  Rh  Rh7  1  0.500000  0.500000  0.500000  1
  Rh  Rh8  1  0.500000  0.500000  0.701166  1
  Rh  Rh9  1  0.500000  0.500000  0.900356  1
