# generated using pymatgen
data_Tb8Lu11ScSi15Tc
_symmetry_space_group_name_H-M   'P 1'
_cell_length_a   7.26433322
_cell_length_b   7.66604857
_cell_length_c   14.31609200
_cell_angle_alpha   90.00000000
_cell_angle_beta   90.00000000
_cell_angle_gamma   90.17891036
_symmetry_Int_Tables_number   1
_chemical_formula_structural   Tb8Lu11ScSi15Tc
_chemical_formula_sum   'Tb8 Lu11 Sc1 Si15 Tc1'
_cell_volume   797.24111383
_cell_formula_units_Z   1
loop_
 _symmetry_equiv_pos_site_id
 _symmetry_equiv_pos_as_xyz
  1  'x, y, z'
loop_
 _atom_site_type_symbol
 _atom_site_label
 _atom_site_symmetry_multiplicity
 _atom_site_fract_x
 _atom_site_fract_y
 _atom_site_fract_z
 _atom_site_occupancy
  Tb  Tb0  1  0.017838  0.181487  0.097501  1
  Tb  Tb1  1  0.985186  0.827458  0.905175  1
  Tb  Tb2  1  0.483860  0.678802  0.904687  1
  Tb  Tb3  1  0.985186  0.827458  0.594825  1
  Tb  Tb4  1  0.514954  0.319355  0.097072  1
  Tb  Tb5  1  0.017838  0.181487  0.402499  1
  Tb  Tb6  1  0.514954  0.319355  0.402928  1
  Tb  Tb7  1  0.483860  0.678802  0.595313  1
  Lu  Lu8  1  0.153900  0.508040  0.750000  1
  Lu  Lu9  1  0.842290  0.488383  0.250000  1
  Lu  Lu10  1  0.664012  0.990706  0.750000  1
  Lu  Lu11  1  0.311184  0.172628  0.626566  1
  Lu  Lu12  1  0.676263  0.826603  0.373622  1
  Lu  Lu13  1  0.177239  0.679959  0.373740  1
  Lu  Lu14  1  0.676263  0.826603  0.126378  1
  Lu  Lu15  1  0.835176  0.315316  0.626130  1
  Lu  Lu16  1  0.311184  0.172628  0.873434  1
  Lu  Lu17  1  0.835176  0.315316  0.873870  1
  Lu  Lu18  1  0.177239  0.679959  0.126260  1
  Sc  Sc19  1  0.342466  0.013579  0.250000  1
  Si  Si20  1  0.977097  0.896068  0.250000  1
  Si  Si21  1  0.475360  0.606784  0.250000  1
  Si  Si22  1  0.526932  0.393591  0.750000  1
  Si  Si23  1  0.279616  0.865742  0.750000  1
  Si  Si24  1  0.714198  0.131202  0.250000  1
  Si  Si25  1  0.221635  0.364946  0.250000  1
  Si  Si26  1  0.771190  0.625895  0.750000  1
  Si  Si27  1  0.157374  0.473059  0.536601  1
  Si  Si28  1  0.846954  0.533759  0.461425  1
  Si  Si29  1  0.346809  0.969027  0.458345  1
  Si  Si30  1  0.846954  0.533759  0.038575  1
  Si  Si31  1  0.649436  0.031465  0.537695  1
  Si  Si32  1  0.157374  0.473059  0.963399  1
  Si  Si33  1  0.649436  0.031465  0.962305  1
  Si  Si34  1  0.346809  0.969027  0.041655  1
  Tc  Tc35  1  0.026753  0.097230  0.750000  1
