# generated using pymatgen
data_Dy5Y2Lu13Sn16
_symmetry_space_group_name_H-M   'P 1'
_cell_length_a   7.94064858
_cell_length_b   8.06806247
_cell_length_c   15.24080100
_cell_angle_alpha   90.01558081
_cell_angle_beta   90.22565103
_cell_angle_gamma   89.90459387
_symmetry_Int_Tables_number   1
_chemical_formula_structural   Dy5Y2Lu13Sn16
_chemical_formula_sum   'Dy5 Y2 Lu13 Sn16'
_cell_volume   976.40284402
_cell_formula_units_Z   1
loop_
 _symmetry_equiv_pos_site_id
 _symmetry_equiv_pos_as_xyz
  1  'x, y, z'
loop_
 _atom_site_type_symbol
 _atom_site_label
 _atom_site_symmetry_multiplicity
 _atom_site_fract_x
 _atom_site_fract_y
 _atom_site_fract_z
 _atom_site_occupancy
  Dy  Dy0  1  0.979429  0.820876  0.095929  1
  Dy  Dy1  1  0.479355  0.678052  0.095847  1
  Dy  Dy2  1  0.980556  0.821310  0.404389  1
  Dy  Dy3  1  0.518497  0.321781  0.595443  1
  Dy  Dy4  1  0.020345  0.179165  0.903767  1
  Y  Y5  1  0.019500  0.179415  0.596480  1
  Y  Y6  1  0.480846  0.679095  0.404433  1
  Lu  Lu7  1  0.364930  0.838304  0.876382  1
  Lu  Lu8  1  0.863416  0.662224  0.624006  1
  Lu  Lu9  1  0.635830  0.162230  0.376053  1
  Lu  Lu10  1  0.134080  0.338234  0.123164  1
  Lu  Lu11  1  0.634219  0.161885  0.123136  1
  Lu  Lu12  1  0.135974  0.337990  0.376280  1
  Lu  Lu13  1  0.364229  0.838427  0.624530  1
  Lu  Lu14  1  0.865986  0.661284  0.876617  1
  Lu  Lu15  1  0.522756  0.321261  0.903222  1
  Lu  Lu16  1  0.195806  0.504857  0.750511  1
  Lu  Lu17  1  0.695259  0.995133  0.750535  1
  Lu  Lu18  1  0.804394  0.494750  0.249716  1
  Lu  Lu19  1  0.304424  0.005124  0.249766  1
  Sn  Sn20  1  0.296134  0.039147  0.041575  1
  Sn  Sn21  1  0.797980  0.459516  0.458736  1
  Sn  Sn22  1  0.701507  0.960359  0.541484  1
  Sn  Sn23  1  0.207023  0.537123  0.957828  1
  Sn  Sn24  1  0.702955  0.961091  0.958204  1
  Sn  Sn25  1  0.201503  0.541213  0.541491  1
  Sn  Sn26  1  0.298121  0.040089  0.458739  1
  Sn  Sn27  1  0.794904  0.459044  0.040331  1
  Sn  Sn28  1  0.561375  0.619609  0.750413  1
  Sn  Sn29  1  0.061196  0.879716  0.750304  1
  Sn  Sn30  1  0.438339  0.380072  0.249573  1
  Sn  Sn31  1  0.938593  0.119907  0.249781  1
  Sn  Sn32  1  0.331651  0.151171  0.750938  1
  Sn  Sn33  1  0.828915  0.350490  0.750191  1
  Sn  Sn34  1  0.670191  0.850416  0.250034  1
  Sn  Sn35  1  0.169777  0.649642  0.250178  1
