# generated using pymatgen
data_Ti8Re2Si6C
_symmetry_space_group_name_H-M   'P 1'
_cell_length_a   7.39525100
_cell_length_b   7.39525091
_cell_length_c   5.09465900
_cell_angle_alpha   90.00000000
_cell_angle_beta   90.00000000
_cell_angle_gamma   119.99998697
_symmetry_Int_Tables_number   1
_chemical_formula_structural   Ti8Re2Si6C
_chemical_formula_sum   'Ti8 Re2 Si6 C1'
_cell_volume   241.29684425
_cell_formula_units_Z   1
loop_
 _symmetry_equiv_pos_site_id
 _symmetry_equiv_pos_as_xyz
  1  'x, y, z'
loop_
 _atom_site_type_symbol
 _atom_site_label
 _atom_site_symmetry_multiplicity
 _atom_site_fract_x
 _atom_site_fract_y
 _atom_site_fract_z
 _atom_site_occupancy
  Ti  Ti0  1  0.000000  0.763726  0.256221  1
  Ti  Ti1  1  0.236274  0.236274  0.256221  1
  Ti  Ti2  1  0.763726  0.000000  0.256221  1
  Ti  Ti3  1  0.000000  0.236274  0.743779  1
  Ti  Ti4  1  0.763726  0.763726  0.743779  1
  Ti  Ti5  1  0.236274  0.000000  0.743779  1
  Ti  Ti6  1  0.333333  0.666667  0.000000  1
  Ti  Ti7  1  0.666667  0.333333  0.000000  1
  Re  Re8  1  0.666667  0.333333  0.500000  1
  Re  Re9  1  0.333333  0.666667  0.500000  1
  Si  Si10  1  0.000000  0.401922  0.252292  1
  Si  Si11  1  0.598078  0.598078  0.252292  1
  Si  Si12  1  0.401922  0.000000  0.252292  1
  Si  Si13  1  0.000000  0.598078  0.747708  1
  Si  Si14  1  0.401922  0.401922  0.747708  1
  Si  Si15  1  0.598078  0.000000  0.747708  1
  C  C16  1  0.000000  0.000000  0.500000  1
