# generated using pymatgen
data_Ac3In3Hg2Rh
_symmetry_space_group_name_H-M   'P 1'
_cell_length_a   8.35284300
_cell_length_b   8.35284465
_cell_length_c   4.28992700
_cell_angle_alpha   90.00000000
_cell_angle_beta   90.00000000
_cell_angle_gamma   119.99998160
_symmetry_Int_Tables_number   1
_chemical_formula_structural   Ac3In3Hg2Rh
_chemical_formula_sum   'Ac3 In3 Hg2 Rh1'
_cell_volume   259.20855850
_cell_formula_units_Z   1
loop_
 _symmetry_equiv_pos_site_id
 _symmetry_equiv_pos_as_xyz
  1  'x, y, z'
loop_
 _atom_site_type_symbol
 _atom_site_label
 _atom_site_symmetry_multiplicity
 _atom_site_fract_x
 _atom_site_fract_y
 _atom_site_fract_z
 _atom_site_occupancy
  Ac  Ac0  1  0.575649  0.601500  0.000000  1
  Ac  Ac1  1  0.398500  0.974149  0.000000  1
  Ac  Ac2  1  0.025851  0.424351  0.000000  1
  In  In3  1  0.006626  0.743934  0.500000  1
  In  In4  1  0.256066  0.262692  0.500000  1
  In  In5  1  0.737308  0.993374  0.500000  1
  Hg  Hg6  1  0.000000  0.000000  0.000000  1
  Hg  Hg7  1  0.666667  0.333333  0.500000  1
  Rh  Rh8  1  0.333333  0.666667  0.500000  1
