# generated using pymatgen
data_NaAg3(PtO3)2
_symmetry_space_group_name_H-M   'P 1'
_cell_length_a   5.38451461
_cell_length_b   5.38459577
_cell_length_c   6.54044881
_cell_angle_alpha   74.06631845
_cell_angle_beta   97.88956982
_cell_angle_gamma   120.00050589
_symmetry_Int_Tables_number   1
_chemical_formula_structural   NaAg3(PtO3)2
_chemical_formula_sum   'Na1 Ag3 Pt2 O6'
_cell_volume   157.91416892
_cell_formula_units_Z   1
loop_
 _symmetry_equiv_pos_site_id
 _symmetry_equiv_pos_as_xyz
  1  'x, y, z'
loop_
 _atom_site_type_symbol
 _atom_site_label
 _atom_site_symmetry_multiplicity
 _atom_site_fract_x
 _atom_site_fract_y
 _atom_site_fract_z
 _atom_site_occupancy
  Na  Na0  1  0.333333  0.166667  0.500000  1
  Ag  Ag1  1  0.683095  0.341546  0.000000  1
  Ag  Ag2  1  0.333333  0.666667  0.000000  1
  Ag  Ag3  1  0.983572  0.991787  0.000000  1
  Pt  Pt4  1  0.000044  0.500021  0.500000  1
  Pt  Pt5  1  0.666623  0.833312  0.500000  1
  O  O6  1  0.333333  0.751820  0.669950  1
  O  O7  1  0.976792  0.110678  0.669555  1
  O  O8  1  0.689875  0.467220  0.669555  1
  O  O9  1  0.689875  0.222655  0.330445  1
  O  O10  1  0.333333  0.581514  0.330050  1
  O  O11  1  0.976792  0.866113  0.330445  1
