# generated using pymatgen
data_KZn(IO3)3
_symmetry_space_group_name_H-M   'P 1'
_cell_length_a   7.78100480
_cell_length_b   8.33419414
_cell_length_c   8.20108793
_cell_angle_alpha   71.61209786
_cell_angle_beta   76.07201176
_cell_angle_gamma   78.89814686
_symmetry_Int_Tables_number   1
_chemical_formula_structural   KZn(IO3)3
_chemical_formula_sum   'K2 Zn2 I6 O18'
_cell_volume   485.89317190
_cell_formula_units_Z   2
loop_
 _symmetry_equiv_pos_site_id
 _symmetry_equiv_pos_as_xyz
  1  'x, y, z'
loop_
 _atom_site_type_symbol
 _atom_site_label
 _atom_site_symmetry_multiplicity
 _atom_site_fract_x
 _atom_site_fract_y
 _atom_site_fract_z
 _atom_site_occupancy
  K  K0  1  0.689894  0.783121  0.884643  1
  K  K1  1  0.310106  0.216879  0.115357  1
  Zn  Zn2  1  0.000000  0.000000  0.500000  1
  Zn  Zn3  1  0.000000  0.000000  0.000000  1
  I  I4  1  0.283423  0.226736  0.602603  1
  I  I5  1  0.716577  0.773264  0.397397  1
  I  I6  1  0.260831  0.722091  0.243984  1
  I  I7  1  0.245303  0.677797  0.759655  1
  I  I8  1  0.754697  0.322203  0.240345  1
  I  I9  1  0.739169  0.277909  0.756016  1
  O  O10  1  0.445706  0.784496  0.690889  1
  O  O11  1  0.496862  0.313132  0.789768  1
  O  O12  1  0.737988  0.543483  0.481738  1
  O  O13  1  0.760282  0.421203  0.006013  1
  O  O14  1  0.239718  0.578797  0.993987  1
  O  O15  1  0.503138  0.686868  0.210232  1
  O  O16  1  0.161502  0.184269  0.457041  1
  O  O17  1  0.838498  0.815731  0.542959  1
  O  O18  1  0.777254  0.163257  0.586636  1
  O  O19  1  0.242679  0.919776  0.059013  1
  O  O20  1  0.222746  0.836743  0.413364  1
  O  O21  1  0.933754  0.137670  0.231398  1
  O  O22  1  0.897153  0.785518  0.200319  1
  O  O23  1  0.102847  0.214482  0.799681  1
  O  O24  1  0.554294  0.215504  0.309111  1
  O  O25  1  0.757321  0.080224  0.940987  1
  O  O26  1  0.066246  0.862330  0.768602  1
  O  O27  1  0.262012  0.456517  0.518262  1
