# generated using pymatgen
data_Pr8Zr12Si15Pt
_symmetry_space_group_name_H-M   'P 1'
_cell_length_a   7.29862218
_cell_length_b   7.47105890
_cell_length_c   14.19634302
_cell_angle_alpha   89.94929929
_cell_angle_beta   89.87434918
_cell_angle_gamma   90.17883932
_symmetry_Int_Tables_number   1
_chemical_formula_structural   Pr8Zr12Si15Pt
_chemical_formula_sum   'Pr8 Zr12 Si15 Pt1'
_cell_volume   774.09844390
_cell_formula_units_Z   1
loop_
 _symmetry_equiv_pos_site_id
 _symmetry_equiv_pos_as_xyz
  1  'x, y, z'
loop_
 _atom_site_type_symbol
 _atom_site_label
 _atom_site_symmetry_multiplicity
 _atom_site_fract_x
 _atom_site_fract_y
 _atom_site_fract_z
 _atom_site_occupancy
  Pr  Pr0  1  0.011821  0.173814  0.401754  1
  Pr  Pr1  1  0.514719  0.328355  0.401779  1
  Pr  Pr2  1  0.486733  0.672377  0.902910  1
  Pr  Pr3  1  0.485965  0.672503  0.597770  1
  Pr  Pr4  1  0.985140  0.828641  0.596935  1
  Pr  Pr5  1  0.985519  0.827899  0.903522  1
  Pr  Pr6  1  0.513878  0.327525  0.096182  1
  Pr  Pr7  1  0.015503  0.173114  0.097642  1
  Zr  Zr8  1  0.336968  0.176322  0.625368  1
  Zr  Zr9  1  0.670652  0.825569  0.374474  1
  Zr  Zr10  1  0.655839  0.003757  0.749502  1
  Zr  Zr11  1  0.169722  0.671405  0.375711  1
  Zr  Zr12  1  0.829154  0.324295  0.875077  1
  Zr  Zr13  1  0.827348  0.324337  0.624982  1
  Zr  Zr14  1  0.842013  0.504499  0.248657  1
  Zr  Zr15  1  0.344086  0.996317  0.249722  1
  Zr  Zr16  1  0.329419  0.173814  0.874171  1
  Zr  Zr17  1  0.170053  0.675240  0.125628  1
  Zr  Zr18  1  0.670898  0.823990  0.124870  1
  Zr  Zr19  1  0.159149  0.496500  0.750443  1
  Si  Si20  1  0.283266  0.881970  0.750774  1
  Si  Si21  1  0.465978  0.626454  0.250406  1
  Si  Si22  1  0.034127  0.126388  0.751160  1
  Si  Si23  1  0.536445  0.374620  0.752009  1
  Si  Si24  1  0.966308  0.873969  0.249572  1
  Si  Si25  1  0.714690  0.118313  0.248891  1
  Si  Si26  1  0.848680  0.535149  0.042400  1
  Si  Si27  1  0.350911  0.964577  0.042562  1
  Si  Si28  1  0.150008  0.463893  0.958292  1
  Si  Si29  1  0.650876  0.036848  0.540607  1
  Si  Si30  1  0.350306  0.964866  0.456192  1
  Si  Si31  1  0.844791  0.539634  0.455906  1
  Si  Si32  1  0.785735  0.617451  0.751547  1
  Si  Si33  1  0.216104  0.381442  0.249023  1
  Si  Si34  1  0.649734  0.034928  0.957917  1
  Pt  Pt35  1  0.147463  0.459223  0.545641  1
