# generated using pymatgen
data_AcSbS
_symmetry_space_group_name_H-M   'P 1'
_cell_length_a   4.32399701
_cell_length_b   4.29937600
_cell_length_c   18.83380400
_cell_angle_alpha   90.00000000
_cell_angle_beta   90.00000000
_cell_angle_gamma   89.99964363
_symmetry_Int_Tables_number   1
_chemical_formula_structural   AcSbS
_chemical_formula_sum   'Ac4 Sb4 S4'
_cell_volume   350.12962550
_cell_formula_units_Z   4
loop_
 _symmetry_equiv_pos_site_id
 _symmetry_equiv_pos_as_xyz
  1  'x, y, z'
loop_
 _atom_site_type_symbol
 _atom_site_label
 _atom_site_symmetry_multiplicity
 _atom_site_fract_x
 _atom_site_fract_y
 _atom_site_fract_z
 _atom_site_occupancy
  Ac  Ac0  1  0.773339  0.250653  0.152713  1
  Ac  Ac1  1  0.726661  0.249347  0.652713  1
  Ac  Ac2  1  0.226661  0.749347  0.847287  1
  Ac  Ac3  1  0.273339  0.750653  0.347287  1
  Sb  Sb4  1  0.775175  0.749938  0.499165  1
  Sb  Sb5  1  0.724825  0.750062  0.999165  1
  Sb  Sb6  1  0.224825  0.250062  0.500835  1
  Sb  Sb7  1  0.275175  0.249938  0.000835  1
  S  S8  1  0.775429  0.250694  0.313841  1
  S  S9  1  0.724571  0.249306  0.813841  1
  S  S10  1  0.224571  0.749306  0.686159  1
  S  S11  1  0.275429  0.750694  0.186159  1
