# generated using pymatgen
data_RbLiPtF6
_symmetry_space_group_name_H-M   'P 1'
_cell_length_a   10.81374400
_cell_length_b   5.77350933
_cell_length_c   9.23435649
_cell_angle_alpha   89.14605146
_cell_angle_beta   90.00000000
_cell_angle_gamma   90.00000000
_symmetry_Int_Tables_number   1
_chemical_formula_structural   RbLiPtF6
_chemical_formula_sum   'Rb4 Li4 Pt4 F24'
_cell_volume   576.46687194
_cell_formula_units_Z   4
loop_
 _symmetry_equiv_pos_site_id
 _symmetry_equiv_pos_as_xyz
  1  'x, y, z'
loop_
 _atom_site_type_symbol
 _atom_site_label
 _atom_site_symmetry_multiplicity
 _atom_site_fract_x
 _atom_site_fract_y
 _atom_site_fract_z
 _atom_site_occupancy
  Rb  Rb0  1  0.685735  0.300086  0.500761  1
  Rb  Rb1  1  0.814265  0.300086  0.000761  1
  Rb  Rb2  1  0.314265  0.699914  0.499239  1
  Rb  Rb3  1  0.185735  0.699914  0.999239  1
  Li  Li4  1  0.911093  0.760116  0.675045  1
  Li  Li5  1  0.088907  0.239884  0.324955  1
  Li  Li6  1  0.411093  0.239884  0.824955  1
  Li  Li7  1  0.588907  0.760116  0.175045  1
  Pt  Pt8  1  0.910964  0.763708  0.270961  1
  Pt  Pt9  1  0.410964  0.236292  0.229039  1
  Pt  Pt10  1  0.089036  0.236292  0.729039  1
  Pt  Pt11  1  0.589036  0.763708  0.770961  1
  F  F12  1  0.245672  0.377619  0.254722  1
  F  F13  1  0.009480  0.536895  0.776073  1
  F  F14  1  0.075385  0.910282  0.294312  1
  F  F15  1  0.754328  0.622381  0.745278  1
  F  F16  1  0.490520  0.536895  0.276073  1
  F  F17  1  0.597510  0.682402  0.980090  1
  F  F18  1  0.924615  0.089718  0.705688  1
  F  F19  1  0.575385  0.089718  0.205688  1
  F  F20  1  0.835911  0.065233  0.307913  1
  F  F21  1  0.902490  0.682402  0.480090  1
  F  F22  1  0.164089  0.934767  0.692087  1
  F  F23  1  0.414823  0.167267  0.437295  1
  F  F24  1  0.585177  0.832733  0.562705  1
  F  F25  1  0.509480  0.463105  0.723927  1
  F  F26  1  0.254328  0.377619  0.754722  1
  F  F27  1  0.745672  0.622381  0.245278  1
  F  F28  1  0.335911  0.934767  0.192087  1
  F  F29  1  0.990520  0.463105  0.223927  1
  F  F30  1  0.402490  0.317598  0.019910  1
  F  F31  1  0.664089  0.065233  0.807913  1
  F  F32  1  0.097510  0.317598  0.519910  1
  F  F33  1  0.085177  0.167267  0.937295  1
  F  F34  1  0.914823  0.832733  0.062705  1
  F  F35  1  0.424615  0.910282  0.794312  1
