# generated using pymatgen
data_Tb2SmLu(Mo2O7)2
_symmetry_space_group_name_H-M   'P 1'
_cell_length_a   7.42021015
_cell_length_b   7.42021095
_cell_length_c   7.34386999
_cell_angle_alpha   59.57537259
_cell_angle_beta   59.57536934
_cell_angle_gamma   60.13459838
_symmetry_Int_Tables_number   1
_chemical_formula_structural   Tb2SmLu(Mo2O7)2
_chemical_formula_sum   'Tb2 Sm1 Lu1 Mo4 O14'
_cell_volume   284.35380424
_cell_formula_units_Z   1
loop_
 _symmetry_equiv_pos_site_id
 _symmetry_equiv_pos_as_xyz
  1  'x, y, z'
loop_
 _atom_site_type_symbol
 _atom_site_label
 _atom_site_symmetry_multiplicity
 _atom_site_fract_x
 _atom_site_fract_y
 _atom_site_fract_z
 _atom_site_occupancy
  Tb  Tb0  1  0.625000  0.125000  0.125000  1
  Tb  Tb1  1  0.125000  0.625000  0.125000  1
  Sm  Sm2  1  0.125000  0.125000  0.125000  1
  Lu  Lu3  1  0.125000  0.125000  0.625000  1
  Mo  Mo4  1  0.625000  0.625000  0.625000  1
  Mo  Mo5  1  0.125000  0.625000  0.625000  1
  Mo  Mo6  1  0.625000  0.625000  0.125000  1
  Mo  Mo7  1  0.625000  0.125000  0.625000  1
  O  O8  1  0.999528  0.999528  0.994161  1
  O  O9  1  0.250472  0.250472  0.255839  1
  O  O10  1  0.287102  0.287102  0.699449  1
  O  O11  1  0.538146  0.538146  0.964627  1
  O  O12  1  0.721218  0.285432  0.710676  1
  O  O13  1  0.715039  0.284987  0.286682  1
  O  O14  1  0.285432  0.721218  0.710676  1
  O  O15  1  0.284987  0.715039  0.286682  1
  O  O16  1  0.711854  0.711854  0.285373  1
  O  O17  1  0.964568  0.528782  0.539324  1
  O  O18  1  0.534961  0.965013  0.963318  1
  O  O19  1  0.962898  0.962898  0.550551  1
  O  O20  1  0.965013  0.534961  0.963318  1
  O  O21  1  0.528782  0.964568  0.539324  1
