# generated using pymatgen
data_La9Pr7Cd4CoPt3
_symmetry_space_group_name_H-M   'P 1'
_cell_length_a   10.12295044
_cell_length_b   10.12294985
_cell_length_c   10.12001313
_cell_angle_alpha   60.22858949
_cell_angle_beta   60.22859197
_cell_angle_gamma   60.40579417
_symmetry_Int_Tables_number   1
_chemical_formula_structural   La9Pr7Cd4CoPt3
_chemical_formula_sum   'La9 Pr7 Cd4 Co1 Pt3'
_cell_volume   738.06671722
_cell_formula_units_Z   1
loop_
 _symmetry_equiv_pos_site_id
 _symmetry_equiv_pos_as_xyz
  1  'x, y, z'
loop_
 _atom_site_type_symbol
 _atom_site_label
 _atom_site_symmetry_multiplicity
 _atom_site_fract_x
 _atom_site_fract_y
 _atom_site_fract_z
 _atom_site_occupancy
  La  La0  1  0.349863  0.349863  0.349851  1
  La  La1  1  0.343641  0.343641  0.956224  1
  La  La2  1  0.344596  0.955880  0.343393  1
  La  La3  1  0.955880  0.344596  0.343393  1
  La  La4  1  0.819911  0.189286  0.190625  1
  La  La5  1  0.192079  0.806891  0.808083  1
  La  La6  1  0.189286  0.819911  0.190625  1
  La  La7  1  0.806891  0.192079  0.808083  1
  La  La8  1  0.190419  0.190419  0.820301  1
  Pr  Pr9  1  0.806573  0.806573  0.193402  1
  Pr  Pr10  1  0.937107  0.563856  0.563047  1
  Pr  Pr11  1  0.564536  0.933759  0.934500  1
  Pr  Pr12  1  0.563856  0.937107  0.563047  1
  Pr  Pr13  1  0.933759  0.564536  0.934500  1
  Pr  Pr14  1  0.563214  0.563214  0.937657  1
  Pr  Pr15  1  0.934267  0.934267  0.563808  1
  Cd  Cd16  1  0.580328  0.580328  0.579124  1
  Cd  Cd17  1  0.581510  0.581510  0.258249  1
  Cd  Cd18  1  0.581084  0.258568  0.580910  1
  Cd  Cd19  1  0.258568  0.581084  0.580910  1
  Co  Co20  1  0.141602  0.141602  0.141396  1
  Pt  Pt21  1  0.143248  0.143248  0.573338  1
  Pt  Pt22  1  0.144934  0.572847  0.142765  1
  Pt  Pt23  1  0.572847  0.144934  0.142765  1
