# generated using pymatgen
data_Yb2DyU5(ReB6)4
_symmetry_space_group_name_H-M   'P 1'
_cell_length_a   3.64160100
_cell_length_b   9.27642349
_cell_length_c   11.38667128
_cell_angle_alpha   89.99402925
_cell_angle_beta   90.00000000
_cell_angle_gamma   90.00000000
_symmetry_Int_Tables_number   1
_chemical_formula_structural   Yb2DyU5(ReB6)4
_chemical_formula_sum   'Yb2 Dy1 U5 Re4 B24'
_cell_volume   384.65351703
_cell_formula_units_Z   1
loop_
 _symmetry_equiv_pos_site_id
 _symmetry_equiv_pos_as_xyz
  1  'x, y, z'
loop_
 _atom_site_type_symbol
 _atom_site_label
 _atom_site_symmetry_multiplicity
 _atom_site_fract_x
 _atom_site_fract_y
 _atom_site_fract_z
 _atom_site_occupancy
  Yb  Yb0  1  0.000000  0.662733  0.590827  1
  Yb  Yb1  1  0.000000  0.835614  0.092516  1
  Dy  Dy2  1  0.000000  0.337681  0.408256  1
  U  U3  1  0.000000  0.163057  0.908015  1
  U  U4  1  0.000000  0.954683  0.396333  1
  U  U5  1  0.000000  0.041511  0.603281  1
  U  U6  1  0.000000  0.458807  0.104787  1
  U  U7  1  0.000000  0.544853  0.896260  1
  Re  Re8  1  0.000000  0.645321  0.317974  1
  Re  Re9  1  0.000000  0.351011  0.685040  1
  Re  Re10  1  0.000000  0.146814  0.177762  1
  Re  Re11  1  0.000000  0.858421  0.819609  1
  B  B12  1  0.500000  0.552252  0.431871  1
  B  B13  1  0.500000  0.447473  0.570322  1
  B  B14  1  0.500000  0.052887  0.068029  1
  B  B15  1  0.500000  0.949899  0.930671  1
  B  B16  1  0.500000  0.742699  0.422757  1
  B  B17  1  0.500000  0.256347  0.577252  1
  B  B18  1  0.500000  0.243153  0.076161  1
  B  B19  1  0.500000  0.756809  0.922105  1
  B  B20  1  0.500000  0.801417  0.274558  1
  B  B21  1  0.500000  0.196488  0.727010  1
  B  B22  1  0.500000  0.302517  0.225201  1
  B  B23  1  0.500000  0.699085  0.774522  1
  B  B24  1  0.500000  0.643225  0.188671  1
  B  B25  1  0.500000  0.355001  0.812437  1
  B  B26  1  0.500000  0.143896  0.310756  1
  B  B27  1  0.500000  0.856211  0.688461  1
  B  B28  1  0.500000  0.989371  0.219020  1
  B  B29  1  0.500000  0.013344  0.781723  1
  B  B30  1  0.500000  0.489026  0.281205  1
  B  B31  1  0.500000  0.511091  0.719229  1
  B  B32  1  0.500000  0.638629  0.037870  1
  B  B33  1  0.500000  0.357580  0.960717  1
  B  B34  1  0.500000  0.138961  0.460876  1
  B  B35  1  0.500000  0.862132  0.537917  1
