# generated using pymatgen
data_Tb3Tm3P13Rh20
_symmetry_space_group_name_H-M   'P 1'
_cell_length_a   13.33344500
_cell_length_b   13.33344417
_cell_length_c   3.91632900
_cell_angle_alpha   90.00000000
_cell_angle_beta   90.00000000
_cell_angle_gamma   119.99999461
_symmetry_Int_Tables_number   1
_chemical_formula_structural   Tb3Tm3P13Rh20
_chemical_formula_sum   'Tb3 Tm3 P13 Rh20'
_cell_volume   602.96838887
_cell_formula_units_Z   1
loop_
 _symmetry_equiv_pos_site_id
 _symmetry_equiv_pos_as_xyz
  1  'x, y, z'
loop_
 _atom_site_type_symbol
 _atom_site_label
 _atom_site_symmetry_multiplicity
 _atom_site_fract_x
 _atom_site_fract_y
 _atom_site_fract_z
 _atom_site_occupancy
  Tb  Tb0  1  0.530444  0.717926  0.247369  1
  Tb  Tb1  1  0.282074  0.812518  0.247369  1
  Tb  Tb2  1  0.187482  0.469556  0.247369  1
  Tm  Tm3  1  0.471974  0.283447  0.751969  1
  Tm  Tm4  1  0.716553  0.188526  0.751969  1
  Tm  Tm5  1  0.811474  0.528026  0.751969  1
  P  P6  1  0.526510  0.140381  0.250593  1
  P  P7  1  0.859619  0.386131  0.250593  1
  P  P8  1  0.613869  0.473490  0.250593  1
  P  P9  1  0.945167  0.713283  0.253939  1
  P  P10  1  0.286717  0.231885  0.253939  1
  P  P11  1  0.768115  0.054833  0.253939  1
  P  P12  1  0.387518  0.526195  0.749015  1
  P  P13  1  0.473805  0.861322  0.749015  1
  P  P14  1  0.138678  0.612482  0.749015  1
  P  P15  1  0.715745  0.770438  0.744508  1
  P  P16  1  0.229562  0.945307  0.744508  1
  P  P17  1  0.054693  0.284255  0.744508  1
  P  P18  1  0.000000  0.000000  0.007714  1
  Rh  Rh19  1  0.333333  0.666667  0.751273  1
  Rh  Rh20  1  0.918287  0.248352  0.254475  1
  Rh  Rh21  1  0.751648  0.669935  0.254475  1
  Rh  Rh22  1  0.330065  0.081713  0.254475  1
  Rh  Rh23  1  0.438107  0.023443  0.751504  1
  Rh  Rh24  1  0.976557  0.414666  0.751504  1
  Rh  Rh25  1  0.585334  0.561893  0.751504  1
  Rh  Rh26  1  0.666667  0.333333  0.248552  1
  Rh  Rh27  1  0.094999  0.188136  0.247297  1
  Rh  Rh28  1  0.811864  0.906863  0.247297  1
  Rh  Rh29  1  0.093137  0.905001  0.247297  1
  Rh  Rh30  1  0.021299  0.582654  0.247940  1
  Rh  Rh31  1  0.417346  0.438644  0.247940  1
  Rh  Rh32  1  0.561356  0.978701  0.247940  1
  Rh  Rh33  1  0.671341  0.923151  0.745372  1
  Rh  Rh34  1  0.076849  0.748190  0.745372  1
  Rh  Rh35  1  0.251810  0.328659  0.745372  1
  Rh  Rh36  1  0.906696  0.814148  0.753505  1
  Rh  Rh37  1  0.185852  0.092549  0.753505  1
  Rh  Rh38  1  0.907451  0.093304  0.753505  1
