# generated using pymatgen
data_HfZr13Pt19Au
_symmetry_space_group_name_H-M   'P 1'
_cell_length_a   8.23378195
_cell_length_b   8.23378186
_cell_length_c   9.75586546
_cell_angle_alpha   90.01304141
_cell_angle_beta   90.01304711
_cell_angle_gamma   107.50769597
_symmetry_Int_Tables_number   1
_chemical_formula_structural   HfZr13Pt19Au
_chemical_formula_sum   'Hf1 Zr13 Pt19 Au1'
_cell_volume   630.76210412
_cell_formula_units_Z   1
loop_
 _symmetry_equiv_pos_site_id
 _symmetry_equiv_pos_as_xyz
  1  'x, y, z'
loop_
 _atom_site_type_symbol
 _atom_site_label
 _atom_site_symmetry_multiplicity
 _atom_site_fract_x
 _atom_site_fract_y
 _atom_site_fract_z
 _atom_site_occupancy
  Hf  Hf0  1  0.499831  0.499831  0.498846  1
  Zr  Zr1  1  0.691596  0.303931  0.997902  1
  Zr  Zr2  1  0.303931  0.691596  0.997902  1
  Zr  Zr3  1  0.808756  0.191216  0.499852  1
  Zr  Zr4  1  0.191216  0.808756  0.499852  1
  Zr  Zr5  1  0.998855  0.998855  0.999663  1
  Zr  Zr6  1  0.001105  0.502408  0.250518  1
  Zr  Zr7  1  0.997519  0.497198  0.748870  1
  Zr  Zr8  1  0.497198  0.997519  0.748870  1
  Zr  Zr9  1  0.502408  0.001105  0.250518  1
  Zr  Zr10  1  0.311503  0.311503  0.185698  1
  Zr  Zr11  1  0.683953  0.683953  0.809599  1
  Zr  Zr12  1  0.183045  0.183045  0.683109  1
  Zr  Zr13  1  0.825540  0.825540  0.324743  1
  Pt  Pt14  1  0.853650  0.147048  0.207830  1
  Pt  Pt15  1  0.146910  0.853614  0.791152  1
  Pt  Pt16  1  0.644001  0.354647  0.707310  1
  Pt  Pt17  1  0.643812  0.353264  0.292278  1
  Pt  Pt18  1  0.353264  0.643812  0.292278  1
  Pt  Pt19  1  0.354647  0.644001  0.707310  1
  Pt  Pt20  1  0.853614  0.146910  0.791152  1
  Pt  Pt21  1  0.147048  0.853650  0.207830  1
  Pt  Pt22  1  0.936909  0.643981  0.998118  1
  Pt  Pt23  1  0.063008  0.354324  0.000226  1
  Pt  Pt24  1  0.562271  0.852716  0.500470  1
  Pt  Pt25  1  0.146545  0.437409  0.500058  1
  Pt  Pt26  1  0.437409  0.146545  0.500058  1
  Pt  Pt27  1  0.852716  0.562271  0.500470  1
  Pt  Pt28  1  0.354324  0.063008  0.000226  1
  Pt  Pt29  1  0.643981  0.936909  0.998118  1
  Pt  Pt30  1  0.107056  0.107056  0.395161  1
  Pt  Pt31  1  0.895253  0.895253  0.606703  1
  Pt  Pt32  1  0.395319  0.395319  0.897523  1
  Au  Au33  1  0.611808  0.611808  0.109785  1
