# generated using pymatgen
data_Lu8Ta7Nb2Si16W3
_symmetry_space_group_name_H-M   'P 1'
_cell_length_a   6.72741040
_cell_length_b   6.97203178
_cell_length_c   13.21379901
_cell_angle_alpha   89.97894372
_cell_angle_beta   90.01376226
_cell_angle_gamma   89.99531761
_symmetry_Int_Tables_number   1
_chemical_formula_structural   Lu8Ta7Nb2Si16W3
_chemical_formula_sum   'Lu8 Ta7 Nb2 Si16 W3'
_cell_volume   619.77625590
_cell_formula_units_Z   1
loop_
 _symmetry_equiv_pos_site_id
 _symmetry_equiv_pos_as_xyz
  1  'x, y, z'
loop_
 _atom_site_type_symbol
 _atom_site_label
 _atom_site_symmetry_multiplicity
 _atom_site_fract_x
 _atom_site_fract_y
 _atom_site_fract_z
 _atom_site_occupancy
  Lu  Lu0  1  0.500597  0.327543  0.094449  1
  Lu  Lu1  1  0.000659  0.172795  0.405391  1
  Lu  Lu2  1  0.498568  0.672822  0.594537  1
  Lu  Lu3  1  0.998767  0.826785  0.905818  1
  Lu  Lu4  1  0.498521  0.672371  0.905330  1
  Lu  Lu5  1  0.998814  0.827256  0.594377  1
  Lu  Lu6  1  0.501015  0.327403  0.405534  1
  Lu  Lu7  1  0.000832  0.172780  0.094582  1
  Ta  Ta8  1  0.836274  0.330020  0.625494  1
  Ta  Ta9  1  0.335260  0.171431  0.874922  1
  Ta  Ta10  1  0.164744  0.669842  0.126053  1
  Ta  Ta11  1  0.665338  0.830009  0.373446  1
  Ta  Ta12  1  0.164453  0.669919  0.373948  1
  Ta  Ta13  1  0.665046  0.829914  0.126505  1
  Ta  Ta14  1  0.661385  0.007585  0.749989  1
  Nb  Nb15  1  0.835411  0.329947  0.875074  1
  Nb  Nb16  1  0.335355  0.170700  0.624578  1
  Si  Si17  1  0.667274  0.036477  0.540749  1
  Si  Si18  1  0.166789  0.462687  0.958292  1
  Si  Si19  1  0.333592  0.962810  0.042048  1
  Si  Si20  1  0.833401  0.537319  0.458243  1
  Si  Si21  1  0.333685  0.962687  0.457223  1
  Si  Si22  1  0.833393  0.537155  0.042535  1
  Si  Si23  1  0.666202  0.035869  0.959028  1
  Si  Si24  1  0.166033  0.462914  0.541940  1
  Si  Si25  1  0.534162  0.383674  0.749608  1
  Si  Si26  1  0.038870  0.118756  0.750317  1
  Si  Si27  1  0.464380  0.616746  0.250009  1
  Si  Si28  1  0.965245  0.883779  0.249998  1
  Si  Si29  1  0.797008  0.633273  0.749900  1
  Si  Si30  1  0.293647  0.863188  0.750167  1
  Si  Si31  1  0.202928  0.364024  0.250071  1
  Si  Si32  1  0.702800  0.136345  0.249853  1
  W  W33  1  0.160674  0.492836  0.750040  1
  W  W34  1  0.339647  0.992258  0.249874  1
  W  W35  1  0.839234  0.508083  0.250081  1
