# generated using pymatgen
data_CsU(Br2F)2
_symmetry_space_group_name_H-M   'P 1'
_cell_length_a   7.32369846
_cell_length_b   7.58496655
_cell_length_c   6.59237400
_cell_angle_alpha   101.10095703
_cell_angle_beta   111.93376454
_cell_angle_gamma   96.90974025
_symmetry_Int_Tables_number   1
_chemical_formula_structural   CsU(Br2F)2
_chemical_formula_sum   'Cs1 U1 Br4 F2'
_cell_volume   325.82553646
_cell_formula_units_Z   1
loop_
 _symmetry_equiv_pos_site_id
 _symmetry_equiv_pos_as_xyz
  1  'x, y, z'
loop_
 _atom_site_type_symbol
 _atom_site_label
 _atom_site_symmetry_multiplicity
 _atom_site_fract_x
 _atom_site_fract_y
 _atom_site_fract_z
 _atom_site_occupancy
  Cs  Cs0  1  0.459188  0.475613  0.554100  1
  U  U1  1  0.861187  0.141219  0.992021  1
  Br  Br2  1  0.569743  0.949285  0.069978  1
  Br  Br3  1  0.153781  0.341869  0.915038  1
  Br  Br4  1  0.933884  0.824794  0.797018  1
  Br  Br5  1  0.793647  0.466617  0.184194  1
  F  F6  1  0.650521  0.151055  0.686303  1
  F  F7  1  0.078050  0.149548  0.301348  1
