# generated using pymatgen
data_HfNiSn3Pt11
_symmetry_space_group_name_H-M   'P 1'
_cell_length_a   4.02647600
_cell_length_b   4.02647600
_cell_length_c   16.18027300
_cell_angle_alpha   90.00000000
_cell_angle_beta   90.00000000
_cell_angle_gamma   90.00000000
_symmetry_Int_Tables_number   1
_chemical_formula_structural   HfNiSn3Pt11
_chemical_formula_sum   'Hf1 Ni1 Sn3 Pt11'
_cell_volume   262.32282129
_cell_formula_units_Z   1
loop_
 _symmetry_equiv_pos_site_id
 _symmetry_equiv_pos_as_xyz
  1  'x, y, z'
loop_
 _atom_site_type_symbol
 _atom_site_label
 _atom_site_symmetry_multiplicity
 _atom_site_fract_x
 _atom_site_fract_y
 _atom_site_fract_z
 _atom_site_occupancy
  Hf  Hf0  1  0.000000  0.000000  0.000000  1
  Ni  Ni1  1  0.500000  0.500000  0.500000  1
  Sn  Sn2  1  0.000000  0.000000  0.252540  1
  Sn  Sn3  1  0.000000  0.000000  0.500000  1
  Sn  Sn4  1  0.000000  0.000000  0.747460  1
  Pt  Pt5  1  0.500000  0.500000  0.000000  1
  Pt  Pt6  1  0.500000  0.500000  0.250881  1
  Pt  Pt7  1  0.500000  0.500000  0.749119  1
  Pt  Pt8  1  0.500000  0.000000  0.122278  1
  Pt  Pt9  1  0.500000  0.000000  0.380827  1
  Pt  Pt10  1  0.500000  0.000000  0.619173  1
  Pt  Pt11  1  0.500000  0.000000  0.877722  1
  Pt  Pt12  1  0.000000  0.500000  0.122278  1
  Pt  Pt13  1  0.000000  0.500000  0.380827  1
  Pt  Pt14  1  0.000000  0.500000  0.619173  1
  Pt  Pt15  1  0.000000  0.500000  0.877722  1
