# generated using pymatgen
data_Er10TlIn4Hg3Pd4
_symmetry_space_group_name_H-M   'P 1'
_cell_length_a   3.62562600
_cell_length_b   7.98801208
_cell_length_c   18.20653800
_cell_angle_alpha   89.99704380
_cell_angle_beta   90.00000000
_cell_angle_gamma   90.00000000
_symmetry_Int_Tables_number   1
_chemical_formula_structural   Er10TlIn4Hg3Pd4
_chemical_formula_sum   'Er10 Tl1 In4 Hg3 Pd4'
_cell_volume   527.28945568
_cell_formula_units_Z   1
loop_
 _symmetry_equiv_pos_site_id
 _symmetry_equiv_pos_as_xyz
  1  'x, y, z'
loop_
 _atom_site_type_symbol
 _atom_site_label
 _atom_site_symmetry_multiplicity
 _atom_site_fract_x
 _atom_site_fract_y
 _atom_site_fract_z
 _atom_site_occupancy
  Er  Er0  1  0.000000  0.503865  0.497645  1
  Er  Er1  1  0.000000  0.999601  0.000161  1
  Er  Er2  1  0.000000  0.744951  0.283415  1
  Er  Er3  1  0.000000  0.255264  0.720321  1
  Er  Er4  1  0.000000  0.756190  0.783346  1
  Er  Er5  1  0.000000  0.245183  0.216099  1
  Er  Er6  1  0.000000  0.611432  0.084650  1
  Er  Er7  1  0.000000  0.389759  0.916604  1
  Er  Er8  1  0.000000  0.882540  0.584832  1
  Er  Er9  1  0.000000  0.109368  0.414215  1
  Tl  Tl10  1  0.500000  0.210645  0.566055  1
  In  In11  1  0.500000  0.578320  0.649471  1
  In  In12  1  0.500000  0.420037  0.350336  1
  In  In13  1  0.500000  0.920756  0.148427  1
  In  In14  1  0.500000  0.079612  0.851897  1
  Hg  Hg15  1  0.500000  0.713647  0.933603  1
  Hg  Hg16  1  0.500000  0.287638  0.065936  1
  Hg  Hg17  1  0.500000  0.788724  0.432926  1
  Pd  Pd18  1  0.500000  0.531766  0.197727  1
  Pd  Pd19  1  0.500000  0.470012  0.802952  1
  Pd  Pd20  1  0.500000  0.968313  0.697864  1
  Pd  Pd21  1  0.500000  0.032378  0.301521  1
