# generated using pymatgen
data_Ba2Tb3Dy(Si3O10)2
_symmetry_space_group_name_H-M   'P 1'
_cell_length_a   12.37551948
_cell_length_b   5.47163480
_cell_length_c   6.94759934
_cell_angle_alpha   73.55808213
_cell_angle_beta   90.02208734
_cell_angle_gamma   90.02833034
_symmetry_Int_Tables_number   1
_chemical_formula_structural   Ba2Tb3Dy(Si3O10)2
_chemical_formula_sum   'Ba2 Tb3 Dy1 Si6 O20'
_cell_volume   451.21379607
_cell_formula_units_Z   1
loop_
 _symmetry_equiv_pos_site_id
 _symmetry_equiv_pos_as_xyz
  1  'x, y, z'
loop_
 _atom_site_type_symbol
 _atom_site_label
 _atom_site_symmetry_multiplicity
 _atom_site_fract_x
 _atom_site_fract_y
 _atom_site_fract_z
 _atom_site_occupancy
  Ba  Ba0  1  0.749919  0.762496  0.985238  1
  Ba  Ba1  1  0.250138  0.237498  0.014645  1
  Tb  Tb2  1  0.598552  0.157753  0.315718  1
  Tb  Tb3  1  0.901230  0.157826  0.315499  1
  Tb  Tb4  1  0.098938  0.842210  0.684472  1
  Dy  Dy5  1  0.401098  0.841434  0.684669  1
  Si  Si6  1  0.061711  0.695428  0.214301  1
  Si  Si7  1  0.250269  0.418852  0.487759  1
  Si  Si8  1  0.750003  0.581086  0.512397  1
  Si  Si9  1  0.438294  0.695754  0.213956  1
  Si  Si10  1  0.561369  0.304566  0.785697  1
  Si  Si11  1  0.938356  0.304501  0.785791  1
  O  O12  1  0.449449  0.895943  0.352621  1
  O  O13  1  0.143511  0.453836  0.338554  1
  O  O14  1  0.856579  0.546236  0.661846  1
  O  O15  1  0.356483  0.454062  0.337627  1
  O  O16  1  0.378090  0.836730  0.002938  1
  O  O17  1  0.877703  0.163295  0.995995  1
  O  O18  1  0.053650  0.434845  0.808275  1
  O  O19  1  0.949885  0.103418  0.648270  1
  O  O20  1  0.549200  0.102691  0.648721  1
  O  O21  1  0.250492  0.626653  0.616245  1
  O  O22  1  0.122321  0.836687  0.004030  1
  O  O23  1  0.553567  0.565326  0.191833  1
  O  O24  1  0.250594  0.124907  0.632814  1
  O  O25  1  0.643479  0.545714  0.661767  1
  O  O26  1  0.749964  0.874840  0.367194  1
  O  O27  1  0.946449  0.565198  0.191638  1
  O  O28  1  0.749956  0.373458  0.383952  1
  O  O29  1  0.446536  0.436803  0.807711  1
  O  O30  1  0.622033  0.163406  0.996039  1
  O  O31  1  0.050179  0.896547  0.351788  1
