# generated using pymatgen
data_Ho4Lu2TiMn5O18
_symmetry_space_group_name_H-M   'P 1'
_cell_length_a   6.16447796
_cell_length_b   6.15708859
_cell_length_c   11.62922111
_cell_angle_alpha   90.23663338
_cell_angle_beta   89.52730582
_cell_angle_gamma   120.03971373
_symmetry_Int_Tables_number   1
_chemical_formula_structural   Ho4Lu2TiMn5O18
_chemical_formula_sum   'Ho4 Lu2 Ti1 Mn5 O18'
_cell_volume   382.08874951
_cell_formula_units_Z   1
loop_
 _symmetry_equiv_pos_site_id
 _symmetry_equiv_pos_as_xyz
  1  'x, y, z'
loop_
 _atom_site_type_symbol
 _atom_site_label
 _atom_site_symmetry_multiplicity
 _atom_site_fract_x
 _atom_site_fract_y
 _atom_site_fract_z
 _atom_site_occupancy
  Ho  Ho0  1  0.665845  0.335341  0.229388  1
  Ho  Ho1  1  0.334710  0.666866  0.735384  1
  Ho  Ho2  1  0.667845  0.333134  0.735384  1
  Ho  Ho3  1  0.330504  0.664659  0.229388  1
  Lu  Lu4  1  0.002639  0.000000  0.776997  1
  Lu  Lu5  1  0.999171  0.000000  0.273243  1
  Ti  Ti6  1  0.666624  0.000000  0.500859  1
  Mn  Mn7  1  0.668932  0.669595  0.001150  1
  Mn  Mn8  1  0.999337  0.330405  0.001150  1
  Mn  Mn9  1  0.999926  0.668571  0.500165  1
  Mn  Mn10  1  0.331355  0.331429  0.500165  1
  Mn  Mn11  1  0.330705  0.000000  0.001135  1
  O  O12  1  0.667368  0.333707  0.022893  1
  O  O13  1  0.359051  0.692513  0.521398  1
  O  O14  1  0.666539  0.307487  0.521398  1
  O  O15  1  0.333660  0.666293  0.022893  1
  O  O16  1  0.000829  0.000000  0.972702  1
  O  O17  1  0.974522  0.000000  0.474309  1
  O  O18  1  0.357220  0.000000  0.837259  1
  O  O19  1  0.352784  0.353007  0.332459  1
  O  O20  1  0.999777  0.646993  0.332459  1
  O  O21  1  0.000695  0.357450  0.837616  1
  O  O22  1  0.643245  0.642550  0.837616  1
  O  O23  1  0.638907  0.000000  0.334877  1
  O  O24  1  0.300132  0.000000  0.164886  1
  O  O25  1  0.305694  0.305383  0.668727  1
  O  O26  1  0.000311  0.694617  0.668727  1
  O  O27  1  0.998743  0.299219  0.164964  1
  O  O28  1  0.699524  0.700781  0.164964  1
  O  O29  1  0.703404  0.000000  0.669441  1
