# generated using pymatgen
data_Rb12Na4Li4Zr4(As3P)3
_symmetry_space_group_name_H-M   'P 1'
_cell_length_a   10.89856735
_cell_length_b   10.89205801
_cell_length_c   15.89469603
_cell_angle_alpha   89.96595205
_cell_angle_beta   89.99097533
_cell_angle_gamma   144.00436071
_symmetry_Int_Tables_number   1
_chemical_formula_structural   Rb12Na4Li4Zr4(As3P)3
_chemical_formula_sum   'Rb12 Na4 Li4 Zr4 As9 P3'
_cell_volume   1108.93078387
_cell_formula_units_Z   1
loop_
 _symmetry_equiv_pos_site_id
 _symmetry_equiv_pos_as_xyz
  1  'x, y, z'
loop_
 _atom_site_type_symbol
 _atom_site_label
 _atom_site_symmetry_multiplicity
 _atom_site_fract_x
 _atom_site_fract_y
 _atom_site_fract_z
 _atom_site_occupancy
  Rb  Rb0  1  0.944453  0.606881  0.824411  1
  Rb  Rb1  1  0.552687  0.890061  0.325502  1
  Rb  Rb2  1  0.392125  0.054305  0.175909  1
  Rb  Rb3  1  0.054331  0.391932  0.177665  1
  Rb  Rb4  1  0.892733  0.554145  0.324457  1
  Rb  Rb5  1  0.444268  0.106494  0.674950  1
  Rb  Rb6  1  0.606993  0.944612  0.824200  1
  Rb  Rb7  1  0.292360  0.294808  0.317476  1
  Rb  Rb8  1  0.793832  0.793398  0.183389  1
  Rb  Rb9  1  0.209693  0.209698  0.816871  1
  Rb  Rb10  1  0.709859  0.710376  0.682120  1
  Rb  Rb11  1  0.107123  0.444525  0.675335  1
  Na  Na12  1  0.755087  0.244886  0.000145  1
  Na  Na13  1  0.747245  0.255775  0.499232  1
  Na  Na14  1  0.244893  0.754989  0.000153  1
  Na  Na15  1  0.253565  0.741548  0.499095  1
  Li  Li16  1  0.923835  0.080194  0.000671  1
  Li  Li17  1  0.579991  0.423932  0.499283  1
  Li  Li18  1  0.079996  0.923598  0.000665  1
  Li  Li19  1  0.421152  0.579024  0.498417  1
  Zr  Zr20  1  0.581252  0.412648  0.001515  1
  Zr  Zr21  1  0.915570  0.085927  0.497148  1
  Zr  Zr22  1  0.412603  0.581232  0.001588  1
  Zr  Zr23  1  0.080974  0.913077  0.498130  1
  As  As24  1  0.884033  0.576022  0.096814  1
  As  As25  1  0.422637  0.114363  0.904935  1
  As  As26  1  0.614501  0.923466  0.594207  1
  As  As27  1  0.922588  0.614236  0.594780  1
  As  As28  1  0.114430  0.422704  0.904976  1
  As  As29  1  0.576193  0.883910  0.097307  1
  As  As30  1  0.384233  0.076125  0.402952  1
  As  As31  1  0.226209  0.226768  0.582113  1
  As  As32  1  0.725976  0.726218  0.917275  1
  P  P33  1  0.277627  0.277542  0.078111  1
  P  P34  1  0.075890  0.380679  0.407055  1
  P  P35  1  0.779059  0.779903  0.421147  1
