# generated using pymatgen
data_Ce2ZnAgF11
_symmetry_space_group_name_H-M   'P 1'
_cell_length_a   5.94311201
_cell_length_b   5.94311221
_cell_length_c   8.40238900
_cell_angle_alpha   68.73919973
_cell_angle_beta   68.73919897
_cell_angle_gamma   72.47970390
_symmetry_Int_Tables_number   1
_chemical_formula_structural   Ce2ZnAgF11
_chemical_formula_sum   'Ce2 Zn1 Ag1 F11'
_cell_volume   252.79483172
_cell_formula_units_Z   1
loop_
 _symmetry_equiv_pos_site_id
 _symmetry_equiv_pos_as_xyz
  1  'x, y, z'
loop_
 _atom_site_type_symbol
 _atom_site_label
 _atom_site_symmetry_multiplicity
 _atom_site_fract_x
 _atom_site_fract_y
 _atom_site_fract_z
 _atom_site_occupancy
  Ce  Ce0  1  0.510318  0.510318  0.758363  1
  Ce  Ce1  1  0.489682  0.489682  0.241637  1
  Zn  Zn2  1  0.000000  0.000000  0.500000  1
  Ag  Ag3  1  0.000000  0.000000  0.000000  1
  F  F4  1  0.210891  0.819987  0.678776  1
  F  F5  1  0.180013  0.789109  0.321224  1
  F  F6  1  0.789109  0.180013  0.321224  1
  F  F7  1  0.819987  0.210891  0.678776  1
  F  F8  1  0.500000  0.500000  0.500000  1
  F  F9  1  0.675751  0.324249  0.000000  1
  F  F10  1  0.324249  0.675751  0.000000  1
  F  F11  1  0.236247  0.236247  0.357277  1
  F  F12  1  0.763753  0.763753  0.642723  1
  F  F13  1  0.263014  0.263014  0.892018  1
  F  F14  1  0.736986  0.736986  0.107982  1
