# generated using pymatgen
data_Yb4Al3ReO12
_symmetry_space_group_name_H-M   'P 1'
_cell_length_a   5.27910198
_cell_length_b   5.26830899
_cell_length_c   7.55525747
_cell_angle_alpha   89.90695895
_cell_angle_beta   89.66682932
_cell_angle_gamma   89.92994618
_symmetry_Int_Tables_number   1
_chemical_formula_structural   Yb4Al3ReO12
_chemical_formula_sum   'Yb4 Al3 Re1 O12'
_cell_volume   210.12238651
_cell_formula_units_Z   1
loop_
 _symmetry_equiv_pos_site_id
 _symmetry_equiv_pos_as_xyz
  1  'x, y, z'
loop_
 _atom_site_type_symbol
 _atom_site_label
 _atom_site_symmetry_multiplicity
 _atom_site_fract_x
 _atom_site_fract_y
 _atom_site_fract_z
 _atom_site_occupancy
  Yb  Yb0  1  0.500701  0.523958  0.284092  1
  Yb  Yb1  1  0.006437  0.014120  0.284359  1
  Yb  Yb2  1  0.499299  0.476042  0.715908  1
  Yb  Yb3  1  0.993563  0.985880  0.715641  1
  Al  Al4  1  0.500000  0.000000  0.500000  1
  Al  Al5  1  0.000000  0.500000  0.500000  1
  Al  Al6  1  0.500000  0.000000  0.000000  1
  Re  Re7  1  0.000000  0.500000  0.000000  1
  O  O8  1  0.443957  0.983936  0.240770  1
  O  O9  1  0.058630  0.490989  0.246527  1
  O  O10  1  0.556043  0.016064  0.759230  1
  O  O11  1  0.941370  0.509011  0.753473  1
  O  O12  1  0.814225  0.804440  0.029109  1
  O  O13  1  0.738783  0.265631  0.474330  1
  O  O14  1  0.234227  0.238016  0.523799  1
  O  O15  1  0.302474  0.687446  0.968392  1
  O  O16  1  0.185775  0.195560  0.970891  1
  O  O17  1  0.261217  0.734369  0.525670  1
  O  O18  1  0.765773  0.761984  0.476201  1
  O  O19  1  0.697526  0.312554  0.031608  1
