# generated using pymatgen
data_ZnCd2Cu3
_symmetry_space_group_name_H-M   'P 1'
_cell_length_a   5.11993300
_cell_length_b   5.11993235
_cell_length_c   8.00876100
_cell_angle_alpha   90.00000000
_cell_angle_beta   90.00000000
_cell_angle_gamma   120.00001069
_symmetry_Int_Tables_number   1
_chemical_formula_structural   ZnCd2Cu3
_chemical_formula_sum   'Zn2 Cd4 Cu6'
_cell_volume   181.81278466
_cell_formula_units_Z   2
loop_
 _symmetry_equiv_pos_site_id
 _symmetry_equiv_pos_as_xyz
  1  'x, y, z'
loop_
 _atom_site_type_symbol
 _atom_site_label
 _atom_site_symmetry_multiplicity
 _atom_site_fract_x
 _atom_site_fract_y
 _atom_site_fract_z
 _atom_site_occupancy
  Zn  Zn0  1  0.000000  0.000000  0.500000  1
  Zn  Zn1  1  0.000000  0.000000  0.000000  1
  Cd  Cd2  1  0.333333  0.666667  0.436217  1
  Cd  Cd3  1  0.666667  0.333333  0.563783  1
  Cd  Cd4  1  0.666667  0.333333  0.936217  1
  Cd  Cd5  1  0.333333  0.666667  0.063783  1
  Cu  Cu6  1  0.829592  0.170408  0.250000  1
  Cu  Cu7  1  0.829592  0.659186  0.250000  1
  Cu  Cu8  1  0.340814  0.170408  0.250000  1
  Cu  Cu9  1  0.170408  0.829592  0.750000  1
  Cu  Cu10  1  0.170408  0.340814  0.750000  1
  Cu  Cu11  1  0.659186  0.829592  0.750000  1
