# generated using pymatgen
data_Tb18Er2Ir11Ru
_symmetry_space_group_name_H-M   'P 1'
_cell_length_a   10.90169407
_cell_length_b   10.90265507
_cell_length_c   6.41224400
_cell_angle_alpha   90.00000000
_cell_angle_beta   90.00000000
_cell_angle_gamma   89.98670372
_symmetry_Int_Tables_number   1
_chemical_formula_structural   Tb18Er2Ir11Ru
_chemical_formula_sum   'Tb18 Er2 Ir11 Ru1'
_cell_volume   762.14269487
_cell_formula_units_Z   1
loop_
 _symmetry_equiv_pos_site_id
 _symmetry_equiv_pos_as_xyz
  1  'x, y, z'
loop_
 _atom_site_type_symbol
 _atom_site_label
 _atom_site_symmetry_multiplicity
 _atom_site_fract_x
 _atom_site_fract_y
 _atom_site_fract_z
 _atom_site_occupancy
  Tb  Tb0  1  0.291002  0.086813  0.377990  1
  Tb  Tb1  1  0.291392  0.912975  0.881074  1
  Tb  Tb2  1  0.708608  0.087025  0.881074  1
  Tb  Tb3  1  0.708998  0.913187  0.377990  1
  Tb  Tb4  1  0.587450  0.792825  0.881040  1
  Tb  Tb5  1  0.587252  0.207576  0.377934  1
  Tb  Tb6  1  0.412748  0.792424  0.377934  1
  Tb  Tb7  1  0.412550  0.207175  0.881040  1
  Tb  Tb8  1  0.208956  0.411277  0.621096  1
  Tb  Tb9  1  0.208920  0.588372  0.120496  1
  Tb  Tb10  1  0.791080  0.411628  0.120496  1
  Tb  Tb11  1  0.791044  0.588723  0.621096  1
  Tb  Tb12  1  0.912088  0.710324  0.120487  1
  Tb  Tb13  1  0.911772  0.289607  0.621017  1
  Tb  Tb14  1  0.088228  0.710393  0.621017  1
  Tb  Tb15  1  0.087912  0.289676  0.120487  1
  Tb  Tb16  1  0.500000  0.500000  0.998756  1
  Tb  Tb17  1  0.500000  0.500000  0.498778  1
  Er  Er18  1  0.000000  0.000000  0.498769  1
  Er  Er19  1  0.000000  0.000000  0.998721  1
  Ir  Ir20  1  0.849222  0.151716  0.249728  1
  Ir  Ir21  1  0.849216  0.848807  0.749460  1
  Ir  Ir22  1  0.150784  0.151193  0.749460  1
  Ir  Ir23  1  0.150778  0.848284  0.249728  1
  Ir  Ir24  1  0.653412  0.347020  0.749530  1
  Ir  Ir25  1  0.653926  0.653041  0.249840  1
  Ir  Ir26  1  0.346074  0.346959  0.249840  1
  Ir  Ir27  1  0.346588  0.652980  0.749530  1
  Ir  Ir28  1  0.500000  0.000000  0.623992  1
  Ir  Ir29  1  0.000000  0.500000  0.878082  1
  Ir  Ir30  1  0.000000  0.500000  0.378429  1
  Ru  Ru31  1  0.500000  0.000000  0.125087  1
