# generated using pymatgen
data_SrYb2(AlSi2)2
_symmetry_space_group_name_H-M   'P 1'
_cell_length_a   6.26123397
_cell_length_b   6.26123331
_cell_length_c   8.43119488
_cell_angle_alpha   108.07950903
_cell_angle_beta   108.07950950
_cell_angle_gamma   38.53520579
_symmetry_Int_Tables_number   1
_chemical_formula_structural   SrYb2(AlSi2)2
_chemical_formula_sum   'Sr1 Yb2 Al2 Si4'
_cell_volume   194.47218122
_cell_formula_units_Z   1
loop_
 _symmetry_equiv_pos_site_id
 _symmetry_equiv_pos_as_xyz
  1  'x, y, z'
loop_
 _atom_site_type_symbol
 _atom_site_label
 _atom_site_symmetry_multiplicity
 _atom_site_fract_x
 _atom_site_fract_y
 _atom_site_fract_z
 _atom_site_occupancy
  Sr  Sr0  1  0.000000  0.000000  0.500000  1
  Yb  Yb1  1  0.607531  0.607531  0.186537  1
  Yb  Yb2  1  0.392469  0.392469  0.813463  1
  Al  Al3  1  0.299733  0.299733  0.151683  1
  Al  Al4  1  0.700268  0.700268  0.848317  1
  Si  Si5  1  0.899512  0.899512  0.096894  1
  Si  Si6  1  0.278218  0.278218  0.444328  1
  Si  Si7  1  0.721782  0.721782  0.555673  1
  Si  Si8  1  0.100488  0.100488  0.903106  1
