# generated using pymatgen
data_TbHf3(Al3Co)6
_symmetry_space_group_name_H-M   'P 1'
_cell_length_a   7.29159200
_cell_length_b   7.28090483
_cell_length_c   9.06743200
_cell_angle_alpha   90.00000000
_cell_angle_beta   90.00000000
_cell_angle_gamma   119.41746411
_symmetry_Int_Tables_number   1
_chemical_formula_structural   TbHf3(Al3Co)6
_chemical_formula_sum   'Tb1 Hf3 Al18 Co6'
_cell_volume   419.31669721
_cell_formula_units_Z   1
loop_
 _symmetry_equiv_pos_site_id
 _symmetry_equiv_pos_as_xyz
  1  'x, y, z'
loop_
 _atom_site_type_symbol
 _atom_site_label
 _atom_site_symmetry_multiplicity
 _atom_site_fract_x
 _atom_site_fract_y
 _atom_site_fract_z
 _atom_site_occupancy
  Tb  Tb0  1  0.327804  0.007890  0.750000  1
  Hf  Hf1  1  0.992371  0.672372  0.250000  1
  Hf  Hf2  1  0.006237  0.327766  0.750000  1
  Hf  Hf3  1  0.673583  0.993052  0.250000  1
  Al  Al4  1  0.117411  0.118274  0.250000  1
  Al  Al5  1  0.875400  0.879831  0.750000  1
  Al  Al6  1  0.329752  0.332429  0.543868  1
  Al  Al7  1  0.670146  0.670101  0.050545  1
  Al  Al8  1  0.329752  0.332429  0.956132  1
  Al  Al9  1  0.670146  0.670101  0.449455  1
  Al  Al10  1  0.338720  0.560619  0.250000  1
  Al  Al11  1  0.666956  0.445892  0.750000  1
  Al  Al12  1  0.561957  0.339814  0.250000  1
  Al  Al13  1  0.439413  0.654734  0.750000  1
  Al  Al14  1  0.994224  0.335009  0.074803  1
  Al  Al15  1  0.002910  0.662216  0.570358  1
  Al  Al16  1  0.335474  0.994467  0.422332  1
  Al  Al17  1  0.667790  0.005402  0.929621  1
  Al  Al18  1  0.002910  0.662216  0.929642  1
  Al  Al19  1  0.994224  0.335009  0.425197  1
  Al  Al20  1  0.667790  0.005402  0.570379  1
  Al  Al21  1  0.335474  0.994467  0.077668  1
  Co  Co22  1  0.997993  0.998869  0.002184  1
  Co  Co23  1  0.997993  0.998869  0.497816  1
  Co  Co24  1  0.673455  0.329205  0.001917  1
  Co  Co25  1  0.328330  0.672183  0.497716  1
  Co  Co26  1  0.328330  0.672183  0.002284  1
  Co  Co27  1  0.673455  0.329205  0.498083  1
