# generated using pymatgen
data_YbCe3(AlIr)4
_symmetry_space_group_name_H-M   'P 1'
_cell_length_a   6.91708546
_cell_length_b   4.28438500
_cell_length_c   7.95439664
_cell_angle_alpha   90.00000000
_cell_angle_beta   89.28940633
_cell_angle_gamma   90.00000000
_symmetry_Int_Tables_number   1
_chemical_formula_structural   YbCe3(AlIr)4
_chemical_formula_sum   'Yb1 Ce3 Al4 Ir4'
_cell_volume   235.71405178
_cell_formula_units_Z   1
loop_
 _symmetry_equiv_pos_site_id
 _symmetry_equiv_pos_as_xyz
  1  'x, y, z'
loop_
 _atom_site_type_symbol
 _atom_site_label
 _atom_site_symmetry_multiplicity
 _atom_site_fract_x
 _atom_site_fract_y
 _atom_site_fract_z
 _atom_site_occupancy
  Yb  Yb0  1  0.965878  0.250000  0.181549  1
  Ce  Ce1  1  0.461999  0.250000  0.316919  1
  Ce  Ce2  1  0.033541  0.750000  0.823651  1
  Ce  Ce3  1  0.535783  0.750000  0.683186  1
  Al  Al4  1  0.866696  0.250000  0.557330  1
  Al  Al5  1  0.363096  0.250000  0.940036  1
  Al  Al6  1  0.130802  0.750000  0.436107  1
  Al  Al7  1  0.642298  0.750000  0.063706  1
  Ir  Ir8  1  0.733591  0.250000  0.872780  1
  Ir  Ir9  1  0.236124  0.250000  0.621210  1
  Ir  Ir10  1  0.272079  0.750000  0.117583  1
  Ir  Ir11  1  0.758112  0.750000  0.385942  1
