# generated using pymatgen
data_Nb2ZnFe(Co2B)2
_symmetry_space_group_name_H-M   'P 1'
_cell_length_a   8.62814300
_cell_length_b   8.62814300
_cell_length_c   3.00441500
_cell_angle_alpha   90.00000000
_cell_angle_beta   90.00000000
_cell_angle_gamma   90.00000000
_symmetry_Int_Tables_number   1
_chemical_formula_structural   Nb2ZnFe(Co2B)2
_chemical_formula_sum   'Nb4 Zn2 Fe2 Co8 B4'
_cell_volume   223.66322891
_cell_formula_units_Z   2
loop_
 _symmetry_equiv_pos_site_id
 _symmetry_equiv_pos_as_xyz
  1  'x, y, z'
loop_
 _atom_site_type_symbol
 _atom_site_label
 _atom_site_symmetry_multiplicity
 _atom_site_fract_x
 _atom_site_fract_y
 _atom_site_fract_z
 _atom_site_occupancy
  Nb  Nb0  1  0.675117  0.175117  0.000000  1
  Nb  Nb1  1  0.324883  0.824883  0.000000  1
  Nb  Nb2  1  0.175117  0.324883  0.000000  1
  Nb  Nb3  1  0.824883  0.675117  0.000000  1
  Zn  Zn4  1  0.000000  0.000000  0.000000  1
  Zn  Zn5  1  0.500000  0.500000  0.000000  1
  Fe  Fe6  1  0.500000  0.000000  0.500000  1
  Fe  Fe7  1  0.000000  0.500000  0.500000  1
  Co  Co8  1  0.221668  0.070782  0.500000  1
  Co  Co9  1  0.778332  0.929218  0.500000  1
  Co  Co10  1  0.070782  0.778332  0.500000  1
  Co  Co11  1  0.721668  0.429218  0.500000  1
  Co  Co12  1  0.929218  0.221668  0.500000  1
  Co  Co13  1  0.278332  0.570782  0.500000  1
  Co  Co14  1  0.570782  0.721668  0.500000  1
  Co  Co15  1  0.429218  0.278332  0.500000  1
  B  B16  1  0.121966  0.621966  0.000000  1
  B  B17  1  0.878034  0.378034  0.000000  1
  B  B18  1  0.621966  0.878034  0.000000  1
  B  B19  1  0.378034  0.121966  0.000000  1
