# generated using pymatgen
data_Cs3Na(ThTe3)2
_symmetry_space_group_name_H-M   'P 1'
_cell_length_a   8.18895674
_cell_length_b   8.18895622
_cell_length_c   9.30344358
_cell_angle_alpha   81.60337106
_cell_angle_beta   81.60338245
_cell_angle_gamma   120.03598000
_symmetry_Int_Tables_number   1
_chemical_formula_structural   Cs3Na(ThTe3)2
_chemical_formula_sum   'Cs3 Na1 Th2 Te6'
_cell_volume   516.52684767
_cell_formula_units_Z   1
loop_
 _symmetry_equiv_pos_site_id
 _symmetry_equiv_pos_as_xyz
  1  'x, y, z'
loop_
 _atom_site_type_symbol
 _atom_site_label
 _atom_site_symmetry_multiplicity
 _atom_site_fract_x
 _atom_site_fract_y
 _atom_site_fract_z
 _atom_site_occupancy
  Cs  Cs0  1  0.656363  0.343637  0.500000  1
  Cs  Cs1  1  0.343637  0.656363  0.500000  1
  Cs  Cs2  1  0.000000  0.000000  0.500000  1
  Na  Na3  1  0.500000  0.500000  0.000000  1
  Th  Th4  1  0.832401  0.167599  0.000000  1
  Th  Th5  1  0.167599  0.832401  0.000000  1
  Te  Te6  1  0.790214  0.790214  0.191235  1
  Te  Te7  1  0.209786  0.209786  0.808765  1
  Te  Te8  1  0.433600  0.075966  0.197645  1
  Te  Te9  1  0.566400  0.924034  0.802355  1
  Te  Te10  1  0.924034  0.566400  0.802355  1
  Te  Te11  1  0.075966  0.433600  0.197645  1
