# generated using pymatgen
data_Y2LuAl12Os3Pt
_symmetry_space_group_name_H-M   'P 1'
_cell_length_a   8.81246900
_cell_length_b   8.79721510
_cell_length_c   9.55834618
_cell_angle_alpha   90.10685295
_cell_angle_beta   90.07528886
_cell_angle_gamma   119.45133435
_symmetry_Int_Tables_number   1
_chemical_formula_structural   Y2LuAl12Os3Pt
_chemical_formula_sum   'Y4 Lu2 Al24 Os6 Pt2'
_cell_volume   645.25095989
_cell_formula_units_Z   2
loop_
 _symmetry_equiv_pos_site_id
 _symmetry_equiv_pos_as_xyz
  1  'x, y, z'
loop_
 _atom_site_type_symbol
 _atom_site_label
 _atom_site_symmetry_multiplicity
 _atom_site_fract_x
 _atom_site_fract_y
 _atom_site_fract_z
 _atom_site_occupancy
  Y  Y0  1  0.616819  0.809747  0.252167  1
  Y  Y1  1  0.383181  0.190253  0.747833  1
  Y  Y2  1  0.189964  0.805893  0.252074  1
  Y  Y3  1  0.810036  0.194107  0.747926  1
  Lu  Lu4  1  0.191278  0.392858  0.254213  1
  Lu  Lu5  1  0.808722  0.607142  0.745787  1
  Al  Al6  1  0.328606  0.664818  0.026661  1
  Al  Al7  1  0.671394  0.335182  0.973339  1
  Al  Al8  1  0.666384  0.332232  0.523845  1
  Al  Al9  1  0.333616  0.667768  0.476155  1
  Al  Al10  1  0.164809  0.328355  0.574619  1
  Al  Al11  1  0.835191  0.671645  0.425381  1
  Al  Al12  1  0.672857  0.835687  0.575345  1
  Al  Al13  1  0.841631  0.674654  0.076914  1
  Al  Al14  1  0.327143  0.164313  0.424655  1
  Al  Al15  1  0.158369  0.325346  0.923086  1
  Al  Al16  1  0.164153  0.836015  0.576755  1
  Al  Al17  1  0.323451  0.163134  0.079953  1
  Al  Al18  1  0.835847  0.163985  0.423245  1
  Al  Al19  1  0.676549  0.836866  0.920047  1
  Al  Al20  1  0.842005  0.168592  0.079230  1
  Al  Al21  1  0.157995  0.831408  0.920770  1
  Al  Al22  1  0.561663  0.125606  0.251824  1
  Al  Al23  1  0.438337  0.874394  0.748176  1
  Al  Al24  1  0.876325  0.439800  0.249033  1
  Al  Al25  1  0.123675  0.560200  0.750967  1
  Al  Al26  1  0.561691  0.437759  0.252169  1
  Al  Al27  1  0.438309  0.562241  0.747831  1
  Al  Al28  1  0.000398  0.006086  0.250373  1
  Al  Al29  1  0.999602  0.993914  0.749627  1
  Os  Os30  1  0.000000  0.500000  0.000000  1
  Os  Os31  1  0.500000  0.000000  0.500000  1
  Os  Os32  1  0.000000  0.500000  0.500000  1
  Os  Os33  1  0.500000  0.500000  0.500000  1
  Os  Os34  1  0.000000  0.000000  0.000000  1
  Os  Os35  1  0.000000  0.000000  0.500000  1
  Pt  Pt36  1  0.500000  0.000000  0.000000  1
  Pt  Pt37  1  0.500000  0.500000  0.000000  1
