# generated using pymatgen
data_CeYCdNi2
_symmetry_space_group_name_H-M   'P 1'
_cell_length_a   7.49455248
_cell_length_b   7.49455186
_cell_length_c   3.63608200
_cell_angle_alpha   90.00000000
_cell_angle_beta   90.00000000
_cell_angle_gamma   92.93710976
_symmetry_Int_Tables_number   1
_chemical_formula_structural   CeYCdNi2
_chemical_formula_sum   'Ce2 Y2 Cd2 Ni4'
_cell_volume   203.96430482
_cell_formula_units_Z   2
loop_
 _symmetry_equiv_pos_site_id
 _symmetry_equiv_pos_as_xyz
  1  'x, y, z'
loop_
 _atom_site_type_symbol
 _atom_site_label
 _atom_site_symmetry_multiplicity
 _atom_site_fract_x
 _atom_site_fract_y
 _atom_site_fract_z
 _atom_site_occupancy
  Ce  Ce0  1  0.674405  0.174405  0.500000  1
  Ce  Ce1  1  0.325595  0.825595  0.500000  1
  Y  Y2  1  0.173001  0.326999  0.500000  1
  Y  Y3  1  0.826999  0.673001  0.500000  1
  Cd  Cd4  1  0.000000  0.000000  0.000000  1
  Cd  Cd5  1  0.500000  0.500000  0.000000  1
  Ni  Ni6  1  0.126908  0.626908  0.000000  1
  Ni  Ni7  1  0.873092  0.373092  0.000000  1
  Ni  Ni8  1  0.617344  0.882656  0.000000  1
  Ni  Ni9  1  0.382656  0.117344  0.000000  1
