# generated using pymatgen
data_AlCdIrS4
_symmetry_space_group_name_H-M   'P 1'
_cell_length_a   7.29665022
_cell_length_b   7.22405507
_cell_length_c   7.29665026
_cell_angle_alpha   60.32856736
_cell_angle_beta   60.97043737
_cell_angle_gamma   60.32857073
_symmetry_Int_Tables_number   1
_chemical_formula_structural   AlCdIrS4
_chemical_formula_sum   'Al2 Cd2 Ir2 S8'
_cell_volume   275.27593774
_cell_formula_units_Z   2
loop_
 _symmetry_equiv_pos_site_id
 _symmetry_equiv_pos_as_xyz
  1  'x, y, z'
loop_
 _atom_site_type_symbol
 _atom_site_label
 _atom_site_symmetry_multiplicity
 _atom_site_fract_x
 _atom_site_fract_y
 _atom_site_fract_z
 _atom_site_occupancy
  Al  Al0  1  0.125000  0.625000  0.125000  1
  Al  Al1  1  0.125000  0.125000  0.125000  1
  Cd  Cd2  1  0.502874  0.497126  0.502874  1
  Cd  Cd3  1  0.747126  0.752874  0.747126  1
  Ir  Ir4  1  0.125000  0.125000  0.625000  1
  Ir  Ir5  1  0.625000  0.125000  0.125000  1
  S  S6  1  0.328413  0.892411  0.886764  1
  S  S7  1  0.358875  0.352868  0.358875  1
  S  S8  1  0.891125  0.897132  0.891125  1
  S  S9  1  0.921587  0.357589  0.363236  1
  S  S10  1  0.358875  0.929383  0.358875  1
  S  S11  1  0.363236  0.357589  0.921587  1
  S  S12  1  0.891125  0.320617  0.891125  1
  S  S13  1  0.886764  0.892411  0.328413  1
