# generated using pymatgen
data_TmNb2HN2
_symmetry_space_group_name_H-M   'P 1'
_cell_length_a   3.15433300
_cell_length_b   3.15433231
_cell_length_c   8.06091300
_cell_angle_alpha   90.00000000
_cell_angle_beta   90.00000000
_cell_angle_gamma   119.99999677
_symmetry_Int_Tables_number   1
_chemical_formula_structural   TmNb2HN2
_chemical_formula_sum   'Tm1 Nb2 H1 N2'
_cell_volume   69.45921383
_cell_formula_units_Z   1
loop_
 _symmetry_equiv_pos_site_id
 _symmetry_equiv_pos_as_xyz
  1  'x, y, z'
loop_
 _atom_site_type_symbol
 _atom_site_label
 _atom_site_symmetry_multiplicity
 _atom_site_fract_x
 _atom_site_fract_y
 _atom_site_fract_z
 _atom_site_occupancy
  Tm  Tm0  1  0.000000  0.000000  0.500000  1
  Nb  Nb1  1  0.666667  0.333333  0.838102  1
  Nb  Nb2  1  0.333333  0.666667  0.161898  1
  H  H3  1  0.000000  0.000000  0.000000  1
  N  N4  1  0.666667  0.333333  0.320057  1
  N  N5  1  0.333333  0.666667  0.679943  1
