# generated using pymatgen
data_Ce2Y2P7Ir8
_symmetry_space_group_name_H-M   'P 1'
_cell_length_a   3.97218000
_cell_length_b   12.76265677
_cell_length_c   13.14657666
_cell_angle_alpha   81.49945241
_cell_angle_beta   90.00000000
_cell_angle_gamma   90.00000000
_symmetry_Int_Tables_number   1
_chemical_formula_structural   Ce2Y2P7Ir8
_chemical_formula_sum   'Ce4 Y4 P14 Ir16'
_cell_volume   659.15162290
_cell_formula_units_Z   2
loop_
 _symmetry_equiv_pos_site_id
 _symmetry_equiv_pos_as_xyz
  1  'x, y, z'
loop_
 _atom_site_type_symbol
 _atom_site_label
 _atom_site_symmetry_multiplicity
 _atom_site_fract_x
 _atom_site_fract_y
 _atom_site_fract_z
 _atom_site_occupancy
  Ce  Ce0  1  0.250000  0.106713  0.790149  1
  Ce  Ce1  1  0.750000  0.893287  0.209851  1
  Ce  Ce2  1  0.250000  0.281139  0.102887  1
  Ce  Ce3  1  0.750000  0.718861  0.897113  1
  Y  Y4  1  0.250000  0.520130  0.292228  1
  Y  Y5  1  0.750000  0.479870  0.707772  1
  Y  Y6  1  0.250000  0.207678  0.439768  1
  Y  Y7  1  0.750000  0.792322  0.560232  1
  P  P8  1  0.250000  0.054744  0.099100  1
  P  P9  1  0.750000  0.945256  0.900900  1
  P  P10  1  0.250000  0.314004  0.686910  1
  P  P11  1  0.750000  0.685996  0.313090  1
  P  P12  1  0.250000  0.607917  0.565792  1
  P  P13  1  0.750000  0.392083  0.434208  1
  P  P14  1  0.250000  0.842680  0.718110  1
  P  P15  1  0.750000  0.157320  0.281890  1
  P  P16  1  0.750000  0.256292  0.919322  1
  P  P17  1  0.250000  0.743708  0.080678  1
  P  P18  1  0.750000  0.092849  0.589444  1
  P  P19  1  0.250000  0.907151  0.410556  1
  P  P20  1  0.750000  0.472999  0.128624  1
  P  P21  1  0.250000  0.527001  0.871376  1
  Ir  Ir22  1  0.250000  0.989948  0.576288  1
  Ir  Ir23  1  0.750000  0.010052  0.423712  1
  Ir  Ir24  1  0.250000  0.661428  0.729190  1
  Ir  Ir25  1  0.750000  0.338572  0.270810  1
  Ir  Ir26  1  0.250000  0.552120  0.048218  1
  Ir  Ir27  1  0.750000  0.447880  0.951782  1
  Ir  Ir28  1  0.250000  0.060774  0.274140  1
  Ir  Ir29  1  0.750000  0.939226  0.725860  1
  Ir  Ir30  1  0.250000  0.423080  0.523635  1
  Ir  Ir31  1  0.750000  0.576920  0.476365  1
  Ir  Ir32  1  0.250000  0.917070  0.998342  1
  Ir  Ir33  1  0.750000  0.082930  0.001658  1
  Ir  Ir34  1  0.250000  0.727923  0.398921  1
  Ir  Ir35  1  0.750000  0.272077  0.601079  1
  Ir  Ir36  1  0.250000  0.340667  0.857462  1
  Ir  Ir37  1  0.750000  0.659333  0.142538  1
