# generated using pymatgen
data_Dy10Y5ThTlCd3Pt4
_symmetry_space_group_name_H-M   'P 1'
_cell_length_a   9.72686125
_cell_length_b   9.72942134
_cell_length_c   9.72942100
_cell_angle_alpha   60.11757394
_cell_angle_beta   60.12555286
_cell_angle_gamma   60.12555615
_symmetry_Int_Tables_number   1
_chemical_formula_structural   Dy10Y5ThTlCd3Pt4
_chemical_formula_sum   'Dy10 Y5 Th1 Tl1 Cd3 Pt4'
_cell_volume   652.88875416
_cell_formula_units_Z   1
loop_
 _symmetry_equiv_pos_site_id
 _symmetry_equiv_pos_as_xyz
  1  'x, y, z'
loop_
 _atom_site_type_symbol
 _atom_site_label
 _atom_site_symmetry_multiplicity
 _atom_site_fract_x
 _atom_site_fract_y
 _atom_site_fract_z
 _atom_site_occupancy
  Dy  Dy0  1  0.353080  0.353154  0.940676  1
  Dy  Dy1  1  0.353080  0.940676  0.353154  1
  Dy  Dy2  1  0.940826  0.353217  0.353217  1
  Dy  Dy3  1  0.812508  0.189220  0.189220  1
  Dy  Dy4  1  0.191382  0.809669  0.809669  1
  Dy  Dy5  1  0.189054  0.812434  0.189253  1
  Dy  Dy6  1  0.809783  0.191668  0.809696  1
  Dy  Dy7  1  0.189054  0.189253  0.812434  1
  Dy  Dy8  1  0.809783  0.809696  0.191668  1
  Dy  Dy9  1  0.938532  0.565835  0.565835  1
  Y  Y10  1  0.563341  0.937423  0.937423  1
  Y  Y11  1  0.565927  0.938101  0.565694  1
  Y  Y12  1  0.937091  0.563560  0.937136  1
  Y  Y13  1  0.565927  0.565694  0.938101  1
  Y  Y14  1  0.937091  0.937136  0.563560  1
  Th  Th15  1  0.348416  0.348760  0.348760  1
  Tl  Tl16  1  0.584697  0.584316  0.584316  1
  Cd  Cd17  1  0.582141  0.582083  0.250957  1
  Cd  Cd18  1  0.582141  0.250957  0.582083  1
  Cd  Cd19  1  0.250839  0.582136  0.582136  1
  Pt  Pt20  1  0.143639  0.143583  0.143583  1
  Pt  Pt21  1  0.140449  0.140254  0.570801  1
  Pt  Pt22  1  0.140449  0.570801  0.140254  1
  Pt  Pt23  1  0.570768  0.140371  0.140371  1
