# generated using pymatgen
data_Ho2Sn(PRh2)6
_symmetry_space_group_name_H-M   'P 1'
_cell_length_a   9.77044700
_cell_length_b   9.77044698
_cell_length_c   3.86839100
_cell_angle_alpha   90.00000000
_cell_angle_beta   90.00000000
_cell_angle_gamma   120.00000344
_symmetry_Int_Tables_number   1
_chemical_formula_structural   Ho2Sn(PRh2)6
_chemical_formula_sum   'Ho2 Sn1 P6 Rh12'
_cell_volume   319.80838522
_cell_formula_units_Z   1
loop_
 _symmetry_equiv_pos_site_id
 _symmetry_equiv_pos_as_xyz
  1  'x, y, z'
loop_
 _atom_site_type_symbol
 _atom_site_label
 _atom_site_symmetry_multiplicity
 _atom_site_fract_x
 _atom_site_fract_y
 _atom_site_fract_z
 _atom_site_occupancy
  Ho  Ho0  1  0.333333  0.666667  0.750772  1
  Ho  Ho1  1  0.666667  0.333333  0.249228  1
  Sn  Sn2  1  0.000000  0.000000  0.500000  1
  P  P3  1  0.406272  0.287735  0.746637  1
  P  P4  1  0.712265  0.118537  0.746637  1
  P  P5  1  0.881463  0.593728  0.746637  1
  P  P6  1  0.593728  0.712265  0.253363  1
  P  P7  1  0.287735  0.881463  0.253363  1
  P  P8  1  0.118537  0.406272  0.253363  1
  Rh  Rh9  1  0.453872  0.067930  0.747252  1
  Rh  Rh10  1  0.932070  0.385941  0.747252  1
  Rh  Rh11  1  0.614059  0.546128  0.747252  1
  Rh  Rh12  1  0.546128  0.932070  0.252748  1
  Rh  Rh13  1  0.067930  0.614059  0.252748  1
  Rh  Rh14  1  0.385941  0.453872  0.252748  1
  Rh  Rh15  1  0.162059  0.287950  0.759070  1
  Rh  Rh16  1  0.712050  0.874109  0.759070  1
  Rh  Rh17  1  0.125891  0.837941  0.759070  1
  Rh  Rh18  1  0.837941  0.712050  0.240930  1
  Rh  Rh19  1  0.287950  0.125891  0.240930  1
  Rh  Rh20  1  0.874109  0.162059  0.240930  1
