# generated using pymatgen
data_NdDy3MnCo13B6
_symmetry_space_group_name_H-M   'P 1'
_cell_length_a   5.09031935
_cell_length_b   5.09032012
_cell_length_c   12.73512600
_cell_angle_alpha   90.00000000
_cell_angle_beta   90.00000000
_cell_angle_gamma   120.04273234
_symmetry_Int_Tables_number   1
_chemical_formula_structural   NdDy3MnCo13B6
_chemical_formula_sum   'Nd1 Dy3 Mn1 Co13 B6'
_cell_volume   285.65171427
_cell_formula_units_Z   1
loop_
 _symmetry_equiv_pos_site_id
 _symmetry_equiv_pos_as_xyz
  1  'x, y, z'
loop_
 _atom_site_type_symbol
 _atom_site_label
 _atom_site_symmetry_multiplicity
 _atom_site_fract_x
 _atom_site_fract_y
 _atom_site_fract_z
 _atom_site_occupancy
  Nd  Nd0  1  0.000006  0.999994  0.000000  1
  Dy  Dy1  1  0.000004  0.999996  0.261677  1
  Dy  Dy2  1  0.000004  0.999996  0.500000  1
  Dy  Dy3  1  0.000004  0.999996  0.738323  1
  Mn  Mn4  1  0.333285  0.666715  0.000000  1
  Co  Co5  1  0.499893  0.999779  0.614453  1
  Co  Co6  1  0.501171  0.002344  0.841236  1
  Co  Co7  1  0.501159  0.498841  0.841183  1
  Co  Co8  1  0.499895  0.500105  0.385575  1
  Co  Co9  1  0.000221  0.500107  0.614453  1
  Co  Co10  1  0.997656  0.498829  0.158764  1
  Co  Co11  1  0.997656  0.498829  0.841236  1
  Co  Co12  1  0.501159  0.498841  0.158817  1
  Co  Co13  1  0.499893  0.999779  0.385547  1
  Co  Co14  1  0.501171  0.002344  0.158764  1
  Co  Co15  1  0.499895  0.500105  0.614425  1
  Co  Co16  1  0.666678  0.333322  0.000000  1
  Co  Co17  1  0.000221  0.500107  0.385547  1
  B  B18  1  0.666678  0.333322  0.729752  1
  B  B19  1  0.333335  0.666665  0.730650  1
  B  B20  1  0.333335  0.666665  0.269350  1
  B  B21  1  0.666751  0.333249  0.500000  1
  B  B22  1  0.666678  0.333322  0.270248  1
  B  B23  1  0.333253  0.666747  0.500000  1
