# generated using pymatgen
data_Ti20Ga7Se5
_symmetry_space_group_name_H-M   'P 1'
_cell_length_a   6.71475881
_cell_length_b   7.92093189
_cell_length_c   9.86988529
_cell_angle_alpha   89.89938614
_cell_angle_beta   89.88840163
_cell_angle_gamma   90.03983941
_symmetry_Int_Tables_number   1
_chemical_formula_structural   Ti20Ga7Se5
_chemical_formula_sum   'Ti20 Ga7 Se5'
_cell_volume   524.94910826
_cell_formula_units_Z   1
loop_
 _symmetry_equiv_pos_site_id
 _symmetry_equiv_pos_as_xyz
  1  'x, y, z'
loop_
 _atom_site_type_symbol
 _atom_site_label
 _atom_site_symmetry_multiplicity
 _atom_site_fract_x
 _atom_site_fract_y
 _atom_site_fract_z
 _atom_site_occupancy
  Ti  Ti0  1  0.814409  0.557092  0.057901  1
  Ti  Ti1  1  0.684174  0.940312  0.562198  1
  Ti  Ti2  1  0.186292  0.059208  0.938400  1
  Ti  Ti3  1  0.315506  0.442221  0.440053  1
  Ti  Ti4  1  0.183699  0.443926  0.937798  1
  Ti  Ti5  1  0.314980  0.057795  0.439835  1
  Ti  Ti6  1  0.814468  0.942627  0.060527  1
  Ti  Ti7  1  0.681631  0.556569  0.563669  1
  Ti  Ti8  1  0.170734  0.750475  0.224999  1
  Ti  Ti9  1  0.330711  0.745043  0.724107  1
  Ti  Ti10  1  0.827613  0.253524  0.775997  1
  Ti  Ti11  1  0.671590  0.250121  0.273990  1
  Ti  Ti12  1  0.484570  0.748242  0.004870  1
  Ti  Ti13  1  0.012017  0.749855  0.503593  1
  Ti  Ti14  1  0.516337  0.252248  0.996780  1
  Ti  Ti15  1  0.985581  0.249377  0.496659  1
  Ti  Ti16  1  0.666478  0.748610  0.285607  1
  Ti  Ti17  1  0.839102  0.750579  0.786581  1
  Ti  Ti18  1  0.331611  0.251463  0.711380  1
  Ti  Ti19  1  0.166622  0.248713  0.214333  1
  Ga  Ga20  1  0.937457  0.505491  0.324571  1
  Ga  Ga21  1  0.561818  0.993235  0.825327  1
  Ga  Ga22  1  0.062875  0.006587  0.675473  1
  Ga  Ga23  1  0.436205  0.493222  0.177198  1
  Ga  Ga24  1  0.062890  0.493860  0.672921  1
  Ga  Ga25  1  0.438153  0.006324  0.174154  1
  Ga  Ga26  1  0.937304  0.993672  0.325133  1
  Se  Se27  1  0.396841  0.750049  0.468872  1
  Se  Se28  1  0.101019  0.751862  0.972051  1
  Se  Se29  1  0.601424  0.247996  0.527840  1
  Se  Se30  1  0.901192  0.249469  0.030356  1
  Se  Se31  1  0.564697  0.510234  0.826830  1
