# generated using pymatgen
data_Pu2PaTe5
_symmetry_space_group_name_H-M   'P 1'
_cell_length_a   8.34768400
_cell_length_b   9.02896800
_cell_length_c   13.05049300
_cell_angle_alpha   90.00000000
_cell_angle_beta   90.00000000
_cell_angle_gamma   90.00000000
_symmetry_Int_Tables_number   1
_chemical_formula_structural   Pu2PaTe5
_chemical_formula_sum   'Pu8 Pa4 Te20'
_cell_volume   983.62833871
_cell_formula_units_Z   4
loop_
 _symmetry_equiv_pos_site_id
 _symmetry_equiv_pos_as_xyz
  1  'x, y, z'
loop_
 _atom_site_type_symbol
 _atom_site_label
 _atom_site_symmetry_multiplicity
 _atom_site_fract_x
 _atom_site_fract_y
 _atom_site_fract_z
 _atom_site_occupancy
  Pu  Pu0  1  0.527818  0.500684  0.322393  1
  Pu  Pu1  1  0.972182  0.999316  0.822393  1
  Pu  Pu2  1  0.472182  0.000684  0.677607  1
  Pu  Pu3  1  0.027818  0.499316  0.177607  1
  Pu  Pu4  1  0.472182  0.499316  0.677607  1
  Pu  Pu5  1  0.027818  0.000684  0.177607  1
  Pu  Pu6  1  0.527818  0.999316  0.322393  1
  Pu  Pu7  1  0.972182  0.500684  0.822393  1
  Pa  Pa8  1  0.080835  0.750000  0.489344  1
  Pa  Pa9  1  0.419165  0.750000  0.989344  1
  Pa  Pa10  1  0.919165  0.250000  0.510656  1
  Pa  Pa11  1  0.580835  0.250000  0.010656  1
  Te  Te12  1  0.830373  0.950678  0.592170  1
  Te  Te13  1  0.669627  0.549322  0.092170  1
  Te  Te14  1  0.169627  0.450678  0.407830  1
  Te  Te15  1  0.330373  0.049322  0.907830  1
  Te  Te16  1  0.169627  0.049322  0.407830  1
  Te  Te17  1  0.330373  0.450678  0.907830  1
  Te  Te18  1  0.830373  0.549322  0.592170  1
  Te  Te19  1  0.669627  0.950678  0.092170  1
  Te  Te20  1  0.834057  0.750000  0.312840  1
  Te  Te21  1  0.665943  0.750000  0.812840  1
  Te  Te22  1  0.165943  0.250000  0.687160  1
  Te  Te23  1  0.334057  0.250000  0.187160  1
  Te  Te24  1  0.460305  0.750000  0.499605  1
  Te  Te25  1  0.039695  0.750000  0.999605  1
  Te  Te26  1  0.539695  0.250000  0.500395  1
  Te  Te27  1  0.960305  0.250000  0.000395  1
  Te  Te28  1  0.195507  0.750000  0.717395  1
  Te  Te29  1  0.304493  0.750000  0.217395  1
  Te  Te30  1  0.804493  0.250000  0.282605  1
  Te  Te31  1  0.695507  0.250000  0.782605  1
