# generated using pymatgen
data_La8Cd2CoOs
_symmetry_space_group_name_H-M   'P 1'
_cell_length_a   10.03562702
_cell_length_b   9.96153358
_cell_length_c   10.03562805
_cell_angle_alpha   60.24393017
_cell_angle_beta   60.63061945
_cell_angle_gamma   60.24393046
_symmetry_Int_Tables_number   1
_chemical_formula_structural   La8Cd2CoOs
_chemical_formula_sum   'La16 Cd4 Co2 Os2'
_cell_volume   715.37567399
_cell_formula_units_Z   2
loop_
 _symmetry_equiv_pos_site_id
 _symmetry_equiv_pos_as_xyz
  1  'x, y, z'
loop_
 _atom_site_type_symbol
 _atom_site_label
 _atom_site_symmetry_multiplicity
 _atom_site_fract_x
 _atom_site_fract_y
 _atom_site_fract_z
 _atom_site_occupancy
  La  La0  1  0.938056  0.945341  0.557377  1
  La  La1  1  0.560224  0.939776  0.560224  1
  La  La2  1  0.557377  0.945341  0.938056  1
  La  La3  1  0.685115  0.693306  0.309755  1
  La  La4  1  0.158896  0.151702  0.537698  1
  La  La5  1  0.309755  0.693306  0.685115  1
  La  La6  1  0.156570  0.149615  0.156570  1
  La  La7  1  0.537698  0.151702  0.158896  1
  La  La8  1  0.309724  0.690276  0.309724  1
  La  La9  1  0.309755  0.311824  0.685115  1
  La  La10  1  0.688673  0.311327  0.688673  1
  La  La11  1  0.938056  0.559226  0.557377  1
  La  La12  1  0.557377  0.559226  0.938056  1
  La  La13  1  0.156570  0.537245  0.156570  1
  La  La14  1  0.685115  0.311824  0.309755  1
  La  La15  1  0.942861  0.557139  0.942861  1
  Cd  Cd16  1  0.238294  0.921140  0.919426  1
  Cd  Cd17  1  0.920943  0.921959  0.920943  1
  Cd  Cd18  1  0.919426  0.921140  0.238294  1
  Cd  Cd19  1  0.920943  0.236154  0.920943  1
  Co  Co20  1  0.363512  0.915351  0.363512  1
  Co  Co21  1  0.363512  0.357623  0.363512  1
  Os  Os22  1  0.917777  0.359227  0.363769  1
  Os  Os23  1  0.363769  0.359227  0.917777  1
