# generated using pymatgen
data_LaPr3(In2Br5)4
_symmetry_space_group_name_H-M   'P 1'
_cell_length_a   8.69505111
_cell_length_b   9.25478200
_cell_length_c   13.67384474
_cell_angle_alpha   90.00000000
_cell_angle_beta   89.94210670
_cell_angle_gamma   90.00000000
_symmetry_Int_Tables_number   1
_chemical_formula_structural   LaPr3(In2Br5)4
_chemical_formula_sum   'La1 Pr3 In8 Br20'
_cell_volume   1100.34469817
_cell_formula_units_Z   1
loop_
 _symmetry_equiv_pos_site_id
 _symmetry_equiv_pos_as_xyz
  1  'x, y, z'
loop_
 _atom_site_type_symbol
 _atom_site_label
 _atom_site_symmetry_multiplicity
 _atom_site_fract_x
 _atom_site_fract_y
 _atom_site_fract_z
 _atom_site_occupancy
  La  La0  1  0.924014  0.750000  0.505259  1
  Pr  Pr1  1  0.076651  0.250000  0.494860  1
  Pr  Pr2  1  0.423223  0.250000  0.994784  1
  Pr  Pr3  1  0.576841  0.750000  0.005258  1
  In  In4  1  0.952120  0.004852  0.826912  1
  In  In5  1  0.047817  0.995186  0.173086  1
  In  In6  1  0.452142  0.995193  0.673104  1
  In  In7  1  0.047817  0.504814  0.173086  1
  In  In8  1  0.547779  0.004874  0.326868  1
  In  In9  1  0.952120  0.495148  0.826912  1
  In  In10  1  0.547779  0.495126  0.326868  1
  In  In11  1  0.452142  0.504807  0.673104  1
  Br  Br12  1  0.122191  0.750000  0.683599  1
  Br  Br13  1  0.879007  0.250000  0.317613  1
  Br  Br14  1  0.620915  0.250000  0.817632  1
  Br  Br15  1  0.378978  0.750000  0.182429  1
  Br  Br16  1  0.833589  0.046949  0.577893  1
  Br  Br17  1  0.166999  0.956361  0.422132  1
  Br  Br18  1  0.334196  0.955108  0.922725  1
  Br  Br19  1  0.166999  0.543639  0.422132  1
  Br  Br20  1  0.665820  0.044903  0.077294  1
  Br  Br21  1  0.833589  0.453051  0.577893  1
  Br  Br22  1  0.665820  0.455097  0.077294  1
  Br  Br23  1  0.334196  0.544892  0.922725  1
  Br  Br24  1  0.575539  0.750000  0.507331  1
  Br  Br25  1  0.422224  0.250000  0.492676  1
  Br  Br26  1  0.077896  0.250000  0.992635  1
  Br  Br27  1  0.922089  0.750000  0.007322  1
  Br  Br28  1  0.662059  0.750000  0.794682  1
  Br  Br29  1  0.337987  0.250000  0.205248  1
  Br  Br30  1  0.162075  0.250000  0.705268  1
  Br  Br31  1  0.837386  0.750000  0.293377  1
