# generated using pymatgen
data_Ca2Nb2FeNi9As7
_symmetry_space_group_name_H-M   'P 1'
_cell_length_a   3.84867900
_cell_length_b   9.56595391
_cell_length_c   9.61955111
_cell_angle_alpha   120.40291083
_cell_angle_beta   90.00000000
_cell_angle_gamma   90.00000000
_symmetry_Int_Tables_number   1
_chemical_formula_structural   Ca2Nb2FeNi9As7
_chemical_formula_sum   'Ca2 Nb2 Fe1 Ni9 As7'
_cell_volume   305.45541005
_cell_formula_units_Z   1
loop_
 _symmetry_equiv_pos_site_id
 _symmetry_equiv_pos_as_xyz
  1  'x, y, z'
loop_
 _atom_site_type_symbol
 _atom_site_label
 _atom_site_symmetry_multiplicity
 _atom_site_fract_x
 _atom_site_fract_y
 _atom_site_fract_z
 _atom_site_occupancy
  Ca  Ca0  1  0.000000  0.666666  0.328417  1
  Ca  Ca1  1  0.500000  0.334948  0.668939  1
  Nb  Nb2  1  0.500000  0.115678  0.219459  1
  Nb  Nb3  1  0.500000  0.101513  0.883871  1
  Fe  Fe4  1  0.500000  0.780641  0.897686  1
  Ni  Ni5  1  0.000000  0.573973  0.937490  1
  Ni  Ni6  1  0.000000  0.367323  0.428660  1
  Ni  Ni7  1  0.000000  0.061306  0.636658  1
  Ni  Ni8  1  0.000000  0.873298  0.155074  1
  Ni  Ni9  1  0.000000  0.281527  0.127927  1
  Ni  Ni10  1  0.000000  0.840396  0.714931  1
  Ni  Ni11  1  0.500000  0.942677  0.377665  1
  Ni  Ni12  1  0.500000  0.437550  0.055387  1
  Ni  Ni13  1  0.500000  0.621121  0.571586  1
  As  As14  1  0.500000  0.708576  0.109874  1
  As  As15  1  0.500000  0.415003  0.295714  1
  As  As16  1  0.500000  0.880544  0.583984  1
  As  As17  1  0.000000  0.990980  0.995231  1
  As  As18  1  0.000000  0.588701  0.701856  1
  As  As19  1  0.000000  0.111034  0.418429  1
  As  As20  1  0.000000  0.306549  0.891159  1
