# generated using pymatgen
data_PrHoNi7
_symmetry_space_group_name_H-M   'P 1'
_cell_length_a   4.98075356
_cell_length_b   4.98075435
_cell_length_c   12.39380282
_cell_angle_alpha   78.40822097
_cell_angle_beta   78.40822037
_cell_angle_gamma   60.00000550
_symmetry_Int_Tables_number   1
_chemical_formula_structural   PrHoNi7
_chemical_formula_sum   'Pr2 Ho2 Ni14'
_cell_volume   259.00549825
_cell_formula_units_Z   2
loop_
 _symmetry_equiv_pos_site_id
 _symmetry_equiv_pos_as_xyz
  1  'x, y, z'
loop_
 _atom_site_type_symbol
 _atom_site_label
 _atom_site_symmetry_multiplicity
 _atom_site_fract_x
 _atom_site_fract_y
 _atom_site_fract_z
 _atom_site_occupancy
  Pr  Pr0  1  0.948343  0.948343  0.154970  1
  Pr  Pr1  1  0.051657  0.051657  0.845030  1
  Ho  Ho2  1  0.851989  0.851989  0.444034  1
  Ho  Ho3  1  0.148011  0.148011  0.555966  1
  Ni  Ni4  1  0.500000  0.500000  0.500000  1
  Ni  Ni5  1  0.721949  0.721949  0.834154  1
  Ni  Ni6  1  0.278051  0.278051  0.165846  1
  Ni  Ni7  1  0.611440  0.611440  0.165680  1
  Ni  Ni8  1  0.388560  0.388560  0.834320  1
  Ni  Ni9  1  0.000000  0.500000  0.000000  1
  Ni  Ni10  1  0.500000  0.000000  0.000000  1
  Ni  Ni11  1  0.500000  0.500000  0.000000  1
  Ni  Ni12  1  0.388618  0.388618  0.331557  1
  Ni  Ni13  1  0.891208  0.388618  0.331557  1
  Ni  Ni14  1  0.388618  0.891208  0.331557  1
  Ni  Ni15  1  0.611382  0.611382  0.668443  1
  Ni  Ni16  1  0.108792  0.611382  0.668443  1
  Ni  Ni17  1  0.611382  0.108792  0.668443  1
