# generated using pymatgen
data_YLuMg(PRh2)6
_symmetry_space_group_name_H-M   'P 1'
_cell_length_a   9.69583900
_cell_length_b   9.69583862
_cell_length_c   3.88940300
_cell_angle_alpha   90.00000000
_cell_angle_beta   90.00000000
_cell_angle_gamma   119.99999473
_symmetry_Int_Tables_number   1
_chemical_formula_structural   YLuMg(PRh2)6
_chemical_formula_sum   'Y1 Lu1 Mg1 P6 Rh12'
_cell_volume   316.65355876
_cell_formula_units_Z   1
loop_
 _symmetry_equiv_pos_site_id
 _symmetry_equiv_pos_as_xyz
  1  'x, y, z'
loop_
 _atom_site_type_symbol
 _atom_site_label
 _atom_site_symmetry_multiplicity
 _atom_site_fract_x
 _atom_site_fract_y
 _atom_site_fract_z
 _atom_site_occupancy
  Y  Y0  1  0.666667  0.333333  0.241502  1
  Lu  Lu1  1  0.333333  0.666667  0.747117  1
  Mg  Mg2  1  0.000000  0.000000  0.617081  1
  P  P3  1  0.401485  0.284278  0.742049  1
  P  P4  1  0.715722  0.117207  0.742049  1
  P  P5  1  0.882793  0.598515  0.742049  1
  P  P6  1  0.596836  0.714103  0.246475  1
  P  P7  1  0.285897  0.882733  0.246475  1
  P  P8  1  0.117267  0.403164  0.246475  1
  Rh  Rh9  1  0.452758  0.067118  0.743083  1
  Rh  Rh10  1  0.932882  0.385640  0.743083  1
  Rh  Rh11  1  0.614360  0.547242  0.743083  1
  Rh  Rh12  1  0.544529  0.933102  0.245142  1
  Rh  Rh13  1  0.066898  0.611427  0.245142  1
  Rh  Rh14  1  0.388573  0.455471  0.245142  1
  Rh  Rh15  1  0.165374  0.296886  0.746882  1
  Rh  Rh16  1  0.703114  0.868488  0.746882  1
  Rh  Rh17  1  0.131512  0.834626  0.746882  1
  Rh  Rh18  1  0.843443  0.719371  0.241136  1
  Rh  Rh19  1  0.280629  0.124072  0.241136  1
  Rh  Rh20  1  0.875928  0.156557  0.241136  1
