# generated using pymatgen
data_Cs2YbP2O7
_symmetry_space_group_name_H-M   'P 1'
_cell_length_a   5.96605404
_cell_length_b   5.96605387
_cell_length_c   7.44304208
_cell_angle_alpha   66.32674951
_cell_angle_beta   66.32675273
_cell_angle_gamma   60.03847354
_symmetry_Int_Tables_number   1
_chemical_formula_structural   Cs2YbP2O7
_chemical_formula_sum   'Cs2 Yb1 P2 O7'
_cell_volume   203.35136176
_cell_formula_units_Z   1
loop_
 _symmetry_equiv_pos_site_id
 _symmetry_equiv_pos_as_xyz
  1  'x, y, z'
loop_
 _atom_site_type_symbol
 _atom_site_label
 _atom_site_symmetry_multiplicity
 _atom_site_fract_x
 _atom_site_fract_y
 _atom_site_fract_z
 _atom_site_occupancy
  Cs  Cs0  1  0.781737  0.781737  0.664460  1
  Cs  Cs1  1  0.222893  0.222893  0.336240  1
  Yb  Yb2  1  0.003015  0.003015  0.000457  1
  P  P3  1  0.422931  0.422931  0.745837  1
  P  P4  1  0.585007  0.585007  0.254494  1
  O  O5  1  0.254012  0.684148  0.813249  1
  O  O6  1  0.684148  0.254012  0.813249  1
  O  O7  1  0.741514  0.310263  0.206333  1
  O  O8  1  0.310263  0.741514  0.206333  1
  O  O9  1  0.262627  0.262627  0.786960  1
  O  O10  1  0.750797  0.750797  0.175029  1
  O  O11  1  0.525553  0.525553  0.499957  1
