# generated using pymatgen
data_Be3NiOsW
_symmetry_space_group_name_H-M   'P 1'
_cell_length_a   4.48709541
_cell_length_b   4.45450257
_cell_length_c   7.31756700
_cell_angle_alpha   89.66044241
_cell_angle_beta   90.16853845
_cell_angle_gamma   119.76002139
_symmetry_Int_Tables_number   1
_chemical_formula_structural   Be3NiOsW
_chemical_formula_sum   'Be6 Ni2 Os2 W2'
_cell_volume   126.96948660
_cell_formula_units_Z   2
loop_
 _symmetry_equiv_pos_site_id
 _symmetry_equiv_pos_as_xyz
  1  'x, y, z'
loop_
 _atom_site_type_symbol
 _atom_site_label
 _atom_site_symmetry_multiplicity
 _atom_site_fract_x
 _atom_site_fract_y
 _atom_site_fract_z
 _atom_site_occupancy
  Be  Be0  1  0.000927  0.002313  0.999094  1
  Be  Be1  1  0.999073  0.001386  0.499094  1
  Be  Be2  1  0.659647  0.827666  0.750267  1
  Be  Be3  1  0.340353  0.168019  0.250267  1
  Be  Be4  1  0.830961  0.169107  0.250031  1
  Be  Be5  1  0.169039  0.338145  0.750031  1
  Ni  Ni6  1  0.838539  0.670748  0.249002  1
  Ni  Ni7  1  0.161461  0.832207  0.749002  1
  Os  Os8  1  0.659108  0.325701  0.939714  1
  Os  Os9  1  0.340892  0.666594  0.439714  1
  W  W10  1  0.335161  0.666639  0.061892  1
  W  W11  1  0.664839  0.331477  0.561892  1
