# generated using pymatgen
data_MnFe4NiBr16
_symmetry_space_group_name_H-M   'P 1'
_cell_length_a   10.46426329
_cell_length_b   10.46426326
_cell_length_c   12.53909405
_cell_angle_alpha   54.82490250
_cell_angle_beta   54.82490428
_cell_angle_gamma   48.55126403
_symmetry_Int_Tables_number   1
_chemical_formula_structural   MnFe4NiBr16
_chemical_formula_sum   'Mn1 Fe4 Ni1 Br16'
_cell_volume   797.60395266
_cell_formula_units_Z   1
loop_
 _symmetry_equiv_pos_site_id
 _symmetry_equiv_pos_as_xyz
  1  'x, y, z'
loop_
 _atom_site_type_symbol
 _atom_site_label
 _atom_site_symmetry_multiplicity
 _atom_site_fract_x
 _atom_site_fract_y
 _atom_site_fract_z
 _atom_site_occupancy
  Mn  Mn0  1  0.002757  0.997243  0.750000  1
  Fe  Fe1  1  0.318150  0.844002  0.468411  1
  Fe  Fe2  1  0.155998  0.681850  0.031589  1
  Fe  Fe3  1  0.681545  0.154994  0.525132  1
  Fe  Fe4  1  0.845006  0.318455  0.974868  1
  Ni  Ni5  1  0.991308  0.008692  0.250000  1
  Br  Br6  1  0.617507  0.692870  0.440495  1
  Br  Br7  1  0.307130  0.382493  0.059505  1
  Br  Br8  1  0.384244  0.303316  0.547888  1
  Br  Br9  1  0.696684  0.615756  0.952112  1
  Br  Br10  1  0.165988  0.134175  0.485705  1
  Br  Br11  1  0.865825  0.834012  0.014295  1
  Br  Br12  1  0.847447  0.866524  0.501517  1
  Br  Br13  1  0.133476  0.152553  0.998483  1
  Br  Br14  1  0.287438  0.864467  0.284601  1
  Br  Br15  1  0.135533  0.712562  0.215399  1
  Br  Br16  1  0.687821  0.145399  0.717801  1
  Br  Br17  1  0.854601  0.312179  0.782199  1
  Br  Br18  1  0.161081  0.704028  0.683840  1
  Br  Br19  1  0.295972  0.838919  0.816160  1
  Br  Br20  1  0.848709  0.284220  0.309510  1
  Br  Br21  1  0.715780  0.151291  0.190490  1
