# generated using pymatgen
data_CaNd2Sm4OsBr12
_symmetry_space_group_name_H-M   'P 1'
_cell_length_a   9.47441263
_cell_length_b   9.47073043
_cell_length_c   9.56668290
_cell_angle_alpha   107.04345089
_cell_angle_beta   106.89037106
_cell_angle_gamma   106.88883471
_symmetry_Int_Tables_number   1
_chemical_formula_structural   CaNd2Sm4OsBr12
_chemical_formula_sum   'Ca1 Nd2 Sm4 Os1 Br12'
_cell_volume   716.04434640
_cell_formula_units_Z   1
loop_
 _symmetry_equiv_pos_site_id
 _symmetry_equiv_pos_as_xyz
  1  'x, y, z'
loop_
 _atom_site_type_symbol
 _atom_site_label
 _atom_site_symmetry_multiplicity
 _atom_site_fract_x
 _atom_site_fract_y
 _atom_site_fract_z
 _atom_site_occupancy
  Ca  Ca0  1  0.500007  0.499891  0.500220  1
  Nd  Nd1  1  0.311731  0.102358  0.025331  1
  Nd  Nd2  1  0.025861  0.313048  0.103492  1
  Sm  Sm3  1  0.105936  0.026543  0.319755  1
  Sm  Sm4  1  0.892432  0.973056  0.679442  1
  Sm  Sm5  1  0.973820  0.689743  0.897035  1
  Sm  Sm6  1  0.690708  0.896684  0.974026  1
  Os  Os7  1  0.999561  0.999887  0.999370  1
  Br  Br8  1  0.681877  0.218353  0.068747  1
  Br  Br9  1  0.382602  0.459519  0.167132  1
  Br  Br10  1  0.069304  0.685593  0.219018  1
  Br  Br11  1  0.779472  0.930323  0.315625  1
  Br  Br12  1  0.454337  0.161797  0.379955  1
  Br  Br13  1  0.163090  0.377313  0.456670  1
  Br  Br14  1  0.838929  0.622468  0.547443  1
  Br  Br15  1  0.545709  0.838544  0.623878  1
  Br  Br16  1  0.217769  0.068509  0.680269  1
  Br  Br17  1  0.929695  0.316327  0.777298  1
  Br  Br18  1  0.621890  0.545154  0.836225  1
  Br  Br19  1  0.315273  0.774893  0.929072  1
