# generated using pymatgen
data_Tb9Ho(In2Au)4
_symmetry_space_group_name_H-M   'P 1'
_cell_length_a   3.69331700
_cell_length_b   8.24294171
_cell_length_c   18.49297295
_cell_angle_alpha   90.03734865
_cell_angle_beta   90.00000000
_cell_angle_gamma   90.00000000
_symmetry_Int_Tables_number   1
_chemical_formula_structural   Tb9Ho(In2Au)4
_chemical_formula_sum   'Tb9 Ho1 In8 Au4'
_cell_volume   562.99619000
_cell_formula_units_Z   1
loop_
 _symmetry_equiv_pos_site_id
 _symmetry_equiv_pos_as_xyz
  1  'x, y, z'
loop_
 _atom_site_type_symbol
 _atom_site_label
 _atom_site_symmetry_multiplicity
 _atom_site_fract_x
 _atom_site_fract_y
 _atom_site_fract_z
 _atom_site_occupancy
  Tb  Tb0  1  0.000000  0.119788  0.419672  1
  Tb  Tb1  1  0.000000  0.879586  0.579810  1
  Tb  Tb2  1  0.000000  0.379654  0.920163  1
  Tb  Tb3  1  0.000000  0.620404  0.080207  1
  Tb  Tb4  1  0.000000  0.239133  0.217851  1
  Tb  Tb5  1  0.000000  0.761227  0.782389  1
  Tb  Tb6  1  0.000000  0.261343  0.717516  1
  Tb  Tb7  1  0.000000  0.000015  0.000179  1
  Tb  Tb8  1  0.000000  0.499927  0.500014  1
  Ho  Ho9  1  0.000000  0.739235  0.282061  1
  In  In10  1  0.500000  0.424681  0.353413  1
  In  In11  1  0.500000  0.576340  0.646500  1
  In  In12  1  0.500000  0.076305  0.853458  1
  In  In13  1  0.500000  0.923059  0.146840  1
  In  In14  1  0.500000  0.290793  0.066917  1
  In  In15  1  0.500000  0.709746  0.933253  1
  In  In16  1  0.500000  0.209467  0.566674  1
  In  In17  1  0.500000  0.789742  0.432581  1
  Au  Au18  1  0.500000  0.025290  0.302824  1
  Au  Au19  1  0.500000  0.972293  0.696875  1
  Au  Au20  1  0.500000  0.472445  0.803096  1
  Au  Au21  1  0.500000  0.529525  0.197705  1
