# generated using pymatgen
data_YFe3CoP12
_symmetry_space_group_name_H-M   'P 1'
_cell_length_a   6.73744875
_cell_length_b   6.73744920
_cell_length_c   6.73744701
_cell_angle_alpha   109.42582041
_cell_angle_beta   109.42583765
_cell_angle_gamma   109.42582758
_symmetry_Int_Tables_number   1
_chemical_formula_structural   YFe3CoP12
_chemical_formula_sum   'Y1 Fe3 Co1 P12'
_cell_volume   235.82627077
_cell_formula_units_Z   1
loop_
 _symmetry_equiv_pos_site_id
 _symmetry_equiv_pos_as_xyz
  1  'x, y, z'
loop_
 _atom_site_type_symbol
 _atom_site_label
 _atom_site_symmetry_multiplicity
 _atom_site_fract_x
 _atom_site_fract_y
 _atom_site_fract_z
 _atom_site_occupancy
  Y  Y0  1  0.000000  0.000000  0.000000  1
  Fe  Fe1  1  0.500000  0.000000  0.000000  1
  Fe  Fe2  1  0.000000  0.500000  0.000000  1
  Fe  Fe3  1  0.000000  0.000000  0.500000  1
  Co  Co4  1  0.500000  0.500000  0.500000  1
  P  P5  1  0.150565  0.800331  0.650100  1
  P  P6  1  0.147395  0.500381  0.348746  1
  P  P7  1  0.852605  0.499619  0.651254  1
  P  P8  1  0.348746  0.147395  0.500381  1
  P  P9  1  0.800331  0.650100  0.150565  1
  P  P10  1  0.849435  0.199669  0.349900  1
  P  P11  1  0.650100  0.150565  0.800331  1
  P  P12  1  0.499619  0.651254  0.852605  1
  P  P13  1  0.651254  0.852605  0.499619  1
  P  P14  1  0.500381  0.348746  0.147395  1
  P  P15  1  0.349900  0.849435  0.199669  1
  P  P16  1  0.199669  0.349900  0.849435  1
