# generated using pymatgen
data_Tb6Ge(P3Rh5)4
_symmetry_space_group_name_H-M   'P 1'
_cell_length_a   13.43396700
_cell_length_b   13.43396565
_cell_length_c   3.91328600
_cell_angle_alpha   90.00000000
_cell_angle_beta   90.00000000
_cell_angle_gamma   119.99999594
_symmetry_Int_Tables_number   1
_chemical_formula_structural   Tb6Ge(P3Rh5)4
_chemical_formula_sum   'Tb6 Ge1 P12 Rh20'
_cell_volume   611.61869137
_cell_formula_units_Z   1
loop_
 _symmetry_equiv_pos_site_id
 _symmetry_equiv_pos_as_xyz
  1  'x, y, z'
loop_
 _atom_site_type_symbol
 _atom_site_label
 _atom_site_symmetry_multiplicity
 _atom_site_fract_x
 _atom_site_fract_y
 _atom_site_fract_z
 _atom_site_occupancy
  Tb  Tb0  1  0.530745  0.717133  0.249374  1
  Tb  Tb1  1  0.282867  0.813612  0.249374  1
  Tb  Tb2  1  0.186388  0.469255  0.249374  1
  Tb  Tb3  1  0.469255  0.282867  0.750626  1
  Tb  Tb4  1  0.717133  0.186388  0.750626  1
  Tb  Tb5  1  0.813612  0.530745  0.750626  1
  Ge  Ge6  1  0.000000  0.000000  0.000000  1
  P  P7  1  0.526304  0.138720  0.250493  1
  P  P8  1  0.861280  0.387585  0.250493  1
  P  P9  1  0.612415  0.473696  0.250493  1
  P  P10  1  0.947626  0.716960  0.250789  1
  P  P11  1  0.283040  0.230665  0.250789  1
  P  P12  1  0.769335  0.052374  0.250789  1
  P  P13  1  0.387585  0.526304  0.749507  1
  P  P14  1  0.473696  0.861280  0.749507  1
  P  P15  1  0.138720  0.612415  0.749507  1
  P  P16  1  0.716960  0.769335  0.749211  1
  P  P17  1  0.230665  0.947626  0.749211  1
  P  P18  1  0.052374  0.283040  0.749211  1
  Rh  Rh19  1  0.333333  0.666667  0.751994  1
  Rh  Rh20  1  0.919185  0.250761  0.250434  1
  Rh  Rh21  1  0.749239  0.668422  0.250434  1
  Rh  Rh22  1  0.331578  0.080815  0.250434  1
  Rh  Rh23  1  0.441568  0.025562  0.750745  1
  Rh  Rh24  1  0.974438  0.416006  0.750745  1
  Rh  Rh25  1  0.583994  0.558432  0.750745  1
  Rh  Rh26  1  0.666667  0.333333  0.248006  1
  Rh  Rh27  1  0.095600  0.196937  0.254013  1
  Rh  Rh28  1  0.803063  0.898662  0.254013  1
  Rh  Rh29  1  0.101338  0.904400  0.254013  1
  Rh  Rh30  1  0.025562  0.583994  0.249255  1
  Rh  Rh31  1  0.416006  0.441568  0.249255  1
  Rh  Rh32  1  0.558432  0.974438  0.249255  1
  Rh  Rh33  1  0.668422  0.919185  0.749566  1
  Rh  Rh34  1  0.080815  0.749239  0.749566  1
  Rh  Rh35  1  0.250761  0.331578  0.749566  1
  Rh  Rh36  1  0.904400  0.803063  0.745987  1
  Rh  Rh37  1  0.196937  0.101338  0.745987  1
  Rh  Rh38  1  0.898662  0.095600  0.745987  1
