# generated using pymatgen
data_Dy5Y5(BiPb)3
_symmetry_space_group_name_H-M   'P 1'
_cell_length_a   9.13697900
_cell_length_b   9.13815403
_cell_length_c   6.49607000
_cell_angle_alpha   90.00000000
_cell_angle_beta   90.00000000
_cell_angle_gamma   119.99574290
_symmetry_Int_Tables_number   1
_chemical_formula_structural   Dy5Y5(BiPb)3
_chemical_formula_sum   'Dy5 Y5 Bi3 Pb3'
_cell_volume   469.74380073
_cell_formula_units_Z   1
loop_
 _symmetry_equiv_pos_site_id
 _symmetry_equiv_pos_as_xyz
  1  'x, y, z'
loop_
 _atom_site_type_symbol
 _atom_site_label
 _atom_site_symmetry_multiplicity
 _atom_site_fract_x
 _atom_site_fract_y
 _atom_site_fract_z
 _atom_site_occupancy
  Dy  Dy0  1  0.333357  0.666702  0.997245  1
  Dy  Dy1  1  0.666656  0.333298  0.997245  1
  Dy  Dy2  1  0.761247  0.000000  0.750000  1
  Dy  Dy3  1  0.333357  0.666702  0.502755  1
  Dy  Dy4  1  0.666656  0.333298  0.502755  1
  Y  Y5  1  0.238775  0.238813  0.750000  1
  Y  Y6  1  0.238518  0.000000  0.250000  1
  Y  Y7  1  0.999963  0.761187  0.750000  1
  Y  Y8  1  0.761494  0.761618  0.250000  1
  Y  Y9  1  0.999876  0.238382  0.250000  1
  Bi  Bi10  1  0.393364  0.393365  0.250000  1
  Bi  Bi11  1  0.606663  0.000000  0.250000  1
  Bi  Bi12  1  0.999999  0.606635  0.250000  1
  Pb  Pb13  1  0.999866  0.393183  0.750000  1
  Pb  Pb14  1  0.606683  0.606817  0.750000  1
  Pb  Pb15  1  0.393524  0.000000  0.750000  1
