# generated using pymatgen
data_Sm2Be2(Tc5C)3
_symmetry_space_group_name_H-M   'P 1'
_cell_length_a   6.91071899
_cell_length_b   6.91071837
_cell_length_c   6.89341610
_cell_angle_alpha   82.15008046
_cell_angle_beta   82.15007547
_cell_angle_gamma   83.06304998
_symmetry_Int_Tables_number   1
_chemical_formula_structural   Sm2Be2(Tc5C)3
_chemical_formula_sum   'Sm2 Be2 Tc15 C3'
_cell_volume   321.32075784
_cell_formula_units_Z   1
loop_
 _symmetry_equiv_pos_site_id
 _symmetry_equiv_pos_as_xyz
  1  'x, y, z'
loop_
 _atom_site_type_symbol
 _atom_site_label
 _atom_site_symmetry_multiplicity
 _atom_site_fract_x
 _atom_site_fract_y
 _atom_site_fract_z
 _atom_site_occupancy
  Sm  Sm0  1  0.653693  0.653693  0.651926  1
  Sm  Sm1  1  0.346307  0.346307  0.348074  1
  Be  Be2  1  0.500000  0.000000  0.000000  1
  Be  Be3  1  0.000000  0.500000  0.000000  1
  Tc  Tc4  1  0.000000  0.000000  0.500000  1
  Tc  Tc5  1  0.722914  0.277086  0.000000  1
  Tc  Tc6  1  0.002347  0.720250  0.270442  1
  Tc  Tc7  1  0.279750  0.997653  0.729558  1
  Tc  Tc8  1  0.997653  0.279750  0.729558  1
  Tc  Tc9  1  0.720250  0.002347  0.270442  1
  Tc  Tc10  1  0.277086  0.722914  0.000000  1
  Tc  Tc11  1  0.342541  0.342541  0.864257  1
  Tc  Tc12  1  0.857858  0.354528  0.344087  1
  Tc  Tc13  1  0.354528  0.857858  0.344087  1
  Tc  Tc14  1  0.657459  0.657459  0.135743  1
  Tc  Tc15  1  0.142142  0.645472  0.655913  1
  Tc  Tc16  1  0.645472  0.142142  0.655913  1
  Tc  Tc17  1  0.902091  0.902091  0.899224  1
  Tc  Tc18  1  0.097909  0.097909  0.100776  1
  C  C19  1  0.500000  0.500000  0.000000  1
  C  C20  1  0.000000  0.500000  0.500000  1
  C  C21  1  0.500000  0.000000  0.500000  1
