# generated using pymatgen
data_Er4MgZn2Bi
_symmetry_space_group_name_H-M   'P 1'
_cell_length_a   8.55029098
_cell_length_b   8.55029107
_cell_length_c   8.55029204
_cell_angle_alpha   125.90271816
_cell_angle_beta   125.90272055
_cell_angle_gamma   80.04809332
_symmetry_Int_Tables_number   1
_chemical_formula_structural   Er4MgZn2Bi
_chemical_formula_sum   'Er8 Mg2 Zn4 Bi2'
_cell_volume   395.95231245
_cell_formula_units_Z   2
loop_
 _symmetry_equiv_pos_site_id
 _symmetry_equiv_pos_as_xyz
  1  'x, y, z'
loop_
 _atom_site_type_symbol
 _atom_site_label
 _atom_site_symmetry_multiplicity
 _atom_site_fract_x
 _atom_site_fract_y
 _atom_site_fract_z
 _atom_site_occupancy
  Er  Er0  1  0.800536  0.300536  0.816997  1
  Er  Er1  1  0.199464  0.699464  0.183003  1
  Er  Er2  1  0.483538  0.983538  0.183003  1
  Er  Er3  1  0.300536  0.483538  0.500000  1
  Er  Er4  1  0.016462  0.199464  0.500000  1
  Er  Er5  1  0.516462  0.016462  0.816997  1
  Er  Er6  1  0.699464  0.516462  0.500000  1
  Er  Er7  1  0.983538  0.800536  0.500000  1
  Mg  Mg8  1  0.000000  0.000000  0.000000  1
  Mg  Mg9  1  0.500000  0.500000  0.000000  1
  Zn  Zn10  1  0.133049  0.633049  0.766099  1
  Zn  Zn11  1  0.866951  0.366951  0.233901  1
  Zn  Zn12  1  0.633049  0.866951  0.500000  1
  Zn  Zn13  1  0.366951  0.133049  0.500000  1
  Bi  Bi14  1  0.250000  0.250000  0.000000  1
  Bi  Bi15  1  0.750000  0.750000  0.000000  1
