# generated using pymatgen
data_Y2HgPtPb
_symmetry_space_group_name_H-M   'P 1'
_cell_length_a   8.10090700
_cell_length_b   8.16670100
_cell_length_c   3.77406300
_cell_angle_alpha   90.00000000
_cell_angle_beta   90.00000000
_cell_angle_gamma   90.00000000
_symmetry_Int_Tables_number   1
_chemical_formula_structural   Y2HgPtPb
_chemical_formula_sum   'Y4 Hg2 Pt2 Pb2'
_cell_volume   249.68327225
_cell_formula_units_Z   2
loop_
 _symmetry_equiv_pos_site_id
 _symmetry_equiv_pos_as_xyz
  1  'x, y, z'
loop_
 _atom_site_type_symbol
 _atom_site_label
 _atom_site_symmetry_multiplicity
 _atom_site_fract_x
 _atom_site_fract_y
 _atom_site_fract_z
 _atom_site_occupancy
  Y  Y0  1  0.324451  0.137772  0.500001  1
  Y  Y1  1  0.824451  0.362227  0.500001  1
  Y  Y2  1  0.164557  0.690262  0.500001  1
  Y  Y3  1  0.664558  0.809738  0.500001  1
  Hg  Hg4  1  0.633101  0.125283  0.000000  1
  Hg  Hg5  1  0.133101  0.374717  0.000000  1
  Pt  Pt6  1  0.879014  0.628082  0.000000  1
  Pt  Pt7  1  0.379015  0.871917  0.000000  1
  Pb  Pb8  1  0.998875  0.994011  0.000000  1
  Pb  Pb9  1  0.498875  0.505989  0.000000  1
