# generated using pymatgen
data_Rb3LuN2O7
_symmetry_space_group_name_H-M   'P 1'
_cell_length_a   4.60127717
_cell_length_b   3.61684257
_cell_length_c   15.76047310
_cell_angle_alpha   98.10860656
_cell_angle_beta   94.27920034
_cell_angle_gamma   101.64167882
_symmetry_Int_Tables_number   1
_chemical_formula_structural   Rb3LuN2O7
_chemical_formula_sum   'Rb3 Lu1 N2 O7'
_cell_volume   252.88226582
_cell_formula_units_Z   1
loop_
 _symmetry_equiv_pos_site_id
 _symmetry_equiv_pos_as_xyz
  1  'x, y, z'
loop_
 _atom_site_type_symbol
 _atom_site_label
 _atom_site_symmetry_multiplicity
 _atom_site_fract_x
 _atom_site_fract_y
 _atom_site_fract_z
 _atom_site_occupancy
  Rb  Rb0  1  0.823219  0.650681  0.619830  1
  Rb  Rb1  1  0.130591  0.256274  0.415032  1
  Rb  Rb2  1  0.186365  0.770872  0.087184  1
  Lu  Lu3  1  0.676269  0.226783  0.873758  1
  N  N4  1  0.266445  0.436747  0.810974  1
  N  N5  1  0.721582  0.423537  0.230760  1
  O  O6  1  0.766538  0.799325  0.941843  1
  O  O7  1  0.405764  0.716328  0.773517  1
  O  O8  1  0.984182  0.301658  0.777721  1
  O  O9  1  0.967997  0.633289  0.264349  1
  O  O10  1  0.394848  0.922436  0.531148  1
  O  O11  1  0.654222  0.396441  0.149189  1
  O  O12  1  0.545977  0.239628  0.274693  1
