# generated using pymatgen
data_Ca2Ni11As7Rh
_symmetry_space_group_name_H-M   'P 1'
_cell_length_a   3.82983600
_cell_length_b   9.42340921
_cell_length_c   9.41570997
_cell_angle_alpha   119.90672678
_cell_angle_beta   90.00000000
_cell_angle_gamma   90.00000000
_symmetry_Int_Tables_number   1
_chemical_formula_structural   Ca2Ni11As7Rh
_chemical_formula_sum   'Ca2 Ni11 As7 Rh1'
_cell_volume   294.56378494
_cell_formula_units_Z   1
loop_
 _symmetry_equiv_pos_site_id
 _symmetry_equiv_pos_as_xyz
  1  'x, y, z'
loop_
 _atom_site_type_symbol
 _atom_site_label
 _atom_site_symmetry_multiplicity
 _atom_site_fract_x
 _atom_site_fract_y
 _atom_site_fract_z
 _atom_site_occupancy
  Ca  Ca0  1  0.500000  0.333446  0.666449  1
  Ca  Ca1  1  0.000000  0.668512  0.335979  1
  Ni  Ni2  1  0.000000  0.872774  0.720936  1
  Ni  Ni3  1  0.000000  0.281365  0.155981  1
  Ni  Ni4  1  0.000000  0.846346  0.126286  1
  Ni  Ni5  1  0.500000  0.947191  0.567238  1
  Ni  Ni6  1  0.500000  0.424627  0.376993  1
  Ni  Ni7  1  0.500000  0.624571  0.047535  1
  Ni  Ni8  1  0.000000  0.377444  0.943353  1
  Ni  Ni9  1  0.000000  0.054453  0.434785  1
  Ni  Ni10  1  0.000000  0.562960  0.617448  1
  Ni  Ni11  1  0.500000  0.095427  0.212966  1
  Ni  Ni12  1  0.500000  0.789834  0.887055  1
  As  As13  1  0.500000  0.703301  0.596912  1
  As  As14  1  0.500000  0.413319  0.113867  1
  As  As15  1  0.500000  0.890254  0.294815  1
  As  As16  1  0.000000  0.999583  0.001603  1
  As  As17  1  0.000000  0.114995  0.707538  1
  As  As18  1  0.000000  0.288327  0.405768  1
  As  As19  1  0.000000  0.593747  0.881578  1
  Rh  Rh20  1  0.500000  0.117526  0.904916  1
