# generated using pymatgen
data_Tb7PrSc12Ga5Si11
_symmetry_space_group_name_H-M   'P 1'
_cell_length_a   7.19098101
_cell_length_b   7.44457694
_cell_length_c   14.24456248
_cell_angle_alpha   90.07020785
_cell_angle_beta   90.11367936
_cell_angle_gamma   90.08492962
_symmetry_Int_Tables_number   1
_chemical_formula_structural   Tb7PrSc12Ga5Si11
_chemical_formula_sum   'Tb7 Pr1 Sc12 Ga5 Si11'
_cell_volume   762.56280657
_cell_formula_units_Z   1
loop_
 _symmetry_equiv_pos_site_id
 _symmetry_equiv_pos_as_xyz
  1  'x, y, z'
loop_
 _atom_site_type_symbol
 _atom_site_label
 _atom_site_symmetry_multiplicity
 _atom_site_fract_x
 _atom_site_fract_y
 _atom_site_fract_z
 _atom_site_occupancy
  Tb  Tb0  1  0.012692  0.174326  0.399967  1
  Tb  Tb1  1  0.512876  0.326023  0.401306  1
  Tb  Tb2  1  0.490246  0.675684  0.898740  1
  Tb  Tb3  1  0.488197  0.676694  0.598724  1
  Tb  Tb4  1  0.988270  0.823805  0.598597  1
  Tb  Tb5  1  0.987384  0.828249  0.898797  1
  Tb  Tb6  1  0.511422  0.325735  0.100141  1
  Pr  Pr7  1  0.010066  0.172402  0.098634  1
  Sc  Sc8  1  0.329002  0.172715  0.625561  1
  Sc  Sc9  1  0.670455  0.823257  0.375061  1
  Sc  Sc10  1  0.663930  0.999075  0.751206  1
  Sc  Sc11  1  0.171058  0.676078  0.375052  1
  Sc  Sc12  1  0.826653  0.325220  0.873496  1
  Sc  Sc13  1  0.829106  0.326602  0.625454  1
  Sc  Sc14  1  0.836333  0.500173  0.252173  1
  Sc  Sc15  1  0.337367  0.998944  0.252779  1
  Sc  Sc16  1  0.332390  0.174725  0.872242  1
  Sc  Sc17  1  0.170465  0.672464  0.127398  1
  Sc  Sc18  1  0.668359  0.826051  0.127186  1
  Sc  Sc19  1  0.163151  0.500255  0.750256  1
  Ga  Ga20  1  0.158466  0.460717  0.538487  1
  Ga  Ga21  1  0.839654  0.543170  0.037920  1
  Ga  Ga22  1  0.344142  0.957919  0.037427  1
  Ga  Ga23  1  0.160457  0.463749  0.958942  1
  Ga  Ga24  1  0.658451  0.039123  0.538560  1
  Si  Si25  1  0.285896  0.874392  0.749218  1
  Si  Si26  1  0.467295  0.617711  0.251579  1
  Si  Si27  1  0.032460  0.118049  0.749053  1
  Si  Si28  1  0.532638  0.383930  0.748706  1
  Si  Si29  1  0.966478  0.879387  0.252077  1
  Si  Si30  1  0.709770  0.124879  0.252737  1
  Si  Si31  1  0.343812  0.963404  0.460564  1
  Si  Si32  1  0.844241  0.536496  0.460585  1
  Si  Si33  1  0.787033  0.626004  0.749041  1
  Si  Si34  1  0.215207  0.375944  0.252407  1
  Si  Si35  1  0.654580  0.036652  0.959932  1
