# generated using pymatgen
data_Ba4InFeO7F
_symmetry_space_group_name_H-M   'P 1'
_cell_length_a   7.52262425
_cell_length_b   7.52262371
_cell_length_c   5.82482900
_cell_angle_alpha   90.00000000
_cell_angle_beta   90.00000000
_cell_angle_gamma   134.37377743
_symmetry_Int_Tables_number   1
_chemical_formula_structural   Ba4InFeO7F
_chemical_formula_sum   'Ba4 In1 Fe1 O7 F1'
_cell_volume   235.61453013
_cell_formula_units_Z   1
loop_
 _symmetry_equiv_pos_site_id
 _symmetry_equiv_pos_as_xyz
  1  'x, y, z'
loop_
 _atom_site_type_symbol
 _atom_site_label
 _atom_site_symmetry_multiplicity
 _atom_site_fract_x
 _atom_site_fract_y
 _atom_site_fract_z
 _atom_site_occupancy
  Ba  Ba0  1  0.353754  0.646246  0.000000  1
  Ba  Ba1  1  0.863575  0.136425  0.500000  1
  Ba  Ba2  1  0.141419  0.858581  0.500000  1
  Ba  Ba3  1  0.640474  0.359526  0.000000  1
  In  In4  1  0.998361  0.001639  0.000000  1
  Fe  Fe5  1  0.480800  0.519200  0.500000  1
  O  O6  1  0.272405  0.267797  0.731019  1
  O  O7  1  0.732203  0.727595  0.268981  1
  O  O8  1  0.732203  0.727595  0.731019  1
  O  O9  1  0.272405  0.267797  0.268981  1
  O  O10  1  0.154683  0.845317  0.000000  1
  O  O11  1  0.338295  0.661705  0.500000  1
  O  O12  1  0.842596  0.157404  0.000000  1
  F  F13  1  0.676826  0.323174  0.500000  1
