# generated using pymatgen
data_Er3TmLuRu2
_symmetry_space_group_name_H-M   'P 1'
_cell_length_a   6.25063137
_cell_length_b   7.21614545
_cell_length_c   8.35372384
_cell_angle_alpha   96.88530880
_cell_angle_beta   111.96298651
_cell_angle_gamma   89.91229000
_symmetry_Int_Tables_number   1
_chemical_formula_structural   Er3TmLuRu2
_chemical_formula_sum   'Er6 Tm2 Lu2 Ru4'
_cell_volume   346.54852036
_cell_formula_units_Z   2
loop_
 _symmetry_equiv_pos_site_id
 _symmetry_equiv_pos_as_xyz
  1  'x, y, z'
loop_
 _atom_site_type_symbol
 _atom_site_label
 _atom_site_symmetry_multiplicity
 _atom_site_fract_x
 _atom_site_fract_y
 _atom_site_fract_z
 _atom_site_occupancy
  Er  Er0  1  0.523380  0.083369  0.814084  1
  Er  Er1  1  0.476620  0.916631  0.185916  1
  Er  Er2  1  0.708829  0.416663  0.186198  1
  Er  Er3  1  0.291171  0.583337  0.813802  1
  Er  Er4  1  0.296428  0.313521  0.433362  1
  Er  Er5  1  0.703572  0.686479  0.566638  1
  Tm  Tm6  1  0.863380  0.185823  0.566406  1
  Tm  Tm7  1  0.136620  0.814177  0.433594  1
  Lu  Lu8  1  0.078987  0.250454  0.999909  1
  Lu  Lu9  1  0.921013  0.749546  0.000091  1
  Ru  Ru10  1  0.320201  0.576428  0.218759  1
  Ru  Ru11  1  0.679799  0.423572  0.781241  1
  Ru  Ru12  1  0.101788  0.924712  0.780140  1
  Ru  Ru13  1  0.898212  0.075288  0.219860  1
