# generated using pymatgen
data_AlZn2Pd3Pt2
_symmetry_space_group_name_H-M   'P 1'
_cell_length_a   4.12023200
_cell_length_b   5.44480900
_cell_length_c   10.58111300
_cell_angle_alpha   90.00000000
_cell_angle_beta   90.00000000
_cell_angle_gamma   90.00000000
_symmetry_Int_Tables_number   1
_chemical_formula_structural   AlZn2Pd3Pt2
_chemical_formula_sum   'Al2 Zn4 Pd6 Pt4'
_cell_volume   237.37537990
_cell_formula_units_Z   2
loop_
 _symmetry_equiv_pos_site_id
 _symmetry_equiv_pos_as_xyz
  1  'x, y, z'
loop_
 _atom_site_type_symbol
 _atom_site_label
 _atom_site_symmetry_multiplicity
 _atom_site_fract_x
 _atom_site_fract_y
 _atom_site_fract_z
 _atom_site_occupancy
  Al  Al0  1  0.000000  0.000000  0.000000  1
  Al  Al1  1  0.000000  0.500000  0.500000  1
  Zn  Zn2  1  0.500000  0.162477  0.360065  1
  Zn  Zn3  1  0.500000  0.837523  0.639935  1
  Zn  Zn4  1  0.500000  0.662477  0.139935  1
  Zn  Zn5  1  0.500000  0.337523  0.860065  1
  Pd  Pd6  1  0.000000  0.000000  0.500000  1
  Pd  Pd7  1  0.000000  0.500000  0.000000  1
  Pd  Pd8  1  0.000000  0.901932  0.234209  1
  Pd  Pd9  1  0.000000  0.098068  0.765791  1
  Pd  Pd10  1  0.000000  0.401932  0.265791  1
  Pd  Pd11  1  0.000000  0.598068  0.734209  1
  Pt  Pt12  1  0.500000  0.180993  0.106497  1
  Pt  Pt13  1  0.500000  0.819007  0.893503  1
  Pt  Pt14  1  0.500000  0.680993  0.393503  1
  Pt  Pt15  1  0.500000  0.319007  0.606497  1
