# generated using pymatgen
data_Er7Tm2Lu(BiAu2)2
_symmetry_space_group_name_H-M   'P 1'
_cell_length_a   8.63061053
_cell_length_b   8.63115329
_cell_length_c   8.63127701
_cell_angle_alpha   124.27970027
_cell_angle_beta   124.29105074
_cell_angle_gamma   82.73576107
_symmetry_Int_Tables_number   1
_chemical_formula_structural   Er7Tm2Lu(BiAu2)2
_chemical_formula_sum   'Er7 Tm2 Lu1 Bi2 Au4'
_cell_volume   421.42818050
_cell_formula_units_Z   1
loop_
 _symmetry_equiv_pos_site_id
 _symmetry_equiv_pos_as_xyz
  1  'x, y, z'
loop_
 _atom_site_type_symbol
 _atom_site_label
 _atom_site_symmetry_multiplicity
 _atom_site_fract_x
 _atom_site_fract_y
 _atom_site_fract_z
 _atom_site_occupancy
  Er  Er0  1  0.205688  0.705235  0.191494  1
  Er  Er1  1  0.014217  0.205547  0.500366  1
  Er  Er2  1  0.705163  0.513861  0.499593  1
  Er  Er3  1  0.486200  0.985672  0.191243  1
  Er  Er4  1  0.794424  0.294816  0.808726  1
  Er  Er5  1  0.985836  0.794497  0.499629  1
  Er  Er6  1  0.294918  0.486266  0.500458  1
  Tm  Tm7  1  0.999851  0.000037  0.999973  1
  Tm  Tm8  1  0.513956  0.014429  0.808370  1
  Lu  Lu9  1  0.500014  0.499864  0.999969  1
  Bi  Bi10  1  0.250297  0.250163  0.000027  1
  Bi  Bi11  1  0.749732  0.749884  0.000010  1
  Au  Au12  1  0.139360  0.639031  0.778419  1
  Au  Au13  1  0.860359  0.360708  0.221292  1
  Au  Au14  1  0.638911  0.860668  0.499806  1
  Au  Au15  1  0.361075  0.139323  0.500626  1
