# generated using pymatgen
data_Ac4DyUS10
_symmetry_space_group_name_H-M   'P 1'
_cell_length_a   7.75742300
_cell_length_b   8.30412300
_cell_length_c   12.25357100
_cell_angle_alpha   90.00000000
_cell_angle_beta   90.00000000
_cell_angle_gamma   90.00000000
_symmetry_Int_Tables_number   1
_chemical_formula_structural   Ac4DyUS10
_chemical_formula_sum   'Ac8 Dy2 U2 S20'
_cell_volume   789.35782455
_cell_formula_units_Z   2
loop_
 _symmetry_equiv_pos_site_id
 _symmetry_equiv_pos_as_xyz
  1  'x, y, z'
loop_
 _atom_site_type_symbol
 _atom_site_label
 _atom_site_symmetry_multiplicity
 _atom_site_fract_x
 _atom_site_fract_y
 _atom_site_fract_z
 _atom_site_occupancy
  Ac  Ac0  1  0.536822  0.503199  0.325547  1
  Ac  Ac1  1  0.963178  0.996801  0.825547  1
  Ac  Ac2  1  0.467631  0.999889  0.674175  1
  Ac  Ac3  1  0.032369  0.500111  0.174175  1
  Ac  Ac4  1  0.467631  0.500111  0.674175  1
  Ac  Ac5  1  0.032369  0.999889  0.174175  1
  Ac  Ac6  1  0.536822  0.996801  0.325547  1
  Ac  Ac7  1  0.963178  0.503199  0.825547  1
  Dy  Dy8  1  0.066087  0.750000  0.494713  1
  Dy  Dy9  1  0.433913  0.750000  0.994713  1
  U  U10  1  0.951204  0.250000  0.504592  1
  U  U11  1  0.548796  0.250000  0.004592  1
  S  S12  1  0.837532  0.974684  0.587964  1
  S  S13  1  0.662468  0.525316  0.087964  1
  S  S14  1  0.163549  0.456808  0.412460  1
  S  S15  1  0.336451  0.043192  0.912460  1
  S  S16  1  0.163549  0.043192  0.412460  1
  S  S17  1  0.336451  0.456808  0.912460  1
  S  S18  1  0.837532  0.525316  0.587964  1
  S  S19  1  0.662468  0.974684  0.087964  1
  S  S20  1  0.839517  0.750000  0.312122  1
  S  S21  1  0.660483  0.750000  0.812122  1
  S  S22  1  0.157355  0.250000  0.683562  1
  S  S23  1  0.342645  0.250000  0.183562  1
  S  S24  1  0.444536  0.750000  0.495599  1
  S  S25  1  0.055464  0.750000  0.995599  1
  S  S26  1  0.556302  0.250000  0.502867  1
  S  S27  1  0.943698  0.250000  0.002867  1
  S  S28  1  0.183030  0.750000  0.709806  1
  S  S29  1  0.316970  0.750000  0.209806  1
  S  S30  1  0.822331  0.250000  0.296449  1
  S  S31  1  0.677669  0.250000  0.796449  1
