# generated using pymatgen
data_K2Sn(IO3)6
_symmetry_space_group_name_H-M   'P 1'
_cell_length_a   7.77572515
_cell_length_b   7.77572478
_cell_length_c   7.77572454
_cell_angle_alpha   96.97347737
_cell_angle_beta   96.97348468
_cell_angle_gamma   96.97348336
_symmetry_Int_Tables_number   1
_chemical_formula_structural   K2Sn(IO3)6
_chemical_formula_sum   'K2 Sn1 I6 O18'
_cell_volume   458.76116767
_cell_formula_units_Z   1
loop_
 _symmetry_equiv_pos_site_id
 _symmetry_equiv_pos_as_xyz
  1  'x, y, z'
loop_
 _atom_site_type_symbol
 _atom_site_label
 _atom_site_symmetry_multiplicity
 _atom_site_fract_x
 _atom_site_fract_y
 _atom_site_fract_z
 _atom_site_occupancy
  K  K0  1  0.172713  0.172713  0.172713  1
  K  K1  1  0.827287  0.827287  0.827287  1
  Sn  Sn2  1  0.500000  0.500000  0.500000  1
  I  I3  1  0.329522  0.704980  0.129475  1
  I  I4  1  0.129475  0.329522  0.704980  1
  I  I5  1  0.870525  0.670478  0.295020  1
  I  I6  1  0.670478  0.295020  0.870525  1
  I  I7  1  0.704980  0.129475  0.329522  1
  I  I8  1  0.295020  0.870525  0.670478  1
  O  O9  1  0.905309  0.285593  0.386538  1
  O  O10  1  0.091996  0.692325  0.086959  1
  O  O11  1  0.094691  0.714407  0.613462  1
  O  O12  1  0.450995  0.700422  0.682735  1
  O  O13  1  0.549006  0.299578  0.317265  1
  O  O14  1  0.317265  0.549006  0.299578  1
  O  O15  1  0.285593  0.386538  0.905309  1
  O  O16  1  0.682735  0.450994  0.700422  1
  O  O17  1  0.714407  0.613462  0.094691  1
  O  O18  1  0.086959  0.091996  0.692325  1
  O  O19  1  0.386538  0.905309  0.285593  1
  O  O20  1  0.613462  0.094691  0.714407  1
  O  O21  1  0.692325  0.086959  0.091996  1
  O  O22  1  0.700422  0.682735  0.450994  1
  O  O23  1  0.913041  0.908004  0.307675  1
  O  O24  1  0.299578  0.317265  0.549006  1
  O  O25  1  0.908004  0.307675  0.913041  1
  O  O26  1  0.307675  0.913041  0.908004  1
