# generated using pymatgen
data_YEr3Co9Si5
_symmetry_space_group_name_H-M   'P 1'
_cell_length_a   11.29884359
_cell_length_b   11.29884306
_cell_length_c   11.29884373
_cell_angle_alpha   26.48731886
_cell_angle_beta   26.48732237
_cell_angle_gamma   26.48732030
_symmetry_Int_Tables_number   1
_chemical_formula_structural   YEr3Co9Si5
_chemical_formula_sum   'Y1 Er3 Co9 Si5'
_cell_volume   252.90747711
_cell_formula_units_Z   1
loop_
 _symmetry_equiv_pos_site_id
 _symmetry_equiv_pos_as_xyz
  1  'x, y, z'
loop_
 _atom_site_type_symbol
 _atom_site_label
 _atom_site_symmetry_multiplicity
 _atom_site_fract_x
 _atom_site_fract_y
 _atom_site_fract_z
 _atom_site_occupancy
  Y  Y0  1  0.050646  0.050646  0.050646  1
  Er  Er1  1  0.949298  0.949298  0.949298  1
  Er  Er2  1  0.851822  0.851822  0.851822  1
  Er  Er3  1  0.148366  0.148366  0.148366  1
  Co  Co4  1  0.608825  0.608825  0.107802  1
  Co  Co5  1  0.892254  0.391338  0.391338  1
  Co  Co6  1  0.499845  0.999872  0.499845  1
  Co  Co7  1  0.391338  0.892254  0.391338  1
  Co  Co8  1  0.499845  0.499845  0.999872  1
  Co  Co9  1  0.107802  0.608825  0.608825  1
  Co  Co10  1  0.999872  0.499845  0.499845  1
  Co  Co11  1  0.391338  0.391338  0.892254  1
  Co  Co12  1  0.608825  0.107802  0.608825  1
  Si  Si13  1  0.278693  0.278693  0.278693  1
  Si  Si14  1  0.500050  0.500050  0.500050  1
  Si  Si15  1  0.387793  0.387793  0.387793  1
  Si  Si16  1  0.721238  0.721238  0.721238  1
  Si  Si17  1  0.612148  0.612148  0.612148  1
