# generated using pymatgen
data_La5Sm3(Mg3Au10)2
_symmetry_space_group_name_H-M   'P 1'
_cell_length_a   8.74422727
_cell_length_b   8.74420764
_cell_length_c   10.41060891
_cell_angle_alpha   89.95914777
_cell_angle_beta   89.96041224
_cell_angle_gamma   108.24561850
_symmetry_Int_Tables_number   1
_chemical_formula_structural   La5Sm3(Mg3Au10)2
_chemical_formula_sum   'La5 Sm3 Mg6 Au20'
_cell_volume   755.98766100
_cell_formula_units_Z   1
loop_
 _symmetry_equiv_pos_site_id
 _symmetry_equiv_pos_as_xyz
  1  'x, y, z'
loop_
 _atom_site_type_symbol
 _atom_site_label
 _atom_site_symmetry_multiplicity
 _atom_site_fract_x
 _atom_site_fract_y
 _atom_site_fract_z
 _atom_site_occupancy
  La  La0  1  0.199533  0.800453  0.499990  1
  La  La1  1  0.302907  0.302006  0.202545  1
  La  La2  1  0.697995  0.697116  0.797467  1
  La  La3  1  0.197961  0.198691  0.704398  1
  La  La4  1  0.801325  0.802031  0.295611  1
  Sm  Sm5  1  0.699128  0.300877  0.999999  1
  Sm  Sm6  1  0.301140  0.698871  0.000006  1
  Sm  Sm7  1  0.800254  0.199750  0.500002  1
  Mg  Mg8  1  0.013013  0.512412  0.249809  1
  Mg  Mg9  1  0.985897  0.486348  0.749371  1
  Mg  Mg10  1  0.487458  0.987007  0.750128  1
  Mg  Mg11  1  0.513657  0.014082  0.250542  1
  Mg  Mg12  1  0.999823  0.000148  0.999997  1
  Mg  Mg13  1  0.499676  0.500303  0.500040  1
  Au  Au14  1  0.095834  0.098642  0.403134  1
  Au  Au15  1  0.901372  0.904177  0.596878  1
  Au  Au16  1  0.401709  0.400380  0.906247  1
  Au  Au17  1  0.599630  0.598302  0.093764  1
  Au  Au18  1  0.878705  0.167959  0.206419  1
  Au  Au19  1  0.118511  0.832288  0.796420  1
  Au  Au20  1  0.619807  0.330440  0.708419  1
  Au  Au21  1  0.669565  0.380207  0.291598  1
  Au  Au22  1  0.382339  0.667496  0.290433  1
  Au  Au23  1  0.332509  0.617665  0.709584  1
  Au  Au24  1  0.832012  0.121288  0.793589  1
  Au  Au25  1  0.167710  0.881493  0.203589  1
  Au  Au26  1  0.937459  0.652302  0.021086  1
  Au  Au27  1  0.062503  0.347188  0.979734  1
  Au  Au28  1  0.565696  0.846149  0.520343  1
  Au  Au29  1  0.153851  0.434323  0.479669  1
  Au  Au30  1  0.438671  0.158206  0.479330  1
  Au  Au31  1  0.841790  0.561343  0.520671  1
  Au  Au32  1  0.347723  0.062553  0.978927  1
  Au  Au33  1  0.652835  0.937505  0.020260  1
