# generated using pymatgen
data_CaTa2CdO7
_symmetry_space_group_name_H-M   'P 1'
_cell_length_a   7.53867023
_cell_length_b   7.44456724
_cell_length_c   7.44456762
_cell_angle_alpha   59.28831776
_cell_angle_beta   59.58096625
_cell_angle_gamma   59.58096380
_symmetry_Int_Tables_number   1
_chemical_formula_structural   CaTa2CdO7
_chemical_formula_sum   'Ca2 Ta4 Cd2 O14'
_cell_volume   291.95639111
_cell_formula_units_Z   2
loop_
 _symmetry_equiv_pos_site_id
 _symmetry_equiv_pos_as_xyz
  1  'x, y, z'
loop_
 _atom_site_type_symbol
 _atom_site_label
 _atom_site_symmetry_multiplicity
 _atom_site_fract_x
 _atom_site_fract_y
 _atom_site_fract_z
 _atom_site_occupancy
  Ca  Ca0  1  0.625000  0.125000  0.125000  1
  Ca  Ca1  1  0.125000  0.125000  0.125000  1
  Ta  Ta2  1  0.625000  0.625000  0.125000  1
  Ta  Ta3  1  0.625000  0.125000  0.625000  1
  Ta  Ta4  1  0.125000  0.625000  0.625000  1
  Ta  Ta5  1  0.625000  0.625000  0.625000  1
  Cd  Cd6  1  0.125000  0.125000  0.625000  1
  Cd  Cd7  1  0.125000  0.625000  0.125000  1
  O  O8  1  0.310127  0.695767  0.307124  1
  O  O9  1  0.563017  0.942876  0.554233  1
  O  O10  1  0.310127  0.307124  0.695767  1
  O  O11  1  0.695506  0.304494  0.304494  1
  O  O12  1  0.311839  0.688161  0.688161  1
  O  O13  1  0.686983  0.695767  0.307124  1
  O  O14  1  0.939873  0.942876  0.554233  1
  O  O15  1  0.563017  0.554233  0.942876  1
  O  O16  1  0.009469  0.990531  0.990531  1
  O  O17  1  0.240531  0.259469  0.259469  1
  O  O18  1  0.686983  0.307124  0.695767  1
  O  O19  1  0.938161  0.561839  0.561839  1
  O  O20  1  0.554494  0.945506  0.945506  1
  O  O21  1  0.939873  0.554233  0.942876  1
