# generated using pymatgen
data_Y3Pa3Al7Pt16
_symmetry_space_group_name_H-M   'P 1'
_cell_length_a   8.98092012
_cell_length_b   8.99624338
_cell_length_c   8.99623400
_cell_angle_alpha   59.99998302
_cell_angle_beta   59.94351147
_cell_angle_gamma   59.94355477
_symmetry_Int_Tables_number   1
_chemical_formula_structural   Y3Pa3Al7Pt16
_chemical_formula_sum   'Y3 Pa3 Al7 Pt16'
_cell_volume   513.51900718
_cell_formula_units_Z   1
loop_
 _symmetry_equiv_pos_site_id
 _symmetry_equiv_pos_as_xyz
  1  'x, y, z'
loop_
 _atom_site_type_symbol
 _atom_site_label
 _atom_site_symmetry_multiplicity
 _atom_site_fract_x
 _atom_site_fract_y
 _atom_site_fract_z
 _atom_site_occupancy
  Y  Y0  1  0.288646  0.707402  0.707464  1
  Y  Y1  1  0.288582  0.707465  0.296467  1
  Y  Y2  1  0.288652  0.296496  0.707446  1
  Pa  Pa3  1  0.707452  0.289267  0.289277  1
  Pa  Pa4  1  0.707434  0.289270  0.714049  1
  Pa  Pa5  1  0.707363  0.713932  0.289374  1
  Al  Al6  1  0.009256  0.996924  0.996923  1
  Al  Al7  1  0.492282  0.997858  0.997871  1
  Al  Al8  1  0.492293  0.997948  0.511931  1
  Al  Al9  1  0.492301  0.511946  0.997941  1
  Al  Al10  1  0.009991  0.497914  0.497902  1
  Al  Al11  1  0.009909  0.497909  0.994223  1
  Al  Al12  1  0.009925  0.994226  0.497893  1
  Pt  Pt13  1  0.649806  0.116767  0.116725  1
  Pt  Pt14  1  0.114315  0.642276  0.121689  1
  Pt  Pt15  1  0.114298  0.121719  0.642272  1
  Pt  Pt16  1  0.114264  0.121736  0.121699  1
  Pt  Pt17  1  0.362850  0.879054  0.879043  1
  Pt  Pt18  1  0.877353  0.353284  0.884699  1
  Pt  Pt19  1  0.877351  0.884723  0.353269  1
  Pt  Pt20  1  0.877373  0.884672  0.884645  1
  Pt  Pt21  1  0.971919  0.342664  0.342686  1
  Pt  Pt22  1  0.345316  0.985938  0.334367  1
  Pt  Pt23  1  0.345327  0.334371  0.985927  1
  Pt  Pt24  1  0.345379  0.334364  0.334354  1
  Pt  Pt25  1  0.003038  0.665653  0.665651  1
  Pt  Pt26  1  0.665775  0.022006  0.656084  1
  Pt  Pt27  1  0.665777  0.656087  0.021986  1
  Pt  Pt28  1  0.665775  0.656128  0.656141  1
