# generated using pymatgen
data_Ho12OsRu2Rh
_symmetry_space_group_name_H-M   'P 1'
_cell_length_a   6.32983210
_cell_length_b   7.29876980
_cell_length_c   9.09933500
_cell_angle_alpha   90.00000000
_cell_angle_beta   90.00000000
_cell_angle_gamma   90.24790417
_symmetry_Int_Tables_number   1
_chemical_formula_structural   Ho12OsRu2Rh
_chemical_formula_sum   'Ho12 Os1 Ru2 Rh1'
_cell_volume   420.38522728
_cell_formula_units_Z   1
loop_
 _symmetry_equiv_pos_site_id
 _symmetry_equiv_pos_as_xyz
  1  'x, y, z'
loop_
 _atom_site_type_symbol
 _atom_site_label
 _atom_site_symmetry_multiplicity
 _atom_site_fract_x
 _atom_site_fract_y
 _atom_site_fract_z
 _atom_site_occupancy
  Ho  Ho0  1  0.332584  0.673993  0.062758  1
  Ho  Ho1  1  0.170531  0.178205  0.436851  1
  Ho  Ho2  1  0.668666  0.324123  0.562801  1
  Ho  Ho3  1  0.828180  0.823674  0.934060  1
  Ho  Ho4  1  0.668666  0.324123  0.937199  1
  Ho  Ho5  1  0.828180  0.823674  0.565940  1
  Ho  Ho6  1  0.332584  0.673993  0.437242  1
  Ho  Ho7  1  0.170531  0.178205  0.063149  1
  Ho  Ho8  1  0.870062  0.537844  0.250000  1
  Ho  Ho9  1  0.630116  0.039351  0.250000  1
  Ho  Ho10  1  0.130772  0.460883  0.750000  1
  Ho  Ho11  1  0.367711  0.960869  0.750000  1
  Os  Os12  1  0.459959  0.384159  0.250000  1
  Ru  Ru13  1  0.962703  0.115316  0.750000  1
  Ru  Ru14  1  0.537377  0.616877  0.750000  1
  Rh  Rh15  1  0.041379  0.884713  0.250000  1
