# generated using pymatgen
data_Hf2Zr2Fe4Si3Ge
_symmetry_space_group_name_H-M   'P 1'
_cell_length_a   4.01527300
_cell_length_b   6.40492874
_cell_length_c   6.98615302
_cell_angle_alpha   90.20550439
_cell_angle_beta   90.00000000
_cell_angle_gamma   90.00000000
_symmetry_Int_Tables_number   1
_chemical_formula_structural   Hf2Zr2Fe4Si3Ge
_chemical_formula_sum   'Hf2 Zr2 Fe4 Si3 Ge1'
_cell_volume   179.66549609
_cell_formula_units_Z   1
loop_
 _symmetry_equiv_pos_site_id
 _symmetry_equiv_pos_as_xyz
  1  'x, y, z'
loop_
 _atom_site_type_symbol
 _atom_site_label
 _atom_site_symmetry_multiplicity
 _atom_site_fract_x
 _atom_site_fract_y
 _atom_site_fract_z
 _atom_site_occupancy
  Hf  Hf0  1  0.250000  0.989677  0.297349  1
  Hf  Hf1  1  0.250000  0.491596  0.199311  1
  Zr  Zr2  1  0.750000  0.000325  0.698852  1
  Zr  Zr3  1  0.750000  0.507480  0.804156  1
  Fe  Fe4  1  0.250000  0.155402  0.946214  1
  Fe  Fe5  1  0.250000  0.663891  0.559669  1
  Fe  Fe6  1  0.750000  0.845506  0.063297  1
  Fe  Fe7  1  0.750000  0.350623  0.429703  1
  Si  Si8  1  0.250000  0.790210  0.897154  1
  Si  Si9  1  0.750000  0.710094  0.390057  1
  Si  Si10  1  0.750000  0.209104  0.108915  1
  Ge  Ge11  1  0.250000  0.286092  0.605323  1
