# generated using pymatgen
data_Dy8Y2In8Co3Ni
_symmetry_space_group_name_H-M   'P 1'
_cell_length_a   3.59866300
_cell_length_b   8.00552413
_cell_length_c   18.03353930
_cell_angle_alpha   89.97896511
_cell_angle_beta   90.00000000
_cell_angle_gamma   90.00000000
_symmetry_Int_Tables_number   1
_chemical_formula_structural   Dy8Y2In8Co3Ni
_chemical_formula_sum   'Dy8 Y2 In8 Co3 Ni1'
_cell_volume   519.53150794
_cell_formula_units_Z   1
loop_
 _symmetry_equiv_pos_site_id
 _symmetry_equiv_pos_as_xyz
  1  'x, y, z'
loop_
 _atom_site_type_symbol
 _atom_site_label
 _atom_site_symmetry_multiplicity
 _atom_site_fract_x
 _atom_site_fract_y
 _atom_site_fract_z
 _atom_site_occupancy
  Dy  Dy0  1  0.500000  0.384368  0.590980  1
  Dy  Dy1  1  0.500000  0.884364  0.909001  1
  Dy  Dy2  1  0.500000  0.115818  0.089676  1
  Dy  Dy3  1  0.500000  0.752520  0.721953  1
  Dy  Dy4  1  0.500000  0.252867  0.778157  1
  Dy  Dy5  1  0.500000  0.740237  0.222321  1
  Dy  Dy6  1  0.500000  0.253808  0.279002  1
  Dy  Dy7  1  0.500000  0.614744  0.409638  1
  Y  Y8  1  0.500000  0.500499  0.999818  1
  Y  Y9  1  0.500000  0.000349  0.500207  1
  In  In10  1  0.000000  0.794471  0.069020  1
  In  In11  1  0.000000  0.928469  0.347761  1
  In  In12  1  0.000000  0.069232  0.652407  1
  In  In13  1  0.000000  0.569629  0.847501  1
  In  In14  1  0.000000  0.705199  0.569634  1
  In  In15  1  0.000000  0.204997  0.930247  1
  In  In16  1  0.000000  0.294676  0.430424  1
  In  In17  1  0.000000  0.429539  0.152025  1
  Co  Co18  1  0.000000  0.980897  0.804325  1
  Co  Co19  1  0.000000  0.520543  0.304443  1
  Co  Co20  1  0.000000  0.481050  0.695468  1
  Ni  Ni21  1  0.000000  0.021725  0.195992  1
