# generated using pymatgen
data_Dy5Tm2(LuBi2)3
_symmetry_space_group_name_H-M   'P 1'
_cell_length_a   8.19802779
_cell_length_b   9.43940742
_cell_length_c   12.00438281
_cell_angle_alpha   89.99282530
_cell_angle_beta   89.85351588
_cell_angle_gamma   90.01213143
_symmetry_Int_Tables_number   1
_chemical_formula_structural   Dy5Tm2(LuBi2)3
_chemical_formula_sum   'Dy10 Tm4 Lu6 Bi12'
_cell_volume   928.95039023
_cell_formula_units_Z   2
loop_
 _symmetry_equiv_pos_site_id
 _symmetry_equiv_pos_as_xyz
  1  'x, y, z'
loop_
 _atom_site_type_symbol
 _atom_site_label
 _atom_site_symmetry_multiplicity
 _atom_site_fract_x
 _atom_site_fract_y
 _atom_site_fract_z
 _atom_site_occupancy
  Dy  Dy0  1  0.524982  0.249910  0.988269  1
  Dy  Dy1  1  0.354165  0.250064  0.283796  1
  Dy  Dy2  1  0.644991  0.750987  0.716401  1
  Dy  Dy3  1  0.145651  0.750632  0.782973  1
  Dy  Dy4  1  0.855039  0.250318  0.216617  1
  Dy  Dy5  1  0.186588  0.249833  0.781067  1
  Dy  Dy6  1  0.813446  0.750563  0.218598  1
  Dy  Dy7  1  0.313482  0.750324  0.282065  1
  Dy  Dy8  1  0.686743  0.249959  0.718123  1
  Dy  Dy9  1  0.808071  0.563963  0.940886  1
  Tm  Tm10  1  0.693544  0.065341  0.441264  1
  Tm  Tm11  1  0.191561  0.434836  0.058979  1
  Tm  Tm12  1  0.692818  0.434387  0.441214  1
  Tm  Tm13  1  0.306998  0.565348  0.558830  1
  Lu  Lu14  1  0.024500  0.250271  0.510979  1
  Lu  Lu15  1  0.975859  0.750144  0.489023  1
  Lu  Lu16  1  0.475117  0.750430  0.010956  1
  Lu  Lu17  1  0.193271  0.066031  0.059798  1
  Lu  Lu18  1  0.806764  0.933717  0.940290  1
  Lu  Lu19  1  0.306554  0.933658  0.559489  1
  Bi  Bi20  1  0.404776  0.248601  0.542778  1
  Bi  Bi21  1  0.594965  0.750172  0.457701  1
  Bi  Bi22  1  0.096007  0.752415  0.043052  1
  Bi  Bi23  1  0.908001  0.245971  0.957603  1
  Bi  Bi24  1  0.065953  0.004084  0.328319  1
  Bi  Bi25  1  0.933870  0.996306  0.671483  1
  Bi  Bi26  1  0.432547  0.994819  0.826913  1
  Bi  Bi27  1  0.933884  0.504327  0.671342  1
  Bi  Bi28  1  0.565540  0.003123  0.172968  1
  Bi  Bi29  1  0.066337  0.496340  0.328384  1
  Bi  Bi30  1  0.566013  0.497387  0.173092  1
  Bi  Bi31  1  0.431964  0.505736  0.826746  1
