# generated using pymatgen
data_Dy2Ho18(IrRh3)3
_symmetry_space_group_name_H-M   'P 1'
_cell_length_a   10.84727410
_cell_length_b   10.84684350
_cell_length_c   6.34230600
_cell_angle_alpha   89.99947598
_cell_angle_beta   90.00320054
_cell_angle_gamma   89.92968290
_symmetry_Int_Tables_number   1
_chemical_formula_structural   Dy2Ho18(IrRh3)3
_chemical_formula_sum   'Dy2 Ho18 Ir3 Rh9'
_cell_volume   746.22681857
_cell_formula_units_Z   1
loop_
 _symmetry_equiv_pos_site_id
 _symmetry_equiv_pos_as_xyz
  1  'x, y, z'
loop_
 _atom_site_type_symbol
 _atom_site_label
 _atom_site_symmetry_multiplicity
 _atom_site_fract_x
 _atom_site_fract_y
 _atom_site_fract_z
 _atom_site_occupancy
  Dy  Dy0  1  0.290973  0.089807  0.378403  1
  Dy  Dy1  1  0.291131  0.909888  0.878190  1
  Ho  Ho2  1  0.708936  0.088260  0.878252  1
  Ho  Ho3  1  0.708608  0.910075  0.378182  1
  Ho  Ho4  1  0.587581  0.789689  0.879415  1
  Ho  Ho5  1  0.587234  0.209455  0.378035  1
  Ho  Ho6  1  0.412585  0.789884  0.378856  1
  Ho  Ho7  1  0.410906  0.209556  0.879519  1
  Ho  Ho8  1  0.210260  0.412580  0.620571  1
  Ho  Ho9  1  0.209963  0.587486  0.121176  1
  Ho  Ho10  1  0.790583  0.412910  0.121918  1
  Ho  Ho11  1  0.790593  0.589186  0.620454  1
  Ho  Ho12  1  0.910263  0.708867  0.121503  1
  Ho  Ho13  1  0.911748  0.291062  0.621726  1
  Ho  Ho14  1  0.089936  0.708635  0.621635  1
  Ho  Ho15  1  0.089815  0.291458  0.121731  1
  Ho  Ho16  1  0.999657  0.999867  0.499893  1
  Ho  Ho17  1  0.999946  0.000217  0.000195  1
  Ho  Ho18  1  0.499745  0.499919  0.999916  1
  Ho  Ho19  1  0.500102  0.500295  0.500137  1
  Ir  Ir20  1  0.654617  0.653971  0.250015  1
  Ir  Ir21  1  0.346079  0.345581  0.249883  1
  Ir  Ir22  1  0.345372  0.654467  0.749898  1
  Rh  Rh23  1  0.845947  0.154051  0.249995  1
  Rh  Rh24  1  0.846418  0.846947  0.750263  1
  Rh  Rh25  1  0.152911  0.153785  0.749941  1
  Rh  Rh26  1  0.153200  0.846456  0.250213  1
  Rh  Rh27  1  0.654980  0.345023  0.749997  1
  Rh  Rh28  1  0.500539  0.000476  0.122709  1
  Rh  Rh29  1  0.500622  0.000743  0.623341  1
  Rh  Rh30  1  0.999246  0.499634  0.876705  1
  Rh  Rh31  1  0.999510  0.499765  0.377335  1
