# generated using pymatgen
data_Tb4Al18Rh5Au
_symmetry_space_group_name_H-M   'P 1'
_cell_length_a   7.58923942
_cell_length_b   7.58923906
_cell_length_c   9.48131528
_cell_angle_alpha   89.94528562
_cell_angle_beta   89.94528363
_cell_angle_gamma   119.50258405
_symmetry_Int_Tables_number   1
_chemical_formula_structural   Tb4Al18Rh5Au
_chemical_formula_sum   'Tb4 Al18 Rh5 Au1'
_cell_volume   475.28049225
_cell_formula_units_Z   1
loop_
 _symmetry_equiv_pos_site_id
 _symmetry_equiv_pos_as_xyz
  1  'x, y, z'
loop_
 _atom_site_type_symbol
 _atom_site_label
 _atom_site_symmetry_multiplicity
 _atom_site_fract_x
 _atom_site_fract_y
 _atom_site_fract_z
 _atom_site_occupancy
  Tb  Tb0  1  0.995542  0.673751  0.250579  1
  Tb  Tb1  1  0.004458  0.326249  0.749421  1
  Tb  Tb2  1  0.673751  0.995542  0.250579  1
  Tb  Tb3  1  0.326249  0.004458  0.749421  1
  Al  Al4  1  0.134964  0.134964  0.257109  1
  Al  Al5  1  0.865036  0.865036  0.742891  1
  Al  Al6  1  0.001449  0.344221  0.078947  1
  Al  Al7  1  0.998551  0.655779  0.921053  1
  Al  Al8  1  0.000385  0.664282  0.573862  1
  Al  Al9  1  0.335718  0.999615  0.426138  1
  Al  Al10  1  0.999615  0.335718  0.426138  1
  Al  Al11  1  0.664282  0.000385  0.573862  1
  Al  Al12  1  0.655779  0.998551  0.921053  1
  Al  Al13  1  0.344221  0.001449  0.078947  1
  Al  Al14  1  0.333315  0.333315  0.550662  1
  Al  Al15  1  0.666685  0.666685  0.449338  1
  Al  Al16  1  0.658469  0.658469  0.055521  1
  Al  Al17  1  0.341531  0.341531  0.944479  1
  Al  Al18  1  0.339412  0.550621  0.251260  1
  Al  Al19  1  0.660588  0.449379  0.748740  1
  Al  Al20  1  0.550621  0.339412  0.251260  1
  Al  Al21  1  0.449379  0.660588  0.748740  1
  Rh  Rh22  1  0.671735  0.328265  0.000000  1
  Rh  Rh23  1  0.328265  0.671735  0.000000  1
  Rh  Rh24  1  0.328239  0.671761  0.500000  1
  Rh  Rh25  1  0.671761  0.328239  0.500000  1
  Rh  Rh26  1  0.000000  0.000000  0.500000  1
  Au  Au27  1  0.000000  0.000000  0.000000  1
