# generated using pymatgen
data_Pu4U4Re(B8Ru)3
_symmetry_space_group_name_H-M   'P 1'
_cell_length_a   3.59979400
_cell_length_b   9.37012095
_cell_length_c   11.45485983
_cell_angle_alpha   90.10522701
_cell_angle_beta   90.00000000
_cell_angle_gamma   90.00000000
_symmetry_Int_Tables_number   1
_chemical_formula_structural   Pu4U4Re(B8Ru)3
_chemical_formula_sum   'Pu4 U4 Re1 B24 Ru3'
_cell_volume   386.37755717
_cell_formula_units_Z   1
loop_
 _symmetry_equiv_pos_site_id
 _symmetry_equiv_pos_as_xyz
  1  'x, y, z'
loop_
 _atom_site_type_symbol
 _atom_site_label
 _atom_site_symmetry_multiplicity
 _atom_site_fract_x
 _atom_site_fract_y
 _atom_site_fract_z
 _atom_site_occupancy
  Pu  Pu0  1  0.000000  0.337938  0.407735  1
  Pu  Pu1  1  0.000000  0.663415  0.593433  1
  Pu  Pu2  1  0.000000  0.837641  0.091726  1
  Pu  Pu3  1  0.000000  0.161514  0.906906  1
  U  U4  1  0.000000  0.957283  0.396475  1
  U  U5  1  0.000000  0.041963  0.602826  1
  U  U6  1  0.000000  0.456332  0.103077  1
  U  U7  1  0.000000  0.543605  0.897435  1
  Re  Re8  1  0.000000  0.853836  0.819333  1
  B  B9  1  0.500000  0.552380  0.431292  1
  B  B10  1  0.500000  0.448125  0.569381  1
  B  B11  1  0.500000  0.052154  0.069001  1
  B  B12  1  0.500000  0.947983  0.931404  1
  B  B13  1  0.500000  0.742598  0.423129  1
  B  B14  1  0.500000  0.257724  0.576581  1
  B  B15  1  0.500000  0.242282  0.076675  1
  B  B16  1  0.500000  0.756968  0.923812  1
  B  B17  1  0.500000  0.803558  0.274005  1
  B  B18  1  0.500000  0.196685  0.725371  1
  B  B19  1  0.500000  0.303433  0.225735  1
  B  B20  1  0.500000  0.696430  0.774832  1
  B  B21  1  0.500000  0.645702  0.188925  1
  B  B22  1  0.500000  0.353922  0.811214  1
  B  B23  1  0.500000  0.145949  0.311174  1
  B  B24  1  0.500000  0.854231  0.688172  1
  B  B25  1  0.500000  0.989333  0.219081  1
  B  B26  1  0.500000  0.011076  0.779912  1
  B  B27  1  0.500000  0.489344  0.280888  1
  B  B28  1  0.500000  0.510388  0.719756  1
  B  B29  1  0.500000  0.642383  0.040179  1
  B  B30  1  0.500000  0.356238  0.960218  1
  B  B31  1  0.500000  0.143488  0.460166  1
  B  B32  1  0.500000  0.857081  0.538924  1
  Ru  Ru33  1  0.000000  0.646735  0.319227  1
  Ru  Ru34  1  0.000000  0.353148  0.681098  1
  Ru  Ru35  1  0.000000  0.147138  0.180904  1
