# generated using pymatgen
data_Tb12Sm7YPb16
_symmetry_space_group_name_H-M   'P 1'
_cell_length_a   8.26621909
_cell_length_b   8.36629989
_cell_length_c   15.78227600
_cell_angle_alpha   90.01973709
_cell_angle_beta   90.10196665
_cell_angle_gamma   89.94835540
_symmetry_Int_Tables_number   1
_chemical_formula_structural   Tb12Sm7YPb16
_chemical_formula_sum   'Tb12 Sm7 Y1 Pb16'
_cell_volume   1091.46316585
_cell_formula_units_Z   1
loop_
 _symmetry_equiv_pos_site_id
 _symmetry_equiv_pos_as_xyz
  1  'x, y, z'
loop_
 _atom_site_type_symbol
 _atom_site_label
 _atom_site_symmetry_multiplicity
 _atom_site_fract_x
 _atom_site_fract_y
 _atom_site_fract_z
 _atom_site_occupancy
  Tb  Tb0  1  0.624750  0.159049  0.620569  1
  Tb  Tb1  1  0.125325  0.341098  0.879122  1
  Tb  Tb2  1  0.375098  0.841118  0.120794  1
  Tb  Tb3  1  0.875587  0.659128  0.379581  1
  Tb  Tb4  1  0.376024  0.840980  0.379567  1
  Tb  Tb5  1  0.874635  0.659050  0.120670  1
  Tb  Tb6  1  0.625040  0.158619  0.878917  1
  Tb  Tb7  1  0.124632  0.341009  0.620536  1
  Tb  Tb8  1  0.466292  0.676259  0.600519  1
  Tb  Tb9  1  0.791633  0.496084  0.749636  1
  Tb  Tb10  1  0.291838  0.003994  0.749709  1
  Tb  Tb11  1  0.208208  0.504076  0.250306  1
  Sm  Sm12  1  0.968359  0.822495  0.899836  1
  Sm  Sm13  1  0.531658  0.322512  0.099622  1
  Sm  Sm14  1  0.032133  0.176964  0.400311  1
  Sm  Sm15  1  0.532139  0.323093  0.400464  1
  Sm  Sm16  1  0.031337  0.177137  0.099625  1
  Sm  Sm17  1  0.468776  0.677239  0.900417  1
  Sm  Sm18  1  0.968079  0.822447  0.599718  1
  Y  Y19  1  0.708635  0.995619  0.250055  1
  Pb  Pb20  1  0.716069  0.965127  0.456629  1
  Pb  Pb21  1  0.215430  0.535929  0.042970  1
  Pb  Pb22  1  0.284585  0.035832  0.956960  1
  Pb  Pb23  1  0.782079  0.466391  0.543390  1
  Pb  Pb24  1  0.285023  0.034366  0.543232  1
  Pb  Pb25  1  0.784752  0.463690  0.956990  1
  Pb  Pb26  1  0.715450  0.964360  0.043038  1
  Pb  Pb27  1  0.216918  0.536820  0.458027  1
  Pb  Pb28  1  0.428198  0.373407  0.749902  1
  Pb  Pb29  1  0.928158  0.127097  0.749871  1
  Pb  Pb30  1  0.572045  0.627401  0.250134  1
  Pb  Pb31  1  0.071361  0.873084  0.250086  1
  Pb  Pb32  1  0.655869  0.848670  0.748965  1
  Pb  Pb33  1  0.157903  0.650390  0.749700  1
  Pb  Pb34  1  0.343105  0.150240  0.250083  1
  Pb  Pb35  1  0.842876  0.349225  0.250050  1
