# generated using pymatgen
data_PrNd5Al24Ru7Au
_symmetry_space_group_name_H-M   'P 1'
_cell_length_a   8.95258042
_cell_length_b   8.95130479
_cell_length_c   9.67152901
_cell_angle_alpha   89.92205564
_cell_angle_beta   90.07592486
_cell_angle_gamma   119.92783942
_symmetry_Int_Tables_number   1
_chemical_formula_structural   PrNd5Al24Ru7Au
_chemical_formula_sum   'Pr1 Nd5 Al24 Ru7 Au1'
_cell_volume   671.69970323
_cell_formula_units_Z   1
loop_
 _symmetry_equiv_pos_site_id
 _symmetry_equiv_pos_as_xyz
  1  'x, y, z'
loop_
 _atom_site_type_symbol
 _atom_site_label
 _atom_site_symmetry_multiplicity
 _atom_site_fract_x
 _atom_site_fract_y
 _atom_site_fract_z
 _atom_site_occupancy
  Pr  Pr0  1  0.191637  0.383616  0.249159  1
  Nd  Nd1  1  0.808384  0.616392  0.750824  1
  Nd  Nd2  1  0.616448  0.808441  0.249179  1
  Nd  Nd3  1  0.383625  0.191618  0.750818  1
  Nd  Nd4  1  0.192541  0.807484  0.252700  1
  Nd  Nd5  1  0.807447  0.192560  0.747293  1
  Al  Al6  1  0.327999  0.672130  0.014105  1
  Al  Al7  1  0.672035  0.327957  0.985812  1
  Al  Al8  1  0.666859  0.333136  0.510622  1
  Al  Al9  1  0.333182  0.666944  0.489461  1
  Al  Al10  1  0.161550  0.324852  0.576384  1
  Al  Al11  1  0.838446  0.675129  0.423711  1
  Al  Al12  1  0.675136  0.838447  0.576297  1
  Al  Al13  1  0.849173  0.678154  0.078570  1
  Al  Al14  1  0.324896  0.161494  0.423742  1
  Al  Al15  1  0.150820  0.321823  0.921343  1
  Al  Al16  1  0.162618  0.837375  0.577034  1
  Al  Al17  1  0.321861  0.150776  0.078544  1
  Al  Al18  1  0.837288  0.162567  0.423004  1
  Al  Al19  1  0.678166  0.849173  0.921423  1
  Al  Al20  1  0.837172  0.162678  0.076507  1
  Al  Al21  1  0.162739  0.837265  0.923457  1
  Al  Al22  1  0.561922  0.123623  0.248560  1
  Al  Al23  1  0.438073  0.876372  0.751442  1
  Al  Al24  1  0.876238  0.438096  0.248562  1
  Al  Al25  1  0.123616  0.561922  0.751434  1
  Al  Al26  1  0.564817  0.435336  0.256647  1
  Al  Al27  1  0.435336  0.564677  0.743357  1
  Al  Al28  1  0.999230  0.000557  0.250249  1
  Al  Al29  1  0.000697  0.999309  0.749751  1
  Ru  Ru30  1  0.500012  0.000015  0.999989  1
  Ru  Ru31  1  0.999953  0.500034  0.999938  1
  Ru  Ru32  1  0.500017  0.000028  0.500018  1
  Ru  Ru33  1  0.999960  0.500030  0.500050  1
  Ru  Ru34  1  0.500084  0.500030  0.500062  1
  Ru  Ru35  1  0.999981  0.999963  0.999963  1
  Ru  Ru36  1  0.999987  0.999967  0.500038  1
  Au  Au37  1  0.500056  0.500027  0.999951  1
