# generated using pymatgen
data_RbTaSe2O7
_symmetry_space_group_name_H-M   'P 1'
_cell_length_a   7.38611516
_cell_length_b   7.38611566
_cell_length_c   7.46863800
_cell_angle_alpha   90.00000000
_cell_angle_beta   90.00000000
_cell_angle_gamma   110.60461766
_symmetry_Int_Tables_number   1
_chemical_formula_structural   RbTaSe2O7
_chemical_formula_sum   'Rb2 Ta2 Se4 O14'
_cell_volume   381.38525875
_cell_formula_units_Z   2
loop_
 _symmetry_equiv_pos_site_id
 _symmetry_equiv_pos_as_xyz
  1  'x, y, z'
loop_
 _atom_site_type_symbol
 _atom_site_label
 _atom_site_symmetry_multiplicity
 _atom_site_fract_x
 _atom_site_fract_y
 _atom_site_fract_z
 _atom_site_occupancy
  Rb  Rb0  1  0.980080  0.980080  0.358847  1
  Rb  Rb1  1  0.019920  0.019920  0.858847  1
  Ta  Ta2  1  0.508146  0.508146  0.890048  1
  Ta  Ta3  1  0.491854  0.491854  0.390048  1
  Se  Se4  1  0.530348  0.924181  0.628371  1
  Se  Se5  1  0.924181  0.530348  0.628371  1
  Se  Se6  1  0.469652  0.075819  0.128371  1
  Se  Se7  1  0.075819  0.469652  0.128371  1
  O  O8  1  0.551002  0.782720  0.816467  1
  O  O9  1  0.782720  0.551002  0.816467  1
  O  O10  1  0.448998  0.217280  0.316467  1
  O  O11  1  0.217280  0.448998  0.316467  1
  O  O12  1  0.540224  0.773757  0.444349  1
  O  O13  1  0.773757  0.540224  0.444349  1
  O  O14  1  0.459776  0.226243  0.944349  1
  O  O15  1  0.226243  0.459776  0.944349  1
  O  O16  1  0.751997  0.089130  0.620455  1
  O  O17  1  0.089130  0.751997  0.620455  1
  O  O18  1  0.248003  0.910870  0.120455  1
  O  O19  1  0.910870  0.248003  0.120455  1
  O  O20  1  0.426070  0.426070  0.634762  1
  O  O21  1  0.573930  0.573930  0.134762  1
