# generated using pymatgen
data_CePr3Ho2(Al3Ru)8
_symmetry_space_group_name_H-M   'P 1'
_cell_length_a   8.87492600
_cell_length_b   8.87398123
_cell_length_c   9.65388800
_cell_angle_alpha   90.00000000
_cell_angle_beta   90.00000000
_cell_angle_gamma   120.00351446
_symmetry_Int_Tables_number   1
_chemical_formula_structural   CePr3Ho2(Al3Ru)8
_chemical_formula_sum   'Ce1 Pr3 Ho2 Al24 Ru8'
_cell_volume   658.41657101
_cell_formula_units_Z   1
loop_
 _symmetry_equiv_pos_site_id
 _symmetry_equiv_pos_as_xyz
  1  'x, y, z'
loop_
 _atom_site_type_symbol
 _atom_site_label
 _atom_site_symmetry_multiplicity
 _atom_site_fract_x
 _atom_site_fract_y
 _atom_site_fract_z
 _atom_site_occupancy
  Ce  Ce0  1  0.195129  0.390257  0.250000  1
  Pr  Pr1  1  0.808553  0.617107  0.750000  1
  Pr  Pr2  1  0.385178  0.191994  0.750000  1
  Pr  Pr3  1  0.806815  0.191994  0.750000  1
  Ho  Ho4  1  0.192056  0.805264  0.250000  1
  Ho  Ho5  1  0.613208  0.805264  0.250000  1
  Al  Al6  1  0.334581  0.669164  0.484031  1
  Al  Al7  1  0.666734  0.333467  0.993365  1
  Al  Al8  1  0.666734  0.333467  0.506635  1
  Al  Al9  1  0.334581  0.669164  0.015969  1
  Al  Al10  1  0.163397  0.326794  0.573208  1
  Al  Al11  1  0.672990  0.836333  0.571412  1
  Al  Al12  1  0.163343  0.836333  0.571412  1
  Al  Al13  1  0.836680  0.161014  0.080287  1
  Al  Al14  1  0.836680  0.161014  0.419713  1
  Al  Al15  1  0.837935  0.675870  0.079850  1
  Al  Al16  1  0.324334  0.161014  0.080287  1
  Al  Al17  1  0.672990  0.836333  0.928588  1
  Al  Al18  1  0.163397  0.326794  0.926792  1
  Al  Al19  1  0.837935  0.675870  0.420150  1
  Al  Al20  1  0.999818  0.999636  0.250000  1
  Al  Al21  1  0.000215  0.000431  0.750000  1
  Al  Al22  1  0.559492  0.118985  0.250000  1
  Al  Al23  1  0.437727  0.563266  0.750000  1
  Al  Al24  1  0.125539  0.563266  0.750000  1
  Al  Al25  1  0.876554  0.439377  0.250000  1
  Al  Al26  1  0.562823  0.439377  0.250000  1
  Al  Al27  1  0.436280  0.872561  0.750000  1
  Al  Al28  1  0.163343  0.836333  0.928588  1
  Al  Al29  1  0.324334  0.161014  0.419713  1
  Ru  Ru30  1  0.999651  0.999301  0.499173  1
  Ru  Ru31  1  0.999651  0.999301  0.000827  1
  Ru  Ru32  1  0.499173  0.998347  0.497227  1
  Ru  Ru33  1  0.498318  0.501488  0.004732  1
  Ru  Ru34  1  0.003170  0.501488  0.004732  1
  Ru  Ru35  1  0.003170  0.501488  0.495268  1
  Ru  Ru36  1  0.498318  0.501488  0.495268  1
  Ru  Ru37  1  0.499173  0.998347  0.002773  1
