# generated using pymatgen
data_Hf3Al2RhC
_symmetry_space_group_name_H-M   'P 1'
_cell_length_a   8.59189493
_cell_length_b   8.59174368
_cell_length_c   8.59184302
_cell_angle_alpha   60.00126030
_cell_angle_beta   60.00127010
_cell_angle_gamma   60.00187902
_symmetry_Int_Tables_number   1
_chemical_formula_structural   Hf3Al2RhC
_chemical_formula_sum   'Hf12 Al8 Rh4 C4'
_cell_volume   448.49342167
_cell_formula_units_Z   4
loop_
 _symmetry_equiv_pos_site_id
 _symmetry_equiv_pos_as_xyz
  1  'x, y, z'
loop_
 _atom_site_type_symbol
 _atom_site_label
 _atom_site_symmetry_multiplicity
 _atom_site_fract_x
 _atom_site_fract_y
 _atom_site_fract_z
 _atom_site_occupancy
  Hf  Hf0  1  0.560351  0.939654  0.560350  1
  Hf  Hf1  1  0.310350  0.689648  0.689650  1
  Hf  Hf2  1  0.689644  0.310352  0.310352  1
  Hf  Hf3  1  0.310352  0.689646  0.310352  1
  Hf  Hf4  1  0.689651  0.689651  0.310347  1
  Hf  Hf5  1  0.310353  0.310358  0.689641  1
  Hf  Hf6  1  0.560349  0.560351  0.939652  1
  Hf  Hf7  1  0.939654  0.560352  0.560346  1
  Hf  Hf8  1  0.560356  0.939645  0.939650  1
  Hf  Hf9  1  0.939651  0.939646  0.560355  1
  Hf  Hf10  1  0.689657  0.310342  0.689655  1
  Hf  Hf11  1  0.939648  0.560356  0.939650  1
  Al  Al12  1  0.918821  0.918802  0.918814  1
  Al  Al13  1  0.006427  0.331200  0.331185  1
  Al  Al14  1  0.331197  0.006414  0.331193  1
  Al  Al15  1  0.331183  0.331199  0.006428  1
  Al  Al16  1  0.918806  0.243585  0.918802  1
  Al  Al17  1  0.918814  0.918802  0.243571  1
  Al  Al18  1  0.243574  0.918802  0.918814  1
  Al  Al19  1  0.331186  0.331201  0.331180  1
  Rh  Rh20  1  0.124925  0.124982  0.125070  1
  Rh  Rh21  1  0.624977  0.125003  0.124984  1
  Rh  Rh22  1  0.124979  0.625000  0.125030  1
  Rh  Rh23  1  0.125093  0.124999  0.624936  1
  C  C24  1  0.625003  0.625000  0.624999  1
  C  C25  1  0.124999  0.625002  0.625000  1
  C  C26  1  0.625001  0.125003  0.624999  1
  C  C27  1  0.625000  0.625003  0.124998  1
