# generated using pymatgen
data_Y5Ho4Lu11Sn16
_symmetry_space_group_name_H-M   'P 1'
_cell_length_a   7.94544503
_cell_length_b   8.07136583
_cell_length_c   15.25642100
_cell_angle_alpha   90.03123405
_cell_angle_beta   89.99539929
_cell_angle_gamma   90.06769522
_symmetry_Int_Tables_number   1
_chemical_formula_structural   Y5Ho4Lu11Sn16
_chemical_formula_sum   'Y5 Ho4 Lu11 Sn16'
_cell_volume   978.40250209
_cell_formula_units_Z   1
loop_
 _symmetry_equiv_pos_site_id
 _symmetry_equiv_pos_as_xyz
  1  'x, y, z'
loop_
 _atom_site_type_symbol
 _atom_site_label
 _atom_site_symmetry_multiplicity
 _atom_site_fract_x
 _atom_site_fract_y
 _atom_site_fract_z
 _atom_site_occupancy
  Y  Y0  1  0.978930  0.822212  0.097443  1
  Y  Y1  1  0.480622  0.677976  0.096164  1
  Y  Y2  1  0.979582  0.821502  0.403522  1
  Y  Y3  1  0.519656  0.321013  0.595560  1
  Y  Y4  1  0.020305  0.178297  0.903779  1
  Ho  Ho5  1  0.865825  0.663280  0.877489  1
  Ho  Ho6  1  0.520336  0.320966  0.903989  1
  Ho  Ho7  1  0.020464  0.178821  0.595693  1
  Ho  Ho8  1  0.479395  0.678537  0.403905  1
  Lu  Lu9  1  0.364380  0.837623  0.876066  1
  Lu  Lu10  1  0.865105  0.661960  0.623138  1
  Lu  Lu11  1  0.635035  0.161563  0.376535  1
  Lu  Lu12  1  0.135070  0.338019  0.123688  1
  Lu  Lu13  1  0.633897  0.162037  0.124629  1
  Lu  Lu14  1  0.134646  0.337527  0.376610  1
  Lu  Lu15  1  0.365786  0.838034  0.622853  1
  Lu  Lu16  1  0.196683  0.504831  0.749603  1
  Lu  Lu17  1  0.695982  0.995633  0.749278  1
  Lu  Lu18  1  0.803742  0.494960  0.250390  1
  Lu  Lu19  1  0.303309  0.004715  0.250017  1
  Sn  Sn20  1  0.297442  0.039793  0.041500  1
  Sn  Sn21  1  0.796174  0.460538  0.458433  1
  Sn  Sn22  1  0.703908  0.960646  0.541479  1
  Sn  Sn23  1  0.206664  0.538412  0.958520  1
  Sn  Sn24  1  0.700325  0.963416  0.958632  1
  Sn  Sn25  1  0.202481  0.539947  0.541040  1
  Sn  Sn26  1  0.296924  0.039875  0.458317  1
  Sn  Sn27  1  0.796820  0.458222  0.042615  1
  Sn  Sn28  1  0.561419  0.620211  0.749299  1
  Sn  Sn29  1  0.062418  0.880673  0.748953  1
  Sn  Sn30  1  0.438422  0.379705  0.250804  1
  Sn  Sn31  1  0.938253  0.120671  0.250161  1
  Sn  Sn32  1  0.330784  0.149697  0.749836  1
  Sn  Sn33  1  0.830517  0.350014  0.749246  1
  Sn  Sn34  1  0.668731  0.849947  0.250551  1
  Sn  Sn35  1  0.169966  0.648726  0.250265  1
