# generated using pymatgen
data_KTc12I25
_symmetry_space_group_name_H-M   'P 1'
_cell_length_a   10.78103103
_cell_length_b   11.85867506
_cell_length_c   12.73461443
_cell_angle_alpha   84.31699837
_cell_angle_beta   73.96697348
_cell_angle_gamma   86.99027753
_symmetry_Int_Tables_number   1
_chemical_formula_structural   KTc12I25
_chemical_formula_sum   'K1 Tc12 I25'
_cell_volume   1556.54590098
_cell_formula_units_Z   1
loop_
 _symmetry_equiv_pos_site_id
 _symmetry_equiv_pos_as_xyz
  1  'x, y, z'
loop_
 _atom_site_type_symbol
 _atom_site_label
 _atom_site_symmetry_multiplicity
 _atom_site_fract_x
 _atom_site_fract_y
 _atom_site_fract_z
 _atom_site_occupancy
  K  K0  1  0.500000  0.000000  0.000000  1
  Tc  Tc1  1  0.834398  0.256586  0.136063  1
  Tc  Tc2  1  0.165602  0.743414  0.863937  1
  Tc  Tc3  1  0.769814  0.132638  0.280040  1
  Tc  Tc4  1  0.230186  0.867362  0.719960  1
  Tc  Tc5  1  0.058057  0.279528  0.192506  1
  Tc  Tc6  1  0.941943  0.720472  0.807494  1
  Tc  Tc7  1  0.849866  0.418719  0.268378  1
  Tc  Tc8  1  0.150134  0.581281  0.731622  1
  Tc  Tc9  1  0.782559  0.295842  0.413892  1
  Tc  Tc10  1  0.217441  0.704158  0.586108  1
  Tc  Tc11  1  0.991880  0.157314  0.337989  1
  Tc  Tc12  1  0.008120  0.842686  0.662011  1
  I  I13  1  0.947620  0.967195  0.263040  1
  I  I14  1  0.052380  0.032805  0.736960  1
  I  I15  1  0.970033  0.270466  0.511873  1
  I  I16  1  0.029967  0.729534  0.488127  1
  I  I17  1  0.655389  0.423483  0.174649  1
  I  I18  1  0.344611  0.576517  0.825351  1
  I  I19  1  0.085209  0.469657  0.278495  1
  I  I20  1  0.914791  0.530343  0.721505  1
  I  I21  1  0.000000  0.500000  0.000000  1
  I  I22  1  0.614232  0.971879  0.242230  1
  I  I23  1  0.385768  0.028121  0.757770  1
  I  I24  1  0.204333  0.048765  0.384024  1
  I  I25  1  0.795667  0.951235  0.615976  1
  I  I26  1  0.557521  0.218776  0.409716  1
  I  I27  1  0.442479  0.781224  0.590284  1
  I  I28  1  0.057586  0.166037  0.022596  1
  I  I29  1  0.942414  0.833963  0.977404  1
  I  I30  1  0.775460  0.635906  0.319173  1
  I  I31  1  0.224540  0.364094  0.680827  1
  I  I32  1  0.737717  0.213656  0.963545  1
  I  I33  1  0.262283  0.786344  0.036455  1
  I  I34  1  0.323870  0.266414  0.118061  1
  I  I35  1  0.676130  0.733586  0.881939  1
  I  I36  1  0.648439  0.409523  0.588109  1
  I  I37  1  0.351561  0.590477  0.411891  1
