# generated using pymatgen
data_Tb12Pr8Si15Cl
_symmetry_space_group_name_H-M   'P 1'
_cell_length_a   7.65912761
_cell_length_b   7.80752602
_cell_length_c   14.88962400
_cell_angle_alpha   89.75092944
_cell_angle_beta   86.69709436
_cell_angle_gamma   90.00004619
_symmetry_Int_Tables_number   1
_chemical_formula_structural   Tb12Pr8Si15Cl
_chemical_formula_sum   'Tb12 Pr8 Si15 Cl1'
_cell_volume   888.89476995
_cell_formula_units_Z   1
loop_
 _symmetry_equiv_pos_site_id
 _symmetry_equiv_pos_as_xyz
  1  'x, y, z'
loop_
 _atom_site_type_symbol
 _atom_site_label
 _atom_site_symmetry_multiplicity
 _atom_site_fract_x
 _atom_site_fract_y
 _atom_site_fract_z
 _atom_site_occupancy
  Tb  Tb0  1  0.673130  0.994578  0.247326  1
  Tb  Tb1  1  0.171244  0.508129  0.245926  1
  Tb  Tb2  1  0.829888  0.490483  0.744408  1
  Tb  Tb3  1  0.327175  0.005833  0.752398  1
  Tb  Tb4  1  0.638272  0.837788  0.879594  1
  Tb  Tb5  1  0.172714  0.676466  0.624067  1
  Tb  Tb6  1  0.858714  0.333002  0.120506  1
  Tb  Tb7  1  0.328667  0.179512  0.377929  1
  Tb  Tb8  1  0.359189  0.169382  0.119270  1
  Tb  Tb9  1  0.828823  0.321821  0.377375  1
  Tb  Tb10  1  0.149723  0.667559  0.881817  1
  Tb  Tb11  1  0.672715  0.819252  0.623428  1
  Pr  Pr12  1  0.011516  0.831480  0.103901  1
  Pr  Pr13  1  0.479623  0.681464  0.399255  1
  Pr  Pr14  1  0.491443  0.312230  0.898729  1
  Pr  Pr15  1  0.020227  0.178239  0.601094  1
  Pr  Pr16  1  0.999090  0.172278  0.899500  1
  Pr  Pr17  1  0.519694  0.316959  0.600335  1
  Pr  Pr18  1  0.496373  0.690081  0.102829  1
  Pr  Pr19  1  0.980081  0.818062  0.400303  1
  Si  Si20  1  0.785980  0.621303  0.250774  1
  Si  Si21  1  0.287328  0.881050  0.252128  1
  Si  Si22  1  0.711801  0.119833  0.750099  1
  Si  Si23  1  0.211950  0.376855  0.750434  1
  Si  Si24  1  0.049014  0.116403  0.251201  1
  Si  Si25  1  0.549503  0.388841  0.249916  1
  Si  Si26  1  0.453131  0.610647  0.752841  1
  Si  Si27  1  0.950545  0.882049  0.752251  1
  Si  Si28  1  0.357515  0.967628  0.540907  1
  Si  Si29  1  0.704661  0.037964  0.042068  1
  Si  Si30  1  0.144739  0.468601  0.460439  1
  Si  Si31  1  0.199460  0.466605  0.043923  1
  Si  Si32  1  0.644822  0.029631  0.459724  1
  Si  Si33  1  0.302639  0.964418  0.954818  1
  Si  Si34  1  0.857479  0.527942  0.541532  1
  Cl  Cl35  1  0.781132  0.535636  0.946951  1
