# generated using pymatgen
data_La2NdCd(Mo2O7)2
_symmetry_space_group_name_H-M   'P 1'
_cell_length_a   7.43253971
_cell_length_b   7.61579503
_cell_length_c   7.59287247
_cell_angle_alpha   120.39611988
_cell_angle_beta   120.18384051
_cell_angle_gamma   90.31331836
_symmetry_Int_Tables_number   1
_chemical_formula_structural   La2NdCd(Mo2O7)2
_chemical_formula_sum   'La2 Nd1 Cd1 Mo4 O14'
_cell_volume   300.36081212
_cell_formula_units_Z   1
loop_
 _symmetry_equiv_pos_site_id
 _symmetry_equiv_pos_as_xyz
  1  'x, y, z'
loop_
 _atom_site_type_symbol
 _atom_site_label
 _atom_site_symmetry_multiplicity
 _atom_site_fract_x
 _atom_site_fract_y
 _atom_site_fract_z
 _atom_site_occupancy
  La  La0  1  0.375000  0.625000  0.750000  1
  La  La1  1  0.375000  0.125000  0.750000  1
  Nd  Nd2  1  0.375000  0.625000  0.250000  1
  Cd  Cd3  1  0.875000  0.625000  0.250000  1
  Mo  Mo4  1  0.875000  0.625000  0.750000  1
  Mo  Mo5  1  0.375000  0.125000  0.250000  1
  Mo  Mo6  1  0.875000  0.125000  0.250000  1
  Mo  Mo7  1  0.875000  0.125000  0.750000  1
  O  O8  1  0.793486  0.183920  0.986134  1
  O  O9  1  0.540972  0.461207  0.488592  1
  O  O10  1  0.203201  0.211571  0.002397  1
  O  O11  1  0.951453  0.448772  0.501387  1
  O  O12  1  0.801619  0.810249  0.602549  1
  O  O13  1  0.531418  0.041245  0.079223  1
  O  O14  1  0.235904  0.743878  0.489110  1
  O  O15  1  0.948381  0.439751  0.897451  1
  O  O16  1  0.956514  0.066080  0.513866  1
  O  O17  1  0.546799  0.038429  0.497603  1
  O  O18  1  0.218582  0.208755  0.420777  1
  O  O19  1  0.514096  0.506122  0.010890  1
  O  O20  1  0.798547  0.801228  0.998613  1
  O  O21  1  0.209028  0.788793  0.011408  1
