# generated using pymatgen
data_Tm12Mn2In2Ga
_symmetry_space_group_name_H-M   'P 1'
_cell_length_a   8.28754827
_cell_length_b   8.28754748
_cell_length_c   8.28754900
_cell_angle_alpha   109.50960659
_cell_angle_beta   109.50960467
_cell_angle_gamma   109.39447452
_symmetry_Int_Tables_number   1
_chemical_formula_structural   Tm12Mn2In2Ga
_chemical_formula_sum   'Tm12 Mn2 In2 Ga1'
_cell_volume   438.18323036
_cell_formula_units_Z   1
loop_
 _symmetry_equiv_pos_site_id
 _symmetry_equiv_pos_as_xyz
  1  'x, y, z'
loop_
 _atom_site_type_symbol
 _atom_site_label
 _atom_site_symmetry_multiplicity
 _atom_site_fract_x
 _atom_site_fract_y
 _atom_site_fract_z
 _atom_site_occupancy
  Tm  Tm0  1  0.203146  0.446086  0.242939  1
  Tm  Tm1  1  0.796854  0.553914  0.757061  1
  Tm  Tm2  1  0.203144  0.960215  0.757068  1
  Tm  Tm3  1  0.960169  0.203114  0.757058  1
  Tm  Tm4  1  0.796856  0.039785  0.242932  1
  Tm  Tm5  1  0.039831  0.796886  0.242942  1
  Tm  Tm6  1  0.446058  0.203114  0.242948  1
  Tm  Tm7  1  0.553942  0.796886  0.757052  1
  Tm  Tm8  1  0.304754  0.304709  0.609451  1
  Tm  Tm9  1  0.695246  0.695291  0.390549  1
  Tm  Tm10  1  0.695257  0.304709  0.999955  1
  Tm  Tm11  1  0.304743  0.695291  0.000045  1
  Mn  Mn12  1  0.391005  0.391008  0.000003  1
  Mn  Mn13  1  0.608995  0.608992  0.999997  1
  In  In14  1  0.000000  0.500000  0.500000  1
  In  In15  1  0.500000  0.000000  0.500000  1
  Ga  Ga16  1  0.000000  0.000000  0.000000  1
