# generated using pymatgen
data_Dy8TaSi16Mo11
_symmetry_space_group_name_H-M   'P 1'
_cell_length_a   6.78934511
_cell_length_b   6.97170486
_cell_length_c   12.96403700
_cell_angle_alpha   90.00000000
_cell_angle_beta   90.00000000
_cell_angle_gamma   90.14012407
_symmetry_Int_Tables_number   1
_chemical_formula_structural   Dy8TaSi16Mo11
_chemical_formula_sum   'Dy8 Ta1 Si16 Mo11'
_cell_volume   613.62895145
_cell_formula_units_Z   1
loop_
 _symmetry_equiv_pos_site_id
 _symmetry_equiv_pos_as_xyz
  1  'x, y, z'
loop_
 _atom_site_type_symbol
 _atom_site_label
 _atom_site_symmetry_multiplicity
 _atom_site_fract_x
 _atom_site_fract_y
 _atom_site_fract_z
 _atom_site_occupancy
  Dy  Dy0  1  0.498957  0.331949  0.094210  1
  Dy  Dy1  1  0.996864  0.169102  0.405938  1
  Dy  Dy2  1  0.503318  0.667035  0.594540  1
  Dy  Dy3  1  0.003162  0.833545  0.905905  1
  Dy  Dy4  1  0.503318  0.667035  0.905460  1
  Dy  Dy5  1  0.003162  0.833545  0.594095  1
  Dy  Dy6  1  0.498957  0.331949  0.405790  1
  Dy  Dy7  1  0.996864  0.169102  0.094062  1
  Ta  Ta8  1  0.837580  0.506437  0.250000  1
  Si  Si9  1  0.805038  0.628880  0.750000  1
  Si  Si10  1  0.303578  0.871736  0.750000  1
  Si  Si11  1  0.202067  0.368631  0.250000  1
  Si  Si12  1  0.696719  0.125373  0.250000  1
  Si  Si13  1  0.534045  0.365335  0.750000  1
  Si  Si14  1  0.036312  0.135382  0.750000  1
  Si  Si15  1  0.460320  0.634327  0.250000  1
  Si  Si16  1  0.966534  0.873055  0.250000  1
  Si  Si17  1  0.659147  0.041447  0.547471  1
  Si  Si18  1  0.159923  0.457173  0.952701  1
  Si  Si19  1  0.339251  0.957231  0.047237  1
  Si  Si20  1  0.838842  0.542521  0.456593  1
  Si  Si21  1  0.339251  0.957231  0.452763  1
  Si  Si22  1  0.838842  0.542521  0.043407  1
  Si  Si23  1  0.659147  0.041447  0.952529  1
  Si  Si24  1  0.159923  0.457173  0.547299  1
  Mo  Mo25  1  0.667043  0.998118  0.750000  1
  Mo  Mo26  1  0.165657  0.500833  0.750000  1
  Mo  Mo27  1  0.333016  0.999562  0.250000  1
  Mo  Mo28  1  0.829804  0.335315  0.626402  1
  Mo  Mo29  1  0.331525  0.164870  0.874646  1
  Mo  Mo30  1  0.167185  0.663368  0.124984  1
  Mo  Mo31  1  0.668065  0.832609  0.375229  1
  Mo  Mo32  1  0.167185  0.663368  0.375016  1
  Mo  Mo33  1  0.668065  0.832609  0.124771  1
  Mo  Mo34  1  0.829804  0.335315  0.873598  1
  Mo  Mo35  1  0.331525  0.164870  0.625354  1
