# generated using pymatgen
data_YHo4Zr3(As3Pd4)4
_symmetry_space_group_name_H-M   'P 1'
_cell_length_a   13.54062400
_cell_length_b   13.54062368
_cell_length_c   4.09614400
_cell_angle_alpha   90.00000000
_cell_angle_beta   90.00000000
_cell_angle_gamma   120.00000078
_symmetry_Int_Tables_number   1
_chemical_formula_structural   YHo4Zr3(As3Pd4)4
_chemical_formula_sum   'Y1 Ho4 Zr3 As12 Pd16'
_cell_volume   650.40398163
_cell_formula_units_Z   1
loop_
 _symmetry_equiv_pos_site_id
 _symmetry_equiv_pos_as_xyz
  1  'x, y, z'
loop_
 _atom_site_type_symbol
 _atom_site_label
 _atom_site_symmetry_multiplicity
 _atom_site_fract_x
 _atom_site_fract_y
 _atom_site_fract_z
 _atom_site_occupancy
  Y  Y0  1  0.666667  0.333333  0.000000  1
  Ho  Ho1  1  0.188522  0.188535  0.500000  1
  Ho  Ho2  1  0.811465  0.999987  0.500000  1
  Ho  Ho3  1  0.000013  0.811478  0.500000  1
  Ho  Ho4  1  0.333333  0.666667  0.000000  1
  Zr  Zr5  1  0.554033  0.554157  0.000000  1
  Zr  Zr6  1  0.445843  0.999876  0.000000  1
  Zr  Zr7  1  0.000124  0.445967  0.000000  1
  As  As8  1  0.825819  0.825923  0.000000  1
  As  As9  1  0.174077  0.999896  0.000000  1
  As  As10  1  0.000104  0.174181  0.000000  1
  As  As11  1  0.167840  0.485780  0.500000  1
  As  As12  1  0.514220  0.682060  0.500000  1
  As  As13  1  0.317940  0.832160  0.500000  1
  As  As14  1  0.681963  0.514605  0.500000  1
  As  As15  1  0.832643  0.318037  0.500000  1
  As  As16  1  0.485395  0.167357  0.500000  1
  As  As17  1  0.355011  0.354957  0.000000  1
  As  As18  1  0.645043  0.000054  0.000000  1
  As  As19  1  0.999946  0.644989  0.000000  1
  Pd  Pd20  1  0.720652  0.720754  0.500000  1
  Pd  Pd21  1  0.279246  0.999897  0.500000  1
  Pd  Pd22  1  0.000103  0.279348  0.500000  1
  Pd  Pd23  1  0.179735  0.373157  0.000000  1
  Pd  Pd24  1  0.626843  0.806580  0.000000  1
  Pd  Pd25  1  0.193420  0.820265  0.000000  1
  Pd  Pd26  1  0.806656  0.627165  0.000000  1
  Pd  Pd27  1  0.820509  0.193344  0.000000  1
  Pd  Pd28  1  0.372835  0.179491  0.000000  1
  Pd  Pd29  1  0.355628  0.482740  0.500000  1
  Pd  Pd30  1  0.517260  0.872889  0.500000  1
  Pd  Pd31  1  0.127111  0.644372  0.500000  1
  Pd  Pd32  1  0.873431  0.517754  0.500000  1
  Pd  Pd33  1  0.644324  0.126569  0.500000  1
  Pd  Pd34  1  0.482246  0.355676  0.500000  1
  Pd  Pd35  1  0.000000  0.000000  0.000000  1
