# generated using pymatgen
data_Ca3Tl3PdAu2
_symmetry_space_group_name_H-M   'P 1'
_cell_length_a   8.08575500
_cell_length_b   8.08575541
_cell_length_c   4.04185400
_cell_angle_alpha   90.00000000
_cell_angle_beta   90.00000000
_cell_angle_gamma   119.99999423
_symmetry_Int_Tables_number   1
_chemical_formula_structural   Ca3Tl3PdAu2
_chemical_formula_sum   'Ca3 Tl3 Pd1 Au2'
_cell_volume   228.85081149
_cell_formula_units_Z   1
loop_
 _symmetry_equiv_pos_site_id
 _symmetry_equiv_pos_as_xyz
  1  'x, y, z'
loop_
 _atom_site_type_symbol
 _atom_site_label
 _atom_site_symmetry_multiplicity
 _atom_site_fract_x
 _atom_site_fract_y
 _atom_site_fract_z
 _atom_site_occupancy
  Ca  Ca0  1  0.399484  0.399484  0.500000  1
  Ca  Ca1  1  0.000000  0.600516  0.500000  1
  Ca  Ca2  1  0.600516  0.000000  0.500000  1
  Tl  Tl3  1  0.258649  0.000000  0.000000  1
  Tl  Tl4  1  0.741351  0.741351  0.000000  1
  Tl  Tl5  1  0.000000  0.258649  0.000000  1
  Pd  Pd6  1  0.000000  0.000000  0.500000  1
  Au  Au7  1  0.666667  0.333333  0.000000  1
  Au  Au8  1  0.333333  0.666667  0.000000  1
