# generated using pymatgen
data_Li2FeSn(SO4)4
_symmetry_space_group_name_H-M   'P 1'
_cell_length_a   4.93652092
_cell_length_b   7.04653304
_cell_length_c   8.63065108
_cell_angle_alpha   91.26590221
_cell_angle_beta   89.61904150
_cell_angle_gamma   95.75942896
_symmetry_Int_Tables_number   1
_chemical_formula_structural   Li2FeSn(SO4)4
_chemical_formula_sum   'Li2 Fe1 Sn1 S4 O16'
_cell_volume   298.62891113
_cell_formula_units_Z   1
loop_
 _symmetry_equiv_pos_site_id
 _symmetry_equiv_pos_as_xyz
  1  'x, y, z'
loop_
 _atom_site_type_symbol
 _atom_site_label
 _atom_site_symmetry_multiplicity
 _atom_site_fract_x
 _atom_site_fract_y
 _atom_site_fract_z
 _atom_site_occupancy
  Li  Li0  1  0.540173  0.982196  0.476595  1
  Li  Li1  1  0.957975  0.526001  0.981326  1
  Fe  Fe2  1  0.001103  0.003134  0.997961  1
  Sn  Sn3  1  0.498093  0.497871  0.499202  1
  S  S4  1  0.045232  0.736071  0.319673  1
  S  S5  1  0.458645  0.761095  0.822208  1
  S  S6  1  0.954871  0.263382  0.679159  1
  S  S7  1  0.541212  0.237232  0.176171  1
  O  O8  1  0.330910  0.939210  0.850746  1
  O  O9  1  0.169561  0.553434  0.359786  1
  O  O10  1  0.679831  0.062623  0.149427  1
  O  O11  1  0.824087  0.443873  0.638728  1
  O  O12  1  0.749891  0.708805  0.377988  1
  O  O13  1  0.747602  0.783388  0.872836  1
  O  O14  1  0.249717  0.298419  0.626280  1
  O  O15  1  0.253162  0.205097  0.130695  1
  O  O16  1  0.042934  0.749866  0.150305  1
  O  O17  1  0.457939  0.736791  0.640622  1
  O  O18  1  0.948803  0.251013  0.849007  1
  O  O19  1  0.549333  0.262157  0.358277  1
  O  O20  1  0.184699  0.901928  0.396176  1
  O  O21  1  0.310619  0.591671  0.885281  1
  O  O22  1  0.824436  0.095358  0.602064  1
  O  O23  1  0.679172  0.409383  0.112284  1
