# generated using pymatgen
data_Sr6TiCr2H27
_symmetry_space_group_name_H-M   'P 1'
_cell_length_a   8.90171600
_cell_length_b   8.90171720
_cell_length_c   5.00374500
_cell_angle_alpha   90.00000000
_cell_angle_beta   90.00000000
_cell_angle_gamma   120.00000298
_symmetry_Int_Tables_number   1
_chemical_formula_structural   Sr6TiCr2H27
_chemical_formula_sum   'Sr6 Ti1 Cr2 H27'
_cell_volume   343.37867082
_cell_formula_units_Z   1
loop_
 _symmetry_equiv_pos_site_id
 _symmetry_equiv_pos_as_xyz
  1  'x, y, z'
loop_
 _atom_site_type_symbol
 _atom_site_label
 _atom_site_symmetry_multiplicity
 _atom_site_fract_x
 _atom_site_fract_y
 _atom_site_fract_z
 _atom_site_occupancy
  Sr  Sr0  1  0.269458  0.999551  0.500000  1
  Sr  Sr1  1  0.000449  0.269907  0.500000  1
  Sr  Sr2  1  0.730093  0.730542  0.500000  1
  Sr  Sr3  1  0.612582  0.021929  0.000000  1
  Sr  Sr4  1  0.978071  0.590654  0.000000  1
  Sr  Sr5  1  0.409346  0.387418  0.000000  1
  Ti  Ti6  1  0.666667  0.333333  0.500000  1
  Cr  Cr7  1  0.000000  0.000000  0.000000  1
  Cr  Cr8  1  0.333333  0.666667  0.500000  1
  H  H9  1  0.866695  0.000074  0.230971  1
  H  H10  1  0.999926  0.866621  0.230971  1
  H  H11  1  0.866695  0.000074  0.769029  1
  H  H12  1  0.999926  0.866621  0.769029  1
  H  H13  1  0.133379  0.133305  0.230971  1
  H  H14  1  0.133379  0.133305  0.769029  1
  H  H15  1  0.183830  0.999003  0.000000  1
  H  H16  1  0.000997  0.184826  0.000000  1
  H  H17  1  0.815174  0.816170  0.000000  1
  H  H18  1  0.211649  0.533653  0.260019  1
  H  H19  1  0.466347  0.677995  0.260019  1
  H  H20  1  0.211649  0.533653  0.739981  1
  H  H21  1  0.513691  0.192955  0.765591  1
  H  H22  1  0.322005  0.788351  0.260019  1
  H  H23  1  0.466347  0.677995  0.739981  1
  H  H24  1  0.679264  0.486309  0.765591  1
  H  H25  1  0.513691  0.192955  0.234409  1
  H  H26  1  0.322005  0.788351  0.739981  1
  H  H27  1  0.679264  0.486309  0.234409  1
  H  H28  1  0.807045  0.320736  0.765591  1
  H  H29  1  0.807045  0.320736  0.234409  1
  H  H30  1  0.345857  0.493053  0.500000  1
  H  H31  1  0.506947  0.852805  0.500000  1
  H  H32  1  0.459584  0.337440  0.500000  1
  H  H33  1  0.147195  0.654143  0.500000  1
  H  H34  1  0.877855  0.540416  0.500000  1
  H  H35  1  0.662560  0.122145  0.500000  1
