# generated using pymatgen
data_CdRuF6
_symmetry_space_group_name_H-M   'P 1'
_cell_length_a   5.80425588
_cell_length_b   5.78799166
_cell_length_c   5.76885901
_cell_angle_alpha   56.09484785
_cell_angle_beta   55.83987351
_cell_angle_gamma   55.97614963
_symmetry_Int_Tables_number   1
_chemical_formula_structural   CdRuF6
_chemical_formula_sum   'Cd1 Ru1 F6'
_cell_volume   124.24388498
_cell_formula_units_Z   1
loop_
 _symmetry_equiv_pos_site_id
 _symmetry_equiv_pos_as_xyz
  1  'x, y, z'
loop_
 _atom_site_type_symbol
 _atom_site_label
 _atom_site_symmetry_multiplicity
 _atom_site_fract_x
 _atom_site_fract_y
 _atom_site_fract_z
 _atom_site_occupancy
  Cd  Cd0  1  0.500000  0.500000  0.500000  1
  Ru  Ru1  1  0.000000  0.000000  0.000000  1
  F  F2  1  0.099741  0.358369  0.776844  1
  F  F3  1  0.356472  0.777937  0.097400  1
  F  F4  1  0.225742  0.902284  0.636480  1
  F  F5  1  0.643528  0.222063  0.902600  1
  F  F6  1  0.900259  0.641631  0.223156  1
  F  F7  1  0.774258  0.097716  0.363520  1
