# generated using pymatgen
data_Ba6Y3Ho(WO9)2
_symmetry_space_group_name_H-M   'P 1'
_cell_length_a   10.57188849
_cell_length_b   10.57188919
_cell_length_c   10.57189331
_cell_angle_alpha   146.45559382
_cell_angle_beta   131.72086165
_cell_angle_gamma   60.06874201
_symmetry_Int_Tables_number   1
_chemical_formula_structural   Ba6Y3Ho(WO9)2
_chemical_formula_sum   'Ba6 Y3 Ho1 W2 O18'
_cell_volume   482.86625675
_cell_formula_units_Z   1
loop_
 _symmetry_equiv_pos_site_id
 _symmetry_equiv_pos_as_xyz
  1  'x, y, z'
loop_
 _atom_site_type_symbol
 _atom_site_label
 _atom_site_symmetry_multiplicity
 _atom_site_fract_x
 _atom_site_fract_y
 _atom_site_fract_z
 _atom_site_occupancy
  Ba  Ba0  1  0.579860  0.839500  0.740358  1
  Ba  Ba1  1  0.265675  0.500000  0.765675  1
  Ba  Ba2  1  0.900857  0.160498  0.740358  1
  Ba  Ba3  1  0.099143  0.839502  0.259642  1
  Ba  Ba4  1  0.734325  0.500000  0.234325  1
  Ba  Ba5  1  0.420140  0.160500  0.259642  1
  Y  Y6  1  0.328964  0.328964  0.000000  1
  Y  Y7  1  0.000000  0.000000  0.000000  1
  Y  Y8  1  0.671036  0.671036  0.000000  1
  Ho  Ho9  1  0.500000  0.000000  0.500000  1
  W  W10  1  0.165610  0.665610  0.500000  1
  W  W11  1  0.834390  0.334390  0.500000  1
  O  O12  1  0.602501  0.330931  0.271569  1
  O  O13  1  0.247416  0.000000  0.247416  1
  O  O14  1  0.940638  0.669069  0.271569  1
  O  O15  1  0.910324  0.638147  0.727823  1
  O  O16  1  0.588475  0.338763  0.750288  1
  O  O17  1  0.240426  0.970091  0.729666  1
  O  O18  1  0.759575  0.489242  0.729666  1
  O  O19  1  0.411526  0.161815  0.750288  1
  O  O20  1  0.089676  0.817498  0.727823  1
  O  O21  1  0.059362  0.330931  0.728431  1
  O  O22  1  0.752584  0.000000  0.752584  1
  O  O23  1  0.397499  0.669069  0.728431  1
  O  O24  1  0.759574  0.029909  0.270334  1
  O  O25  1  0.411525  0.661237  0.249712  1
  O  O26  1  0.089676  0.361853  0.272177  1
  O  O27  1  0.910324  0.182502  0.272177  1
  O  O28  1  0.588474  0.838185  0.249712  1
  O  O29  1  0.240425  0.510758  0.270334  1
