# generated using pymatgen
data_Gd3Mg3Cd2Pd
_symmetry_space_group_name_H-M   'P 1'
_cell_length_a   7.79441721
_cell_length_b   7.82428108
_cell_length_c   4.27063500
_cell_angle_alpha   90.00000000
_cell_angle_beta   90.00000000
_cell_angle_gamma   120.14060508
_symmetry_Int_Tables_number   1
_chemical_formula_structural   Gd3Mg3Cd2Pd
_chemical_formula_sum   'Gd3 Mg3 Cd2 Pd1'
_cell_volume   225.23408434
_cell_formula_units_Z   1
loop_
 _symmetry_equiv_pos_site_id
 _symmetry_equiv_pos_as_xyz
  1  'x, y, z'
loop_
 _atom_site_type_symbol
 _atom_site_label
 _atom_site_symmetry_multiplicity
 _atom_site_fract_x
 _atom_site_fract_y
 _atom_site_fract_z
 _atom_site_occupancy
  Gd  Gd0  1  0.000102  0.397917  0.000000  1
  Gd  Gd1  1  0.602143  0.602703  0.000000  1
  Gd  Gd2  1  0.398073  0.000766  0.000000  1
  Mg  Mg3  1  0.999778  0.765599  0.500000  1
  Mg  Mg4  1  0.234487  0.234394  0.500000  1
  Mg  Mg5  1  0.765460  0.999922  0.500000  1
  Cd  Cd6  1  0.334777  0.667391  0.500000  1
  Cd  Cd7  1  0.665422  0.332898  0.500000  1
  Pd  Pd8  1  0.999760  0.998408  0.000000  1
