# generated using pymatgen
data_Hf5ZrCo4Si5As
_symmetry_space_group_name_H-M   'P 1'
_cell_length_a   3.82917000
_cell_length_b   5.34811984
_cell_length_c   12.90219800
_cell_angle_alpha   90.00000000
_cell_angle_beta   90.00000000
_cell_angle_gamma   110.97693911
_symmetry_Int_Tables_number   1
_chemical_formula_structural   Hf5ZrCo4Si5As
_chemical_formula_sum   'Hf5 Zr1 Co4 Si5 As1'
_cell_volume   246.71086517
_cell_formula_units_Z   1
loop_
 _symmetry_equiv_pos_site_id
 _symmetry_equiv_pos_as_xyz
  1  'x, y, z'
loop_
 _atom_site_type_symbol
 _atom_site_label
 _atom_site_symmetry_multiplicity
 _atom_site_fract_x
 _atom_site_fract_y
 _atom_site_fract_z
 _atom_site_occupancy
  Hf  Hf0  1  0.074584  0.149168  0.387166  1
  Hf  Hf1  1  0.924117  0.848236  0.617534  1
  Hf  Hf2  1  0.074584  0.149168  0.112834  1
  Hf  Hf3  1  0.924117  0.848236  0.882466  1
  Hf  Hf4  1  0.635117  0.270234  0.750000  1
  Zr  Zr5  1  0.367679  0.735356  0.250000  1
  Co  Co6  1  0.220445  0.440891  0.917997  1
  Co  Co7  1  0.780698  0.561395  0.075207  1
  Co  Co8  1  0.220445  0.440891  0.582003  1
  Co  Co9  1  0.780698  0.561395  0.424793  1
  Si  Si10  1  0.390480  0.780960  0.458711  1
  Si  Si11  1  0.609058  0.218118  0.543989  1
  Si  Si12  1  0.390480  0.780960  0.041289  1
  Si  Si13  1  0.609058  0.218118  0.956011  1
  Si  Si14  1  0.333902  0.667805  0.750000  1
  As  As15  1  0.664535  0.329071  0.250000  1
