# generated using pymatgen
data_Eu2Y2Al18CuIr5
_symmetry_space_group_name_H-M   'P 1'
_cell_length_a   7.60262351
_cell_length_b   7.60429205
_cell_length_c   9.58512193
_cell_angle_alpha   90.07487962
_cell_angle_beta   90.10100856
_cell_angle_gamma   119.56264347
_symmetry_Int_Tables_number   1
_chemical_formula_structural   Eu2Y2Al18CuIr5
_chemical_formula_sum   'Eu2 Y2 Al18 Cu1 Ir5'
_cell_volume   481.99847838
_cell_formula_units_Z   1
loop_
 _symmetry_equiv_pos_site_id
 _symmetry_equiv_pos_as_xyz
  1  'x, y, z'
loop_
 _atom_site_type_symbol
 _atom_site_label
 _atom_site_symmetry_multiplicity
 _atom_site_fract_x
 _atom_site_fract_y
 _atom_site_fract_z
 _atom_site_occupancy
  Eu  Eu0  1  0.994943  0.670761  0.249808  1
  Eu  Eu1  1  0.005057  0.329239  0.750192  1
  Y  Y2  1  0.671318  0.996269  0.250338  1
  Y  Y3  1  0.328682  0.003731  0.749662  1
  Al  Al4  1  0.129134  0.130460  0.251655  1
  Al  Al5  1  0.870866  0.869540  0.748345  1
  Al  Al6  1  0.001727  0.338262  0.074464  1
  Al  Al7  1  0.998273  0.661738  0.925536  1
  Al  Al8  1  0.999266  0.665418  0.571068  1
  Al  Al9  1  0.334750  0.000631  0.428590  1
  Al  Al10  1  0.000734  0.334582  0.428932  1
  Al  Al11  1  0.665250  0.999369  0.571410  1
  Al  Al12  1  0.661265  0.998311  0.925160  1
  Al  Al13  1  0.338735  0.001689  0.074840  1
  Al  Al14  1  0.333454  0.333310  0.549342  1
  Al  Al15  1  0.666546  0.666690  0.450658  1
  Al  Al16  1  0.662957  0.662989  0.051980  1
  Al  Al17  1  0.337043  0.337011  0.948020  1
  Al  Al18  1  0.339727  0.548216  0.250403  1
  Al  Al19  1  0.660273  0.451784  0.749597  1
  Al  Al20  1  0.546343  0.336679  0.250214  1
  Al  Al21  1  0.453657  0.663321  0.749786  1
  Cu  Cu22  1  0.000000  0.000000  0.000000  1
  Ir  Ir23  1  0.668856  0.326732  0.999939  1
  Ir  Ir24  1  0.331144  0.673268  0.000061  1
  Ir  Ir25  1  0.331277  0.672969  0.500181  1
  Ir  Ir26  1  0.668723  0.327031  0.499819  1
  Ir  Ir27  1  0.000000  0.000000  0.500000  1
