# generated using pymatgen
data_U3Co6ReB2
_symmetry_space_group_name_H-M   'P 1'
_cell_length_a   4.98769700
_cell_length_b   4.98802731
_cell_length_c   14.25874800
_cell_angle_alpha   90.00000000
_cell_angle_beta   90.00000000
_cell_angle_gamma   119.99780284
_symmetry_Int_Tables_number   1
_chemical_formula_structural   U3Co6ReB2
_chemical_formula_sum   'U6 Co12 Re2 B4'
_cell_volume   307.22073590
_cell_formula_units_Z   2
loop_
 _symmetry_equiv_pos_site_id
 _symmetry_equiv_pos_as_xyz
  1  'x, y, z'
loop_
 _atom_site_type_symbol
 _atom_site_label
 _atom_site_symmetry_multiplicity
 _atom_site_fract_x
 _atom_site_fract_y
 _atom_site_fract_z
 _atom_site_occupancy
  U  U0  1  0.333344  0.666689  0.027724  1
  U  U1  1  0.333341  0.666683  0.250000  1
  U  U2  1  0.333344  0.666689  0.472276  1
  U  U3  1  0.666656  0.333311  0.527724  1
  U  U4  1  0.666659  0.333317  0.750000  1
  U  U5  1  0.666656  0.333311  0.972276  1
  Co  Co6  1  0.834136  0.668271  0.151379  1
  Co  Co7  1  0.331757  0.165893  0.151374  1
  Co  Co8  1  0.834136  0.165893  0.151374  1
  Co  Co9  1  0.331757  0.165893  0.348626  1
  Co  Co10  1  0.834136  0.165893  0.348626  1
  Co  Co11  1  0.834136  0.668271  0.348621  1
  Co  Co12  1  0.165865  0.331729  0.651379  1
  Co  Co13  1  0.165863  0.834107  0.651374  1
  Co  Co14  1  0.668244  0.834107  0.651374  1
  Co  Co15  1  0.165863  0.834107  0.848626  1
  Co  Co16  1  0.668244  0.834107  0.848626  1
  Co  Co17  1  0.165865  0.331729  0.848621  1
  Re  Re18  1  0.000000  0.000000  0.000000  1
  Re  Re19  1  0.000000  0.000000  0.500000  1
  B  B20  1  0.000010  0.000019  0.250000  1
  B  B21  1  0.666671  0.333340  0.250000  1
  B  B22  1  0.999990  0.999981  0.750000  1
  B  B23  1  0.333330  0.666660  0.750000  1
