# generated using pymatgen
data_Dy3TmCo16(ReP3)4
_symmetry_space_group_name_H-M   'P 1'
_cell_length_a   3.71969300
_cell_length_b   10.35586037
_cell_length_c   11.80440246
_cell_angle_alpha   89.96868061
_cell_angle_beta   90.00000000
_cell_angle_gamma   90.00000000
_symmetry_Int_Tables_number   1
_chemical_formula_structural   Dy3TmCo16(ReP3)4
_chemical_formula_sum   'Dy3 Tm1 Co16 Re4 P12'
_cell_volume   454.71284924
_cell_formula_units_Z   1
loop_
 _symmetry_equiv_pos_site_id
 _symmetry_equiv_pos_as_xyz
  1  'x, y, z'
loop_
 _atom_site_type_symbol
 _atom_site_label
 _atom_site_symmetry_multiplicity
 _atom_site_fract_x
 _atom_site_fract_y
 _atom_site_fract_z
 _atom_site_occupancy
  Dy  Dy0  1  0.250000  0.915654  0.205011  1
  Dy  Dy1  1  0.750000  0.416018  0.294900  1
  Dy  Dy2  1  0.750000  0.084136  0.795226  1
  Tm  Tm3  1  0.250000  0.583956  0.704624  1
  Co  Co4  1  0.250000  0.406238  0.488942  1
  Co  Co5  1  0.250000  0.094278  0.988728  1
  Co  Co6  1  0.750000  0.594501  0.512684  1
  Co  Co7  1  0.750000  0.905592  0.011280  1
  Co  Co8  1  0.250000  0.222421  0.176186  1
  Co  Co9  1  0.250000  0.278140  0.676383  1
  Co  Co10  1  0.750000  0.776977  0.823417  1
  Co  Co11  1  0.750000  0.721868  0.324127  1
  Co  Co12  1  0.250000  0.885458  0.702457  1
  Co  Co13  1  0.250000  0.613919  0.201885  1
  Co  Co14  1  0.750000  0.113839  0.298013  1
  Co  Co15  1  0.750000  0.387211  0.797098  1
  Co  Co16  1  0.250000  0.464070  0.931521  1
  Co  Co17  1  0.250000  0.036284  0.432925  1
  Co  Co18  1  0.750000  0.536368  0.066480  1
  Co  Co19  1  0.750000  0.963226  0.567934  1
  Re  Re20  1  0.250000  0.710109  0.988943  1
  Re  Re21  1  0.250000  0.789614  0.489630  1
  Re  Re22  1  0.750000  0.289870  0.010547  1
  Re  Re23  1  0.750000  0.210514  0.511261  1
  P  P24  1  0.250000  0.420508  0.112917  1
  P  P25  1  0.250000  0.079542  0.613812  1
  P  P26  1  0.750000  0.579610  0.885178  1
  P  P27  1  0.750000  0.920233  0.386779  1
  P  P28  1  0.250000  0.269637  0.865178  1
  P  P29  1  0.250000  0.230376  0.365319  1
  P  P30  1  0.750000  0.730085  0.134825  1
  P  P31  1  0.750000  0.768497  0.635387  1
  P  P32  1  0.250000  0.595834  0.390830  1
  P  P33  1  0.250000  0.904378  0.891016  1
  P  P34  1  0.750000  0.405334  0.609407  1
  P  P35  1  0.750000  0.095709  0.109155  1
