# generated using pymatgen
data_Y3GaSn3RuRh
_symmetry_space_group_name_H-M   'P 1'
_cell_length_a   7.45997600
_cell_length_b   7.45997624
_cell_length_c   4.09970900
_cell_angle_alpha   90.00000000
_cell_angle_beta   90.00000000
_cell_angle_gamma   119.99999895
_symmetry_Int_Tables_number   1
_chemical_formula_structural   Y3GaSn3RuRh
_chemical_formula_sum   'Y3 Ga1 Sn3 Ru1 Rh1'
_cell_volume   197.58707942
_cell_formula_units_Z   1
loop_
 _symmetry_equiv_pos_site_id
 _symmetry_equiv_pos_as_xyz
  1  'x, y, z'
loop_
 _atom_site_type_symbol
 _atom_site_label
 _atom_site_symmetry_multiplicity
 _atom_site_fract_x
 _atom_site_fract_y
 _atom_site_fract_z
 _atom_site_occupancy
  Y  Y0  1  0.409300  0.010860  0.500000  1
  Y  Y1  1  0.989140  0.398438  0.500000  1
  Y  Y2  1  0.601562  0.590700  0.500000  1
  Ga  Ga3  1  0.333333  0.666667  0.000000  1
  Sn  Sn4  1  0.749613  0.005815  0.000000  1
  Sn  Sn5  1  0.994185  0.743799  0.000000  1
  Sn  Sn6  1  0.256201  0.250387  0.000000  1
  Ru  Ru7  1  0.000000  0.000000  0.500000  1
  Rh  Rh8  1  0.666667  0.333333  0.000000  1
