# generated using pymatgen
data_Dy8Tc3B24Rh
_symmetry_space_group_name_H-M   'P 1'
_cell_length_a   3.68739500
_cell_length_b   9.16218550
_cell_length_c   11.54510401
_cell_angle_alpha   90.12951719
_cell_angle_beta   90.00000000
_cell_angle_gamma   90.00000000
_symmetry_Int_Tables_number   1
_chemical_formula_structural   Dy8Tc3B24Rh
_chemical_formula_sum   'Dy8 Tc3 B24 Rh1'
_cell_volume   390.04568972
_cell_formula_units_Z   1
loop_
 _symmetry_equiv_pos_site_id
 _symmetry_equiv_pos_as_xyz
  1  'x, y, z'
loop_
 _atom_site_type_symbol
 _atom_site_label
 _atom_site_symmetry_multiplicity
 _atom_site_fract_x
 _atom_site_fract_y
 _atom_site_fract_z
 _atom_site_occupancy
  Dy  Dy0  1  0.500000  0.319097  0.415769  1
  Dy  Dy1  1  0.500000  0.677657  0.590952  1
  Dy  Dy2  1  0.500000  0.176710  0.912816  1
  Dy  Dy3  1  0.500000  0.827451  0.081332  1
  Dy  Dy4  1  0.500000  0.440701  0.129313  1
  Dy  Dy5  1  0.500000  0.557029  0.870945  1
  Dy  Dy6  1  0.500000  0.056115  0.629709  1
  Dy  Dy7  1  0.500000  0.943703  0.369472  1
  Tc  Tc8  1  0.500000  0.138597  0.180152  1
  Tc  Tc9  1  0.500000  0.861471  0.820836  1
  Tc  Tc10  1  0.500000  0.362455  0.677720  1
  B  B11  1  0.000000  0.102526  0.471022  1
  B  B12  1  0.000000  0.894490  0.528435  1
  B  B13  1  0.000000  0.396325  0.971776  1
  B  B14  1  0.000000  0.604649  0.029519  1
  B  B15  1  0.000000  0.131172  0.314725  1
  B  B16  1  0.000000  0.868084  0.685755  1
  B  B17  1  0.000000  0.368945  0.813921  1
  B  B18  1  0.000000  0.632037  0.184275  1
  B  B19  1  0.000000  0.053751  0.066679  1
  B  B20  1  0.000000  0.947003  0.932488  1
  B  B21  1  0.000000  0.446272  0.566784  1
  B  B22  1  0.000000  0.554126  0.433576  1
  B  B23  1  0.000000  0.483670  0.288101  1
  B  B24  1  0.000000  0.517417  0.712183  1
  B  B25  1  0.000000  0.016821  0.787318  1
  B  B26  1  0.000000  0.983581  0.211688  1
  B  B27  1  0.000000  0.248766  0.081362  1
  B  B28  1  0.000000  0.752129  0.918777  1
  B  B29  1  0.000000  0.250827  0.581095  1
  B  B30  1  0.000000  0.748780  0.420126  1
  B  B31  1  0.000000  0.291416  0.235216  1
  B  B32  1  0.000000  0.708487  0.765850  1
  B  B33  1  0.000000  0.208724  0.734158  1
  B  B34  1  0.000000  0.790967  0.265001  1
  Rh  Rh35  1  0.500000  0.638051  0.321155  1
