# generated using pymatgen
data_Er3Pu(AlB4)4
_symmetry_space_group_name_H-M   'P 1'
_cell_length_a   3.55784800
_cell_length_b   5.93973601
_cell_length_c   11.51941601
_cell_angle_alpha   90.00542660
_cell_angle_beta   90.00000000
_cell_angle_gamma   90.00000000
_symmetry_Int_Tables_number   1
_chemical_formula_structural   Er3Pu(AlB4)4
_chemical_formula_sum   'Er3 Pu1 Al4 B16'
_cell_volume   243.43610678
_cell_formula_units_Z   1
loop_
 _symmetry_equiv_pos_site_id
 _symmetry_equiv_pos_as_xyz
  1  'x, y, z'
loop_
 _atom_site_type_symbol
 _atom_site_label
 _atom_site_symmetry_multiplicity
 _atom_site_fract_x
 _atom_site_fract_y
 _atom_site_fract_z
 _atom_site_occupancy
  Er  Er0  1  0.500000  0.627867  0.849921  1
  Er  Er1  1  0.500000  0.128054  0.650184  1
  Er  Er2  1  0.500000  0.871685  0.349942  1
  Pu  Pu3  1  0.500000  0.370643  0.150026  1
  Al  Al4  1  0.500000  0.362943  0.408289  1
  Al  Al5  1  0.500000  0.637616  0.589854  1
  Al  Al6  1  0.500000  0.138647  0.911017  1
  Al  Al7  1  0.500000  0.861834  0.091057  1
  B  B8  1  0.000000  0.113187  0.046653  1
  B  B9  1  0.000000  0.885480  0.952379  1
  B  B10  1  0.000000  0.386263  0.546619  1
  B  B11  1  0.000000  0.614820  0.453370  1
  B  B12  1  0.000000  0.133290  0.469664  1
  B  B13  1  0.000000  0.866666  0.531597  1
  B  B14  1  0.000000  0.366837  0.968829  1
  B  B15  1  0.000000  0.633315  0.031139  1
  B  B16  1  0.000000  0.028417  0.193030  1
  B  B17  1  0.000000  0.973915  0.807204  1
  B  B18  1  0.000000  0.473381  0.692600  1
  B  B19  1  0.000000  0.527304  0.307278  1
  B  B20  1  0.000000  0.210836  0.312435  1
  B  B21  1  0.000000  0.788856  0.687521  1
  B  B22  1  0.000000  0.288688  0.812074  1
  B  B23  1  0.000000  0.709456  0.187314  1
