# generated using pymatgen
data_HoTh7(Si3Rh)4
_symmetry_space_group_name_H-M   'P 1'
_cell_length_a   8.22817206
_cell_length_b   8.19829238
_cell_length_c   8.40219100
_cell_angle_alpha   90.00000000
_cell_angle_beta   90.00000000
_cell_angle_gamma   119.87995801
_symmetry_Int_Tables_number   1
_chemical_formula_structural   HoTh7(Si3Rh)4
_chemical_formula_sum   'Ho1 Th7 Si12 Rh4'
_cell_volume   491.44397090
_cell_formula_units_Z   1
loop_
 _symmetry_equiv_pos_site_id
 _symmetry_equiv_pos_as_xyz
  1  'x, y, z'
loop_
 _atom_site_type_symbol
 _atom_site_label
 _atom_site_symmetry_multiplicity
 _atom_site_fract_x
 _atom_site_fract_y
 _atom_site_fract_z
 _atom_site_occupancy
  Ho  Ho0  1  0.001751  0.500875  0.750000  1
  Th  Th1  1  0.000033  0.000016  0.250000  1
  Th  Th2  1  0.000103  0.000052  0.750000  1
  Th  Th3  1  0.500508  0.499313  0.250000  1
  Th  Th4  1  0.500508  0.001195  0.250000  1
  Th  Th5  1  0.998936  0.499468  0.250000  1
  Th  Th6  1  0.499037  0.500792  0.750000  1
  Th  Th7  1  0.499037  0.998245  0.750000  1
  Si  Si8  1  0.165487  0.831273  0.500948  1
  Si  Si9  1  0.165487  0.334213  0.500948  1
  Si  Si10  1  0.669639  0.834819  0.497183  1
  Si  Si11  1  0.834380  0.168837  0.502922  1
  Si  Si12  1  0.834380  0.665544  0.502922  1
  Si  Si13  1  0.330647  0.165324  0.498978  1
  Si  Si14  1  0.834380  0.168837  0.997078  1
  Si  Si15  1  0.834380  0.665544  0.997078  1
  Si  Si16  1  0.330647  0.165324  0.001022  1
  Si  Si17  1  0.165487  0.831273  0.999052  1
  Si  Si18  1  0.165487  0.334213  0.999052  1
  Si  Si19  1  0.669639  0.834819  0.002817  1
  Rh  Rh20  1  0.336109  0.668055  0.503553  1
  Rh  Rh21  1  0.663913  0.331956  0.507418  1
  Rh  Rh22  1  0.663913  0.331956  0.992582  1
  Rh  Rh23  1  0.336109  0.668055  0.996447  1
