# generated using pymatgen
data_MgSi3PRh6
_symmetry_space_group_name_H-M   'P 1'
_cell_length_a   7.00117200
_cell_length_b   7.08360297
_cell_length_c   3.65342200
_cell_angle_alpha   90.00000000
_cell_angle_beta   90.00000000
_cell_angle_gamma   119.61579626
_symmetry_Int_Tables_number   1
_chemical_formula_structural   MgSi3PRh6
_chemical_formula_sum   'Mg1 Si3 P1 Rh6'
_cell_volume   157.51568714
_cell_formula_units_Z   1
loop_
 _symmetry_equiv_pos_site_id
 _symmetry_equiv_pos_as_xyz
  1  'x, y, z'
loop_
 _atom_site_type_symbol
 _atom_site_label
 _atom_site_symmetry_multiplicity
 _atom_site_fract_x
 _atom_site_fract_y
 _atom_site_fract_z
 _atom_site_occupancy
  Mg  Mg0  1  0.002795  0.005590  0.000000  1
  Si  Si1  1  0.802153  0.194954  0.500000  1
  Si  Si2  1  0.392800  0.194954  0.500000  1
  Si  Si3  1  0.333751  0.667502  0.000000  1
  P  P4  1  0.803372  0.606743  0.500000  1
  Rh  Rh5  1  0.185421  0.806242  0.500000  1
  Rh  Rh6  1  0.193339  0.386679  0.500000  1
  Rh  Rh7  1  0.533625  0.067251  0.000000  1
  Rh  Rh8  1  0.929689  0.465256  0.000000  1
  Rh  Rh9  1  0.535566  0.465256  0.000000  1
  Rh  Rh10  1  0.620820  0.806242  0.500000  1
