# generated using pymatgen
data_Tb10DyY(Si2Ni)4
_symmetry_space_group_name_H-M   'P 1'
_cell_length_a   4.13887800
_cell_length_b   11.29041963
_cell_length_c   11.31388363
_cell_angle_alpha   89.96161405
_cell_angle_beta   90.00000000
_cell_angle_gamma   90.00000000
_symmetry_Int_Tables_number   1
_chemical_formula_structural   Tb10DyY(Si2Ni)4
_chemical_formula_sum   'Tb10 Dy1 Y1 Si8 Ni4'
_cell_volume   528.69392359
_cell_formula_units_Z   1
loop_
 _symmetry_equiv_pos_site_id
 _symmetry_equiv_pos_as_xyz
  1  'x, y, z'
loop_
 _atom_site_type_symbol
 _atom_site_label
 _atom_site_symmetry_multiplicity
 _atom_site_fract_x
 _atom_site_fract_y
 _atom_site_fract_z
 _atom_site_occupancy
  Tb  Tb0  1  0.250000  0.059763  0.882322  1
  Tb  Tb1  1  0.250000  0.440342  0.382456  1
  Tb  Tb2  1  0.750000  0.940526  0.117350  1
  Tb  Tb3  1  0.750000  0.559391  0.617494  1
  Tb  Tb4  1  0.250000  0.124905  0.557806  1
  Tb  Tb5  1  0.250000  0.375095  0.057802  1
  Tb  Tb6  1  0.750000  0.875436  0.442159  1
  Tb  Tb7  1  0.750000  0.624555  0.942098  1
  Tb  Tb8  1  0.250000  0.804100  0.713934  1
  Tb  Tb9  1  0.250000  0.695928  0.213949  1
  Dy  Dy10  1  0.750000  0.304346  0.785689  1
  Y  Y11  1  0.750000  0.195892  0.286200  1
  Si  Si12  1  0.250000  0.813227  0.974529  1
  Si  Si13  1  0.250000  0.686767  0.474607  1
  Si  Si14  1  0.750000  0.186618  0.025426  1
  Si  Si15  1  0.750000  0.313303  0.525418  1
  Si  Si16  1  0.250000  0.494140  0.803428  1
  Si  Si17  1  0.250000  0.005943  0.303396  1
  Si  Si18  1  0.750000  0.505163  0.196653  1
  Si  Si19  1  0.750000  0.994813  0.696665  1
  Ni  Ni20  1  0.250000  0.365697  0.630325  1
  Ni  Ni21  1  0.250000  0.134068  0.129798  1
  Ni  Ni22  1  0.750000  0.633771  0.370243  1
  Ni  Ni23  1  0.750000  0.866211  0.870250  1
