# generated using pymatgen
data_CdSb2Pb5O11
_symmetry_space_group_name_H-M   'P 1'
_cell_length_a   7.45163564
_cell_length_b   7.45163543
_cell_length_c   11.34813300
_cell_angle_alpha   90.00000000
_cell_angle_beta   90.00000000
_cell_angle_gamma   103.68716542
_symmetry_Int_Tables_number   1
_chemical_formula_structural   CdSb2Pb5O11
_chemical_formula_sum   'Cd2 Sb4 Pb10 O22'
_cell_volume   612.23209621
_cell_formula_units_Z   2
loop_
 _symmetry_equiv_pos_site_id
 _symmetry_equiv_pos_as_xyz
  1  'x, y, z'
loop_
 _atom_site_type_symbol
 _atom_site_label
 _atom_site_symmetry_multiplicity
 _atom_site_fract_x
 _atom_site_fract_y
 _atom_site_fract_z
 _atom_site_occupancy
  Cd  Cd0  1  0.578641  0.421359  0.250000  1
  Cd  Cd1  1  0.421359  0.578641  0.750000  1
  Sb  Sb2  1  0.676559  0.676559  0.500000  1
  Sb  Sb3  1  0.676559  0.676559  0.000000  1
  Sb  Sb4  1  0.323441  0.323441  0.500000  1
  Sb  Sb5  1  0.323441  0.323441  0.000000  1
  Pb  Pb6  1  0.000994  0.999006  0.750000  1
  Pb  Pb7  1  0.779087  0.220913  0.475610  1
  Pb  Pb8  1  0.220913  0.779087  0.524390  1
  Pb  Pb9  1  0.055819  0.485669  0.250000  1
  Pb  Pb10  1  0.485669  0.055819  0.750000  1
  Pb  Pb11  1  0.220913  0.779087  0.975610  1
  Pb  Pb12  1  0.514331  0.944181  0.250000  1
  Pb  Pb13  1  0.999006  0.000994  0.250000  1
  Pb  Pb14  1  0.944181  0.514331  0.750000  1
  Pb  Pb15  1  0.779087  0.220913  0.024390  1
  O  O16  1  0.193358  0.473026  0.603444  1
  O  O17  1  0.473026  0.193358  0.396556  1
  O  O18  1  0.193358  0.473026  0.896556  1
  O  O19  1  0.259969  0.107924  0.891640  1
  O  O20  1  0.107924  0.259969  0.391640  1
  O  O21  1  0.892076  0.740031  0.608360  1
  O  O22  1  0.436093  0.563907  0.402723  1
  O  O23  1  0.740031  0.892076  0.391640  1
  O  O24  1  0.107924  0.259969  0.108360  1
  O  O25  1  0.740031  0.892076  0.108360  1
  O  O26  1  0.436093  0.563907  0.097277  1
  O  O27  1  0.199203  0.800797  0.750000  1
  O  O28  1  0.526974  0.806642  0.603444  1
  O  O29  1  0.563907  0.436093  0.902723  1
  O  O30  1  0.526974  0.806642  0.896556  1
  O  O31  1  0.800797  0.199203  0.250000  1
  O  O32  1  0.473026  0.193358  0.103444  1
  O  O33  1  0.892076  0.740031  0.891640  1
  O  O34  1  0.259969  0.107924  0.608360  1
  O  O35  1  0.563907  0.436093  0.597277  1
  O  O36  1  0.806642  0.526974  0.396556  1
  O  O37  1  0.806642  0.526974  0.103444  1
