# generated using pymatgen
data_TbNdCo9P6Ru
_symmetry_space_group_name_H-M   'P 1'
_cell_length_a   3.69775900
_cell_length_b   10.41330900
_cell_length_c   11.82764000
_cell_angle_alpha   90.00000000
_cell_angle_beta   90.00000000
_cell_angle_gamma   90.00000000
_symmetry_Int_Tables_number   1
_chemical_formula_structural   TbNdCo9P6Ru
_chemical_formula_sum   'Tb2 Nd2 Co18 P12 Ru2'
_cell_volume   455.43400675
_cell_formula_units_Z   2
loop_
 _symmetry_equiv_pos_site_id
 _symmetry_equiv_pos_as_xyz
  1  'x, y, z'
loop_
 _atom_site_type_symbol
 _atom_site_label
 _atom_site_symmetry_multiplicity
 _atom_site_fract_x
 _atom_site_fract_y
 _atom_site_fract_z
 _atom_site_occupancy
  Tb  Tb0  1  0.750000  0.413697  0.296000  1
  Tb  Tb1  1  0.750000  0.086303  0.796000  1
  Nd  Nd2  1  0.250000  0.582677  0.702341  1
  Nd  Nd3  1  0.250000  0.917323  0.202341  1
  Co  Co4  1  0.750000  0.285258  0.008200  1
  Co  Co5  1  0.750000  0.214742  0.508200  1
  Co  Co6  1  0.250000  0.404707  0.487014  1
  Co  Co7  1  0.250000  0.095293  0.987014  1
  Co  Co8  1  0.750000  0.590852  0.506841  1
  Co  Co9  1  0.750000  0.909148  0.006841  1
  Co  Co10  1  0.250000  0.221537  0.176210  1
  Co  Co11  1  0.250000  0.278463  0.676210  1
  Co  Co12  1  0.750000  0.779759  0.823577  1
  Co  Co13  1  0.750000  0.720241  0.323577  1
  Co  Co14  1  0.250000  0.888121  0.701641  1
  Co  Co15  1  0.250000  0.611879  0.201641  1
  Co  Co16  1  0.750000  0.118777  0.302461  1
  Co  Co17  1  0.750000  0.381223  0.802461  1
  Co  Co18  1  0.250000  0.463141  0.934275  1
  Co  Co19  1  0.250000  0.036859  0.434275  1
  Co  Co20  1  0.750000  0.530565  0.069661  1
  Co  Co21  1  0.750000  0.969435  0.569661  1
  P  P22  1  0.250000  0.416878  0.112667  1
  P  P23  1  0.250000  0.083122  0.612667  1
  P  P24  1  0.750000  0.578372  0.890060  1
  P  P25  1  0.750000  0.921628  0.390060  1
  P  P26  1  0.250000  0.271293  0.868469  1
  P  P27  1  0.250000  0.228707  0.368469  1
  P  P28  1  0.750000  0.724182  0.132285  1
  P  P29  1  0.750000  0.775818  0.632285  1
  P  P30  1  0.250000  0.595371  0.390782  1
  P  P31  1  0.250000  0.904629  0.890782  1
  P  P32  1  0.750000  0.393474  0.606961  1
  P  P33  1  0.750000  0.106526  0.106961  1
  Ru  Ru34  1  0.250000  0.713955  0.990556  1
  Ru  Ru35  1  0.250000  0.786045  0.490556  1
