# generated using pymatgen
data_Nd2FeC4
_symmetry_space_group_name_H-M   'P 1'
_cell_length_a   6.86450507
_cell_length_b   6.86450510
_cell_length_c   6.86450593
_cell_angle_alpha   135.41852157
_cell_angle_beta   113.42220897
_cell_angle_gamma   83.69871142
_symmetry_Int_Tables_number   1
_chemical_formula_structural   Nd2FeC4
_chemical_formula_sum   'Nd4 Fe2 C8'
_cell_volume   200.65004624
_cell_formula_units_Z   2
loop_
 _symmetry_equiv_pos_site_id
 _symmetry_equiv_pos_as_xyz
  1  'x, y, z'
loop_
 _atom_site_type_symbol
 _atom_site_label
 _atom_site_symmetry_multiplicity
 _atom_site_fract_x
 _atom_site_fract_y
 _atom_site_fract_z
 _atom_site_occupancy
  Nd  Nd0  1  0.193578  0.356571  0.837006  1
  Nd  Nd1  1  0.806422  0.643429  0.162994  1
  Nd  Nd2  1  0.519564  0.856571  0.662994  1
  Nd  Nd3  1  0.480436  0.143429  0.337006  1
  Fe  Fe4  1  0.000000  0.250000  0.250000  1
  Fe  Fe5  1  0.000000  0.750000  0.750000  1
  C  C6  1  0.794839  0.124830  0.670010  1
  C  C7  1  0.205161  0.875170  0.329990  1
  C  C8  1  0.454820  0.624830  0.829990  1
  C  C9  1  0.545180  0.375170  0.170010  1
  C  C10  1  0.918563  0.078041  0.840522  1
  C  C11  1  0.081437  0.921959  0.159478  1
  C  C12  1  0.237519  0.578041  0.659478  1
  C  C13  1  0.762481  0.421959  0.340522  1
