# generated using pymatgen
data_Sr2CePr3P17Pd6
_symmetry_space_group_name_H-M   'P 1'
_cell_length_a   9.06332918
_cell_length_b   9.03520758
_cell_length_c   9.06333041
_cell_angle_alpha   109.34751492
_cell_angle_beta   109.06319560
_cell_angle_gamma   110.13225523
_symmetry_Int_Tables_number   1
_chemical_formula_structural   Sr2CePr3P17Pd6
_chemical_formula_sum   'Sr2 Ce1 Pr3 P17 Pd6'
_cell_volume   570.38273144
_cell_formula_units_Z   1
loop_
 _symmetry_equiv_pos_site_id
 _symmetry_equiv_pos_as_xyz
  1  'x, y, z'
loop_
 _atom_site_type_symbol
 _atom_site_label
 _atom_site_symmetry_multiplicity
 _atom_site_fract_x
 _atom_site_fract_y
 _atom_site_fract_z
 _atom_site_occupancy
  Sr  Sr0  1  0.709724  0.708746  0.000667  1
  Sr  Sr1  1  0.291921  0.291254  0.000976  1
  Ce  Ce2  1  0.723118  0.000000  0.723118  1
  Pr  Pr3  1  0.277513  0.000000  0.277513  1
  Pr  Pr4  1  0.000696  0.719304  0.720418  1
  Pr  Pr5  1  0.001113  0.280696  0.281392  1
  P  P6  1  0.779834  0.782906  0.426695  1
  P  P7  1  0.643789  0.217094  0.996928  1
  P  P8  1  0.217923  0.642343  0.000141  1
  P  P9  1  0.360988  0.579478  0.363435  1
  P  P10  1  0.641062  0.003324  0.217958  1
  P  P11  1  0.003387  0.640422  0.219326  1
  P  P12  1  0.578904  0.359578  0.362965  1
  P  P13  1  0.424074  0.784298  0.778523  1
  P  P14  1  0.783957  0.420522  0.781510  1
  P  P15  1  0.214634  0.996676  0.637738  1
  P  P16  1  0.994225  0.215702  0.639777  1
  P  P17  1  0.357798  0.357657  0.575580  1
  P  P18  1  0.000246  0.001563  0.438792  1
  P  P19  1  0.437229  0.998437  0.998683  1
  P  P20  1  0.997854  0.433394  0.998742  1
  P  P21  1  0.565349  0.566606  0.564461  1
  P  P22  1  0.995537  0.000000  0.995537  1
  Pd  Pd23  1  0.246159  0.500000  0.746159  1
  Pd  Pd24  1  0.499566  0.755808  0.254923  1
  Pd  Pd25  1  0.499116  0.244192  0.743758  1
  Pd  Pd26  1  0.747909  0.248436  0.499685  1
  Pd  Pd27  1  0.251248  0.751564  0.499472  1
  Pd  Pd28  1  0.755127  0.500000  0.255127  1
