# generated using pymatgen
data_DyHo(Al3Rh)3
_symmetry_space_group_name_H-M   'P 1'
_cell_length_a   7.55285619
_cell_length_b   7.55154737
_cell_length_c   9.48246700
_cell_angle_alpha   90.00000000
_cell_angle_beta   90.00000000
_cell_angle_gamma   119.43922955
_symmetry_Int_Tables_number   1
_chemical_formula_structural   DyHo(Al3Rh)3
_chemical_formula_sum   'Dy2 Ho2 Al18 Rh6'
_cell_volume   471.00506095
_cell_formula_units_Z   2
loop_
 _symmetry_equiv_pos_site_id
 _symmetry_equiv_pos_as_xyz
  1  'x, y, z'
loop_
 _atom_site_type_symbol
 _atom_site_label
 _atom_site_symmetry_multiplicity
 _atom_site_fract_x
 _atom_site_fract_y
 _atom_site_fract_z
 _atom_site_occupancy
  Dy  Dy0  1  0.670503  0.994641  0.750000  1
  Dy  Dy1  1  0.329497  0.005359  0.250000  1
  Ho  Ho2  1  0.994613  0.670678  0.750000  1
  Ho  Ho3  1  0.005387  0.329322  0.250000  1
  Al  Al4  1  0.127824  0.127756  0.750000  1
  Al  Al5  1  0.872176  0.872244  0.250000  1
  Al  Al6  1  0.000915  0.335148  0.573804  1
  Al  Al7  1  0.999085  0.664852  0.426196  1
  Al  Al8  1  0.999085  0.664852  0.073804  1
  Al  Al9  1  0.334784  0.000775  0.925967  1
  Al  Al10  1  0.000915  0.335148  0.926196  1
  Al  Al11  1  0.665216  0.999225  0.074033  1
  Al  Al12  1  0.665216  0.999225  0.425967  1
  Al  Al13  1  0.334784  0.000775  0.574033  1
  Al  Al14  1  0.333325  0.333464  0.050976  1
  Al  Al15  1  0.666675  0.666536  0.949024  1
  Al  Al16  1  0.666675  0.666536  0.550976  1
  Al  Al17  1  0.333325  0.333464  0.449024  1
  Al  Al18  1  0.338562  0.548528  0.750000  1
  Al  Al19  1  0.661438  0.451472  0.250000  1
  Al  Al20  1  0.548828  0.339142  0.750000  1
  Al  Al21  1  0.451172  0.660858  0.250000  1
  Rh  Rh22  1  0.672277  0.327898  0.499998  1
  Rh  Rh23  1  0.327723  0.672102  0.500002  1
  Rh  Rh24  1  0.327723  0.672102  0.999998  1
  Rh  Rh25  1  0.672277  0.327898  0.000002  1
  Rh  Rh26  1  0.000000  0.000000  0.500000  1
  Rh  Rh27  1  0.000000  0.000000  0.000000  1
