# generated using pymatgen
data_DyPa4Ga15
_symmetry_space_group_name_H-M   'P 1'
_cell_length_a   12.62266898
_cell_length_b   12.62266935
_cell_length_c   12.62266848
_cell_angle_alpha   28.04074413
_cell_angle_beta   28.04074062
_cell_angle_gamma   28.04073962
_symmetry_Int_Tables_number   1
_chemical_formula_structural   DyPa4Ga15
_chemical_formula_sum   'Dy1 Pa4 Ga15'
_cell_volume   392.58796098
_cell_formula_units_Z   1
loop_
 _symmetry_equiv_pos_site_id
 _symmetry_equiv_pos_as_xyz
  1  'x, y, z'
loop_
 _atom_site_type_symbol
 _atom_site_label
 _atom_site_symmetry_multiplicity
 _atom_site_fract_x
 _atom_site_fract_y
 _atom_site_fract_z
 _atom_site_occupancy
  Dy  Dy0  1  0.000000  0.000000  0.000000  1
  Pa  Pa1  1  0.130242  0.130242  0.130242  1
  Pa  Pa2  1  0.869758  0.869758  0.869758  1
  Pa  Pa3  1  0.400967  0.400967  0.400967  1
  Pa  Pa4  1  0.599033  0.599033  0.599033  1
  Ga  Ga5  1  0.431944  0.883134  0.883134  1
  Ga  Ga6  1  0.883134  0.883134  0.431944  1
  Ga  Ga7  1  0.883134  0.431944  0.883134  1
  Ga  Ga8  1  0.116866  0.568056  0.116866  1
  Ga  Ga9  1  0.116866  0.116866  0.568056  1
  Ga  Ga10  1  0.568056  0.116866  0.116866  1
  Ga  Ga11  1  0.129155  0.636657  0.636657  1
  Ga  Ga12  1  0.636657  0.636657  0.129155  1
  Ga  Ga13  1  0.636657  0.129155  0.636657  1
  Ga  Ga14  1  0.363343  0.870845  0.363343  1
  Ga  Ga15  1  0.363343  0.363343  0.870845  1
  Ga  Ga16  1  0.870845  0.363343  0.363343  1
  Ga  Ga17  1  0.500000  0.500000  0.000000  1
  Ga  Ga18  1  0.500000  0.000000  0.500000  1
  Ga  Ga19  1  0.000000  0.500000  0.500000  1
