# generated using pymatgen
data_Tb2Ho8Sn5Bi
_symmetry_space_group_name_H-M   'P 1'
_cell_length_a   8.98800061
_cell_length_b   8.98294627
_cell_length_c   6.50202100
_cell_angle_alpha   90.00000000
_cell_angle_beta   90.00000000
_cell_angle_gamma   119.94992909
_symmetry_Int_Tables_number   1
_chemical_formula_structural   Tb2Ho8Sn5Bi
_chemical_formula_sum   'Tb2 Ho8 Sn5 Bi1'
_cell_volume   454.86214622
_cell_formula_units_Z   1
loop_
 _symmetry_equiv_pos_site_id
 _symmetry_equiv_pos_as_xyz
  1  'x, y, z'
loop_
 _atom_site_type_symbol
 _atom_site_label
 _atom_site_symmetry_multiplicity
 _atom_site_fract_x
 _atom_site_fract_y
 _atom_site_fract_z
 _atom_site_occupancy
  Tb  Tb0  1  0.994665  0.757579  0.750000  1
  Tb  Tb1  1  0.764708  0.000133  0.750000  1
  Ho  Ho2  1  0.000552  0.239241  0.250000  1
  Ho  Ho3  1  0.760909  0.760466  0.250000  1
  Ho  Ho4  1  0.237218  0.242907  0.750000  1
  Ho  Ho5  1  0.237776  0.000131  0.250000  1
  Ho  Ho6  1  0.332563  0.662491  0.498568  1
  Ho  Ho7  1  0.670016  0.337405  0.001432  1
  Ho  Ho8  1  0.670016  0.337405  0.498568  1
  Ho  Ho9  1  0.332563  0.662491  0.001432  1
  Sn  Sn10  1  0.395427  0.393915  0.250000  1
  Sn  Sn11  1  0.001510  0.606076  0.250000  1
  Sn  Sn12  1  0.999969  0.396083  0.750000  1
  Sn  Sn13  1  0.602824  0.603271  0.750000  1
  Sn  Sn14  1  0.605290  0.999974  0.250000  1
  Bi  Bi15  1  0.393994  0.000433  0.750000  1
