# generated using pymatgen
data_Pa2MnNi5P4
_symmetry_space_group_name_H-M   'P 1'
_cell_length_a   3.82126900
_cell_length_b   10.56212201
_cell_length_c   12.39234801
_cell_angle_alpha   90.00376995
_cell_angle_beta   90.00199398
_cell_angle_gamma   90.00193601
_symmetry_Int_Tables_number   1
_chemical_formula_structural   Pa2MnNi5P4
_chemical_formula_sum   'Pa6 Mn3 Ni15 P12'
_cell_volume   500.16395524
_cell_formula_units_Z   3
loop_
 _symmetry_equiv_pos_site_id
 _symmetry_equiv_pos_as_xyz
  1  'x, y, z'
loop_
 _atom_site_type_symbol
 _atom_site_label
 _atom_site_symmetry_multiplicity
 _atom_site_fract_x
 _atom_site_fract_y
 _atom_site_fract_z
 _atom_site_occupancy
  Pa  Pa0  1  0.751768  0.000075  0.479657  1
  Pa  Pa1  1  0.251578  0.499995  0.521042  1
  Pa  Pa2  1  0.251868  0.681916  0.793453  1
  Pa  Pa3  1  0.251859  0.318035  0.793560  1
  Pa  Pa4  1  0.751741  0.818189  0.205828  1
  Pa  Pa5  1  0.751883  0.181911  0.205812  1
  Mn  Mn6  1  0.751683  0.999968  0.017586  1
  Mn  Mn7  1  0.251567  0.999899  0.848092  1
  Mn  Mn8  1  0.751660  0.500069  0.152497  1
  Ni  Ni9  1  0.251892  0.500267  0.982213  1
  Ni  Ni10  1  0.251917  0.198895  0.571953  1
  Ni  Ni11  1  0.251902  0.801626  0.571683  1
  Ni  Ni12  1  0.751492  0.301480  0.428640  1
  Ni  Ni13  1  0.751511  0.698407  0.428504  1
  Ni  Ni14  1  0.251205  0.620591  0.292373  1
  Ni  Ni15  1  0.251574  0.379160  0.292212  1
  Ni  Ni16  1  0.752380  0.879468  0.709355  1
  Ni  Ni17  1  0.751840  0.120086  0.709455  1
  Ni  Ni18  1  0.252217  0.168173  0.006151  1
  Ni  Ni19  1  0.251532  0.831773  0.006320  1
  Ni  Ni20  1  0.752911  0.330008  0.993070  1
  Ni  Ni21  1  0.752147  0.669961  0.992916  1
  Ni  Ni22  1  0.251878  0.000058  0.299888  1
  Ni  Ni23  1  0.752502  0.500001  0.698720  1
  P  P24  1  0.251540  0.187911  0.387281  1
  P  P25  1  0.251624  0.812147  0.387158  1
  P  P26  1  0.751681  0.311478  0.613044  1
  P  P27  1  0.751641  0.688451  0.612904  1
  P  P28  1  0.251686  0.000049  0.118696  1
  P  P29  1  0.751767  0.499933  0.879302  1
  P  P30  1  0.252004  0.651795  0.107634  1
  P  P31  1  0.252320  0.348335  0.107382  1
  P  P32  1  0.751578  0.848477  0.892509  1
  P  P33  1  0.751780  0.151460  0.892484  1
  P  P34  1  0.252027  0.000003  0.659093  1
  P  P35  1  0.751446  0.499947  0.341533  1
