# generated using pymatgen
data_Ho2Er5Zn(Co3Sn11)2
_symmetry_space_group_name_H-M   'P 1'
_cell_length_a   9.65031901
_cell_length_b   9.65031955
_cell_length_c   9.94071100
_cell_angle_alpha   90.00200397
_cell_angle_beta   89.99799374
_cell_angle_gamma   119.99676279
_symmetry_Int_Tables_number   1
_chemical_formula_structural   Ho2Er5Zn(Co3Sn11)2
_chemical_formula_sum   'Ho2 Er5 Zn1 Co6 Sn22'
_cell_volume   801.76225954
_cell_formula_units_Z   1
loop_
 _symmetry_equiv_pos_site_id
 _symmetry_equiv_pos_as_xyz
  1  'x, y, z'
loop_
 _atom_site_type_symbol
 _atom_site_label
 _atom_site_symmetry_multiplicity
 _atom_site_fract_x
 _atom_site_fract_y
 _atom_site_fract_z
 _atom_site_occupancy
  Ho  Ho0  1  0.479421  0.520579  0.306026  1
  Ho  Ho1  1  0.000012  0.999988  0.999969  1
  Er  Er2  1  0.520414  0.479586  0.694078  1
  Er  Er3  1  0.479580  0.959126  0.305988  1
  Er  Er4  1  0.520414  0.040822  0.694049  1
  Er  Er5  1  0.040874  0.520420  0.305988  1
  Er  Er6  1  0.959178  0.479586  0.694049  1
  Zn  Zn7  1  0.000000  0.000000  0.500019  1
  Co  Co8  1  0.832096  0.167904  0.197634  1
  Co  Co9  1  0.167890  0.832110  0.802344  1
  Co  Co10  1  0.832231  0.664267  0.197599  1
  Co  Co11  1  0.167903  0.335788  0.802362  1
  Co  Co12  1  0.335733  0.167769  0.197599  1
  Co  Co13  1  0.664212  0.832097  0.802362  1
  Sn  Sn14  1  0.114666  0.885334  0.276314  1
  Sn  Sn15  1  0.885350  0.114650  0.723679  1
  Sn  Sn16  1  0.114485  0.229185  0.276310  1
  Sn  Sn17  1  0.885394  0.770706  0.723648  1
  Sn  Sn18  1  0.770815  0.885515  0.276310  1
  Sn  Sn19  1  0.229294  0.114606  0.723648  1
  Sn  Sn20  1  0.782440  0.217560  0.453899  1
  Sn  Sn21  1  0.217572  0.782428  0.546136  1
  Sn  Sn22  1  0.782661  0.564859  0.454010  1
  Sn  Sn23  1  0.217463  0.435151  0.546226  1
  Sn  Sn24  1  0.435141  0.217339  0.454010  1
  Sn  Sn25  1  0.564849  0.782537  0.546226  1
  Sn  Sn26  1  0.345992  0.999931  0.999940  1
  Sn  Sn27  1  0.653958  0.999987  0.999992  1
  Sn  Sn28  1  0.000013  0.346042  0.999992  1
  Sn  Sn29  1  0.000069  0.654008  0.999940  1
  Sn  Sn30  1  0.653976  0.653985  0.999926  1
  Sn  Sn31  1  0.346015  0.346024  0.999926  1
  Sn  Sn32  1  0.333169  0.666831  0.120616  1
  Sn  Sn33  1  0.666671  0.333329  0.879175  1
  Sn  Sn34  1  0.333304  0.666696  0.818855  1
  Sn  Sn35  1  0.666746  0.333254  0.181161  1
