# generated using pymatgen
data_Nd2Ho8In8IrPd3
_symmetry_space_group_name_H-M   'P 1'
_cell_length_a   3.63178500
_cell_length_b   8.16361282
_cell_length_c   18.38483824
_cell_angle_alpha   90.02825206
_cell_angle_beta   90.00000000
_cell_angle_gamma   90.00000000
_symmetry_Int_Tables_number   1
_chemical_formula_structural   Nd2Ho8In8IrPd3
_chemical_formula_sum   'Nd2 Ho8 In8 Ir1 Pd3'
_cell_volume   545.08256339
_cell_formula_units_Z   1
loop_
 _symmetry_equiv_pos_site_id
 _symmetry_equiv_pos_as_xyz
  1  'x, y, z'
loop_
 _atom_site_type_symbol
 _atom_site_label
 _atom_site_symmetry_multiplicity
 _atom_site_fract_x
 _atom_site_fract_y
 _atom_site_fract_z
 _atom_site_occupancy
  Nd  Nd0  1  0.000000  0.499821  0.500060  1
  Nd  Nd1  1  0.000000  0.000393  0.000678  1
  Ho  Ho2  1  0.000000  0.728623  0.278307  1
  Ho  Ho3  1  0.000000  0.260193  0.718023  1
  Ho  Ho4  1  0.000000  0.759959  0.781268  1
  Ho  Ho5  1  0.000000  0.255399  0.219044  1
  Ho  Ho6  1  0.000000  0.618681  0.088409  1
  Ho  Ho7  1  0.000000  0.379462  0.915713  1
  Ho  Ho8  1  0.000000  0.878962  0.584071  1
  Ho  Ho9  1  0.000000  0.120528  0.414266  1
  In  In10  1  0.500000  0.701165  0.931494  1
  In  In11  1  0.500000  0.299677  0.068979  1
  In  In12  1  0.500000  0.798282  0.430751  1
  In  In13  1  0.500000  0.199947  0.567729  1
  In  In14  1  0.500000  0.580847  0.653044  1
  In  In15  1  0.500000  0.421616  0.348438  1
  In  In16  1  0.500000  0.923979  0.153336  1
  In  In17  1  0.500000  0.081145  0.846631  1
  Ir  Ir18  1  0.500000  0.521237  0.195892  1
  Pd  Pd19  1  0.500000  0.474432  0.804352  1
  Pd  Pd20  1  0.500000  0.974587  0.695264  1
  Pd  Pd21  1  0.500000  0.021067  0.304252  1
