# generated using pymatgen
data_U4Mn5Si2Ru
_symmetry_space_group_name_H-M   'P 1'
_cell_length_a   5.23705744
_cell_length_b   5.23705797
_cell_length_c   7.83009700
_cell_angle_alpha   90.00000000
_cell_angle_beta   90.00000000
_cell_angle_gamma   120.79625798
_symmetry_Int_Tables_number   1
_chemical_formula_structural   U4Mn5Si2Ru
_chemical_formula_sum   'U4 Mn5 Si2 Ru1'
_cell_volume   184.47250920
_cell_formula_units_Z   1
loop_
 _symmetry_equiv_pos_site_id
 _symmetry_equiv_pos_as_xyz
  1  'x, y, z'
loop_
 _atom_site_type_symbol
 _atom_site_label
 _atom_site_symmetry_multiplicity
 _atom_site_fract_x
 _atom_site_fract_y
 _atom_site_fract_z
 _atom_site_occupancy
  U  U0  1  0.665954  0.334046  0.421709  1
  U  U1  1  0.332214  0.667786  0.571906  1
  U  U2  1  0.332214  0.667786  0.928094  1
  U  U3  1  0.665954  0.334046  0.078291  1
  Mn  Mn4  1  0.169811  0.830189  0.250000  1
  Mn  Mn5  1  0.336118  0.169137  0.750000  1
  Mn  Mn6  1  0.661283  0.831604  0.250000  1
  Mn  Mn7  1  0.830863  0.663882  0.750000  1
  Mn  Mn8  1  0.168396  0.338717  0.250000  1
  Si  Si9  1  0.002880  0.997120  0.003988  1
  Si  Si10  1  0.002880  0.997120  0.496012  1
  Ru  Ru11  1  0.831432  0.168568  0.750000  1
