# generated using pymatgen
data_La2Pa(SnIr)3
_symmetry_space_group_name_H-M   'P 1'
_cell_length_a   7.69032800
_cell_length_b   7.60924677
_cell_length_c   4.09291200
_cell_angle_alpha   90.00000000
_cell_angle_beta   90.00000000
_cell_angle_gamma   120.35311551
_symmetry_Int_Tables_number   1
_chemical_formula_structural   La2Pa(SnIr)3
_chemical_formula_sum   'La2 Pa1 Sn3 Ir3'
_cell_volume   206.67751406
_cell_formula_units_Z   1
loop_
 _symmetry_equiv_pos_site_id
 _symmetry_equiv_pos_as_xyz
  1  'x, y, z'
loop_
 _atom_site_type_symbol
 _atom_site_label
 _atom_site_symmetry_multiplicity
 _atom_site_fract_x
 _atom_site_fract_y
 _atom_site_fract_z
 _atom_site_occupancy
  La  La0  1  0.999093  0.588054  0.000000  1
  La  La1  1  0.411038  0.411946  0.000000  1
  Pa  Pa2  1  0.586033  0.000000  0.000000  1
  Sn  Sn3  1  0.242031  0.000000  0.500000  1
  Sn  Sn4  1  0.004443  0.255599  0.500000  1
  Sn  Sn5  1  0.748843  0.744401  0.500000  1
  Ir  Ir6  1  0.368573  0.707113  0.500000  1
  Ir  Ir7  1  0.661461  0.292887  0.500000  1
  Ir  Ir8  1  0.978485  0.000000  0.000000  1
