# generated using pymatgen
data_K2PuBr6
_symmetry_space_group_name_H-M   'P 1'
_cell_length_a   7.66514900
_cell_length_b   7.66514900
_cell_length_c   11.41919300
_cell_angle_alpha   90.00000000
_cell_angle_beta   90.00000000
_cell_angle_gamma   90.00000000
_symmetry_Int_Tables_number   1
_chemical_formula_structural   K2PuBr6
_chemical_formula_sum   'K4 Pu2 Br12'
_cell_volume   670.92908009
_cell_formula_units_Z   2
loop_
 _symmetry_equiv_pos_site_id
 _symmetry_equiv_pos_as_xyz
  1  'x, y, z'
loop_
 _atom_site_type_symbol
 _atom_site_label
 _atom_site_symmetry_multiplicity
 _atom_site_fract_x
 _atom_site_fract_y
 _atom_site_fract_z
 _atom_site_occupancy
  K  K0  1  0.000000  0.500000  0.750000  1
  K  K1  1  0.500000  0.000000  0.750000  1
  K  K2  1  0.000000  0.500000  0.250000  1
  K  K3  1  0.500000  0.000000  0.250000  1
  Pu  Pu4  1  0.000000  0.000000  0.000000  1
  Pu  Pu5  1  0.500000  0.500000  0.500000  1
  Br  Br6  1  0.000000  0.000000  0.242355  1
  Br  Br7  1  0.500000  0.500000  0.257645  1
  Br  Br8  1  0.000000  0.000000  0.757645  1
  Br  Br9  1  0.500000  0.500000  0.742355  1
  Br  Br10  1  0.190156  0.693802  0.000000  1
  Br  Br11  1  0.806198  0.309844  0.500000  1
  Br  Br12  1  0.809844  0.306198  0.000000  1
  Br  Br13  1  0.193802  0.690156  0.500000  1
  Br  Br14  1  0.309844  0.193802  0.500000  1
  Br  Br15  1  0.690156  0.806198  0.500000  1
  Br  Br16  1  0.306198  0.190156  0.000000  1
  Br  Br17  1  0.693802  0.809844  0.000000  1
