# generated using pymatgen
data_Dy5ErMnB14Os
_symmetry_space_group_name_H-M   'P 1'
_cell_length_a   8.05318419
_cell_length_b   8.05318480
_cell_length_c   9.30598400
_cell_angle_alpha   90.00000000
_cell_angle_beta   90.00000000
_cell_angle_gamma   155.00437574
_symmetry_Int_Tables_number   1
_chemical_formula_structural   Dy5ErMnB14Os
_chemical_formula_sum   'Dy5 Er1 Mn1 B14 Os1'
_cell_volume   255.02028298
_cell_formula_units_Z   1
loop_
 _symmetry_equiv_pos_site_id
 _symmetry_equiv_pos_as_xyz
  1  'x, y, z'
loop_
 _atom_site_type_symbol
 _atom_site_label
 _atom_site_symmetry_multiplicity
 _atom_site_fract_x
 _atom_site_fract_y
 _atom_site_fract_z
 _atom_site_occupancy
  Dy  Dy0  1  0.894710  0.105290  0.442773  1
  Dy  Dy1  1  0.104844  0.895156  0.564189  1
  Dy  Dy2  1  0.894710  0.105290  0.057227  1
  Dy  Dy3  1  0.104844  0.895156  0.935811  1
  Dy  Dy4  1  0.244153  0.755847  0.250000  1
  Er  Er5  1  0.760170  0.239830  0.750000  1
  Mn  Mn6  1  0.946648  0.053352  0.750000  1
  B  B7  1  0.727127  0.272873  0.467399  1
  B  B8  1  0.272130  0.727870  0.535409  1
  B  B9  1  0.727127  0.272873  0.032601  1
  B  B10  1  0.272130  0.727870  0.964591  1
  B  B11  1  0.631982  0.368018  0.150042  1
  B  B12  1  0.369821  0.630179  0.846148  1
  B  B13  1  0.631982  0.368018  0.349958  1
  B  B14  1  0.369821  0.630179  0.653852  1
  B  B15  1  0.520489  0.479511  0.095707  1
  B  B16  1  0.478152  0.521848  0.901463  1
  B  B17  1  0.520489  0.479511  0.404293  1
  B  B18  1  0.478152  0.521848  0.598537  1
  B  B19  1  0.456688  0.543312  0.250000  1
  B  B20  1  0.539829  0.460171  0.750000  1
  Os  Os21  1  0.054003  0.945997  0.250000  1
