# generated using pymatgen
data_Na6Si2B8Pt17Rh
_symmetry_space_group_name_H-M   'P 1'
_cell_length_a   6.50641597
_cell_length_b   6.50641742
_cell_length_c   15.38771184
_cell_angle_alpha   89.88294516
_cell_angle_beta   90.11705449
_cell_angle_gamma   128.98498564
_symmetry_Int_Tables_number   1
_chemical_formula_structural   Na6Si2B8Pt17Rh
_chemical_formula_sum   'Na6 Si2 B8 Pt17 Rh1'
_cell_volume   506.35069192
_cell_formula_units_Z   1
loop_
 _symmetry_equiv_pos_site_id
 _symmetry_equiv_pos_as_xyz
  1  'x, y, z'
loop_
 _atom_site_type_symbol
 _atom_site_label
 _atom_site_symmetry_multiplicity
 _atom_site_fract_x
 _atom_site_fract_y
 _atom_site_fract_z
 _atom_site_occupancy
  Na  Na0  1  0.300865  0.699135  0.750478  1
  Na  Na1  1  0.699135  0.300865  0.249522  1
  Na  Na2  1  0.566385  0.433615  0.081854  1
  Na  Na3  1  0.433615  0.566385  0.918146  1
  Na  Na4  1  0.433018  0.566982  0.582871  1
  Na  Na5  1  0.566982  0.433018  0.417129  1
  Si  Si6  1  0.710968  0.289032  0.750793  1
  Si  Si7  1  0.289032  0.710968  0.249207  1
  B  B8  1  0.949659  0.050341  0.139494  1
  B  B9  1  0.050341  0.949659  0.860506  1
  B  B10  1  0.050036  0.949964  0.642513  1
  B  B11  1  0.949964  0.050036  0.357487  1
  B  B12  1  0.190020  0.809980  0.023619  1
  B  B13  1  0.809980  0.190020  0.976381  1
  B  B14  1  0.805455  0.194545  0.523150  1
  B  B15  1  0.194545  0.805455  0.476850  1
  Pt  Pt16  1  0.000000  0.000000  0.500000  1
  Pt  Pt17  1  0.702661  0.810328  0.249432  1
  Pt  Pt18  1  0.810328  0.702661  0.750568  1
  Pt  Pt19  1  0.297339  0.189672  0.750568  1
  Pt  Pt20  1  0.189672  0.297339  0.249432  1
  Pt  Pt21  1  0.130984  0.869016  0.151336  1
  Pt  Pt22  1  0.869016  0.130984  0.848664  1
  Pt  Pt23  1  0.867791  0.132209  0.651038  1
  Pt  Pt24  1  0.132209  0.867791  0.348962  1
  Pt  Pt25  1  0.571901  0.929929  0.081690  1
  Pt  Pt26  1  0.929929  0.571901  0.918310  1
  Pt  Pt27  1  0.426773  0.070652  0.582459  1
  Pt  Pt28  1  0.070652  0.426773  0.417541  1
  Pt  Pt29  1  0.428099  0.070071  0.918310  1
  Pt  Pt30  1  0.070071  0.428099  0.081690  1
  Pt  Pt31  1  0.573227  0.929348  0.417541  1
  Pt  Pt32  1  0.929348  0.573227  0.582459  1
  Rh  Rh33  1  0.000000  0.000000  0.000000  1
