# generated using pymatgen
data_Er16In4NiIrRh2
_symmetry_space_group_name_H-M   'P 1'
_cell_length_a   9.54272005
_cell_length_b   9.56378875
_cell_length_c   9.56987706
_cell_angle_alpha   60.09613399
_cell_angle_beta   60.09382825
_cell_angle_gamma   60.07285415
_symmetry_Int_Tables_number   1
_chemical_formula_structural   Er16In4NiIrRh2
_chemical_formula_sum   'Er16 In4 Ni1 Ir1 Rh2'
_cell_volume   618.80633933
_cell_formula_units_Z   1
loop_
 _symmetry_equiv_pos_site_id
 _symmetry_equiv_pos_as_xyz
  1  'x, y, z'
loop_
 _atom_site_type_symbol
 _atom_site_label
 _atom_site_symmetry_multiplicity
 _atom_site_fract_x
 _atom_site_fract_y
 _atom_site_fract_z
 _atom_site_occupancy
  Er  Er0  1  0.187266  0.191155  0.810718  1
  Er  Er1  1  0.438871  0.060689  0.061569  1
  Er  Er2  1  0.440657  0.060150  0.438105  1
  Er  Er3  1  0.062550  0.438093  0.062692  1
  Er  Er4  1  0.650403  0.050923  0.648272  1
  Er  Er5  1  0.189328  0.811316  0.810027  1
  Er  Er6  1  0.061090  0.060150  0.438105  1
  Er  Er7  1  0.810591  0.190302  0.188516  1
  Er  Er8  1  0.809819  0.810850  0.190538  1
  Er  Er9  1  0.652095  0.647184  0.048625  1
  Er  Er10  1  0.653231  0.648611  0.651580  1
  Er  Er11  1  0.062257  0.439743  0.435742  1
  Er  Er12  1  0.046577  0.648611  0.651580  1
  Er  Er13  1  0.810862  0.191155  0.810718  1
  Er  Er14  1  0.436665  0.438093  0.062692  1
  Er  Er15  1  0.188792  0.810850  0.190538  1
  In  In16  1  0.417410  0.747751  0.417428  1
  In  In17  1  0.416398  0.417873  0.749331  1
  In  In18  1  0.750119  0.417804  0.416127  1
  In  In19  1  0.415950  0.417804  0.416127  1
  Ni  Ni20  1  0.857740  0.426111  0.858411  1
  Ir  Ir21  1  0.857338  0.858481  0.426843  1
  Rh  Rh22  1  0.426766  0.858150  0.857859  1
  Rh  Rh23  1  0.857225  0.858150  0.857859  1
