# generated using pymatgen
data_Dy3Er2Lu3(P3Ir4)4
_symmetry_space_group_name_H-M   'P 1'
_cell_length_a   12.93312400
_cell_length_b   12.93455822
_cell_length_c   3.98979100
_cell_angle_alpha   90.00000000
_cell_angle_beta   90.00000000
_cell_angle_gamma   119.99633209
_symmetry_Int_Tables_number   1
_chemical_formula_structural   Dy3Er2Lu3(P3Ir4)4
_chemical_formula_sum   'Dy3 Er2 Lu3 P12 Ir16'
_cell_volume   578.03198441
_cell_formula_units_Z   1
loop_
 _symmetry_equiv_pos_site_id
 _symmetry_equiv_pos_as_xyz
  1  'x, y, z'
loop_
 _atom_site_type_symbol
 _atom_site_label
 _atom_site_symmetry_multiplicity
 _atom_site_fract_x
 _atom_site_fract_y
 _atom_site_fract_z
 _atom_site_occupancy
  Dy  Dy0  1  0.333337  0.666669  0.500000  1
  Dy  Dy1  1  0.666669  0.333331  0.500000  1
  Dy  Dy2  1  0.814329  0.000000  0.000000  1
  Er  Er3  1  0.000001  0.814384  0.000000  1
  Er  Er4  1  0.185617  0.185616  0.000000  1
  Lu  Lu5  1  0.999996  0.446645  0.500000  1
  Lu  Lu6  1  0.553350  0.553355  0.500000  1
  Lu  Lu7  1  0.446565  0.000000  0.500000  1
  P  P8  1  0.000007  0.652025  0.500000  1
  P  P9  1  0.347982  0.347975  0.500000  1
  P  P10  1  0.651764  0.000000  0.500000  1
  P  P11  1  0.516631  0.687684  0.000000  1
  P  P12  1  0.312309  0.828905  0.000000  1
  P  P13  1  0.171074  0.483420  0.000000  1
  P  P14  1  0.483405  0.171095  0.000000  1
  P  P15  1  0.687655  0.516580  0.000000  1
  P  P16  1  0.828948  0.312316  0.000000  1
  P  P17  1  0.000121  0.176657  0.500000  1
  P  P18  1  0.823464  0.823343  0.500000  1
  P  P19  1  0.176546  0.000000  0.500000  1
  Ir  Ir20  1  0.509558  0.866309  0.000000  1
  Ir  Ir21  1  0.133748  0.643284  0.000000  1
  Ir  Ir22  1  0.356740  0.490479  0.000000  1
  Ir  Ir23  1  0.490465  0.356716  0.000000  1
  Ir  Ir24  1  0.866262  0.509521  0.000000  1
  Ir  Ir25  1  0.643250  0.133691  0.000000  1
  Ir  Ir26  1  0.000172  0.276161  0.000000  1
  Ir  Ir27  1  0.724011  0.723839  0.000000  1
  Ir  Ir28  1  0.275916  0.000000  0.000000  1
  Ir  Ir29  1  0.629575  0.808143  0.500000  1
  Ir  Ir30  1  0.191509  0.821432  0.500000  1
  Ir  Ir31  1  0.178617  0.370076  0.500000  1
  Ir  Ir32  1  0.370077  0.178568  0.500000  1
  Ir  Ir33  1  0.808541  0.629924  0.500000  1
  Ir  Ir34  1  0.821432  0.191857  0.500000  1
  Ir  Ir35  1  0.000360  0.000000  0.500000  1
