# generated using pymatgen
data_La2CeTh(NiB10)2
_symmetry_space_group_name_H-M   'P 1'
_cell_length_a   4.19994900
_cell_length_b   5.65981733
_cell_length_c   11.24771527
_cell_angle_alpha   89.93045497
_cell_angle_beta   90.00000000
_cell_angle_gamma   90.00000000
_symmetry_Int_Tables_number   1
_chemical_formula_structural   La2CeTh(NiB10)2
_chemical_formula_sum   'La2 Ce1 Th1 Ni2 B20'
_cell_volume   267.36861444
_cell_formula_units_Z   1
loop_
 _symmetry_equiv_pos_site_id
 _symmetry_equiv_pos_as_xyz
  1  'x, y, z'
loop_
 _atom_site_type_symbol
 _atom_site_label
 _atom_site_symmetry_multiplicity
 _atom_site_fract_x
 _atom_site_fract_y
 _atom_site_fract_z
 _atom_site_occupancy
  La  La0  1  0.500000  0.308960  0.861603  1
  La  La1  1  0.500000  0.691176  0.137016  1
  Ce  Ce2  1  0.500000  0.811662  0.637684  1
  Th  Th3  1  0.500000  0.190662  0.364836  1
  Ni  Ni4  1  0.000000  0.499544  0.499962  1
  Ni  Ni5  1  0.000000  0.999618  0.999875  1
  B  B6  1  0.000000  0.123994  0.541059  1
  B  B7  1  0.000000  0.873784  0.460331  1
  B  B8  1  0.000000  0.626171  0.957527  1
  B  B9  1  0.000000  0.374140  0.041955  1
  B  B10  1  0.000000  0.154944  0.696632  1
  B  B11  1  0.000000  0.845220  0.303603  1
  B  B12  1  0.299636  0.202515  0.115440  1
  B  B13  1  0.299890  0.797395  0.884056  1
  B  B14  1  0.699292  0.701732  0.387065  1
  B  B15  1  0.698989  0.297688  0.613054  1
  B  B16  1  0.700110  0.797395  0.884056  1
  B  B17  1  0.700364  0.202515  0.115440  1
  B  B18  1  0.301011  0.297688  0.613054  1
  B  B19  1  0.300708  0.701732  0.387065  1
  B  B20  1  0.000000  0.035189  0.188602  1
  B  B21  1  0.000000  0.964865  0.811158  1
  B  B22  1  0.000000  0.534585  0.313463  1
  B  B23  1  0.000000  0.465989  0.686163  1
  B  B24  1  0.000000  0.344773  0.198538  1
  B  B25  1  0.000000  0.656064  0.800761  1
