# generated using pymatgen
data_Tb2TcB8Os
_symmetry_space_group_name_H-M   'P 1'
_cell_length_a   5.98805485
_cell_length_b   11.58654921
_cell_length_c   3.59815200
_cell_angle_alpha   90.00000000
_cell_angle_beta   90.00000000
_cell_angle_gamma   90.17317411
_symmetry_Int_Tables_number   1
_chemical_formula_structural   Tb2TcB8Os
_chemical_formula_sum   'Tb4 Tc2 B16 Os2'
_cell_volume   249.64185566
_cell_formula_units_Z   2
loop_
 _symmetry_equiv_pos_site_id
 _symmetry_equiv_pos_as_xyz
  1  'x, y, z'
loop_
 _atom_site_type_symbol
 _atom_site_label
 _atom_site_symmetry_multiplicity
 _atom_site_fract_x
 _atom_site_fract_y
 _atom_site_fract_z
 _atom_site_occupancy
  Tb  Tb0  1  0.627130  0.350078  0.000000  1
  Tb  Tb1  1  0.372870  0.649922  0.000000  1
  Tb  Tb2  1  0.126779  0.150634  0.000000  1
  Tb  Tb3  1  0.873221  0.849366  0.000000  1
  Tc  Tc4  1  0.632564  0.088346  0.000000  1
  Tc  Tc5  1  0.367436  0.911654  0.000000  1
  B  B6  1  0.787524  0.184912  0.500000  1
  B  B7  1  0.212476  0.815088  0.500000  1
  B  B8  1  0.288674  0.314816  0.500000  1
  B  B9  1  0.711326  0.685184  0.500000  1
  B  B10  1  0.863686  0.031418  0.500000  1
  B  B11  1  0.136314  0.968582  0.500000  1
  B  B12  1  0.362745  0.469357  0.500000  1
  B  B13  1  0.637255  0.530643  0.500000  1
  B  B14  1  0.887256  0.453293  0.500000  1
  B  B15  1  0.112744  0.546707  0.500000  1
  B  B16  1  0.387391  0.046685  0.500000  1
  B  B17  1  0.612609  0.953315  0.500000  1
  B  B18  1  0.974917  0.308763  0.500000  1
  B  B19  1  0.025083  0.691237  0.500000  1
  B  B20  1  0.477137  0.191908  0.500000  1
  B  B21  1  0.522863  0.808092  0.500000  1
  Os  Os22  1  0.140352  0.407501  0.000000  1
  Os  Os23  1  0.859648  0.592499  0.000000  1
