# generated using pymatgen
data_Er2Co12SiGeP5
_symmetry_space_group_name_H-M   'P 1'
_cell_length_a   9.06820202
_cell_length_b   9.09301428
_cell_length_c   3.57607100
_cell_angle_alpha   90.00000000
_cell_angle_beta   90.00000000
_cell_angle_gamma   119.85547163
_symmetry_Int_Tables_number   1
_chemical_formula_structural   Er2Co12SiGeP5
_chemical_formula_sum   'Er2 Co12 Si1 Ge1 P5'
_cell_volume   255.73871255
_cell_formula_units_Z   1
loop_
 _symmetry_equiv_pos_site_id
 _symmetry_equiv_pos_as_xyz
  1  'x, y, z'
loop_
 _atom_site_type_symbol
 _atom_site_label
 _atom_site_symmetry_multiplicity
 _atom_site_fract_x
 _atom_site_fract_y
 _atom_site_fract_z
 _atom_site_occupancy
  Er  Er0  1  0.666243  0.334919  0.500000  1
  Er  Er1  1  0.333997  0.668045  0.000000  1
  Co  Co2  1  0.124742  0.838986  0.000000  1
  Co  Co3  1  0.385334  0.438784  0.500000  1
  Co  Co4  1  0.713039  0.867603  0.000000  1
  Co  Co5  1  0.557882  0.941581  0.500000  1
  Co  Co6  1  0.249276  0.112432  0.500000  1
  Co  Co7  1  0.859546  0.746746  0.500000  1
  Co  Co8  1  0.892306  0.139829  0.500000  1
  Co  Co9  1  0.945395  0.382965  0.000000  1
  Co  Co10  1  0.622019  0.560198  0.000000  1
  Co  Co11  1  0.433279  0.060608  0.000000  1
  Co  Co12  1  0.054367  0.615981  0.500000  1
  Co  Co13  1  0.161866  0.288859  0.000000  1
  Si  Si14  1  0.709849  0.113104  0.000000  1
  Ge  Ge15  1  0.999813  0.001648  0.000000  1
  P  P16  1  0.596076  0.707511  0.500000  1
  P  P17  1  0.886597  0.594621  0.000000  1
  P  P18  1  0.405057  0.291845  0.000000  1
  P  P19  1  0.291515  0.889719  0.500000  1
  P  P20  1  0.111803  0.404012  0.500000  1
