# generated using pymatgen
data_Tm3Cu4(SiSn)2
_symmetry_space_group_name_H-M   'P 1'
_cell_length_a   8.13513489
_cell_length_b   8.13513520
_cell_length_c   8.13513477
_cell_angle_alpha   149.37552346
_cell_angle_beta   132.05199949
_cell_angle_gamma   57.97229323
_symmetry_Int_Tables_number   1
_chemical_formula_structural   Tm3Cu4(SiSn)2
_chemical_formula_sum   'Tm3 Cu4 Si2 Sn2'
_cell_volume   202.13247886
_cell_formula_units_Z   1
loop_
 _symmetry_equiv_pos_site_id
 _symmetry_equiv_pos_as_xyz
  1  'x, y, z'
loop_
 _atom_site_type_symbol
 _atom_site_label
 _atom_site_symmetry_multiplicity
 _atom_site_fract_x
 _atom_site_fract_y
 _atom_site_fract_z
 _atom_site_occupancy
  Tm  Tm0  1  0.500000  0.000000  0.500000  1
  Tm  Tm1  1  0.123190  0.123190  0.000000  1
  Tm  Tm2  1  0.876810  0.876810  0.000000  1
  Cu  Cu3  1  0.463228  0.653197  0.810031  1
  Cu  Cu4  1  0.843165  0.653197  0.189969  1
  Cu  Cu5  1  0.156835  0.346803  0.810031  1
  Cu  Cu6  1  0.536772  0.346803  0.189969  1
  Si  Si7  1  0.181628  0.500000  0.681628  1
  Si  Si8  1  0.818372  0.500000  0.318372  1
  Sn  Sn9  1  0.718627  0.218627  0.500000  1
  Sn  Sn10  1  0.281373  0.781373  0.500000  1
