# generated using pymatgen
data_Ho5Hf3(P3Pd4)4
_symmetry_space_group_name_H-M   'P 1'
_cell_length_a   13.13196800
_cell_length_b   13.13196773
_cell_length_c   3.98202600
_cell_angle_alpha   90.00000000
_cell_angle_beta   90.00000000
_cell_angle_gamma   120.00000572
_symmetry_Int_Tables_number   1
_chemical_formula_structural   Ho5Hf3(P3Pd4)4
_chemical_formula_sum   'Ho5 Hf3 P12 Pd16'
_cell_volume   594.69504588
_cell_formula_units_Z   1
loop_
 _symmetry_equiv_pos_site_id
 _symmetry_equiv_pos_as_xyz
  1  'x, y, z'
loop_
 _atom_site_type_symbol
 _atom_site_label
 _atom_site_symmetry_multiplicity
 _atom_site_fract_x
 _atom_site_fract_y
 _atom_site_fract_z
 _atom_site_occupancy
  Ho  Ho0  1  0.666667  0.333333  0.000000  1
  Ho  Ho1  1  0.333333  0.666667  0.000000  1
  Ho  Ho2  1  0.812350  0.812350  0.500000  1
  Ho  Ho3  1  0.187650  0.000000  0.500000  1
  Ho  Ho4  1  0.000000  0.187650  0.500000  1
  Hf  Hf5  1  0.447444  0.447444  0.000000  1
  Hf  Hf6  1  0.552556  0.000000  0.000000  1
  Hf  Hf7  1  0.000000  0.552556  0.000000  1
  P  P8  1  0.683145  0.164877  0.500000  1
  P  P9  1  0.835123  0.518268  0.500000  1
  P  P10  1  0.481732  0.316855  0.500000  1
  P  P11  1  0.164877  0.683145  0.500000  1
  P  P12  1  0.518268  0.835123  0.500000  1
  P  P13  1  0.316855  0.481732  0.500000  1
  P  P14  1  0.173347  0.173347  0.000000  1
  P  P15  1  0.826653  0.000000  0.000000  1
  P  P16  1  0.000000  0.826653  0.000000  1
  P  P17  1  0.643987  0.643987  0.000000  1
  P  P18  1  0.356013  0.000000  0.000000  1
  P  P19  1  0.000000  0.356013  0.000000  1
  Pd  Pd20  1  0.868753  0.357903  0.500000  1
  Pd  Pd21  1  0.642097  0.510850  0.500000  1
  Pd  Pd22  1  0.489150  0.131247  0.500000  1
  Pd  Pd23  1  0.357903  0.868753  0.500000  1
  Pd  Pd24  1  0.510850  0.642097  0.500000  1
  Pd  Pd25  1  0.131247  0.489150  0.500000  1
  Pd  Pd26  1  0.808148  0.182361  0.000000  1
  Pd  Pd27  1  0.817639  0.625786  0.000000  1
  Pd  Pd28  1  0.374214  0.191852  0.000000  1
  Pd  Pd29  1  0.182361  0.808148  0.000000  1
  Pd  Pd30  1  0.625786  0.817639  0.000000  1
  Pd  Pd31  1  0.191852  0.374214  0.000000  1
  Pd  Pd32  1  0.275071  0.275071  0.500000  1
  Pd  Pd33  1  0.724929  0.000000  0.500000  1
  Pd  Pd34  1  0.000000  0.724929  0.500000  1
  Pd  Pd35  1  0.000000  0.000000  0.000000  1
