# generated using pymatgen
data_Tb2CeHo(AsPt)4
_symmetry_space_group_name_H-M   'P 1'
_cell_length_a   4.29220600
_cell_length_b   4.29220649
_cell_length_c   15.57902200
_cell_angle_alpha   90.00000000
_cell_angle_beta   90.00000000
_cell_angle_gamma   119.99999622
_symmetry_Int_Tables_number   1
_chemical_formula_structural   Tb2CeHo(AsPt)4
_chemical_formula_sum   'Tb2 Ce1 Ho1 As4 Pt4'
_cell_volume   248.56043656
_cell_formula_units_Z   1
loop_
 _symmetry_equiv_pos_site_id
 _symmetry_equiv_pos_as_xyz
  1  'x, y, z'
loop_
 _atom_site_type_symbol
 _atom_site_label
 _atom_site_symmetry_multiplicity
 _atom_site_fract_x
 _atom_site_fract_y
 _atom_site_fract_z
 _atom_site_occupancy
  Tb  Tb0  1  0.000000  0.000000  0.999369  1
  Tb  Tb1  1  0.000000  0.000000  0.246941  1
  Ce  Ce2  1  0.000000  0.000000  0.500577  1
  Ho  Ho3  1  0.000000  0.000000  0.753114  1
  As  As4  1  0.333333  0.666667  0.886733  1
  As  As5  1  0.666667  0.333333  0.112930  1
  As  As6  1  0.666667  0.333333  0.384749  1
  As  As7  1  0.333333  0.666667  0.615471  1
  Pt  Pt8  1  0.333333  0.666667  0.359506  1
  Pt  Pt9  1  0.666667  0.333333  0.643359  1
  Pt  Pt10  1  0.666667  0.333333  0.859124  1
  Pt  Pt11  1  0.333333  0.666667  0.138129  1
