# generated using pymatgen
data_Y3Lu17(Cd3Pt)2
_symmetry_space_group_name_H-M   'P 1'
_cell_length_a   9.53443800
_cell_length_b   9.53443618
_cell_length_c   9.57796200
_cell_angle_alpha   90.00000000
_cell_angle_beta   90.00000000
_cell_angle_gamma   119.99999936
_symmetry_Int_Tables_number   1
_chemical_formula_structural   Y3Lu17(Cd3Pt)2
_chemical_formula_sum   'Y3 Lu17 Cd6 Pt2'
_cell_volume   754.03908796
_cell_formula_units_Z   1
loop_
 _symmetry_equiv_pos_site_id
 _symmetry_equiv_pos_as_xyz
  1  'x, y, z'
loop_
 _atom_site_type_symbol
 _atom_site_label
 _atom_site_symmetry_multiplicity
 _atom_site_fract_x
 _atom_site_fract_y
 _atom_site_fract_z
 _atom_site_occupancy
  Y  Y0  1  0.458877  0.541123  0.250000  1
  Y  Y1  1  0.458877  0.917755  0.250000  1
  Y  Y2  1  0.082245  0.541123  0.250000  1
  Lu  Lu3  1  0.207376  0.792624  0.939440  1
  Lu  Lu4  1  0.207376  0.414752  0.939440  1
  Lu  Lu5  1  0.585248  0.792624  0.939440  1
  Lu  Lu6  1  0.791319  0.208681  0.056123  1
  Lu  Lu7  1  0.791319  0.582638  0.056123  1
  Lu  Lu8  1  0.417362  0.208681  0.056123  1
  Lu  Lu9  1  0.791319  0.208681  0.443877  1
  Lu  Lu10  1  0.791319  0.582638  0.443877  1
  Lu  Lu11  1  0.417362  0.208681  0.443877  1
  Lu  Lu12  1  0.207376  0.792624  0.560560  1
  Lu  Lu13  1  0.207376  0.414752  0.560560  1
  Lu  Lu14  1  0.585248  0.792624  0.560560  1
  Lu  Lu15  1  0.542339  0.457661  0.750000  1
  Lu  Lu16  1  0.542339  0.084676  0.750000  1
  Lu  Lu17  1  0.915324  0.457661  0.750000  1
  Lu  Lu18  1  0.000000  0.000000  0.999903  1
  Lu  Lu19  1  0.000000  0.000000  0.500097  1
  Cd  Cd20  1  0.884421  0.115579  0.750000  1
  Cd  Cd21  1  0.884421  0.768845  0.750000  1
  Cd  Cd22  1  0.231155  0.115579  0.750000  1
  Cd  Cd23  1  0.113792  0.886208  0.250000  1
  Cd  Cd24  1  0.113792  0.227582  0.250000  1
  Cd  Cd25  1  0.772418  0.886208  0.250000  1
  Pt  Pt26  1  0.333333  0.666667  0.750000  1
  Pt  Pt27  1  0.666667  0.333333  0.250000  1
