# generated using pymatgen
data_RbNa2Pb4Au
_symmetry_space_group_name_H-M   'P 1'
_cell_length_a   7.01979900
_cell_length_b   6.90266700
_cell_length_c   11.29353600
_cell_angle_alpha   90.00000000
_cell_angle_beta   90.00000000
_cell_angle_gamma   90.00000000
_symmetry_Int_Tables_number   1
_chemical_formula_structural   RbNa2Pb4Au
_chemical_formula_sum   'Rb2 Na4 Pb8 Au2'
_cell_volume   547.23206913
_cell_formula_units_Z   2
loop_
 _symmetry_equiv_pos_site_id
 _symmetry_equiv_pos_as_xyz
  1  'x, y, z'
loop_
 _atom_site_type_symbol
 _atom_site_label
 _atom_site_symmetry_multiplicity
 _atom_site_fract_x
 _atom_site_fract_y
 _atom_site_fract_z
 _atom_site_occupancy
  Rb  Rb0  1  0.557278  0.000000  0.000000  1
  Rb  Rb1  1  0.442722  0.500000  0.500000  1
  Na  Na2  1  0.842411  0.500000  0.751893  1
  Na  Na3  1  0.842411  0.500000  0.248107  1
  Na  Na4  1  0.157589  0.000000  0.748107  1
  Na  Na5  1  0.157589  0.000000  0.251893  1
  Pb  Pb6  1  0.336705  0.500000  0.853018  1
  Pb  Pb7  1  0.336705  0.500000  0.146982  1
  Pb  Pb8  1  0.038913  0.255463  0.000000  1
  Pb  Pb9  1  0.038913  0.744537  0.000000  1
  Pb  Pb10  1  0.961087  0.755463  0.500000  1
  Pb  Pb11  1  0.961087  0.244537  0.500000  1
  Pb  Pb12  1  0.663295  0.000000  0.353018  1
  Pb  Pb13  1  0.663295  0.000000  0.646982  1
  Au  Au14  1  0.686036  0.500000  0.000000  1
  Au  Au15  1  0.313964  0.000000  0.500000  1
