# generated using pymatgen
data_Tm2Mo3P7(IrRh2)3
_symmetry_space_group_name_H-M   'P 1'
_cell_length_a   3.94445600
_cell_length_b   9.51928308
_cell_length_c   9.51909601
_cell_angle_alpha   120.00019817
_cell_angle_beta   90.00026819
_cell_angle_gamma   89.99961672
_symmetry_Int_Tables_number   1
_chemical_formula_structural   Tm2Mo3P7(IrRh2)3
_chemical_formula_sum   'Tm2 Mo3 P7 Ir3 Rh6'
_cell_volume   309.54003652
_cell_formula_units_Z   1
loop_
 _symmetry_equiv_pos_site_id
 _symmetry_equiv_pos_as_xyz
  1  'x, y, z'
loop_
 _atom_site_type_symbol
 _atom_site_label
 _atom_site_symmetry_multiplicity
 _atom_site_fract_x
 _atom_site_fract_y
 _atom_site_fract_z
 _atom_site_occupancy
  Tm  Tm0  1  0.261649  0.666649  0.333299  1
  Tm  Tm1  1  0.761980  0.333335  0.666672  1
  Mo  Mo2  1  0.761948  0.091934  0.868801  1
  Mo  Mo3  1  0.761949  0.131271  0.223282  1
  Mo  Mo4  1  0.761945  0.776790  0.907984  1
  P  P5  1  0.262182  0.000003  0.999963  1
  P  P6  1  0.761799  0.879763  0.592546  1
  P  P7  1  0.761806  0.407453  0.287217  1
  P  P8  1  0.761800  0.712784  0.120201  1
  P  P9  1  0.261923  0.120039  0.414548  1
  P  P10  1  0.261926  0.585474  0.705514  1
  P  P11  1  0.261914  0.294506  0.879988  1
  Ir  Ir12  1  0.261896  0.885489  0.160320  1
  Ir  Ir13  1  0.261900  0.839637  0.725073  1
  Ir  Ir14  1  0.261897  0.274892  0.114588  1
  Rh  Rh15  1  0.761923  0.611434  0.555369  1
  Rh  Rh16  1  0.761909  0.444586  0.056010  1
  Rh  Rh17  1  0.761915  0.943921  0.388552  1
  Rh  Rh18  1  0.261924  0.370883  0.440966  1
  Rh  Rh19  1  0.261904  0.559095  0.929957  1
  Rh  Rh20  1  0.261911  0.070062  0.629151  1
