# generated using pymatgen
data_Dy8MnCo19B8
_symmetry_space_group_name_H-M   'P 1'
_cell_length_a   5.09986600
_cell_length_b   5.09986642
_cell_length_c   19.87377500
_cell_angle_alpha   90.00000000
_cell_angle_beta   90.00000000
_cell_angle_gamma   119.99999726
_symmetry_Int_Tables_number   1
_chemical_formula_structural   Dy8MnCo19B8
_chemical_formula_sum   'Dy8 Mn1 Co19 B8'
_cell_volume   447.63968196
_cell_formula_units_Z   1
loop_
 _symmetry_equiv_pos_site_id
 _symmetry_equiv_pos_as_xyz
  1  'x, y, z'
loop_
 _atom_site_type_symbol
 _atom_site_label
 _atom_site_symmetry_multiplicity
 _atom_site_fract_x
 _atom_site_fract_y
 _atom_site_fract_z
 _atom_site_occupancy
  Dy  Dy0  1  0.666667  0.333333  0.824662  1
  Dy  Dy1  1  0.666667  0.333333  0.976195  1
  Dy  Dy2  1  0.333333  0.666667  0.477943  1
  Dy  Dy3  1  0.333333  0.666667  0.023805  1
  Dy  Dy4  1  0.333333  0.666667  0.175338  1
  Dy  Dy5  1  0.666667  0.333333  0.522057  1
  Dy  Dy6  1  0.666667  0.333333  0.674659  1
  Dy  Dy7  1  0.333333  0.666667  0.325341  1
  Mn  Mn8  1  0.000000  0.000000  0.000000  1
  Co  Co9  1  0.164566  0.329130  0.894520  1
  Co  Co10  1  0.162339  0.837661  0.605953  1
  Co  Co11  1  0.837661  0.162339  0.394047  1
  Co  Co12  1  0.334333  0.167166  0.249766  1
  Co  Co13  1  0.324674  0.162339  0.394047  1
  Co  Co14  1  0.835434  0.670870  0.105480  1
  Co  Co15  1  0.837661  0.675326  0.394047  1
  Co  Co16  1  0.832834  0.665667  0.249766  1
  Co  Co17  1  0.675326  0.837661  0.605953  1
  Co  Co18  1  0.665667  0.832834  0.750234  1
  Co  Co19  1  0.835434  0.164566  0.105480  1
  Co  Co20  1  0.670870  0.835434  0.894520  1
  Co  Co21  1  0.167166  0.334333  0.750234  1
  Co  Co22  1  0.167166  0.832834  0.750234  1
  Co  Co23  1  0.832834  0.167166  0.249766  1
  Co  Co24  1  0.329130  0.164566  0.105480  1
  Co  Co25  1  0.000000  0.000000  0.500000  1
  Co  Co26  1  0.164566  0.835434  0.894520  1
  Co  Co27  1  0.162339  0.324674  0.605953  1
  B  B28  1  0.333333  0.666667  0.825025  1
  B  B29  1  0.333333  0.666667  0.674711  1
  B  B30  1  0.666667  0.333333  0.325289  1
  B  B31  1  0.000000  0.000000  0.823557  1
  B  B32  1  0.666667  0.333333  0.174975  1
  B  B33  1  0.000000  0.000000  0.677299  1
  B  B34  1  0.000000  0.000000  0.322701  1
  B  B35  1  0.000000  0.000000  0.176443  1
