# generated using pymatgen
data_Y8Zn3Si12Rh
_symmetry_space_group_name_H-M   'P 1'
_cell_length_a   8.11826600
_cell_length_b   8.11826635
_cell_length_c   8.11891800
_cell_angle_alpha   90.00000000
_cell_angle_beta   90.00000000
_cell_angle_gamma   119.99999856
_symmetry_Int_Tables_number   1
_chemical_formula_structural   Y8Zn3Si12Rh
_chemical_formula_sum   'Y8 Zn3 Si12 Rh1'
_cell_volume   463.39929248
_cell_formula_units_Z   1
loop_
 _symmetry_equiv_pos_site_id
 _symmetry_equiv_pos_as_xyz
  1  'x, y, z'
loop_
 _atom_site_type_symbol
 _atom_site_label
 _atom_site_symmetry_multiplicity
 _atom_site_fract_x
 _atom_site_fract_y
 _atom_site_fract_z
 _atom_site_occupancy
  Y  Y0  1  0.000000  0.000000  0.248654  1
  Y  Y1  1  0.000000  0.000000  0.750993  1
  Y  Y2  1  0.000420  0.500209  0.249967  1
  Y  Y3  1  0.499791  0.500209  0.249967  1
  Y  Y4  1  0.501473  0.002946  0.749966  1
  Y  Y5  1  0.499791  0.999580  0.249967  1
  Y  Y6  1  0.501473  0.498527  0.749966  1
  Y  Y7  1  0.997054  0.498527  0.749966  1
  Zn  Zn8  1  0.333333  0.666667  0.994602  1
  Zn  Zn9  1  0.333333  0.666667  0.500509  1
  Zn  Zn10  1  0.666667  0.333333  0.007966  1
  Si  Si11  1  0.166440  0.332880  0.002111  1
  Si  Si12  1  0.667120  0.833560  0.002111  1
  Si  Si13  1  0.163162  0.326323  0.501844  1
  Si  Si14  1  0.333640  0.166820  0.997167  1
  Si  Si15  1  0.166440  0.833560  0.002111  1
  Si  Si16  1  0.673677  0.836838  0.501844  1
  Si  Si17  1  0.833180  0.666360  0.997167  1
  Si  Si18  1  0.340253  0.170127  0.497906  1
  Si  Si19  1  0.163162  0.836838  0.501844  1
  Si  Si20  1  0.829873  0.659747  0.497906  1
  Si  Si21  1  0.833180  0.166820  0.997167  1
  Si  Si22  1  0.829873  0.170127  0.497906  1
  Rh  Rh23  1  0.666667  0.333333  0.500391  1
