# generated using pymatgen
data_Lu16In6CoOs
_symmetry_space_group_name_H-M   'P 1'
_cell_length_a   10.18362042
_cell_length_b   10.18319400
_cell_length_c   6.88452184
_cell_angle_alpha   90.01111811
_cell_angle_beta   89.94649172
_cell_angle_gamma   119.97299191
_symmetry_Int_Tables_number   1
_chemical_formula_structural   Lu16In6CoOs
_chemical_formula_sum   'Lu16 In6 Co1 Os1'
_cell_volume   618.45563829
_cell_formula_units_Z   1
loop_
 _symmetry_equiv_pos_site_id
 _symmetry_equiv_pos_as_xyz
  1  'x, y, z'
loop_
 _atom_site_type_symbol
 _atom_site_label
 _atom_site_symmetry_multiplicity
 _atom_site_fract_x
 _atom_site_fract_y
 _atom_site_fract_z
 _atom_site_occupancy
  Lu  Lu0  1  0.467772  0.531946  0.481150  1
  Lu  Lu1  1  0.064419  0.532137  0.480714  1
  Lu  Lu2  1  0.467768  0.935664  0.480836  1
  Lu  Lu3  1  0.534648  0.465438  0.981252  1
  Lu  Lu4  1  0.930899  0.465513  0.981283  1
  Lu  Lu5  1  0.534686  0.069241  0.981148  1
  Lu  Lu6  1  0.820451  0.179436  0.274859  1
  Lu  Lu7  1  0.359089  0.179405  0.274622  1
  Lu  Lu8  1  0.820457  0.640845  0.275022  1
  Lu  Lu9  1  0.177462  0.822402  0.776131  1
  Lu  Lu10  1  0.644830  0.822571  0.776838  1
  Lu  Lu11  1  0.177656  0.355081  0.776369  1
  Lu  Lu12  1  0.333306  0.666608  0.103394  1
  Lu  Lu13  1  0.666856  0.333278  0.591530  1
  Lu  Lu14  1  0.000140  0.000009  0.494678  1
  Lu  Lu15  1  0.999846  0.999800  0.997152  1
  In  In16  1  0.162236  0.838454  0.234606  1
  In  In17  1  0.675889  0.837958  0.236967  1
  In  In18  1  0.161905  0.323755  0.234702  1
  In  In19  1  0.836589  0.164374  0.734314  1
  In  In20  1  0.327714  0.163672  0.734417  1
  In  In21  1  0.835848  0.672540  0.734524  1
  Co  Co22  1  0.666726  0.333316  0.205196  1
  Os  Os23  1  0.332807  0.666554  0.702847  1
