# generated using pymatgen
data_Dy5Lu(ThSn2)4
_symmetry_space_group_name_H-M   'P 1'
_cell_length_a   8.12825700
_cell_length_b   8.22437800
_cell_length_c   15.54796300
_cell_angle_alpha   90.00000000
_cell_angle_beta   90.00000000
_cell_angle_gamma   90.00000000
_symmetry_Int_Tables_number   1
_chemical_formula_structural   Dy5Lu(ThSn2)4
_chemical_formula_sum   'Dy10 Lu2 Th8 Sn16'
_cell_volume   1039.37911950
_cell_formula_units_Z   2
loop_
 _symmetry_equiv_pos_site_id
 _symmetry_equiv_pos_as_xyz
  1  'x, y, z'
loop_
 _atom_site_type_symbol
 _atom_site_label
 _atom_site_symmetry_multiplicity
 _atom_site_fract_x
 _atom_site_fract_y
 _atom_site_fract_z
 _atom_site_occupancy
  Dy  Dy0  1  0.361464  0.837263  0.876349  1
  Dy  Dy1  1  0.861464  0.662737  0.623651  1
  Dy  Dy2  1  0.638622  0.162714  0.375969  1
  Dy  Dy3  1  0.138622  0.337286  0.124031  1
  Dy  Dy4  1  0.638622  0.162714  0.124031  1
  Dy  Dy5  1  0.138622  0.337286  0.375969  1
  Dy  Dy6  1  0.361464  0.837263  0.623651  1
  Dy  Dy7  1  0.861464  0.662737  0.876349  1
  Dy  Dy8  1  0.191028  0.497652  0.750000  1
  Dy  Dy9  1  0.691028  0.002348  0.750000  1
  Lu  Lu10  1  0.808396  0.502049  0.250000  1
  Lu  Lu11  1  0.308396  0.997951  0.250000  1
  Th  Th12  1  0.518824  0.321019  0.903980  1
  Th  Th13  1  0.018824  0.178981  0.596020  1
  Th  Th14  1  0.481094  0.678621  0.403733  1
  Th  Th15  1  0.981094  0.821379  0.096267  1
  Th  Th16  1  0.481094  0.678621  0.096267  1
  Th  Th17  1  0.981094  0.821379  0.403733  1
  Th  Th18  1  0.518824  0.321019  0.596020  1
  Th  Th19  1  0.018824  0.178981  0.903980  1
  Sn  Sn20  1  0.298759  0.039293  0.043037  1
  Sn  Sn21  1  0.798759  0.460707  0.456963  1
  Sn  Sn22  1  0.701473  0.960477  0.541993  1
  Sn  Sn23  1  0.201473  0.539523  0.958007  1
  Sn  Sn24  1  0.701473  0.960477  0.958007  1
  Sn  Sn25  1  0.201473  0.539523  0.541993  1
  Sn  Sn26  1  0.298759  0.039293  0.456963  1
  Sn  Sn27  1  0.798759  0.460707  0.043037  1
  Sn  Sn28  1  0.557378  0.621723  0.750000  1
  Sn  Sn29  1  0.057378  0.878277  0.750000  1
  Sn  Sn30  1  0.443840  0.377848  0.250000  1
  Sn  Sn31  1  0.943840  0.122152  0.250000  1
  Sn  Sn32  1  0.325205  0.142971  0.750000  1
  Sn  Sn33  1  0.825205  0.357029  0.750000  1
  Sn  Sn34  1  0.673680  0.855590  0.250000  1
  Sn  Sn35  1  0.173680  0.644410  0.250000  1
