# generated using pymatgen
data_Y2As(Pd3Pt)2
_symmetry_space_group_name_H-M   'P 1'
_cell_length_a   4.13143800
_cell_length_b   4.13143800
_cell_length_c   11.27105300
_cell_angle_alpha   90.00000000
_cell_angle_beta   90.00000000
_cell_angle_gamma   90.00000000
_symmetry_Int_Tables_number   1
_chemical_formula_structural   Y2As(Pd3Pt)2
_chemical_formula_sum   'Y2 As1 Pd6 Pt2'
_cell_volume   192.38312344
_cell_formula_units_Z   1
loop_
 _symmetry_equiv_pos_site_id
 _symmetry_equiv_pos_as_xyz
  1  'x, y, z'
loop_
 _atom_site_type_symbol
 _atom_site_label
 _atom_site_symmetry_multiplicity
 _atom_site_fract_x
 _atom_site_fract_y
 _atom_site_fract_z
 _atom_site_occupancy
  Y  Y0  1  0.500000  0.500000  0.819264  1
  Y  Y1  1  0.500000  0.500000  0.180736  1
  As  As2  1  0.000000  0.000000  0.500000  1
  Pd  Pd3  1  0.500000  0.000000  0.630602  1
  Pd  Pd4  1  0.000000  0.500000  0.630602  1
  Pd  Pd5  1  0.500000  0.000000  0.369398  1
  Pd  Pd6  1  0.000000  0.500000  0.369398  1
  Pd  Pd7  1  0.000000  0.000000  0.816859  1
  Pd  Pd8  1  0.000000  0.000000  0.183141  1
  Pt  Pt9  1  0.500000  0.000000  0.000000  1
  Pt  Pt10  1  0.000000  0.500000  0.000000  1
