# generated using pymatgen
data_Ho4Tm4In3Fe
_symmetry_space_group_name_H-M   'P 1'
_cell_length_a   10.21934100
_cell_length_b   10.21933996
_cell_length_c   7.04226600
_cell_angle_alpha   90.00000000
_cell_angle_beta   90.00000000
_cell_angle_gamma   120.00000014
_symmetry_Int_Tables_number   1
_chemical_formula_structural   Ho4Tm4In3Fe
_chemical_formula_sum   'Ho8 Tm8 In6 Fe2'
_cell_volume   636.92573055
_cell_formula_units_Z   2
loop_
 _symmetry_equiv_pos_site_id
 _symmetry_equiv_pos_as_xyz
  1  'x, y, z'
loop_
 _atom_site_type_symbol
 _atom_site_label
 _atom_site_symmetry_multiplicity
 _atom_site_fract_x
 _atom_site_fract_y
 _atom_site_fract_z
 _atom_site_occupancy
  Ho  Ho0  1  0.464029  0.535971  0.213294  1
  Ho  Ho1  1  0.071941  0.535971  0.213294  1
  Ho  Ho2  1  0.464029  0.928059  0.213294  1
  Ho  Ho3  1  0.535971  0.464029  0.713294  1
  Ho  Ho4  1  0.928059  0.464029  0.713294  1
  Ho  Ho5  1  0.535971  0.071941  0.713294  1
  Ho  Ho6  1  0.000000  0.000000  0.228518  1
  Ho  Ho7  1  0.000000  0.000000  0.728518  1
  Tm  Tm8  1  0.178413  0.821587  0.508381  1
  Tm  Tm9  1  0.643172  0.821587  0.508381  1
  Tm  Tm10  1  0.178413  0.356828  0.508381  1
  Tm  Tm11  1  0.821587  0.178413  0.008381  1
  Tm  Tm12  1  0.356828  0.178413  0.008381  1
  Tm  Tm13  1  0.821587  0.643172  0.008381  1
  Tm  Tm14  1  0.333333  0.666667  0.820674  1
  Tm  Tm15  1  0.666667  0.333333  0.320674  1
  In  In16  1  0.163964  0.836036  0.959989  1
  In  In17  1  0.672072  0.836036  0.959989  1
  In  In18  1  0.163964  0.327928  0.959989  1
  In  In19  1  0.836036  0.163964  0.459989  1
  In  In20  1  0.327928  0.163964  0.459989  1
  In  In21  1  0.836036  0.672072  0.459989  1
  Fe  Fe22  1  0.333333  0.666667  0.442838  1
  Fe  Fe23  1  0.666667  0.333333  0.942838  1
