# generated using pymatgen
data_Eu4Tm2CrMoO14
_symmetry_space_group_name_H-M   'P 1'
_cell_length_a   6.39465018
_cell_length_b   6.47056671
_cell_length_c   7.49097503
_cell_angle_alpha   89.92003914
_cell_angle_beta   90.26380163
_cell_angle_gamma   110.41686786
_symmetry_Int_Tables_number   1
_chemical_formula_structural   Eu4Tm2CrMoO14
_chemical_formula_sum   'Eu4 Tm2 Cr1 Mo1 O14'
_cell_volume   290.47953904
_cell_formula_units_Z   1
loop_
 _symmetry_equiv_pos_site_id
 _symmetry_equiv_pos_as_xyz
  1  'x, y, z'
loop_
 _atom_site_type_symbol
 _atom_site_label
 _atom_site_symmetry_multiplicity
 _atom_site_fract_x
 _atom_site_fract_y
 _atom_site_fract_z
 _atom_site_occupancy
  Eu  Eu0  1  0.522539  0.065780  0.242326  1
  Eu  Eu1  1  0.477461  0.934220  0.757674  1
  Eu  Eu2  1  0.000000  0.000000  0.000000  1
  Eu  Eu3  1  0.000000  0.000000  0.500000  1
  Tm  Tm4  1  0.064942  0.516929  0.240518  1
  Tm  Tm5  1  0.935058  0.483071  0.759482  1
  Cr  Cr6  1  0.500000  0.500000  0.000000  1
  Mo  Mo7  1  0.500000  0.500000  0.500000  1
  O  O8  1  0.418109  0.437672  0.252043  1
  O  O9  1  0.581891  0.562328  0.747957  1
  O  O10  1  0.898477  0.162509  0.250788  1
  O  O11  1  0.101523  0.837491  0.749212  1
  O  O12  1  0.153086  0.877707  0.249704  1
  O  O13  1  0.846914  0.122293  0.750296  1
  O  O14  1  0.811263  0.541209  0.036617  1
  O  O15  1  0.188737  0.458791  0.963383  1
  O  O16  1  0.187657  0.457868  0.539315  1
  O  O17  1  0.572461  0.816639  0.465720  1
  O  O18  1  0.812343  0.542132  0.460685  1
  O  O19  1  0.427539  0.183361  0.534280  1
  O  O20  1  0.426857  0.187344  0.966232  1
  O  O21  1  0.573143  0.812656  0.033768  1
