# generated using pymatgen
data_LiTm4Sc3(B6Ir)4
_symmetry_space_group_name_H-M   'P 1'
_cell_length_a   3.52656200
_cell_length_b   8.93488347
_cell_length_c   11.29628511
_cell_angle_alpha   90.08514117
_cell_angle_beta   90.00000000
_cell_angle_gamma   90.00000000
_symmetry_Int_Tables_number   1
_chemical_formula_structural   LiTm4Sc3(B6Ir)4
_chemical_formula_sum   'Li1 Tm4 Sc3 B24 Ir4'
_cell_volume   355.93900496
_cell_formula_units_Z   1
loop_
 _symmetry_equiv_pos_site_id
 _symmetry_equiv_pos_as_xyz
  1  'x, y, z'
loop_
 _atom_site_type_symbol
 _atom_site_label
 _atom_site_symmetry_multiplicity
 _atom_site_fract_x
 _atom_site_fract_y
 _atom_site_fract_z
 _atom_site_occupancy
  Li  Li0  1  0.500000  0.446447  0.122021  1
  Tm  Tm1  1  0.500000  0.319865  0.412392  1
  Tm  Tm2  1  0.500000  0.680635  0.585563  1
  Tm  Tm3  1  0.500000  0.183000  0.915606  1
  Tm  Tm4  1  0.500000  0.816668  0.086502  1
  Sc  Sc5  1  0.500000  0.553296  0.880552  1
  Sc  Sc6  1  0.500000  0.055355  0.623632  1
  Sc  Sc7  1  0.500000  0.944868  0.375205  1
  B  B8  1  0.000000  0.101561  0.472370  1
  B  B9  1  0.000000  0.898578  0.527056  1
  B  B10  1  0.000000  0.400060  0.974339  1
  B  B11  1  0.000000  0.598731  0.028006  1
  B  B12  1  0.000000  0.130208  0.317235  1
  B  B13  1  0.000000  0.870207  0.681349  1
  B  B14  1  0.000000  0.369786  0.821399  1
  B  B15  1  0.000000  0.626342  0.180343  1
  B  B16  1  0.000000  0.055766  0.066336  1
  B  B17  1  0.000000  0.944862  0.935505  1
  B  B18  1  0.000000  0.444824  0.564578  1
  B  B19  1  0.000000  0.554900  0.433062  1
  B  B20  1  0.000000  0.481062  0.283168  1
  B  B21  1  0.000000  0.518531  0.715688  1
  B  B22  1  0.000000  0.019641  0.785384  1
  B  B23  1  0.000000  0.981214  0.214016  1
  B  B24  1  0.000000  0.257560  0.080829  1
  B  B25  1  0.000000  0.744936  0.922783  1
  B  B26  1  0.000000  0.246746  0.578485  1
  B  B27  1  0.000000  0.753521  0.419767  1
  B  B28  1  0.000000  0.296618  0.233780  1
  B  B29  1  0.000000  0.704261  0.765535  1
  B  B30  1  0.000000  0.205527  0.736563  1
  B  B31  1  0.000000  0.793069  0.264098  1
  Ir  Ir32  1  0.500000  0.142316  0.181362  1
  Ir  Ir33  1  0.500000  0.859658  0.817941  1
  Ir  Ir34  1  0.500000  0.360188  0.679064  1
  Ir  Ir35  1  0.500000  0.639191  0.318484  1
