# generated using pymatgen
data_Ho3Tm5Sc11Si16Au
_symmetry_space_group_name_H-M   'P 1'
_cell_length_a   6.97917961
_cell_length_b   7.36508680
_cell_length_c   13.97045971
_cell_angle_alpha   90.03620244
_cell_angle_beta   90.04368556
_cell_angle_gamma   89.84494191
_symmetry_Int_Tables_number   1
_chemical_formula_structural   Ho3Tm5Sc11Si16Au
_chemical_formula_sum   'Ho3 Tm5 Sc11 Si16 Au1'
_cell_volume   718.11027113
_cell_formula_units_Z   1
loop_
 _symmetry_equiv_pos_site_id
 _symmetry_equiv_pos_as_xyz
  1  'x, y, z'
loop_
 _atom_site_type_symbol
 _atom_site_label
 _atom_site_symmetry_multiplicity
 _atom_site_fract_x
 _atom_site_fract_y
 _atom_site_fract_z
 _atom_site_occupancy
  Ho  Ho0  1  0.010437  0.175937  0.095855  1
  Ho  Ho1  1  0.991024  0.813887  0.902071  1
  Ho  Ho2  1  0.486477  0.672961  0.902405  1
  Tm  Tm3  1  0.990808  0.813226  0.598152  1
  Tm  Tm4  1  0.509788  0.322504  0.096109  1
  Tm  Tm5  1  0.010728  0.176417  0.404020  1
  Tm  Tm6  1  0.509905  0.322400  0.404175  1
  Tm  Tm7  1  0.486395  0.673280  0.597725  1
  Sc  Sc8  1  0.838289  0.496728  0.250145  1
  Sc  Sc9  1  0.340770  0.004157  0.250090  1
  Sc  Sc10  1  0.655661  0.996747  0.749797  1
  Sc  Sc11  1  0.323516  0.182717  0.627417  1
  Sc  Sc12  1  0.671309  0.823951  0.375054  1
  Sc  Sc13  1  0.170473  0.678748  0.374016  1
  Sc  Sc14  1  0.671177  0.823866  0.125229  1
  Sc  Sc15  1  0.837609  0.327889  0.627316  1
  Sc  Sc16  1  0.323566  0.182745  0.872314  1
  Sc  Sc17  1  0.837712  0.327936  0.872359  1
  Sc  Sc18  1  0.170755  0.678433  0.126204  1
  Si  Si19  1  0.025070  0.091382  0.749623  1
  Si  Si20  1  0.969681  0.890494  0.250277  1
  Si  Si21  1  0.467758  0.614803  0.250125  1
  Si  Si22  1  0.534654  0.386772  0.749759  1
  Si  Si23  1  0.288225  0.877998  0.749495  1
  Si  Si24  1  0.713672  0.130880  0.250336  1
  Si  Si25  1  0.213458  0.369975  0.250299  1
  Si  Si26  1  0.777661  0.631145  0.749432  1
  Si  Si27  1  0.164175  0.459701  0.530610  1
  Si  Si28  1  0.841197  0.534961  0.462282  1
  Si  Si29  1  0.343423  0.965833  0.463218  1
  Si  Si30  1  0.840875  0.534881  0.037776  1
  Si  Si31  1  0.658694  0.033489  0.540450  1
  Si  Si32  1  0.163821  0.459239  0.969667  1
  Si  Si33  1  0.658225  0.034319  0.959679  1
  Si  Si34  1  0.343998  0.965981  0.036867  1
  Au  Au35  1  0.159013  0.523618  0.749654  1
