# generated using pymatgen
data_Hf3ScSi6Ir5Rh2
_symmetry_space_group_name_H-M   'P 1'
_cell_length_a   6.97850129
_cell_length_b   6.99289248
_cell_length_c   6.97837241
_cell_angle_alpha   109.54362179
_cell_angle_beta   109.41350510
_cell_angle_gamma   109.49788845
_symmetry_Int_Tables_number   1
_chemical_formula_structural   Hf3ScSi6Ir5Rh2
_chemical_formula_sum   'Hf3 Sc1 Si6 Ir5 Rh2'
_cell_volume   262.01671076
_cell_formula_units_Z   1
loop_
 _symmetry_equiv_pos_site_id
 _symmetry_equiv_pos_as_xyz
  1  'x, y, z'
loop_
 _atom_site_type_symbol
 _atom_site_label
 _atom_site_symmetry_multiplicity
 _atom_site_fract_x
 _atom_site_fract_y
 _atom_site_fract_z
 _atom_site_occupancy
  Hf  Hf0  1  0.000408  0.000204  0.500204  1
  Hf  Hf1  1  0.499457  0.999214  0.999175  1
  Hf  Hf2  1  0.499457  0.500243  0.500281  1
  Sc  Sc3  1  0.000367  0.500184  0.000184  1
  Si  Si4  1  0.682899  0.680219  0.000306  1
  Si  Si5  1  0.317952  0.998198  0.317471  1
  Si  Si6  1  0.999090  0.319823  0.317722  1
  Si  Si7  1  0.317952  0.319754  0.000481  1
  Si  Si8  1  0.682899  0.002680  0.682593  1
  Si  Si9  1  0.999090  0.679266  0.681368  1
  Ir  Ir10  1  0.499418  0.249709  0.749709  1
  Ir  Ir11  1  0.249924  0.499596  0.748776  1
  Ir  Ir12  1  0.249924  0.750328  0.501147  1
  Ir  Ir13  1  0.502582  0.751291  0.251291  1
  Ir  Ir14  1  0.999913  0.999956  0.999956  1
  Rh  Rh15  1  0.749335  0.249815  0.498210  1
  Rh  Rh16  1  0.749335  0.499520  0.251126  1
