# generated using pymatgen
data_YEr2U5(ReB6)4
_symmetry_space_group_name_H-M   'P 1'
_cell_length_a   3.63302800
_cell_length_b   9.29326404
_cell_length_c   11.39900245
_cell_angle_alpha   89.94588590
_cell_angle_beta   90.00000000
_cell_angle_gamma   90.00000000
_symmetry_Int_Tables_number   1
_chemical_formula_structural   YEr2U5(ReB6)4
_chemical_formula_sum   'Y1 Er2 U5 Re4 B24'
_cell_volume   384.86079707
_cell_formula_units_Z   1
loop_
 _symmetry_equiv_pos_site_id
 _symmetry_equiv_pos_as_xyz
  1  'x, y, z'
loop_
 _atom_site_type_symbol
 _atom_site_label
 _atom_site_symmetry_multiplicity
 _atom_site_fract_x
 _atom_site_fract_y
 _atom_site_fract_z
 _atom_site_occupancy
  Y  Y0  1  0.000000  0.835444  0.093002  1
  Er  Er1  1  0.000000  0.336895  0.407747  1
  Er  Er2  1  0.000000  0.663371  0.591802  1
  U  U3  1  0.000000  0.163538  0.907168  1
  U  U4  1  0.000000  0.956321  0.397108  1
  U  U5  1  0.000000  0.042789  0.603231  1
  U  U6  1  0.000000  0.457524  0.103930  1
  U  U7  1  0.000000  0.543710  0.896969  1
  Re  Re8  1  0.000000  0.644801  0.319591  1
  Re  Re9  1  0.000000  0.353020  0.683162  1
  Re  Re10  1  0.000000  0.146353  0.178410  1
  Re  Re11  1  0.000000  0.857165  0.819095  1
  B  B12  1  0.500000  0.550911  0.431815  1
  B  B13  1  0.500000  0.448344  0.569247  1
  B  B14  1  0.500000  0.052578  0.067511  1
  B  B15  1  0.500000  0.950343  0.930284  1
  B  B16  1  0.500000  0.742582  0.423643  1
  B  B17  1  0.500000  0.257444  0.576419  1
  B  B18  1  0.500000  0.242842  0.075892  1
  B  B19  1  0.500000  0.756494  0.922525  1
  B  B20  1  0.500000  0.801941  0.275299  1
  B  B21  1  0.500000  0.196769  0.726325  1
  B  B22  1  0.500000  0.302416  0.225300  1
  B  B23  1  0.500000  0.697919  0.774398  1
  B  B24  1  0.500000  0.643375  0.188889  1
  B  B25  1  0.500000  0.355106  0.812052  1
  B  B26  1  0.500000  0.144463  0.311209  1
  B  B27  1  0.500000  0.855124  0.688109  1
  B  B28  1  0.500000  0.989140  0.219628  1
  B  B29  1  0.500000  0.013380  0.780951  1
  B  B30  1  0.500000  0.487767  0.281206  1
  B  B31  1  0.500000  0.512061  0.719235  1
  B  B32  1  0.500000  0.640393  0.038701  1
  B  B33  1  0.500000  0.357457  0.960491  1
  B  B34  1  0.500000  0.140989  0.460640  1
  B  B35  1  0.500000  0.859234  0.539017  1
