# generated using pymatgen
data_Rb3SrLuUTe6
_symmetry_space_group_name_H-M   'P 1'
_cell_length_a   8.00200840
_cell_length_b   8.00200895
_cell_length_c   8.97396251
_cell_angle_alpha   81.35953716
_cell_angle_beta   81.35953442
_cell_angle_gamma   119.96614951
_symmetry_Int_Tables_number   1
_chemical_formula_structural   Rb3SrLuUTe6
_chemical_formula_sum   'Rb3 Sr1 Lu1 U1 Te6'
_cell_volume   474.82844732
_cell_formula_units_Z   1
loop_
 _symmetry_equiv_pos_site_id
 _symmetry_equiv_pos_as_xyz
  1  'x, y, z'
loop_
 _atom_site_type_symbol
 _atom_site_label
 _atom_site_symmetry_multiplicity
 _atom_site_fract_x
 _atom_site_fract_y
 _atom_site_fract_z
 _atom_site_occupancy
  Rb  Rb0  1  0.657675  0.342325  0.500000  1
  Rb  Rb1  1  0.341688  0.658312  0.500000  1
  Rb  Rb2  1  0.000156  0.999844  0.500000  1
  Sr  Sr3  1  0.499976  0.500024  0.000000  1
  Lu  Lu4  1  0.832358  0.167642  0.000000  1
  U  U5  1  0.168073  0.831927  0.000000  1
  Te  Te6  1  0.789230  0.791190  0.199195  1
  Te  Te7  1  0.208810  0.210770  0.800805  1
  Te  Te8  1  0.433271  0.074713  0.202344  1
  Te  Te9  1  0.570773  0.927300  0.797146  1
  Te  Te10  1  0.925287  0.566729  0.797656  1
  Te  Te11  1  0.072700  0.429227  0.202854  1
