# generated using pymatgen
data_Dy3Ho4Hf3(Si5Ir2)4
_symmetry_space_group_name_H-M   'P 1'
_cell_length_a   12.55138523
_cell_length_b   12.55133489
_cell_length_c   4.19642900
_cell_angle_alpha   90.00000000
_cell_angle_beta   90.00000000
_cell_angle_gamma   90.01059521
_symmetry_Int_Tables_number   1
_chemical_formula_structural   Dy3Ho4Hf3(Si5Ir2)4
_chemical_formula_sum   'Dy3 Ho4 Hf3 Si20 Ir8'
_cell_volume   661.09131060
_cell_formula_units_Z   1
loop_
 _symmetry_equiv_pos_site_id
 _symmetry_equiv_pos_as_xyz
  1  'x, y, z'
loop_
 _atom_site_type_symbol
 _atom_site_label
 _atom_site_symmetry_multiplicity
 _atom_site_fract_x
 _atom_site_fract_y
 _atom_site_fract_z
 _atom_site_occupancy
  Dy  Dy0  1  0.118155  0.615624  0.500000  1
  Dy  Dy1  1  0.384090  0.115898  0.500000  1
  Dy  Dy2  1  0.611556  0.888432  0.500000  1
  Ho  Ho3  1  0.499737  0.501371  0.000000  1
  Ho  Ho4  1  0.998618  0.000387  0.000000  1
  Ho  Ho5  1  0.824592  0.675344  0.500000  1
  Ho  Ho6  1  0.884296  0.381777  0.500000  1
  Hf  Hf7  1  0.674136  0.174677  0.500000  1
  Hf  Hf8  1  0.325391  0.825924  0.500000  1
  Hf  Hf9  1  0.174649  0.325304  0.500000  1
  Si  Si10  1  0.565866  0.067834  0.000000  1
  Si  Si11  1  0.432180  0.934151  0.000000  1
  Si  Si12  1  0.067503  0.432441  0.000000  1
  Si  Si13  1  0.934579  0.565334  0.000000  1
  Si  Si14  1  0.661918  0.701871  0.000000  1
  Si  Si15  1  0.334865  0.299682  0.000000  1
  Si  Si16  1  0.166272  0.800453  0.000000  1
  Si  Si17  1  0.835119  0.200476  0.000000  1
  Si  Si18  1  0.299615  0.664854  0.000000  1
  Si  Si19  1  0.699618  0.333691  0.000000  1
  Si  Si20  1  0.200229  0.165174  0.000000  1
  Si  Si21  1  0.798064  0.838104  0.000000  1
  Si  Si22  1  0.656679  0.498072  0.500000  1
  Si  Si23  1  0.343609  0.490186  0.500000  1
  Si  Si24  1  0.156161  0.991652  0.500000  1
  Si  Si25  1  0.840892  0.004715  0.500000  1
  Si  Si26  1  0.495336  0.659102  0.500000  1
  Si  Si27  1  0.508368  0.343842  0.500000  1
  Si  Si28  1  0.009741  0.156524  0.500000  1
  Si  Si29  1  0.001856  0.843450  0.500000  1
  Ir  Ir30  1  0.744270  0.519084  0.000000  1
  Ir  Ir31  1  0.254366  0.477954  0.000000  1
  Ir  Ir32  1  0.245361  0.979393  0.000000  1
  Ir  Ir33  1  0.753216  0.024079  0.000000  1
  Ir  Ir34  1  0.475965  0.746780  0.000000  1
  Ir  Ir35  1  0.520656  0.254629  0.000000  1
  Ir  Ir36  1  0.021806  0.245816  0.000000  1
  Ir  Ir37  1  0.980666  0.755920  0.000000  1
