# generated using pymatgen
data_Ca5Pr2Nd3Ir4
_symmetry_space_group_name_H-M   'P 1'
_cell_length_a   8.72740181
_cell_length_b   8.88421136
_cell_length_c   7.48648352
_cell_angle_alpha   83.29741609
_cell_angle_beta   82.94159175
_cell_angle_gamma   44.89470549
_symmetry_Int_Tables_number   1
_chemical_formula_structural   Ca5Pr2Nd3Ir4
_chemical_formula_sum   'Ca5 Pr2 Nd3 Ir4'
_cell_volume   406.23132843
_cell_formula_units_Z   1
loop_
 _symmetry_equiv_pos_site_id
 _symmetry_equiv_pos_as_xyz
  1  'x, y, z'
loop_
 _atom_site_type_symbol
 _atom_site_label
 _atom_site_symmetry_multiplicity
 _atom_site_fract_x
 _atom_site_fract_y
 _atom_site_fract_z
 _atom_site_occupancy
  Ca  Ca0  1  0.016221  0.805235  0.916444  1
  Ca  Ca1  1  0.199492  0.984631  0.584763  1
  Ca  Ca2  1  0.986062  0.193857  0.082702  1
  Ca  Ca3  1  0.801693  0.014392  0.416004  1
  Ca  Ca4  1  0.353650  0.207949  0.815741  1
  Pr  Pr5  1  0.787431  0.651202  0.679367  1
  Pr  Pr6  1  0.640552  0.797050  0.181125  1
  Nd  Nd7  1  0.210977  0.353136  0.319159  1
  Nd  Nd8  1  0.565611  0.429292  0.750261  1
  Nd  Nd9  1  0.435046  0.563367  0.252662  1
  Ir  Ir10  1  0.178484  0.593961  0.572945  1
  Ir  Ir11  1  0.412598  0.802696  0.927313  1
  Ir  Ir12  1  0.818955  0.416815  0.422802  1
  Ir  Ir13  1  0.593229  0.186418  0.078714  1
