# generated using pymatgen
data_Y3HoGa16Co2Tc
_symmetry_space_group_name_H-M   'P 1'
_cell_length_a   6.07730700
_cell_length_b   6.07542300
_cell_length_c   11.21024100
_cell_angle_alpha   90.00000000
_cell_angle_beta   90.00000000
_cell_angle_gamma   90.00000000
_symmetry_Int_Tables_number   1
_chemical_formula_structural   Y3HoGa16Co2Tc
_chemical_formula_sum   'Y3 Ho1 Ga16 Co2 Tc1'
_cell_volume   413.90688049
_cell_formula_units_Z   1
loop_
 _symmetry_equiv_pos_site_id
 _symmetry_equiv_pos_as_xyz
  1  'x, y, z'
loop_
 _atom_site_type_symbol
 _atom_site_label
 _atom_site_symmetry_multiplicity
 _atom_site_fract_x
 _atom_site_fract_y
 _atom_site_fract_z
 _atom_site_occupancy
  Y  Y0  1  0.000000  0.500000  0.806000  1
  Y  Y1  1  0.500000  0.000000  0.193992  1
  Y  Y2  1  0.000000  0.500000  0.193929  1
  Ho  Ho3  1  0.500000  0.000000  0.805900  1
  Ga  Ga4  1  0.249416  0.249018  0.614481  1
  Ga  Ga5  1  0.750584  0.750982  0.614481  1
  Ga  Ga6  1  0.750584  0.249018  0.614481  1
  Ga  Ga7  1  0.249416  0.750982  0.614481  1
  Ga  Ga8  1  0.750778  0.750771  0.385738  1
  Ga  Ga9  1  0.249222  0.249229  0.385738  1
  Ga  Ga10  1  0.249222  0.750771  0.385738  1
  Ga  Ga11  1  0.750778  0.249229  0.385738  1
  Ga  Ga12  1  0.287769  0.287341  0.999807  1
  Ga  Ga13  1  0.712231  0.712659  0.999807  1
  Ga  Ga14  1  0.712231  0.287341  0.999807  1
  Ga  Ga15  1  0.287769  0.712659  0.999807  1
  Ga  Ga16  1  0.500000  0.500000  0.801064  1
  Ga  Ga17  1  0.500000  0.500000  0.198953  1
  Ga  Ga18  1  0.000000  0.000000  0.774856  1
  Ga  Ga19  1  0.000000  0.000000  0.225163  1
  Co  Co20  1  0.500000  0.000000  0.500089  1
  Co  Co21  1  0.000000  0.500000  0.500015  1
  Tc  Tc22  1  0.000000  0.000000  0.999936  1
