# generated using pymatgen
data_Al11SiIr6
_symmetry_space_group_name_H-M   'P 1'
_cell_length_a   6.79160908
_cell_length_b   6.79160785
_cell_length_c   10.67731863
_cell_angle_alpha   90.09516086
_cell_angle_beta   89.90484899
_cell_angle_gamma   146.00785104
_symmetry_Int_Tables_number   1
_chemical_formula_structural   Al11SiIr6
_chemical_formula_sum   'Al11 Si1 Ir6'
_cell_volume   275.34693169
_cell_formula_units_Z   1
loop_
 _symmetry_equiv_pos_site_id
 _symmetry_equiv_pos_as_xyz
  1  'x, y, z'
loop_
 _atom_site_type_symbol
 _atom_site_label
 _atom_site_symmetry_multiplicity
 _atom_site_fract_x
 _atom_site_fract_y
 _atom_site_fract_z
 _atom_site_occupancy
  Al  Al0  1  0.560688  0.439312  0.608394  1
  Al  Al1  1  0.439984  0.560016  0.392506  1
  Al  Al2  1  0.440774  0.559226  0.106762  1
  Al  Al3  1  0.560805  0.439195  0.889530  1
  Al  Al4  1  0.178165  0.821835  0.515428  1
  Al  Al5  1  0.820956  0.179044  0.484462  1
  Al  Al6  1  0.759738  0.240262  0.751240  1
  Al  Al7  1  0.239645  0.760355  0.253635  1
  Al  Al8  1  0.956655  0.043345  0.750502  1
  Al  Al9  1  0.043423  0.956577  0.250410  1
  Al  Al10  1  0.177666  0.822334  0.984524  1
  Si  Si11  1  0.819798  0.180202  0.015260  1
  Ir  Ir12  1  0.359409  0.640591  0.623291  1
  Ir  Ir13  1  0.640692  0.359308  0.376495  1
  Ir  Ir14  1  0.644211  0.355789  0.120156  1
  Ir  Ir15  1  0.357737  0.642263  0.883193  1
  Ir  Ir16  1  0.854624  0.145376  0.243787  1
  Ir  Ir17  1  0.145030  0.854970  0.750426  1
