# generated using pymatgen
data_Nd2Lu2TcB12Os
_symmetry_space_group_name_H-M   'P 1'
_cell_length_a   3.68585100
_cell_length_b   9.17622365
_cell_length_c   11.63070701
_cell_angle_alpha   89.92353008
_cell_angle_beta   90.00000000
_cell_angle_gamma   90.00000000
_symmetry_Int_Tables_number   1
_chemical_formula_structural   Nd2Lu2TcB12Os
_chemical_formula_sum   'Nd4 Lu4 Tc2 B24 Os2'
_cell_volume   393.37566836
_cell_formula_units_Z   2
loop_
 _symmetry_equiv_pos_site_id
 _symmetry_equiv_pos_as_xyz
  1  'x, y, z'
loop_
 _atom_site_type_symbol
 _atom_site_label
 _atom_site_symmetry_multiplicity
 _atom_site_fract_x
 _atom_site_fract_y
 _atom_site_fract_z
 _atom_site_occupancy
  Nd  Nd0  1  0.000000  0.323676  0.415123  1
  Nd  Nd1  1  0.000000  0.676324  0.584877  1
  Nd  Nd2  1  0.000000  0.820801  0.086819  1
  Nd  Nd3  1  0.000000  0.179199  0.913181  1
  Lu  Lu4  1  0.000000  0.941864  0.370871  1
  Lu  Lu5  1  0.000000  0.058136  0.629129  1
  Lu  Lu6  1  0.000000  0.444212  0.129977  1
  Lu  Lu7  1  0.000000  0.555788  0.870023  1
  Tc  Tc8  1  0.000000  0.640125  0.318149  1
  Tc  Tc9  1  0.000000  0.359875  0.681851  1
  B  B10  1  0.500000  0.555298  0.430351  1
  B  B11  1  0.500000  0.444702  0.569649  1
  B  B12  1  0.500000  0.055988  0.069745  1
  B  B13  1  0.500000  0.944012  0.930255  1
  B  B14  1  0.500000  0.750890  0.416416  1
  B  B15  1  0.500000  0.249110  0.583584  1
  B  B16  1  0.500000  0.251131  0.083747  1
  B  B17  1  0.500000  0.748869  0.916253  1
  B  B18  1  0.500000  0.791740  0.266189  1
  B  B19  1  0.500000  0.208260  0.733810  1
  B  B20  1  0.500000  0.291128  0.233703  1
  B  B21  1  0.500000  0.708872  0.766298  1
  B  B22  1  0.500000  0.629427  0.185219  1
  B  B23  1  0.500000  0.370573  0.814781  1
  B  B24  1  0.500000  0.129019  0.314212  1
  B  B25  1  0.500000  0.870981  0.685788  1
  B  B26  1  0.500000  0.984070  0.213770  1
  B  B27  1  0.500000  0.015930  0.786230  1
  B  B28  1  0.500000  0.483886  0.285702  1
  B  B29  1  0.500000  0.516114  0.714298  1
  B  B30  1  0.500000  0.597942  0.026486  1
  B  B31  1  0.500000  0.402058  0.973514  1
  B  B32  1  0.500000  0.097464  0.473134  1
  B  B33  1  0.500000  0.902536  0.526866  1
  Os  Os34  1  0.000000  0.139398  0.180960  1
  Os  Os35  1  0.000000  0.860602  0.819040  1
