# generated using pymatgen
data_RhOF8
_symmetry_space_group_name_H-M   'P 1'
_cell_length_a   5.79707500
_cell_length_b   7.81217111
_cell_length_c   10.71720624
_cell_angle_alpha   44.51992940
_cell_angle_beta   90.00000000
_cell_angle_gamma   90.00000000
_symmetry_Int_Tables_number   1
_chemical_formula_structural   RhOF8
_chemical_formula_sum   'Rh2 O2 F16'
_cell_volume   340.31236039
_cell_formula_units_Z   2
loop_
 _symmetry_equiv_pos_site_id
 _symmetry_equiv_pos_as_xyz
  1  'x, y, z'
loop_
 _atom_site_type_symbol
 _atom_site_label
 _atom_site_symmetry_multiplicity
 _atom_site_fract_x
 _atom_site_fract_y
 _atom_site_fract_z
 _atom_site_occupancy
  Rh  Rh0  1  0.004211  0.500000  0.750000  1
  Rh  Rh1  1  0.995789  0.500000  0.250000  1
  O  O2  1  0.356854  0.000000  0.750000  1
  O  O3  1  0.643146  0.000000  0.250000  1
  F  F4  1  0.495318  0.853718  0.399391  1
  F  F5  1  0.504682  0.853718  0.899391  1
  F  F6  1  0.495318  0.146282  0.100609  1
  F  F7  1  0.504682  0.146282  0.600609  1
  F  F8  1  0.763414  0.345727  0.236675  1
  F  F9  1  0.005464  0.241231  0.999369  1
  F  F10  1  0.236586  0.345727  0.736675  1
  F  F11  1  0.223244  0.339064  0.239877  1
  F  F12  1  0.763414  0.654273  0.263325  1
  F  F13  1  0.776756  0.660936  0.760123  1
  F  F14  1  0.994536  0.241231  0.499369  1
  F  F15  1  0.776756  0.339064  0.739877  1
  F  F16  1  0.236586  0.654273  0.763325  1
  F  F17  1  0.005464  0.758769  0.500631  1
  F  F18  1  0.994536  0.758769  0.000631  1
  F  F19  1  0.223244  0.660936  0.260123  1
