# generated using pymatgen
data_Pr8ErLuPb6
_symmetry_space_group_name_H-M   'P 1'
_cell_length_a   9.37433200
_cell_length_b   9.37433230
_cell_length_c   6.88029600
_cell_angle_alpha   90.00000000
_cell_angle_beta   90.00000000
_cell_angle_gamma   119.99999895
_symmetry_Int_Tables_number   1
_chemical_formula_structural   Pr8ErLuPb6
_chemical_formula_sum   'Pr8 Er1 Lu1 Pb6'
_cell_volume   523.62266107
_cell_formula_units_Z   1
loop_
 _symmetry_equiv_pos_site_id
 _symmetry_equiv_pos_as_xyz
  1  'x, y, z'
loop_
 _atom_site_type_symbol
 _atom_site_label
 _atom_site_symmetry_multiplicity
 _atom_site_fract_x
 _atom_site_fract_y
 _atom_site_fract_z
 _atom_site_occupancy
  Pr  Pr0  1  0.333333  0.666667  0.500000  1
  Pr  Pr1  1  0.666667  0.333333  0.500000  1
  Pr  Pr2  1  0.759118  0.759209  0.752497  1
  Pr  Pr3  1  0.240791  0.999909  0.752497  1
  Pr  Pr4  1  0.000091  0.240882  0.752497  1
  Pr  Pr5  1  0.240791  0.240882  0.247503  1
  Pr  Pr6  1  0.759118  0.999909  0.247503  1
  Pr  Pr7  1  0.000091  0.759209  0.247503  1
  Er  Er8  1  0.666667  0.333333  0.000000  1
  Lu  Lu9  1  0.333333  0.666667  0.000000  1
  Pb  Pb10  1  0.396656  0.397020  0.759279  1
  Pb  Pb11  1  0.602980  0.999635  0.759279  1
  Pb  Pb12  1  0.000365  0.603344  0.759279  1
  Pb  Pb13  1  0.602980  0.603344  0.240721  1
  Pb  Pb14  1  0.396656  0.999635  0.240721  1
  Pb  Pb15  1  0.000365  0.397020  0.240721  1
