# generated using pymatgen
data_LaPa5(GaPt)6
_symmetry_space_group_name_H-M   'P 1'
_cell_length_a   7.15141528
_cell_length_b   7.11192985
_cell_length_c   8.32013531
_cell_angle_alpha   90.00513793
_cell_angle_beta   89.99218931
_cell_angle_gamma   119.81791713
_symmetry_Int_Tables_number   1
_chemical_formula_structural   LaPa5(GaPt)6
_chemical_formula_sum   'La1 Pa5 Ga6 Pt6'
_cell_volume   367.14227658
_cell_formula_units_Z   1
loop_
 _symmetry_equiv_pos_site_id
 _symmetry_equiv_pos_as_xyz
  1  'x, y, z'
loop_
 _atom_site_type_symbol
 _atom_site_label
 _atom_site_symmetry_multiplicity
 _atom_site_fract_x
 _atom_site_fract_y
 _atom_site_fract_z
 _atom_site_occupancy
  La  La0  1  0.000073  0.582067  0.750005  1
  Pa  Pa1  1  0.416826  0.416684  0.250001  1
  Pa  Pa2  1  0.579303  0.997348  0.750001  1
  Pa  Pa3  1  0.420558  0.419022  0.750000  1
  Pa  Pa4  1  0.998659  0.579664  0.249992  1
  Pa  Pa5  1  0.585171  0.001042  0.250001  1
  Ga  Ga6  1  0.242197  0.996997  0.999583  1
  Ga  Ga7  1  0.242199  0.997000  0.500419  1
  Ga  Ga8  1  0.999523  0.245243  0.495764  1
  Ga  Ga9  1  0.999526  0.245247  0.004234  1
  Ga  Ga10  1  0.758049  0.756133  0.999504  1
  Ga  Ga11  1  0.758044  0.756130  0.500498  1
  Pt  Pt12  1  0.655187  0.325328  0.494716  1
  Pt  Pt13  1  0.000727  0.021722  0.750004  1
  Pt  Pt14  1  0.655193  0.325334  0.005286  1
  Pt  Pt15  1  0.343588  0.668521  0.006357  1
  Pt  Pt16  1  0.343582  0.668516  0.493637  1
  Pt  Pt17  1  0.001595  0.998005  0.249998  1
