# generated using pymatgen
data_CeTh2(As2Rh3)3
_symmetry_space_group_name_H-M   'P 1'
_cell_length_a   4.05706000
_cell_length_b   8.51805623
_cell_length_c   9.96529900
_cell_angle_alpha   107.30988527
_cell_angle_beta   90.00000000
_cell_angle_gamma   103.77705835
_symmetry_Int_Tables_number   1
_chemical_formula_structural   CeTh2(As2Rh3)3
_chemical_formula_sum   'Ce1 Th2 As6 Rh9'
_cell_volume   318.39312923
_cell_formula_units_Z   1
loop_
 _symmetry_equiv_pos_site_id
 _symmetry_equiv_pos_as_xyz
  1  'x, y, z'
loop_
 _atom_site_type_symbol
 _atom_site_label
 _atom_site_symmetry_multiplicity
 _atom_site_fract_x
 _atom_site_fract_y
 _atom_site_fract_z
 _atom_site_occupancy
  Ce  Ce0  1  0.156808  0.313614  0.695292  1
  Th  Th1  1  0.842880  0.685760  0.304475  1
  Th  Th2  1  0.999320  0.998640  0.997989  1
  As  As3  1  0.801610  0.603219  0.868623  1
  As  As4  1  0.196478  0.392955  0.128250  1
  As  As5  1  0.541470  0.082942  0.776193  1
  As  As6  1  0.461727  0.923454  0.221002  1
  As  As7  1  0.636768  0.273538  0.451597  1
  As  As8  1  0.361995  0.723989  0.552857  1
  Rh  Rh9  1  0.957772  0.915547  0.666962  1
  Rh  Rh10  1  0.043072  0.086144  0.333270  1
  Rh  Rh11  1  0.778096  0.556190  0.609557  1
  Rh  Rh12  1  0.222365  0.444731  0.389354  1
  Rh  Rh13  1  0.381374  0.762749  0.805712  1
  Rh  Rh14  1  0.619812  0.239622  0.198142  1
  Rh  Rh15  1  0.497041  0.994082  0.496251  1
  Rh  Rh16  1  0.679986  0.359972  0.960919  1
  Rh  Rh17  1  0.321426  0.642850  0.043555  1
