# generated using pymatgen
data_YTm3Al4(CoO5)4
_symmetry_space_group_name_H-M   'P 1'
_cell_length_a   5.62258100
_cell_length_b   7.16277423
_cell_length_c   8.28688865
_cell_angle_alpha   89.90900327
_cell_angle_beta   90.00000000
_cell_angle_gamma   90.00000000
_symmetry_Int_Tables_number   1
_chemical_formula_structural   YTm3Al4(CoO5)4
_chemical_formula_sum   'Y1 Tm3 Al4 Co4 O20'
_cell_volume   333.73975171
_cell_formula_units_Z   1
loop_
 _symmetry_equiv_pos_site_id
 _symmetry_equiv_pos_as_xyz
  1  'x, y, z'
loop_
 _atom_site_type_symbol
 _atom_site_label
 _atom_site_symmetry_multiplicity
 _atom_site_fract_x
 _atom_site_fract_y
 _atom_site_fract_z
 _atom_site_occupancy
  Y  Y0  1  0.500000  0.864930  0.169158  1
  Tm  Tm1  1  0.500000  0.365675  0.331075  1
  Tm  Tm2  1  0.500000  0.635162  0.668954  1
  Tm  Tm3  1  0.500000  0.135426  0.830588  1
  Al  Al4  1  0.000000  0.109267  0.143318  1
  Al  Al5  1  0.000000  0.891831  0.856109  1
  Al  Al6  1  0.000000  0.392660  0.644098  1
  Al  Al7  1  0.000000  0.607853  0.357436  1
  Co  Co8  1  0.246401  0.001206  0.500445  1
  Co  Co9  1  0.753599  0.001206  0.500445  1
  Co  Co10  1  0.753600  0.498146  0.999196  1
  Co  Co11  1  0.246400  0.498146  0.999196  1
  O  O12  1  0.500000  0.336355  0.055994  1
  O  O13  1  0.500000  0.658622  0.942803  1
  O  O14  1  0.500000  0.162607  0.556999  1
  O  O15  1  0.500000  0.839736  0.446115  1
  O  O16  1  0.221530  0.001865  0.998714  1
  O  O17  1  0.778470  0.001865  0.998714  1
  O  O18  1  0.776800  0.501238  0.501294  1
  O  O19  1  0.223200  0.501238  0.501294  1
  O  O20  1  0.250872  0.109299  0.292379  1
  O  O21  1  0.747405  0.894352  0.708595  1
  O  O22  1  0.252595  0.894352  0.708595  1
  O  O23  1  0.747280  0.393451  0.791126  1
  O  O24  1  0.749128  0.109299  0.292379  1
  O  O25  1  0.251224  0.600218  0.209438  1
  O  O26  1  0.748776  0.600218  0.209438  1
  O  O27  1  0.252720  0.393451  0.791126  1
  O  O28  1  0.000000  0.345233  0.067702  1
  O  O29  1  0.000000  0.653917  0.928212  1
  O  O30  1  0.000000  0.153845  0.571977  1
  O  O31  1  0.000000  0.847331  0.427088  1
