# generated using pymatgen
data_Ho16In4Pd3Ru
_symmetry_space_group_name_H-M   'P 1'
_cell_length_a   9.68527317
_cell_length_b   9.68527231
_cell_length_c   9.68527415
_cell_angle_alpha   59.74836379
_cell_angle_beta   59.74836774
_cell_angle_gamma   59.74835971
_symmetry_Int_Tables_number   1
_chemical_formula_structural   Ho16In4Pd3Ru
_chemical_formula_sum   'Ho16 In4 Pd3 Ru1'
_cell_volume   638.75141306
_cell_formula_units_Z   1
loop_
 _symmetry_equiv_pos_site_id
 _symmetry_equiv_pos_as_xyz
  1  'x, y, z'
loop_
 _atom_site_type_symbol
 _atom_site_label
 _atom_site_symmetry_multiplicity
 _atom_site_fract_x
 _atom_site_fract_y
 _atom_site_fract_z
 _atom_site_occupancy
  Ho  Ho0  1  0.352864  0.352864  0.352864  1
  Ho  Ho1  1  0.349516  0.349516  0.945803  1
  Ho  Ho2  1  0.349516  0.945803  0.349516  1
  Ho  Ho3  1  0.945803  0.349516  0.349516  1
  Ho  Ho4  1  0.816936  0.188526  0.188526  1
  Ho  Ho5  1  0.189714  0.810206  0.810206  1
  Ho  Ho6  1  0.188526  0.816936  0.188526  1
  Ho  Ho7  1  0.810206  0.189714  0.810206  1
  Ho  Ho8  1  0.188526  0.188526  0.816936  1
  Ho  Ho9  1  0.810206  0.810206  0.189714  1
  Ho  Ho10  1  0.934349  0.564033  0.564033  1
  Ho  Ho11  1  0.558902  0.937940  0.937940  1
  Ho  Ho12  1  0.564033  0.934349  0.564033  1
  Ho  Ho13  1  0.937940  0.558902  0.937940  1
  Ho  Ho14  1  0.564033  0.564033  0.934349  1
  Ho  Ho15  1  0.937940  0.937940  0.558902  1
  In  In16  1  0.583384  0.583384  0.583384  1
  In  In17  1  0.582980  0.582980  0.250360  1
  In  In18  1  0.582980  0.250360  0.582980  1
  In  In19  1  0.250360  0.582980  0.582980  1
  Pd  Pd20  1  0.144327  0.144327  0.569338  1
  Pd  Pd21  1  0.144327  0.569338  0.144327  1
  Pd  Pd22  1  0.569338  0.144327  0.144327  1
  Ru  Ru23  1  0.143291  0.143291  0.143291  1
