# generated using pymatgen
data_KMn2(Sb6Pt)2
_symmetry_space_group_name_H-M   'P 1'
_cell_length_a   8.15197570
_cell_length_b   8.15027923
_cell_length_c   8.15197558
_cell_angle_alpha   109.56617448
_cell_angle_beta   109.45979951
_cell_angle_gamma   109.39617271
_symmetry_Int_Tables_number   1
_chemical_formula_structural   KMn2(Sb6Pt)2
_chemical_formula_sum   'K1 Mn2 Sb12 Pt2'
_cell_volume   416.89830227
_cell_formula_units_Z   1
loop_
 _symmetry_equiv_pos_site_id
 _symmetry_equiv_pos_as_xyz
  1  'x, y, z'
loop_
 _atom_site_type_symbol
 _atom_site_label
 _atom_site_symmetry_multiplicity
 _atom_site_fract_x
 _atom_site_fract_y
 _atom_site_fract_z
 _atom_site_occupancy
  K  K0  1  0.000000  0.000000  0.000000  1
  Mn  Mn1  1  0.000000  0.500000  0.000000  1
  Mn  Mn2  1  0.500000  0.500000  0.500000  1
  Sb  Sb3  1  0.649934  0.802717  0.152783  1
  Sb  Sb4  1  0.852073  0.351495  0.182979  1
  Sb  Sb5  1  0.501902  0.833422  0.650094  1
  Sb  Sb6  1  0.831485  0.648505  0.500579  1
  Sb  Sb7  1  0.498098  0.166578  0.349906  1
  Sb  Sb8  1  0.147927  0.648505  0.817021  1
  Sb  Sb9  1  0.816672  0.166578  0.668480  1
  Sb  Sb10  1  0.183328  0.833422  0.331520  1
  Sb  Sb11  1  0.168515  0.351495  0.499421  1
  Sb  Sb12  1  0.667981  0.504366  0.836386  1
  Sb  Sb13  1  0.332019  0.495634  0.163614  1
  Sb  Sb14  1  0.350066  0.197283  0.847217  1
  Pt  Pt15  1  0.000000  0.000000  0.500000  1
  Pt  Pt16  1  0.500000  0.000000  0.000000  1
