# generated using pymatgen
data_Tb7Dy9NiHg4Ru3
_symmetry_space_group_name_H-M   'P 1'
_cell_length_a   9.56638173
_cell_length_b   9.60023023
_cell_length_c   9.64704500
_cell_angle_alpha   59.83855429
_cell_angle_beta   59.72067561
_cell_angle_gamma   59.61574343
_symmetry_Int_Tables_number   1
_chemical_formula_structural   Tb7Dy9NiHg4Ru3
_chemical_formula_sum   'Tb7 Dy9 Ni1 Hg4 Ru3'
_cell_volume   622.56443513
_cell_formula_units_Z   1
loop_
 _symmetry_equiv_pos_site_id
 _symmetry_equiv_pos_as_xyz
  1  'x, y, z'
loop_
 _atom_site_type_symbol
 _atom_site_label
 _atom_site_symmetry_multiplicity
 _atom_site_fract_x
 _atom_site_fract_y
 _atom_site_fract_z
 _atom_site_occupancy
  Tb  Tb0  1  0.810133  0.810568  0.189649  1
  Tb  Tb1  1  0.938764  0.560478  0.560813  1
  Tb  Tb2  1  0.557516  0.938109  0.937676  1
  Tb  Tb3  1  0.557516  0.938109  0.566698  1
  Tb  Tb4  1  0.938764  0.560478  0.939944  1
  Tb  Tb5  1  0.557242  0.566722  0.938018  1
  Tb  Tb6  1  0.939099  0.940156  0.560372  1
  Dy  Dy7  1  0.351677  0.347226  0.346346  1
  Dy  Dy8  1  0.351677  0.347226  0.954752  1
  Dy  Dy9  1  0.351817  0.955851  0.346167  1
  Dy  Dy10  1  0.957062  0.347528  0.347706  1
  Dy  Dy11  1  0.810274  0.188904  0.189608  1
  Dy  Dy12  1  0.187575  0.810510  0.811020  1
  Dy  Dy13  1  0.187575  0.810510  0.190894  1
  Dy  Dy14  1  0.810274  0.188904  0.811216  1
  Dy  Dy15  1  0.188184  0.189311  0.811252  1
  Ni  Ni16  1  0.576881  0.142948  0.140086  1
  Hg  Hg17  1  0.582776  0.583783  0.584525  1
  Hg  Hg18  1  0.582776  0.583783  0.248916  1
  Hg  Hg19  1  0.583083  0.248310  0.584304  1
  Hg  Hg20  1  0.247152  0.583683  0.584582  1
  Ru  Ru21  1  0.143802  0.139397  0.138316  1
  Ru  Ru22  1  0.143802  0.139397  0.578485  1
  Ru  Ru23  1  0.144582  0.578111  0.138654  1
