# generated using pymatgen
data_Yb5Sm3(Si3Pd)4
_symmetry_space_group_name_H-M   'P 1'
_cell_length_a   8.25284835
_cell_length_b   8.25284781
_cell_length_c   8.24079000
_cell_angle_alpha   90.00000000
_cell_angle_beta   90.00000000
_cell_angle_gamma   120.17885695
_symmetry_Int_Tables_number   1
_chemical_formula_structural   Yb5Sm3(Si3Pd)4
_chemical_formula_sum   'Yb5 Sm3 Si12 Pd4'
_cell_volume   485.20094091
_cell_formula_units_Z   1
loop_
 _symmetry_equiv_pos_site_id
 _symmetry_equiv_pos_as_xyz
  1  'x, y, z'
loop_
 _atom_site_type_symbol
 _atom_site_label
 _atom_site_symmetry_multiplicity
 _atom_site_fract_x
 _atom_site_fract_y
 _atom_site_fract_z
 _atom_site_occupancy
  Yb  Yb0  1  0.501811  0.003359  0.250000  1
  Yb  Yb1  1  0.497990  0.996728  0.750000  1
  Yb  Yb2  1  0.996641  0.498189  0.250000  1
  Yb  Yb3  1  0.003272  0.502010  0.750000  1
  Yb  Yb4  1  0.501705  0.498295  0.250000  1
  Sm  Sm5  1  0.498472  0.501528  0.750000  1
  Sm  Sm6  1  0.999836  0.000164  0.250000  1
  Sm  Sm7  1  0.000075  0.999925  0.750000  1
  Si  Si8  1  0.164588  0.329138  0.999953  1
  Si  Si9  1  0.835442  0.670887  0.997723  1
  Si  Si10  1  0.670862  0.835412  0.999953  1
  Si  Si11  1  0.835442  0.670887  0.502277  1
  Si  Si12  1  0.329113  0.164558  0.997723  1
  Si  Si13  1  0.164588  0.329138  0.500047  1
  Si  Si14  1  0.164942  0.835058  0.000384  1
  Si  Si15  1  0.329113  0.164558  0.502277  1
  Si  Si16  1  0.835088  0.164912  0.996983  1
  Si  Si17  1  0.670862  0.835412  0.500047  1
  Si  Si18  1  0.835088  0.164912  0.503017  1
  Si  Si19  1  0.164942  0.835058  0.499616  1
  Pd  Pd20  1  0.333117  0.666883  0.003352  1
  Pd  Pd21  1  0.666947  0.333053  0.996371  1
  Pd  Pd22  1  0.666947  0.333053  0.503629  1
  Pd  Pd23  1  0.333117  0.666883  0.496648  1
