# generated using pymatgen
data_Ta2O2F11
_symmetry_space_group_name_H-M   'P 1'
_cell_length_a   5.52977738
_cell_length_b   6.40403228
_cell_length_c   8.12020789
_cell_angle_alpha   117.66529536
_cell_angle_beta   97.54874147
_cell_angle_gamma   90.70529922
_symmetry_Int_Tables_number   1
_chemical_formula_structural   Ta2O2F11
_chemical_formula_sum   'Ta2 O2 F11'
_cell_volume   251.59585962
_cell_formula_units_Z   1
loop_
 _symmetry_equiv_pos_site_id
 _symmetry_equiv_pos_as_xyz
  1  'x, y, z'
loop_
 _atom_site_type_symbol
 _atom_site_label
 _atom_site_symmetry_multiplicity
 _atom_site_fract_x
 _atom_site_fract_y
 _atom_site_fract_z
 _atom_site_occupancy
  Ta  Ta0  1  0.814391  0.847889  0.723305  1
  Ta  Ta1  1  0.185609  0.152111  0.276695  1
  O  O2  1  0.546738  0.587079  0.064882  1
  O  O3  1  0.453262  0.412921  0.935118  1
  F  F4  1  0.000000  0.000000  0.000000  1
  F  F5  1  0.100785  0.955507  0.669594  1
  F  F6  1  0.899215  0.044493  0.330406  1
  F  F7  1  0.949476  0.567898  0.699531  1
  F  F8  1  0.050524  0.432102  0.300469  1
  F  F9  1  0.636585  0.720669  0.481608  1
  F  F10  1  0.363415  0.279331  0.518392  1
  F  F11  1  0.551771  0.794722  0.832882  1
  F  F12  1  0.448229  0.205278  0.167118  1
  F  F13  1  0.719110  0.173459  0.803980  1
  F  F14  1  0.280890  0.826541  0.196020  1
