# generated using pymatgen
data_Na2Sc3Si12Ir19
_symmetry_space_group_name_H-M   'P 1'
_cell_length_a   12.76251400
_cell_length_b   12.76251371
_cell_length_c   3.94410300
_cell_angle_alpha   90.00000000
_cell_angle_beta   90.00000000
_cell_angle_gamma   120.00000076
_symmetry_Int_Tables_number   1
_chemical_formula_structural   Na2Sc3Si12Ir19
_chemical_formula_sum   'Na2 Sc3 Si12 Ir19'
_cell_volume   556.35414667
_cell_formula_units_Z   1
loop_
 _symmetry_equiv_pos_site_id
 _symmetry_equiv_pos_as_xyz
  1  'x, y, z'
loop_
 _atom_site_type_symbol
 _atom_site_label
 _atom_site_symmetry_multiplicity
 _atom_site_fract_x
 _atom_site_fract_y
 _atom_site_fract_z
 _atom_site_occupancy
  Na  Na0  1  0.333333  0.666667  0.000000  1
  Na  Na1  1  0.666667  0.333333  0.000000  1
  Sc  Sc2  1  0.820306  0.000000  0.500000  1
  Sc  Sc3  1  0.000000  0.820306  0.500000  1
  Sc  Sc4  1  0.179694  0.179694  0.500000  1
  Si  Si5  1  0.179250  0.000000  0.000000  1
  Si  Si6  1  0.000000  0.179250  0.000000  1
  Si  Si7  1  0.820750  0.820750  0.000000  1
  Si  Si8  1  0.167712  0.481977  0.500000  1
  Si  Si9  1  0.518023  0.685734  0.500000  1
  Si  Si10  1  0.314266  0.832288  0.500000  1
  Si  Si11  1  0.685734  0.518023  0.500000  1
  Si  Si12  1  0.832288  0.314266  0.500000  1
  Si  Si13  1  0.481977  0.167712  0.500000  1
  Si  Si14  1  0.631728  0.000000  0.000000  1
  Si  Si15  1  0.000000  0.631728  0.000000  1
  Si  Si16  1  0.368272  0.368272  0.000000  1
  Ir  Ir17  1  0.445749  0.000000  0.000000  1
  Ir  Ir18  1  0.000000  0.445749  0.000000  1
  Ir  Ir19  1  0.554251  0.554251  0.000000  1
  Ir  Ir20  1  0.358897  0.485143  0.500000  1
  Ir  Ir21  1  0.514857  0.873755  0.500000  1
  Ir  Ir22  1  0.126245  0.641103  0.500000  1
  Ir  Ir23  1  0.873755  0.514857  0.500000  1
  Ir  Ir24  1  0.641103  0.126245  0.500000  1
  Ir  Ir25  1  0.485143  0.358897  0.500000  1
  Ir  Ir26  1  0.182691  0.373389  0.000000  1
  Ir  Ir27  1  0.626611  0.809302  0.000000  1
  Ir  Ir28  1  0.190698  0.817309  0.000000  1
  Ir  Ir29  1  0.809302  0.626611  0.000000  1
  Ir  Ir30  1  0.817309  0.190698  0.000000  1
  Ir  Ir31  1  0.373389  0.182691  0.000000  1
  Ir  Ir32  1  0.280751  0.000000  0.500000  1
  Ir  Ir33  1  0.000000  0.280751  0.500000  1
  Ir  Ir34  1  0.719249  0.719249  0.500000  1
  Ir  Ir35  1  0.000000  0.000000  0.000000  1
