# generated using pymatgen
data_KRb2Sb(AsS2)6
_symmetry_space_group_name_H-M   'P 1'
_cell_length_a   9.63659900
_cell_length_b   9.63659915
_cell_length_c   8.01185400
_cell_angle_alpha   90.00000000
_cell_angle_beta   90.00000000
_cell_angle_gamma   119.99999606
_symmetry_Int_Tables_number   1
_chemical_formula_structural   KRb2Sb(AsS2)6
_chemical_formula_sum   'K1 Rb2 Sb1 As6 S12'
_cell_volume   644.33430911
_cell_formula_units_Z   1
loop_
 _symmetry_equiv_pos_site_id
 _symmetry_equiv_pos_as_xyz
  1  'x, y, z'
loop_
 _atom_site_type_symbol
 _atom_site_label
 _atom_site_symmetry_multiplicity
 _atom_site_fract_x
 _atom_site_fract_y
 _atom_site_fract_z
 _atom_site_occupancy
  K  K0  1  0.000000  0.000000  0.000000  1
  Rb  Rb1  1  0.333333  0.666667  0.870381  1
  Rb  Rb2  1  0.666667  0.333333  0.129619  1
  Sb  Sb3  1  0.000000  0.000000  0.500000  1
  As  As4  1  0.286691  0.836861  0.395946  1
  As  As5  1  0.163139  0.449829  0.395946  1
  As  As6  1  0.550171  0.713309  0.395946  1
  As  As7  1  0.713309  0.163139  0.604054  1
  As  As8  1  0.836861  0.550171  0.604054  1
  As  As9  1  0.449829  0.286691  0.604054  1
  S  S10  1  0.250834  0.032598  0.295881  1
  S  S11  1  0.967402  0.218234  0.295881  1
  S  S12  1  0.781766  0.749166  0.295881  1
  S  S13  1  0.749166  0.967402  0.704119  1
  S  S14  1  0.032598  0.781766  0.704119  1
  S  S15  1  0.218234  0.250834  0.704119  1
  S  S16  1  0.518676  0.901951  0.242891  1
  S  S17  1  0.098049  0.616723  0.242891  1
  S  S18  1  0.383277  0.481324  0.242891  1
  S  S19  1  0.481324  0.098049  0.757109  1
  S  S20  1  0.901951  0.383277  0.757109  1
  S  S21  1  0.616723  0.518676  0.757109  1
