# generated using pymatgen
data_Ho6Tm10TlIn5Co2
_symmetry_space_group_name_H-M   'P 1'
_cell_length_a   10.25377900
_cell_length_b   10.26516084
_cell_length_c   6.97211200
_cell_angle_alpha   90.00182667
_cell_angle_beta   90.00000000
_cell_angle_gamma   119.96333173
_symmetry_Int_Tables_number   1
_chemical_formula_structural   Ho6Tm10TlIn5Co2
_chemical_formula_sum   'Ho6 Tm10 Tl1 In5 Co2'
_cell_volume   635.77734511
_cell_formula_units_Z   1
loop_
 _symmetry_equiv_pos_site_id
 _symmetry_equiv_pos_as_xyz
  1  'x, y, z'
loop_
 _atom_site_type_symbol
 _atom_site_label
 _atom_site_symmetry_multiplicity
 _atom_site_fract_x
 _atom_site_fract_y
 _atom_site_fract_z
 _atom_site_occupancy
  Ho  Ho0  1  0.534365  0.068731  0.512952  1
  Ho  Ho1  1  0.931061  0.465430  0.512633  1
  Ho  Ho2  1  0.534367  0.465430  0.512633  1
  Ho  Ho3  1  0.465702  0.931401  0.013228  1
  Ho  Ho4  1  0.069460  0.533971  0.014017  1
  Ho  Ho5  1  0.464513  0.533971  0.014017  1
  Tm  Tm6  1  0.178435  0.356871  0.720509  1
  Tm  Tm7  1  0.643350  0.821640  0.720162  1
  Tm  Tm8  1  0.178289  0.821640  0.720162  1
  Tm  Tm9  1  0.821503  0.643005  0.218945  1
  Tm  Tm10  1  0.356853  0.178336  0.220459  1
  Tm  Tm11  1  0.821483  0.178336  0.220459  1
  Tm  Tm12  1  0.666511  0.333021  0.905077  1
  Tm  Tm13  1  0.333356  0.666712  0.404929  1
  Tm  Tm14  1  0.000482  0.000964  0.500293  1
  Tm  Tm15  1  0.000431  0.000863  0.002253  1
  Tl  Tl16  1  0.837083  0.674166  0.762943  1
  In  In17  1  0.325310  0.162641  0.761171  1
  In  In18  1  0.837331  0.162641  0.761171  1
  In  In19  1  0.162614  0.325228  0.261114  1
  In  In20  1  0.674619  0.837316  0.261357  1
  In  In21  1  0.162697  0.837316  0.261357  1
  Co  Co22  1  0.666857  0.333713  0.288111  1
  Co  Co23  1  0.333328  0.666656  0.788048  1
