# generated using pymatgen
data_LaZn7(GaNi)2
_symmetry_space_group_name_H-M   'P 1'
_cell_length_a   8.19770937
_cell_length_b   8.19872048
_cell_length_c   8.18537941
_cell_angle_alpha   99.58448903
_cell_angle_beta   99.57122854
_cell_angle_gamma   131.44296186
_symmetry_Int_Tables_number   1
_chemical_formula_structural   LaZn7(GaNi)2
_chemical_formula_sum   'La2 Zn14 Ga4 Ni4'
_cell_volume   377.12253656
_cell_formula_units_Z   2
loop_
 _symmetry_equiv_pos_site_id
 _symmetry_equiv_pos_as_xyz
  1  'x, y, z'
loop_
 _atom_site_type_symbol
 _atom_site_label
 _atom_site_symmetry_multiplicity
 _atom_site_fract_x
 _atom_site_fract_y
 _atom_site_fract_z
 _atom_site_occupancy
  La  La0  1  0.250935  0.748978  0.500218  1
  La  La1  1  0.000911  0.999424  0.999925  1
  Zn  Zn2  1  0.766540  0.183980  0.824329  1
  Zn  Zn3  1  0.485173  0.812388  0.922578  1
  Zn  Zn4  1  0.497092  0.502822  0.999978  1
  Zn  Zn5  1  0.768039  0.943439  0.582271  1
  Zn  Zn6  1  0.749905  0.250300  0.499995  1
  Zn  Zn7  1  0.055924  0.633234  0.820472  1
  Zn  Zn8  1  0.363685  0.184465  0.421870  1
  Zn  Zn9  1  0.815298  0.636107  0.578001  1
  Zn  Zn10  1  0.895674  0.815048  0.328693  1
  Zn  Zn11  1  0.185095  0.104432  0.671283  1
  Zn  Zn12  1  0.056468  0.231842  0.417687  1
  Zn  Zn13  1  0.366562  0.943850  0.179638  1
  Zn  Zn14  1  0.816039  0.233574  0.175667  1
  Zn  Zn15  1  0.187698  0.514951  0.077474  1
  Ga  Ga16  1  0.890895  0.567936  0.083094  1
  Ga  Ga17  1  0.436420  0.515794  0.320905  1
  Ga  Ga18  1  0.484327  0.563657  0.679133  1
  Ga  Ga19  1  0.432129  0.109110  0.916830  1
  Ni  Ni20  1  0.622968  0.872614  0.251920  1
  Ni  Ni21  1  0.127330  0.377038  0.748084  1
  Ni  Ni22  1  0.618879  0.373957  0.242885  1
  Ni  Ni23  1  0.626014  0.381059  0.757069  1
