# generated using pymatgen
data_Ti12SiAs3
_symmetry_space_group_name_H-M   'P 1'
_cell_length_a   5.08535434
_cell_length_b   7.62891381
_cell_length_c   7.63843078
_cell_angle_alpha   83.43184945
_cell_angle_beta   70.55117899
_cell_angle_gamma   70.56390824
_symmetry_Int_Tables_number   1
_chemical_formula_structural   Ti12SiAs3
_chemical_formula_sum   'Ti12 Si1 As3'
_cell_volume   263.50329827
_cell_formula_units_Z   1
loop_
 _symmetry_equiv_pos_site_id
 _symmetry_equiv_pos_as_xyz
  1  'x, y, z'
loop_
 _atom_site_type_symbol
 _atom_site_label
 _atom_site_symmetry_multiplicity
 _atom_site_fract_x
 _atom_site_fract_y
 _atom_site_fract_z
 _atom_site_occupancy
  Ti  Ti0  1  0.622371  0.387398  0.327820  1
  Ti  Ti1  1  0.336126  0.612375  0.669991  1
  Ti  Ti2  1  0.050191  0.330324  0.609090  1
  Ti  Ti3  1  0.994937  0.667221  0.387552  1
  Ti  Ti4  1  0.576007  0.394754  0.965994  1
  Ti  Ti5  1  0.942714  0.601411  0.036271  1
  Ti  Ti6  1  0.455507  0.965461  0.601469  1
  Ti  Ti7  1  0.025303  0.036089  0.397148  1
  Ti  Ti8  1  0.137882  0.189686  0.975752  1
  Ti  Ti9  1  0.297232  0.810837  0.027745  1
  Ti  Ti10  1  0.890430  0.973307  0.812494  1
  Ti  Ti11  1  0.672283  0.030406  0.187994  1
  Si  Si12  1  0.183652  0.330635  0.252062  1
  As  As13  1  0.763587  0.669890  0.749635  1
  As  As14  1  0.564300  0.251185  0.669335  1
  As  As15  1  0.487479  0.749019  0.329649  1
