# generated using pymatgen
data_NaDyNi9P7Ir3
_symmetry_space_group_name_H-M   'P 1'
_cell_length_a   9.19553100
_cell_length_b   9.19553086
_cell_length_c   3.73672800
_cell_angle_alpha   90.00000000
_cell_angle_beta   90.00000000
_cell_angle_gamma   120.00000409
_symmetry_Int_Tables_number   1
_chemical_formula_structural   NaDyNi9P7Ir3
_chemical_formula_sum   'Na1 Dy1 Ni9 P7 Ir3'
_cell_volume   273.63756632
_cell_formula_units_Z   1
loop_
 _symmetry_equiv_pos_site_id
 _symmetry_equiv_pos_as_xyz
  1  'x, y, z'
loop_
 _atom_site_type_symbol
 _atom_site_label
 _atom_site_symmetry_multiplicity
 _atom_site_fract_x
 _atom_site_fract_y
 _atom_site_fract_z
 _atom_site_occupancy
  Na  Na0  1  0.666667  0.333333  0.000000  1
  Dy  Dy1  1  0.000000  0.000000  0.500000  1
  Ni  Ni2  1  0.763905  0.730792  0.000000  1
  Ni  Ni3  1  0.269208  0.033114  0.000000  1
  Ni  Ni4  1  0.966886  0.236095  0.000000  1
  Ni  Ni5  1  0.529051  0.740659  0.500000  1
  Ni  Ni6  1  0.259341  0.788393  0.500000  1
  Ni  Ni7  1  0.211607  0.470949  0.500000  1
  Ni  Ni8  1  0.486229  0.939833  0.000000  1
  Ni  Ni9  1  0.060167  0.546397  0.000000  1
  Ni  Ni10  1  0.453603  0.513771  0.000000  1
  P  P11  1  0.443299  0.069096  0.500000  1
  P  P12  1  0.930904  0.374202  0.500000  1
  P  P13  1  0.625798  0.556701  0.500000  1
  P  P14  1  0.333333  0.666667  0.000000  1
  P  P15  1  0.744760  0.959070  0.000000  1
  P  P16  1  0.040930  0.785689  0.000000  1
  P  P17  1  0.214311  0.255240  0.000000  1
  Ir  Ir18  1  0.718162  0.092862  0.500000  1
  Ir  Ir19  1  0.907138  0.625301  0.500000  1
  Ir  Ir20  1  0.374699  0.281838  0.500000  1
