# generated using pymatgen
data_Ta4Ni(RhS6)2
_symmetry_space_group_name_H-M   'P 1'
_cell_length_a   6.80253163
_cell_length_b   6.80253228
_cell_length_c   18.71052319
_cell_angle_alpha   69.59483052
_cell_angle_beta   69.59482811
_cell_angle_gamma   29.06906075
_symmetry_Int_Tables_number   1
_chemical_formula_structural   Ta4Ni(RhS6)2
_chemical_formula_sum   'Ta4 Ni1 Rh2 S12'
_cell_volume   392.43505391
_cell_formula_units_Z   1
loop_
 _symmetry_equiv_pos_site_id
 _symmetry_equiv_pos_as_xyz
  1  'x, y, z'
loop_
 _atom_site_type_symbol
 _atom_site_label
 _atom_site_symmetry_multiplicity
 _atom_site_fract_x
 _atom_site_fract_y
 _atom_site_fract_z
 _atom_site_occupancy
  Ta  Ta0  1  0.619751  0.619751  0.854810  1
  Ta  Ta1  1  0.380249  0.380249  0.145190  1
  Ta  Ta2  1  0.743408  0.743408  0.594266  1
  Ta  Ta3  1  0.256592  0.256592  0.405734  1
  Ni  Ni4  1  0.000000  0.000000  0.000000  1
  Rh  Rh5  1  0.230049  0.230049  0.721105  1
  Rh  Rh6  1  0.769951  0.769951  0.278895  1
  S  S7  1  0.971835  0.971835  0.890797  1
  S  S8  1  0.028165  0.028165  0.109203  1
  S  S9  1  0.625585  0.625585  0.403211  1
  S  S10  1  0.374415  0.374415  0.596789  1
  S  S11  1  0.140398  0.140398  0.551365  1
  S  S12  1  0.859602  0.859602  0.448635  1
  S  S13  1  0.809014  0.809014  0.771248  1
  S  S14  1  0.190986  0.190986  0.228752  1
  S  S15  1  0.175808  0.175808  0.930816  1
  S  S16  1  0.824192  0.824192  0.069184  1
  S  S17  1  0.601036  0.601036  0.722678  1
  S  S18  1  0.398964  0.398964  0.277322  1
