# generated using pymatgen
data_Rb3TlS3
_symmetry_space_group_name_H-M   'P 1'
_cell_length_a   8.28509900
_cell_length_b   9.43125921
_cell_length_c   13.05802808
_cell_angle_alpha   84.30838558
_cell_angle_beta   90.00000000
_cell_angle_gamma   90.00000000
_symmetry_Int_Tables_number   1
_chemical_formula_structural   Rb3TlS3
_chemical_formula_sum   'Rb12 Tl4 S12'
_cell_volume   1015.30998274
_cell_formula_units_Z   4
loop_
 _symmetry_equiv_pos_site_id
 _symmetry_equiv_pos_as_xyz
  1  'x, y, z'
loop_
 _atom_site_type_symbol
 _atom_site_label
 _atom_site_symmetry_multiplicity
 _atom_site_fract_x
 _atom_site_fract_y
 _atom_site_fract_z
 _atom_site_occupancy
  Rb  Rb0  1  0.286709  0.382229  0.072889  1
  Rb  Rb1  1  0.655383  0.932169  0.133094  1
  Rb  Rb2  1  0.783609  0.332000  0.205404  1
  Rb  Rb3  1  0.283609  0.668000  0.294596  1
  Rb  Rb4  1  0.155383  0.067831  0.366906  1
  Rb  Rb5  1  0.786709  0.617771  0.427111  1
  Rb  Rb6  1  0.213291  0.382229  0.572889  1
  Rb  Rb7  1  0.844617  0.932169  0.633094  1
  Rb  Rb8  1  0.716391  0.332000  0.705404  1
  Rb  Rb9  1  0.216391  0.668000  0.794596  1
  Rb  Rb10  1  0.344617  0.067831  0.866906  1
  Rb  Rb11  1  0.713291  0.617771  0.927111  1
  Tl  Tl12  1  0.084663  0.828648  0.057535  1
  Tl  Tl13  1  0.584663  0.171352  0.442465  1
  Tl  Tl14  1  0.415337  0.828648  0.557535  1
  Tl  Tl15  1  0.915337  0.171352  0.942465  1
  S  S16  1  0.367764  0.745860  0.025984  1
  S  S17  1  0.057171  0.087743  0.119578  1
  S  S18  1  0.916279  0.651525  0.167224  1
  S  S19  1  0.416279  0.348475  0.332776  1
  S  S20  1  0.557171  0.912257  0.380422  1
  S  S21  1  0.867764  0.254140  0.474016  1
  S  S22  1  0.132236  0.745860  0.525984  1
  S  S23  1  0.442829  0.087743  0.619578  1
  S  S24  1  0.583721  0.651525  0.667224  1
  S  S25  1  0.083721  0.348475  0.832776  1
  S  S26  1  0.942829  0.912257  0.880422  1
  S  S27  1  0.632236  0.254140  0.974016  1
