# generated using pymatgen
data_LiTlPdSe5
_symmetry_space_group_name_H-M   'P 1'
_cell_length_a   7.73991500
_cell_length_b   6.19007702
_cell_length_c   9.14243500
_cell_angle_alpha   78.32533124
_cell_angle_beta   90.00000000
_cell_angle_gamma   90.00000000
_symmetry_Int_Tables_number   1
_chemical_formula_structural   LiTlPdSe5
_chemical_formula_sum   'Li2 Tl2 Pd2 Se10'
_cell_volume   428.95858676
_cell_formula_units_Z   2
loop_
 _symmetry_equiv_pos_site_id
 _symmetry_equiv_pos_as_xyz
  1  'x, y, z'
loop_
 _atom_site_type_symbol
 _atom_site_label
 _atom_site_symmetry_multiplicity
 _atom_site_fract_x
 _atom_site_fract_y
 _atom_site_fract_z
 _atom_site_occupancy
  Li  Li0  1  0.750000  0.864533  0.604102  1
  Li  Li1  1  0.250000  0.135467  0.395898  1
  Tl  Tl2  1  0.250000  0.252891  0.954993  1
  Tl  Tl3  1  0.750000  0.747109  0.045007  1
  Pd  Pd4  1  0.500000  0.500000  0.500000  1
  Pd  Pd5  1  0.000000  0.500000  0.500000  1
  Se  Se6  1  0.750000  0.282074  0.618420  1
  Se  Se7  1  0.250000  0.717926  0.381580  1
  Se  Se8  1  0.750000  0.302032  0.876247  1
  Se  Se9  1  0.250000  0.697968  0.123753  1
  Se  Se10  1  0.250000  0.936386  0.678509  1
  Se  Se11  1  0.750000  0.063614  0.321491  1
  Se  Se12  1  0.018701  0.663410  0.728095  1
  Se  Se13  1  0.518701  0.336590  0.271905  1
  Se  Se14  1  0.981299  0.336590  0.271905  1
  Se  Se15  1  0.481299  0.663410  0.728095  1
