# generated using pymatgen
data_Hf3ScNb2Si7Ni16
_symmetry_space_group_name_H-M   'P 1'
_cell_length_a   8.04900587
_cell_length_b   8.02515513
_cell_length_c   8.02514292
_cell_angle_alpha   60.11369643
_cell_angle_beta   59.91394399
_cell_angle_gamma   59.91390027
_symmetry_Int_Tables_number   1
_chemical_formula_structural   Hf3ScNb2Si7Ni16
_chemical_formula_sum   'Hf3 Sc1 Nb2 Si7 Ni16'
_cell_volume   366.38525856
_cell_formula_units_Z   1
loop_
 _symmetry_equiv_pos_site_id
 _symmetry_equiv_pos_as_xyz
  1  'x, y, z'
loop_
 _atom_site_type_symbol
 _atom_site_label
 _atom_site_symmetry_multiplicity
 _atom_site_fract_x
 _atom_site_fract_y
 _atom_site_fract_z
 _atom_site_occupancy
  Hf  Hf0  1  0.205394  0.207566  0.792675  1
  Hf  Hf1  1  0.794557  0.203604  0.203603  1
  Hf  Hf2  1  0.205394  0.792675  0.207565  1
  Sc  Sc3  1  0.202058  0.796118  0.796120  1
  Nb  Nb4  1  0.794155  0.203119  0.797402  1
  Nb  Nb5  1  0.794156  0.797401  0.203119  1
  Si  Si6  1  0.998748  0.502296  0.002326  1
  Si  Si7  1  0.496312  0.500582  0.500582  1
  Si  Si8  1  0.502329  0.498923  0.996199  1
  Si  Si9  1  0.502329  0.996199  0.498923  1
  Si  Si10  1  0.994987  0.499982  0.499981  1
  Si  Si11  1  0.998748  0.002326  0.502296  1
  Si  Si12  1  0.504316  0.999904  0.999904  1
  Ni  Ni13  1  0.167627  0.167675  0.167676  1
  Ni  Ni14  1  0.618490  0.618880  0.147015  1
  Ni  Ni15  1  0.381860  0.381656  0.381655  1
  Ni  Ni16  1  0.169134  0.496101  0.167649  1
  Ni  Ni17  1  0.169133  0.167649  0.496103  1
  Ni  Ni18  1  0.144625  0.617954  0.617954  1
  Ni  Ni19  1  0.618490  0.147015  0.618881  1
  Ni  Ni20  1  0.833054  0.830934  0.830935  1
  Ni  Ni21  1  0.850970  0.383892  0.383891  1
  Ni  Ni22  1  0.384831  0.379902  0.853576  1
  Ni  Ni23  1  0.384831  0.853576  0.379901  1
  Ni  Ni24  1  0.503332  0.832449  0.832449  1
  Ni  Ni25  1  0.619769  0.615887  0.615886  1
  Ni  Ni26  1  0.832844  0.832663  0.503825  1
  Ni  Ni27  1  0.494684  0.169248  0.169247  1
  Ni  Ni28  1  0.832843  0.503825  0.832663  1
