# generated using pymatgen
data_Dy7TmNb12Si15Ge
_symmetry_space_group_name_H-M   'P 1'
_cell_length_a   6.87792414
_cell_length_b   7.07412434
_cell_length_c   13.44330604
_cell_angle_alpha   90.06952243
_cell_angle_beta   89.92456268
_cell_angle_gamma   90.03703206
_symmetry_Int_Tables_number   1
_chemical_formula_structural   Dy7TmNb12Si15Ge
_chemical_formula_sum   'Dy7 Tm1 Nb12 Si15 Ge1'
_cell_volume   654.08677742
_cell_formula_units_Z   1
loop_
 _symmetry_equiv_pos_site_id
 _symmetry_equiv_pos_as_xyz
  1  'x, y, z'
loop_
 _atom_site_type_symbol
 _atom_site_label
 _atom_site_symmetry_multiplicity
 _atom_site_fract_x
 _atom_site_fract_y
 _atom_site_fract_z
 _atom_site_occupancy
  Dy  Dy0  1  0.002055  0.170925  0.403673  1
  Dy  Dy1  1  0.500004  0.673261  0.596474  1
  Dy  Dy2  1  0.996842  0.828375  0.904725  1
  Dy  Dy3  1  0.496754  0.671122  0.904677  1
  Dy  Dy4  1  0.996746  0.829363  0.596000  1
  Dy  Dy5  1  0.503584  0.327346  0.403377  1
  Dy  Dy6  1  0.003135  0.171915  0.095554  1
  Tm  Tm7  1  0.502822  0.328324  0.096051  1
  Nb  Nb8  1  0.664483  0.008540  0.750218  1
  Nb  Nb9  1  0.164439  0.490611  0.751956  1
  Nb  Nb10  1  0.335404  0.991704  0.249634  1
  Nb  Nb11  1  0.835203  0.508537  0.249593  1
  Nb  Nb12  1  0.836291  0.324301  0.625865  1
  Nb  Nb13  1  0.338344  0.175473  0.875015  1
  Nb  Nb14  1  0.162252  0.675112  0.125173  1
  Nb  Nb15  1  0.661535  0.825158  0.374021  1
  Nb  Nb16  1  0.160460  0.677593  0.372786  1
  Nb  Nb17  1  0.661146  0.824209  0.125233  1
  Nb  Nb18  1  0.837728  0.324624  0.874863  1
  Nb  Nb19  1  0.340495  0.171678  0.626736  1
  Si  Si20  1  0.797154  0.625476  0.750240  1
  Si  Si21  1  0.296079  0.873406  0.750635  1
  Si  Si22  1  0.203937  0.374275  0.249290  1
  Si  Si23  1  0.702981  0.126277  0.249127  1
  Si  Si24  1  0.542768  0.376279  0.750369  1
  Si  Si25  1  0.042799  0.124012  0.750137  1
  Si  Si26  1  0.456985  0.623356  0.249634  1
  Si  Si27  1  0.956179  0.876801  0.248997  1
  Si  Si28  1  0.663670  0.037569  0.540091  1
  Si  Si29  1  0.163259  0.462680  0.959796  1
  Si  Si30  1  0.337142  0.964122  0.040709  1
  Si  Si31  1  0.833059  0.538022  0.458714  1
  Si  Si32  1  0.336490  0.962432  0.459578  1
  Si  Si33  1  0.835956  0.536404  0.040899  1
  Si  Si34  1  0.662794  0.037705  0.959919  1
  Ge  Ge35  1  0.169027  0.463015  0.540241  1
