# generated using pymatgen
data_Dy2ErIn3HgPt2
_symmetry_space_group_name_H-M   'P 1'
_cell_length_a   7.72652335
_cell_length_b   7.73568513
_cell_length_c   3.97571500
_cell_angle_alpha   90.00000000
_cell_angle_beta   90.00000000
_cell_angle_gamma   120.06746609
_symmetry_Int_Tables_number   1
_chemical_formula_structural   Dy2ErIn3HgPt2
_chemical_formula_sum   'Dy2 Er1 In3 Hg1 Pt2'
_cell_volume   205.65209234
_cell_formula_units_Z   1
loop_
 _symmetry_equiv_pos_site_id
 _symmetry_equiv_pos_as_xyz
  1  'x, y, z'
loop_
 _atom_site_type_symbol
 _atom_site_label
 _atom_site_symmetry_multiplicity
 _atom_site_fract_x
 _atom_site_fract_y
 _atom_site_fract_z
 _atom_site_occupancy
  Dy  Dy0  1  0.608385  0.020073  0.500000  1
  Dy  Dy1  1  0.411725  0.392040  0.500000  1
  Er  Er2  1  0.979099  0.588204  0.500000  1
  In  In3  1  0.746594  0.744064  0.000000  1
  In  In4  1  0.997819  0.253346  0.000000  1
  In  In5  1  0.255630  0.002085  0.000000  1
  Hg  Hg6  1  0.331787  0.666358  0.000000  1
  Pt  Pt7  1  0.669026  0.335027  0.000000  1
  Pt  Pt8  1  0.999936  0.998804  0.500000  1
