# generated using pymatgen
data_Y3Tm17(CoSb2)4
_symmetry_space_group_name_H-M   'P 1'
_cell_length_a   7.78283301
_cell_length_b   8.72526100
_cell_length_c   12.08759810
_cell_angle_alpha   90.00000000
_cell_angle_beta   89.97900777
_cell_angle_gamma   90.00000000
_symmetry_Int_Tables_number   1
_chemical_formula_structural   Y3Tm17(CoSb2)4
_chemical_formula_sum   'Y3 Tm17 Co4 Sb8'
_cell_volume   820.83548325
_cell_formula_units_Z   1
loop_
 _symmetry_equiv_pos_site_id
 _symmetry_equiv_pos_as_xyz
  1  'x, y, z'
loop_
 _atom_site_type_symbol
 _atom_site_label
 _atom_site_symmetry_multiplicity
 _atom_site_fract_x
 _atom_site_fract_y
 _atom_site_fract_z
 _atom_site_occupancy
  Y  Y0  1  0.877521  0.750000  0.806802  1
  Y  Y1  1  0.377680  0.250000  0.693050  1
  Y  Y2  1  0.122580  0.250000  0.193340  1
  Tm  Tm3  1  0.155072  0.750000  0.203306  1
  Tm  Tm4  1  0.345427  0.750000  0.702906  1
  Tm  Tm5  1  0.845530  0.250000  0.797094  1
  Tm  Tm6  1  0.654671  0.250000  0.296897  1
  Tm  Tm7  1  0.450151  0.750000  0.998157  1
  Tm  Tm8  1  0.049514  0.750000  0.498004  1
  Tm  Tm9  1  0.549775  0.250000  0.002265  1
  Tm  Tm10  1  0.949835  0.250000  0.501706  1
  Tm  Tm11  1  0.620455  0.750000  0.308724  1
  Tm  Tm12  1  0.823173  0.536709  0.065636  1
  Tm  Tm13  1  0.676907  0.962800  0.564517  1
  Tm  Tm14  1  0.176687  0.036663  0.934759  1
  Tm  Tm15  1  0.323884  0.464520  0.434139  1
  Tm  Tm16  1  0.176687  0.463337  0.934759  1
  Tm  Tm17  1  0.323884  0.035480  0.434139  1
  Tm  Tm18  1  0.823173  0.963291  0.065636  1
  Tm  Tm19  1  0.676907  0.537200  0.564517  1
  Co  Co20  1  0.433700  0.750000  0.491134  1
  Co  Co21  1  0.067662  0.750000  0.992122  1
  Co  Co22  1  0.567299  0.250000  0.507706  1
  Co  Co23  1  0.932295  0.250000  0.008139  1
  Sb  Sb24  1  0.929120  0.509301  0.328158  1
  Sb  Sb25  1  0.569350  0.991561  0.828024  1
  Sb  Sb26  1  0.069672  0.008517  0.671720  1
  Sb  Sb27  1  0.431622  0.492440  0.172371  1
  Sb  Sb28  1  0.069672  0.491483  0.671720  1
  Sb  Sb29  1  0.431622  0.007560  0.172371  1
  Sb  Sb30  1  0.929120  0.990699  0.328158  1
  Sb  Sb31  1  0.569350  0.508439  0.828024  1
