# generated using pymatgen
data_Dy16MgIn3CoIr3
_symmetry_space_group_name_H-M   'P 1'
_cell_length_a   9.63861575
_cell_length_b   9.63861511
_cell_length_c   9.63861572
_cell_angle_alpha   60.22392041
_cell_angle_beta   60.22391414
_cell_angle_gamma   60.22392359
_symmetry_Int_Tables_number   1
_chemical_formula_structural   Dy16MgIn3CoIr3
_chemical_formula_sum   'Dy16 Mg1 In3 Co1 Ir3'
_cell_volume   636.39258257
_cell_formula_units_Z   1
loop_
 _symmetry_equiv_pos_site_id
 _symmetry_equiv_pos_as_xyz
  1  'x, y, z'
loop_
 _atom_site_type_symbol
 _atom_site_label
 _atom_site_symmetry_multiplicity
 _atom_site_fract_x
 _atom_site_fract_y
 _atom_site_fract_z
 _atom_site_occupancy
  Dy  Dy0  1  0.598440  0.598440  0.598440  1
  Dy  Dy1  1  0.596122  0.596122  0.207262  1
  Dy  Dy2  1  0.596122  0.207262  0.596122  1
  Dy  Dy3  1  0.207262  0.596122  0.596122  1
  Dy  Dy4  1  0.063513  0.440261  0.440261  1
  Dy  Dy5  1  0.438537  0.061265  0.061265  1
  Dy  Dy6  1  0.440261  0.063513  0.440261  1
  Dy  Dy7  1  0.061265  0.438537  0.061265  1
  Dy  Dy8  1  0.440261  0.440261  0.063513  1
  Dy  Dy9  1  0.061265  0.061265  0.438537  1
  Dy  Dy10  1  0.188732  0.811750  0.811750  1
  Dy  Dy11  1  0.811319  0.189465  0.189465  1
  Dy  Dy12  1  0.811750  0.188732  0.811750  1
  Dy  Dy13  1  0.189465  0.811319  0.189465  1
  Dy  Dy14  1  0.811750  0.811750  0.188732  1
  Dy  Dy15  1  0.189465  0.189465  0.811319  1
  Mg  Mg16  1  0.826519  0.826519  0.826519  1
  In  In17  1  0.832982  0.832982  0.501711  1
  In  In18  1  0.832982  0.501711  0.832982  1
  In  In19  1  0.501711  0.832982  0.832982  1
  Co  Co20  1  0.391322  0.391322  0.391322  1
  Ir  Ir21  1  0.391360  0.391360  0.826238  1
  Ir  Ir22  1  0.391360  0.826238  0.391360  1
  Ir  Ir23  1  0.826238  0.391360  0.391360  1
