# generated using pymatgen
data_TbDy19(NiTe)8
_symmetry_space_group_name_H-M   'P 1'
_cell_length_a   4.02186100
_cell_length_b   14.36827300
_cell_length_c   15.68508300
_cell_angle_alpha   90.00095705
_cell_angle_beta   90.00000000
_cell_angle_gamma   90.00000000
_symmetry_Int_Tables_number   1
_chemical_formula_structural   TbDy19(NiTe)8
_chemical_formula_sum   'Tb1 Dy19 Ni8 Te8'
_cell_volume   906.39697833
_cell_formula_units_Z   1
loop_
 _symmetry_equiv_pos_site_id
 _symmetry_equiv_pos_as_xyz
  1  'x, y, z'
loop_
 _atom_site_type_symbol
 _atom_site_label
 _atom_site_symmetry_multiplicity
 _atom_site_fract_x
 _atom_site_fract_y
 _atom_site_fract_z
 _atom_site_occupancy
  Tb  Tb0  1  0.750000  0.363480  0.494825  1
  Dy  Dy1  1  0.250000  0.149792  0.260107  1
  Dy  Dy2  1  0.250000  0.649745  0.239819  1
  Dy  Dy3  1  0.750000  0.850330  0.739834  1
  Dy  Dy4  1  0.750000  0.350357  0.760188  1
  Dy  Dy5  1  0.250000  0.886540  0.189987  1
  Dy  Dy6  1  0.250000  0.386579  0.309759  1
  Dy  Dy7  1  0.750000  0.113343  0.810039  1
  Dy  Dy8  1  0.750000  0.613365  0.689958  1
  Dy  Dy9  1  0.250000  0.882575  0.553718  1
  Dy  Dy10  1  0.250000  0.382573  0.946363  1
  Dy  Dy11  1  0.750000  0.117209  0.446208  1
  Dy  Dy12  1  0.750000  0.617413  0.053732  1
  Dy  Dy13  1  0.250000  0.208046  0.623487  1
  Dy  Dy14  1  0.250000  0.708189  0.876752  1
  Dy  Dy15  1  0.750000  0.791811  0.376629  1
  Dy  Dy16  1  0.750000  0.291727  0.123343  1
  Dy  Dy17  1  0.250000  0.137050  0.994871  1
  Dy  Dy18  1  0.250000  0.636995  0.505203  1
  Dy  Dy19  1  0.750000  0.863010  0.005277  1
  Ni  Ni20  1  0.250000  0.739530  0.675747  1
  Ni  Ni21  1  0.250000  0.239486  0.824235  1
  Ni  Ni22  1  0.750000  0.260458  0.324019  1
  Ni  Ni23  1  0.750000  0.760569  0.175745  1
  Ni  Ni24  1  0.250000  0.246440  0.432627  1
  Ni  Ni25  1  0.250000  0.746786  0.067254  1
  Ni  Ni26  1  0.750000  0.753208  0.567292  1
  Ni  Ni27  1  0.750000  0.253205  0.932795  1
  Te  Te28  1  0.250000  0.965383  0.372100  1
  Te  Te29  1  0.250000  0.465303  0.127866  1
  Te  Te30  1  0.750000  0.034605  0.627835  1
  Te  Te31  1  0.750000  0.534616  0.872176  1
  Te  Te32  1  0.250000  0.950692  0.872037  1
  Te  Te33  1  0.250000  0.450809  0.628277  1
  Te  Te34  1  0.750000  0.049326  0.128015  1
  Te  Te35  1  0.750000  0.549455  0.371880  1
