# generated using pymatgen
data_Tb3Fe8NiP6
_symmetry_space_group_name_H-M   'P 1'
_cell_length_a   3.72649700
_cell_length_b   10.51441600
_cell_length_c   12.24234500
_cell_angle_alpha   90.00000000
_cell_angle_beta   90.00000000
_cell_angle_gamma   90.00000000
_symmetry_Int_Tables_number   1
_chemical_formula_structural   Tb3Fe8NiP6
_chemical_formula_sum   'Tb6 Fe16 Ni2 P12'
_cell_volume   479.67882334
_cell_formula_units_Z   2
loop_
 _symmetry_equiv_pos_site_id
 _symmetry_equiv_pos_as_xyz
  1  'x, y, z'
loop_
 _atom_site_type_symbol
 _atom_site_label
 _atom_site_symmetry_multiplicity
 _atom_site_fract_x
 _atom_site_fract_y
 _atom_site_fract_z
 _atom_site_occupancy
  Tb  Tb0  1  0.000000  0.500000  0.522366  1
  Tb  Tb1  1  0.500000  0.000000  0.477634  1
  Tb  Tb2  1  0.500000  0.816991  0.206017  1
  Tb  Tb3  1  0.500000  0.183009  0.206017  1
  Tb  Tb4  1  0.000000  0.683009  0.793983  1
  Tb  Tb5  1  0.000000  0.316991  0.793983  1
  Fe  Fe6  1  0.500000  0.500000  0.152542  1
  Fe  Fe7  1  0.000000  0.000000  0.847458  1
  Fe  Fe8  1  0.000000  0.500000  0.988886  1
  Fe  Fe9  1  0.500000  0.000000  0.011114  1
  Fe  Fe10  1  0.500000  0.327637  0.996298  1
  Fe  Fe11  1  0.500000  0.672363  0.996298  1
  Fe  Fe12  1  0.000000  0.172363  0.003702  1
  Fe  Fe13  1  0.000000  0.827637  0.003702  1
  Fe  Fe14  1  0.500000  0.299507  0.429877  1
  Fe  Fe15  1  0.500000  0.700493  0.429877  1
  Fe  Fe16  1  0.000000  0.200493  0.570123  1
  Fe  Fe17  1  0.000000  0.799507  0.570123  1
  Fe  Fe18  1  0.500000  0.882532  0.710148  1
  Fe  Fe19  1  0.500000  0.117468  0.710148  1
  Fe  Fe20  1  0.000000  0.617468  0.289852  1
  Fe  Fe21  1  0.000000  0.382532  0.289852  1
  Ni  Ni22  1  0.500000  0.500000  0.701327  1
  Ni  Ni23  1  0.000000  0.000000  0.298673  1
  P  P24  1  0.500000  0.500000  0.886263  1
  P  P25  1  0.000000  0.000000  0.113737  1
  P  P26  1  0.500000  0.500000  0.340688  1
  P  P27  1  0.000000  0.000000  0.659312  1
  P  P28  1  0.500000  0.303966  0.613070  1
  P  P29  1  0.500000  0.696034  0.613070  1
  P  P30  1  0.000000  0.196034  0.386930  1
  P  P31  1  0.000000  0.803966  0.386930  1
  P  P32  1  0.500000  0.851515  0.889313  1
  P  P33  1  0.500000  0.148485  0.889313  1
  P  P34  1  0.000000  0.648485  0.110687  1
  P  P35  1  0.000000  0.351515  0.110687  1
