# generated using pymatgen
data_Rb2Cd(CO3)2
_symmetry_space_group_name_H-M   'P 1'
_cell_length_a   6.76993453
_cell_length_b   7.17945693
_cell_length_c   9.97681163
_cell_angle_alpha   99.20487200
_cell_angle_beta   70.16676955
_cell_angle_gamma   118.13037864
_symmetry_Int_Tables_number   1
_chemical_formula_structural   Rb2Cd(CO3)2
_chemical_formula_sum   'Rb4 Cd2 C4 O12'
_cell_volume   402.27188651
_cell_formula_units_Z   2
loop_
 _symmetry_equiv_pos_site_id
 _symmetry_equiv_pos_as_xyz
  1  'x, y, z'
loop_
 _atom_site_type_symbol
 _atom_site_label
 _atom_site_symmetry_multiplicity
 _atom_site_fract_x
 _atom_site_fract_y
 _atom_site_fract_z
 _atom_site_occupancy
  Rb  Rb0  1  0.697200  0.372717  0.114383  1
  Rb  Rb1  1  0.061584  0.872716  0.385617  1
  Rb  Rb2  1  0.574484  0.127284  0.614383  1
  Rb  Rb3  1  0.438867  0.627285  0.885618  1
  Cd  Cd4  1  0.940693  0.000000  0.000000  1
  Cd  Cd5  1  0.190694  0.500001  0.500000  1
  C  C6  1  0.103673  0.348222  0.244322  1
  C  C7  1  0.597997  0.848223  0.255679  1
  C  C8  1  0.005452  0.151777  0.744322  1
  C  C9  1  0.999773  0.651777  0.755678  1
  O  O10  1  0.105945  0.313013  0.111717  1
  O  O11  1  0.550987  0.923497  0.166745  1
  O  O12  1  0.784057  0.814342  0.211084  1
  O  O13  1  0.245140  0.314341  0.288916  1
  O  O14  1  0.967730  0.423496  0.333255  1
  O  O15  1  0.467661  0.813014  0.388283  1
  O  O16  1  0.042930  0.186987  0.611717  1
  O  O17  1  0.877490  0.576504  0.666745  1
  O  O18  1  0.219715  0.685659  0.711084  1
  O  O19  1  0.180799  0.185658  0.788916  1
  O  O20  1  0.794234  0.076503  0.833256  1
  O  O21  1  0.904647  0.686986  0.888283  1
