# generated using pymatgen
data_U4Mn6SiAs
_symmetry_space_group_name_H-M   'P 1'
_cell_length_a   5.20176800
_cell_length_b   5.20176903
_cell_length_c   7.82451100
_cell_angle_alpha   90.00000000
_cell_angle_beta   90.00000000
_cell_angle_gamma   119.99998073
_symmetry_Int_Tables_number   1
_chemical_formula_structural   U4Mn6SiAs
_chemical_formula_sum   'U4 Mn6 Si1 As1'
_cell_volume   183.35382099
_cell_formula_units_Z   1
loop_
 _symmetry_equiv_pos_site_id
 _symmetry_equiv_pos_as_xyz
  1  'x, y, z'
loop_
 _atom_site_type_symbol
 _atom_site_label
 _atom_site_symmetry_multiplicity
 _atom_site_fract_x
 _atom_site_fract_y
 _atom_site_fract_z
 _atom_site_occupancy
  U  U0  1  0.666667  0.333333  0.425288  1
  U  U1  1  0.333333  0.666667  0.574712  1
  U  U2  1  0.333333  0.666667  0.919340  1
  U  U3  1  0.666667  0.333333  0.080660  1
  Mn  Mn4  1  0.829536  0.170464  0.746732  1
  Mn  Mn5  1  0.170464  0.829536  0.253268  1
  Mn  Mn6  1  0.340929  0.170464  0.746732  1
  Mn  Mn7  1  0.659071  0.829536  0.253268  1
  Mn  Mn8  1  0.829536  0.659071  0.746732  1
  Mn  Mn9  1  0.170464  0.340929  0.253268  1
  Si  Si10  1  0.000000  0.000000  0.500000  1
  As  As11  1  0.000000  0.000000  0.000000  1
