# generated using pymatgen
data_Cs4GaSnAu7
_symmetry_space_group_name_H-M   'P 1'
_cell_length_a   10.69902901
_cell_length_b   10.69902844
_cell_length_c   10.69903001
_cell_angle_alpha   37.90783075
_cell_angle_beta   37.90783449
_cell_angle_gamma   37.90782951
_symmetry_Int_Tables_number   1
_chemical_formula_structural   Cs4GaSnAu7
_chemical_formula_sum   'Cs4 Ga1 Sn1 Au7'
_cell_volume   414.91277959
_cell_formula_units_Z   1
loop_
 _symmetry_equiv_pos_site_id
 _symmetry_equiv_pos_as_xyz
  1  'x, y, z'
loop_
 _atom_site_type_symbol
 _atom_site_label
 _atom_site_symmetry_multiplicity
 _atom_site_fract_x
 _atom_site_fract_y
 _atom_site_fract_z
 _atom_site_occupancy
  Cs  Cs0  1  0.812477  0.812477  0.812477  1
  Cs  Cs1  1  0.685401  0.685401  0.685401  1
  Cs  Cs2  1  0.315790  0.315790  0.315790  1
  Cs  Cs3  1  0.186797  0.186797  0.186797  1
  Ga  Ga4  1  0.447143  0.447143  0.447143  1
  Sn  Sn5  1  0.546581  0.546581  0.546581  1
  Au  Au6  1  0.786299  0.786299  0.196269  1
  Au  Au7  1  0.218800  0.798116  0.218800  1
  Au  Au8  1  0.786299  0.196269  0.786299  1
  Au  Au9  1  0.798116  0.218800  0.218800  1
  Au  Au10  1  0.196269  0.786299  0.786299  1
  Au  Au11  1  0.001226  0.001226  0.001226  1
  Au  Au12  1  0.218800  0.218800  0.798116  1
