# generated using pymatgen
data_Lu12Ga2Tc3
_symmetry_space_group_name_H-M   'P 1'
_cell_length_a   8.19409389
_cell_length_b   8.19409525
_cell_length_c   8.19409478
_cell_angle_alpha   109.38878758
_cell_angle_beta   109.38880173
_cell_angle_gamma   109.63619833
_symmetry_Int_Tables_number   1
_chemical_formula_structural   Lu12Ga2Tc3
_chemical_formula_sum   'Lu12 Ga2 Tc3'
_cell_volume   423.52430309
_cell_formula_units_Z   1
loop_
 _symmetry_equiv_pos_site_id
 _symmetry_equiv_pos_as_xyz
  1  'x, y, z'
loop_
 _atom_site_type_symbol
 _atom_site_label
 _atom_site_symmetry_multiplicity
 _atom_site_fract_x
 _atom_site_fract_y
 _atom_site_fract_z
 _atom_site_occupancy
  Lu  Lu0  1  0.305589  0.305589  0.611178  1
  Lu  Lu1  1  0.694411  0.694411  0.388822  1
  Lu  Lu2  1  0.694411  0.305589  0.000000  1
  Lu  Lu3  1  0.305589  0.694411  0.000000  1
  Lu  Lu4  1  0.186892  0.431787  0.244895  1
  Lu  Lu5  1  0.813108  0.568213  0.755105  1
  Lu  Lu6  1  0.186892  0.941996  0.755105  1
  Lu  Lu7  1  0.941996  0.186892  0.755105  1
  Lu  Lu8  1  0.813108  0.058004  0.244895  1
  Lu  Lu9  1  0.058004  0.813108  0.244895  1
  Lu  Lu10  1  0.431787  0.186892  0.244895  1
  Lu  Lu11  1  0.568213  0.813108  0.755105  1
  Ga  Ga12  1  0.000000  0.500000  0.500000  1
  Ga  Ga13  1  0.500000  0.000000  0.500000  1
  Tc  Tc14  1  0.367976  0.367976  0.000000  1
  Tc  Tc15  1  0.632024  0.632024  0.000000  1
  Tc  Tc16  1  0.000000  0.000000  0.000000  1
