# generated using pymatgen
data_DyY4Sc(Si3Ru)8
_symmetry_space_group_name_H-M   'P 1'
_cell_length_a   10.10039261
_cell_length_b   10.10039280
_cell_length_c   8.12825500
_cell_angle_alpha   90.01992227
_cell_angle_beta   90.01992227
_cell_angle_gamma   132.58118542
_symmetry_Int_Tables_number   1
_chemical_formula_structural   DyY4Sc(Si3Ru)8
_chemical_formula_sum   'Dy1 Y4 Sc1 Si24 Ru8'
_cell_volume   610.57619897
_cell_formula_units_Z   1
loop_
 _symmetry_equiv_pos_site_id
 _symmetry_equiv_pos_as_xyz
  1  'x, y, z'
loop_
 _atom_site_type_symbol
 _atom_site_label
 _atom_site_symmetry_multiplicity
 _atom_site_fract_x
 _atom_site_fract_y
 _atom_site_fract_z
 _atom_site_occupancy
  Dy  Dy0  1  0.002784  0.502448  0.249452  1
  Y  Y1  1  0.500000  0.500000  0.500000  1
  Y  Y2  1  0.497552  0.997216  0.750548  1
  Y  Y3  1  0.997216  0.497552  0.750548  1
  Y  Y4  1  0.502448  0.002784  0.249452  1
  Sc  Sc5  1  0.000000  0.000000  0.000000  1
  Si  Si6  1  0.294334  0.705666  0.000000  1
  Si  Si7  1  0.795114  0.204886  0.500000  1
  Si  Si8  1  0.705666  0.294334  0.000000  1
  Si  Si9  1  0.204886  0.795114  0.500000  1
  Si  Si10  1  0.833468  0.833468  0.330927  1
  Si  Si11  1  0.166532  0.166532  0.669073  1
  Si  Si12  1  0.669613  0.669613  0.834375  1
  Si  Si13  1  0.330387  0.330387  0.165625  1
  Si  Si14  1  0.621153  0.386649  0.227494  1
  Si  Si15  1  0.613351  0.378847  0.772506  1
  Si  Si16  1  0.110619  0.878785  0.730413  1
  Si  Si17  1  0.121215  0.889381  0.269587  1
  Si  Si18  1  0.378847  0.613351  0.772506  1
  Si  Si19  1  0.386649  0.621153  0.227494  1
  Si  Si20  1  0.889381  0.121215  0.269587  1
  Si  Si21  1  0.878785  0.110619  0.730413  1
  Si  Si22  1  0.845537  0.614085  0.004465  1
  Si  Si23  1  0.385915  0.154463  0.995535  1
  Si  Si24  1  0.888438  0.655255  0.505122  1
  Si  Si25  1  0.344745  0.111562  0.494878  1
  Si  Si26  1  0.154463  0.385915  0.995535  1
  Si  Si27  1  0.614085  0.845537  0.004465  1
  Si  Si28  1  0.111562  0.344745  0.494878  1
  Si  Si29  1  0.655255  0.888438  0.505122  1
  Ru  Ru30  1  0.167773  0.832227  0.000000  1
  Ru  Ru31  1  0.669194  0.330806  0.500000  1
  Ru  Ru32  1  0.832227  0.167773  0.000000  1
  Ru  Ru33  1  0.330806  0.669194  0.500000  1
  Ru  Ru34  1  0.626148  0.626148  0.127004  1
  Ru  Ru35  1  0.373852  0.373852  0.872996  1
  Ru  Ru36  1  0.873616  0.873616  0.627703  1
  Ru  Ru37  1  0.126384  0.126384  0.372297  1
