# generated using pymatgen
data_NiSn4Sb8Pt5
_symmetry_space_group_name_H-M   'P 1'
_cell_length_a   3.88871800
_cell_length_b   8.57377641
_cell_length_c   12.96616605
_cell_angle_alpha   98.51098752
_cell_angle_beta   90.00000000
_cell_angle_gamma   90.00000000
_symmetry_Int_Tables_number   1
_chemical_formula_structural   NiSn4Sb8Pt5
_chemical_formula_sum   'Ni1 Sn4 Sb8 Pt5'
_cell_volume   427.54416669
_cell_formula_units_Z   1
loop_
 _symmetry_equiv_pos_site_id
 _symmetry_equiv_pos_as_xyz
  1  'x, y, z'
loop_
 _atom_site_type_symbol
 _atom_site_label
 _atom_site_symmetry_multiplicity
 _atom_site_fract_x
 _atom_site_fract_y
 _atom_site_fract_z
 _atom_site_occupancy
  Ni  Ni0  1  0.500000  0.833434  0.670559  1
  Sn  Sn1  1  0.500000  0.324873  0.808864  1
  Sn  Sn2  1  0.500000  0.991871  0.142888  1
  Sn  Sn3  1  0.500000  0.668106  0.486749  1
  Sn  Sn4  1  0.500000  0.676405  0.190908  1
  Sb  Sb5  1  0.500000  0.345121  0.522682  1
  Sb  Sb6  1  0.500000  0.003023  0.848689  1
  Sb  Sb7  1  0.000000  0.311853  0.054140  1
  Sb  Sb8  1  0.000000  0.979405  0.388628  1
  Sb  Sb9  1  0.000000  0.651629  0.717174  1
  Sb  Sb10  1  0.000000  0.684785  0.943898  1
  Sb  Sb11  1  0.000000  0.355758  0.278794  1
  Sb  Sb12  1  0.000000  0.010150  0.616449  1
  Pt  Pt13  1  0.500000  0.498300  0.000138  1
  Pt  Pt14  1  0.500000  0.168668  0.334035  1
  Pt  Pt15  1  0.000000  0.330091  0.663628  1
  Pt  Pt16  1  0.000000  0.999114  0.994999  1
  Pt  Pt17  1  0.000000  0.667413  0.336778  1
