# generated using pymatgen
data_Lu3Zr3VBi2
_symmetry_space_group_name_H-M   'P 1'
_cell_length_a   7.87060500
_cell_length_b   7.87060486
_cell_length_c   4.30973700
_cell_angle_alpha   90.00000000
_cell_angle_beta   90.00000000
_cell_angle_gamma   119.99999639
_symmetry_Int_Tables_number   1
_chemical_formula_structural   Lu3Zr3VBi2
_chemical_formula_sum   'Lu3 Zr3 V1 Bi2'
_cell_volume   231.20522387
_cell_formula_units_Z   1
loop_
 _symmetry_equiv_pos_site_id
 _symmetry_equiv_pos_as_xyz
  1  'x, y, z'
loop_
 _atom_site_type_symbol
 _atom_site_label
 _atom_site_symmetry_multiplicity
 _atom_site_fract_x
 _atom_site_fract_y
 _atom_site_fract_z
 _atom_site_occupancy
  Lu  Lu0  1  0.390053  0.000000  0.000000  1
  Lu  Lu1  1  0.000000  0.390054  0.000000  1
  Lu  Lu2  1  0.609947  0.609947  0.000000  1
  Zr  Zr3  1  0.778725  0.000000  0.500000  1
  Zr  Zr4  1  0.221276  0.221276  0.500000  1
  Zr  Zr5  1  0.000000  0.778724  0.500000  1
  V  V6  1  0.000000  0.000000  0.000000  1
  Bi  Bi7  1  0.666666  0.333333  0.500000  1
  Bi  Bi8  1  0.333334  0.666667  0.500000  1
