# generated using pymatgen
data_Y6Ni18As13Pt2
_symmetry_space_group_name_H-M   'P 1'
_cell_length_a   13.30934000
_cell_length_b   13.30934089
_cell_length_c   3.89978800
_cell_angle_alpha   90.00000000
_cell_angle_beta   90.00000000
_cell_angle_gamma   120.00000275
_symmetry_Int_Tables_number   1
_chemical_formula_structural   Y6Ni18As13Pt2
_chemical_formula_sum   'Y6 Ni18 As13 Pt2'
_cell_volume   598.25272666
_cell_formula_units_Z   1
loop_
 _symmetry_equiv_pos_site_id
 _symmetry_equiv_pos_as_xyz
  1  'x, y, z'
loop_
 _atom_site_type_symbol
 _atom_site_label
 _atom_site_symmetry_multiplicity
 _atom_site_fract_x
 _atom_site_fract_y
 _atom_site_fract_z
 _atom_site_occupancy
  Y  Y0  1  0.466340  0.185923  0.000000  1
  Y  Y1  1  0.719584  0.533660  0.000000  1
  Y  Y2  1  0.814077  0.280416  0.000000  1
  Y  Y3  1  0.533590  0.812844  0.500000  1
  Y  Y4  1  0.279255  0.466410  0.500000  1
  Y  Y5  1  0.187156  0.720745  0.500000  1
  Ni  Ni6  1  0.197185  0.090003  0.000000  1
  Ni  Ni7  1  0.892817  0.802815  0.000000  1
  Ni  Ni8  1  0.909997  0.107183  0.000000  1
  Ni  Ni9  1  0.854617  0.931252  0.500000  1
  Ni  Ni10  1  0.076636  0.145383  0.500000  1
  Ni  Ni11  1  0.068748  0.923364  0.500000  1
  Ni  Ni12  1  0.434275  0.413895  0.000000  1
  Ni  Ni13  1  0.979620  0.565725  0.000000  1
  Ni  Ni14  1  0.586105  0.020380  0.000000  1
  Ni  Ni15  1  0.567711  0.588064  0.500000  1
  Ni  Ni16  1  0.020353  0.432289  0.500000  1
  Ni  Ni17  1  0.411936  0.979647  0.500000  1
  Ni  Ni18  1  0.075516  0.317413  0.000000  1
  Ni  Ni19  1  0.241897  0.924484  0.000000  1
  Ni  Ni20  1  0.682587  0.758103  0.000000  1
  Ni  Ni21  1  0.931444  0.688558  0.500000  1
  Ni  Ni22  1  0.757114  0.068556  0.500000  1
  Ni  Ni23  1  0.311442  0.242886  0.500000  1
  As  As24  1  0.231165  0.281067  0.000000  1
  As  As25  1  0.049903  0.768835  0.000000  1
  As  As26  1  0.718933  0.950097  0.000000  1
  As  As27  1  0.768557  0.721932  0.500000  1
  As  As28  1  0.953374  0.231443  0.500000  1
  As  As29  1  0.278068  0.046626  0.500000  1
  As  As30  1  0.482927  0.611876  0.000000  1
  As  As31  1  0.128949  0.517073  0.000000  1
  As  As32  1  0.388124  0.871051  0.000000  1
  As  As33  1  0.516206  0.387300  0.500000  1
  As  As34  1  0.871094  0.483794  0.500000  1
  As  As35  1  0.612700  0.128906  0.500000  1
  As  As36  1  0.000000  0.000000  0.000000  1
  Pt  Pt37  1  0.333333  0.666667  0.000000  1
  Pt  Pt38  1  0.666667  0.333333  0.500000  1
