# generated using pymatgen
data_AcDy(CrN3)2
_symmetry_space_group_name_H-M   'P 1'
_cell_length_a   7.15107421
_cell_length_b   7.15107485
_cell_length_c   5.93558485
_cell_angle_alpha   78.82895882
_cell_angle_beta   78.82896090
_cell_angle_gamma   89.45072254
_symmetry_Int_Tables_number   1
_chemical_formula_structural   AcDy(CrN3)2
_chemical_formula_sum   'Ac2 Dy2 Cr4 N12'
_cell_volume   292.01695672
_cell_formula_units_Z   2
loop_
 _symmetry_equiv_pos_site_id
 _symmetry_equiv_pos_as_xyz
  1  'x, y, z'
loop_
 _atom_site_type_symbol
 _atom_site_label
 _atom_site_symmetry_multiplicity
 _atom_site_fract_x
 _atom_site_fract_y
 _atom_site_fract_z
 _atom_site_occupancy
  Ac  Ac0  1  0.326001  0.673999  0.750000  1
  Ac  Ac1  1  0.673999  0.326001  0.250000  1
  Dy  Dy2  1  0.091101  0.908899  0.250000  1
  Dy  Dy3  1  0.908899  0.091101  0.750000  1
  Cr  Cr4  1  0.370409  0.196890  0.773242  1
  Cr  Cr5  1  0.629591  0.803110  0.226758  1
  Cr  Cr6  1  0.803110  0.629591  0.726758  1
  Cr  Cr7  1  0.196890  0.370409  0.273242  1
  N  N8  1  0.990486  0.790457  0.643994  1
  N  N9  1  0.875169  0.410357  0.810275  1
  N  N10  1  0.790457  0.990486  0.143994  1
  N  N11  1  0.124831  0.589643  0.189725  1
  N  N12  1  0.009514  0.209543  0.356006  1
  N  N13  1  0.209543  0.009514  0.856006  1
  N  N14  1  0.589643  0.124831  0.689725  1
  N  N15  1  0.640230  0.674948  0.983438  1
  N  N16  1  0.359770  0.325052  0.016562  1
  N  N17  1  0.410357  0.875169  0.310275  1
  N  N18  1  0.674948  0.640230  0.483438  1
  N  N19  1  0.325052  0.359770  0.516562  1
