# generated using pymatgen
data_La2Pr4IrBr10
_symmetry_space_group_name_H-M   'P 1'
_cell_length_a   7.76259083
_cell_length_b   9.56284538
_cell_length_c   9.77460856
_cell_angle_alpha   108.47346791
_cell_angle_beta   97.23952313
_cell_angle_gamma   105.48601325
_symmetry_Int_Tables_number   1
_chemical_formula_structural   La2Pr4IrBr10
_chemical_formula_sum   'La2 Pr4 Ir1 Br10'
_cell_volume   645.37098372
_cell_formula_units_Z   1
loop_
 _symmetry_equiv_pos_site_id
 _symmetry_equiv_pos_as_xyz
  1  'x, y, z'
loop_
 _atom_site_type_symbol
 _atom_site_label
 _atom_site_symmetry_multiplicity
 _atom_site_fract_x
 _atom_site_fract_y
 _atom_site_fract_z
 _atom_site_occupancy
  La  La0  1  0.533923  0.208560  0.410940  1
  La  La1  1  0.466077  0.791440  0.589060  1
  Pr  Pr2  1  0.130911  0.357900  0.313364  1
  Pr  Pr3  1  0.869089  0.642100  0.686636  1
  Pr  Pr4  1  0.629194  0.550137  0.249914  1
  Pr  Pr5  1  0.370806  0.449863  0.750086  1
  Ir  Ir6  1  0.500000  0.500000  0.500000  1
  Br  Br7  1  0.149711  0.044065  0.228463  1
  Br  Br8  1  0.850289  0.955935  0.771537  1
  Br  Br9  1  0.251208  0.416460  0.048747  1
  Br  Br10  1  0.748792  0.583540  0.951253  1
  Br  Br11  1  0.706562  0.246225  0.153898  1
  Br  Br12  1  0.293438  0.753775  0.846102  1
  Br  Br13  1  0.043977  0.673048  0.418809  1
  Br  Br14  1  0.956023  0.326952  0.581191  1
  Br  Br15  1  0.413630  0.131750  0.672787  1
  Br  Br16  1  0.586370  0.868250  0.327213  1
