# generated using pymatgen
data_TlSeBr7
_symmetry_space_group_name_H-M   'P 1'
_cell_length_a   7.00865051
_cell_length_b   7.24407517
_cell_length_c   15.53618934
_cell_angle_alpha   74.71423332
_cell_angle_beta   89.97085715
_cell_angle_gamma   90.08010276
_symmetry_Int_Tables_number   1
_chemical_formula_structural   TlSeBr7
_chemical_formula_sum   'Tl2 Se2 Br14'
_cell_volume   760.88467983
_cell_formula_units_Z   2
loop_
 _symmetry_equiv_pos_site_id
 _symmetry_equiv_pos_as_xyz
  1  'x, y, z'
loop_
 _atom_site_type_symbol
 _atom_site_label
 _atom_site_symmetry_multiplicity
 _atom_site_fract_x
 _atom_site_fract_y
 _atom_site_fract_z
 _atom_site_occupancy
  Tl  Tl0  1  0.994545  0.696245  0.164441  1
  Tl  Tl1  1  0.006352  0.696774  0.664051  1
  Se  Se2  1  0.602233  0.997879  0.503674  1
  Se  Se3  1  0.396896  0.998209  0.003798  1
  Br  Br4  1  0.407097  0.901132  0.398361  1
  Br  Br5  1  0.402705  0.238914  0.534696  1
  Br  Br6  1  0.174930  0.200459  0.903826  1
  Br  Br7  1  0.824441  0.200841  0.403735  1
  Br  Br8  1  0.141778  0.034611  0.161179  1
  Br  Br9  1  0.596090  0.240209  0.034522  1
  Br  Br10  1  0.147545  0.649198  0.015229  1
  Br  Br11  1  0.852517  0.649400  0.515135  1
  Br  Br12  1  0.625193  0.669952  0.166268  1
  Br  Br13  1  0.375793  0.671390  0.665620  1
  Br  Br14  1  0.139292  0.445531  0.303034  1
  Br  Br15  1  0.862934  0.443677  0.802522  1
  Br  Br16  1  0.592114  0.902459  0.898165  1
  Br  Br17  1  0.857543  0.033719  0.661541  1
