# generated using pymatgen
data_Sc12Sn(MoI8)2
_symmetry_space_group_name_H-M   'P 1'
_cell_length_a   9.21073563
_cell_length_b   12.21148804
_cell_length_c   13.01217437
_cell_angle_alpha   117.06024865
_cell_angle_beta   101.17626718
_cell_angle_gamma   100.38623143
_symmetry_Int_Tables_number   1
_chemical_formula_structural   Sc12Sn(MoI8)2
_chemical_formula_sum   'Sc12 Sn1 Mo2 I16'
_cell_volume   1216.76634850
_cell_formula_units_Z   1
loop_
 _symmetry_equiv_pos_site_id
 _symmetry_equiv_pos_as_xyz
  1  'x, y, z'
loop_
 _atom_site_type_symbol
 _atom_site_label
 _atom_site_symmetry_multiplicity
 _atom_site_fract_x
 _atom_site_fract_y
 _atom_site_fract_z
 _atom_site_occupancy
  Sc  Sc0  1  0.106077  0.258892  0.352313  1
  Sc  Sc1  1  0.893923  0.741108  0.647687  1
  Sc  Sc2  1  0.757291  0.539217  0.324061  1
  Sc  Sc3  1  0.242709  0.460783  0.675939  1
  Sc  Sc4  1  0.302036  0.741496  0.646509  1
  Sc  Sc5  1  0.697964  0.258504  0.353491  1
  Sc  Sc6  1  0.165868  0.539458  0.322932  1
  Sc  Sc7  1  0.834132  0.460542  0.677068  1
  Sc  Sc8  1  0.412158  0.369718  0.291275  1
  Sc  Sc9  1  0.587842  0.630282  0.708725  1
  Sc  Sc10  1  0.461393  0.319051  0.518876  1
  Sc  Sc11  1  0.538607  0.680949  0.481124  1
  Sn  Sn12  1  0.000000  0.500000  0.500000  1
  Mo  Mo13  1  0.326614  0.500171  0.499672  1
  Mo  Mo14  1  0.673387  0.499829  0.500328  1
  I  I15  1  0.392030  0.734462  0.876150  1
  I  I16  1  0.607970  0.265538  0.123850  1
  I  I17  1  0.184707  0.955566  0.777148  1
  I  I18  1  0.815293  0.044434  0.222852  1
  I  I19  1  0.337152  0.099289  0.255081  1
  I  I20  1  0.662848  0.900711  0.744919  1
  I  I21  1  0.564099  0.435155  0.793649  1
  I  I22  1  0.435901  0.564845  0.206351  1
  I  I23  1  0.304104  0.826456  0.464437  1
  I  I24  1  0.695896  0.173544  0.535563  1
  I  I25  1  0.165517  0.174457  0.534505  1
  I  I26  1  0.834483  0.825543  0.465495  1
  I  I27  1  0.926546  0.575794  0.168316  1
  I  I28  1  0.073454  0.424206  0.831684  1
  I  I29  1  0.924709  0.734092  0.877157  1
  I  I30  1  0.075291  0.265908  0.122843  1
