# generated using pymatgen
data_Yb3Cu(Pt2O7)2
_symmetry_space_group_name_H-M   'P 1'
_cell_length_a   7.23015479
_cell_length_b   7.10742583
_cell_length_c   7.23087701
_cell_angle_alpha   59.43100319
_cell_angle_beta   60.00084436
_cell_angle_gamma   59.42565702
_symmetry_Int_Tables_number   1
_chemical_formula_structural   Yb3Cu(Pt2O7)2
_chemical_formula_sum   'Yb3 Cu1 Pt4 O14'
_cell_volume   260.45424117
_cell_formula_units_Z   1
loop_
 _symmetry_equiv_pos_site_id
 _symmetry_equiv_pos_as_xyz
  1  'x, y, z'
loop_
 _atom_site_type_symbol
 _atom_site_label
 _atom_site_symmetry_multiplicity
 _atom_site_fract_x
 _atom_site_fract_y
 _atom_site_fract_z
 _atom_site_occupancy
  Yb  Yb0  1  0.125000  0.125000  0.125000  1
  Yb  Yb1  1  0.625000  0.125000  0.125000  1
  Yb  Yb2  1  0.125000  0.125000  0.625000  1
  Cu  Cu3  1  0.125000  0.625000  0.125000  1
  Pt  Pt4  1  0.625000  0.625000  0.625000  1
  Pt  Pt5  1  0.125000  0.625000  0.625000  1
  Pt  Pt6  1  0.625000  0.625000  0.125000  1
  Pt  Pt7  1  0.625000  0.125000  0.625000  1
  O  O8  1  0.018222  0.945320  0.018216  1
  O  O9  1  0.231778  0.304680  0.231784  1
  O  O10  1  0.539580  0.547872  0.956298  1
  O  O11  1  0.287455  0.284606  0.713985  1
  O  O12  1  0.956293  0.547984  0.956316  1
  O  O13  1  0.956303  0.547824  0.539596  1
  O  O14  1  0.536075  0.965329  0.962517  1
  O  O15  1  0.536045  0.965424  0.536016  1
  O  O16  1  0.962545  0.965394  0.536015  1
  O  O17  1  0.713925  0.284671  0.287483  1
  O  O18  1  0.293697  0.702176  0.710404  1
  O  O19  1  0.710420  0.702128  0.293702  1
  O  O20  1  0.713955  0.284576  0.713984  1
  O  O21  1  0.293707  0.702016  0.293684  1
