# generated using pymatgen
data_Pr8MgSc10Si16Hg
_symmetry_space_group_name_H-M   'P 1'
_cell_length_a   7.19141987
_cell_length_b   7.58020860
_cell_length_c   14.30362000
_cell_angle_alpha   90.00000000
_cell_angle_beta   90.00000000
_cell_angle_gamma   90.06048408
_symmetry_Int_Tables_number   1
_chemical_formula_structural   Pr8MgSc10Si16Hg
_chemical_formula_sum   'Pr8 Mg1 Sc10 Si16 Hg1'
_cell_volume   779.72511749
_cell_formula_units_Z   1
loop_
 _symmetry_equiv_pos_site_id
 _symmetry_equiv_pos_as_xyz
  1  'x, y, z'
loop_
 _atom_site_type_symbol
 _atom_site_label
 _atom_site_symmetry_multiplicity
 _atom_site_fract_x
 _atom_site_fract_y
 _atom_site_fract_z
 _atom_site_occupancy
  Pr  Pr0  1  0.009832  0.176781  0.401402  1
  Pr  Pr1  1  0.514020  0.331142  0.400004  1
  Pr  Pr2  1  0.492305  0.679518  0.900392  1
  Pr  Pr3  1  0.492305  0.679518  0.599608  1
  Pr  Pr4  1  0.981559  0.830163  0.601814  1
  Pr  Pr5  1  0.981559  0.830163  0.898186  1
  Pr  Pr6  1  0.514020  0.331142  0.099996  1
  Pr  Pr7  1  0.009832  0.176781  0.098598  1
  Mg  Mg8  1  0.843263  0.501206  0.250000  1
  Sc  Sc9  1  0.337956  0.174868  0.624279  1
  Sc  Sc10  1  0.672406  0.816318  0.374674  1
  Sc  Sc11  1  0.166097  0.675782  0.376076  1
  Sc  Sc12  1  0.825971  0.313222  0.875069  1
  Sc  Sc13  1  0.825971  0.313222  0.624931  1
  Sc  Sc14  1  0.341173  0.996712  0.250000  1
  Sc  Sc15  1  0.337956  0.174868  0.875721  1
  Sc  Sc16  1  0.166097  0.675782  0.123924  1
  Sc  Sc17  1  0.672406  0.816318  0.125326  1
  Sc  Sc18  1  0.158758  0.495967  0.750000  1
  Si  Si19  1  0.274602  0.882696  0.750000  1
  Si  Si20  1  0.457151  0.626384  0.250000  1
  Si  Si21  1  0.051279  0.129101  0.750000  1
  Si  Si22  1  0.530166  0.390796  0.750000  1
  Si  Si23  1  0.153383  0.466004  0.541116  1
  Si  Si24  1  0.967018  0.883387  0.250000  1
  Si  Si25  1  0.708664  0.101230  0.250000  1
  Si  Si26  1  0.847873  0.538386  0.032760  1
  Si  Si27  1  0.346257  0.964741  0.040539  1
  Si  Si28  1  0.153383  0.466004  0.958884  1
  Si  Si29  1  0.654184  0.041153  0.527869  1
  Si  Si30  1  0.346257  0.964741  0.459461  1
  Si  Si31  1  0.847873  0.538386  0.467240  1
  Si  Si32  1  0.793902  0.590930  0.750000  1
  Si  Si33  1  0.218098  0.386192  0.250000  1
  Si  Si34  1  0.654184  0.041153  0.972131  1
  Hg  Hg35  1  0.652239  0.999241  0.750000  1
