# generated using pymatgen
data_Er8Ta4Ti7Si16Au
_symmetry_space_group_name_H-M   'P 1'
_cell_length_a   7.04032939
_cell_length_b   7.04178294
_cell_length_c   12.86705379
_cell_angle_alpha   90.15125047
_cell_angle_beta   89.82399778
_cell_angle_gamma   89.55871246
_symmetry_Int_Tables_number   1
_chemical_formula_structural   Er8Ta4Ti7Si16Au
_chemical_formula_sum   'Er8 Ta4 Ti7 Si16 Au1'
_cell_volume   637.87893193
_cell_formula_units_Z   1
loop_
 _symmetry_equiv_pos_site_id
 _symmetry_equiv_pos_as_xyz
  1  'x, y, z'
loop_
 _atom_site_type_symbol
 _atom_site_label
 _atom_site_symmetry_multiplicity
 _atom_site_fract_x
 _atom_site_fract_y
 _atom_site_fract_z
 _atom_site_occupancy
  Er  Er0  1  0.342530  0.000190  0.466828  1
  Er  Er1  1  0.497185  0.841533  0.717282  1
  Er  Er2  1  0.500891  0.157079  0.215422  1
  Er  Er3  1  0.841773  0.497807  0.282994  1
  Er  Er4  1  0.156762  0.501209  0.784402  1
  Er  Er5  1  0.654481  0.003137  0.968880  1
  Er  Er6  1  0.000375  0.342329  0.532466  1
  Er  Er7  1  0.000719  0.657302  0.031387  1
  Ta  Ta8  1  0.173568  0.826332  0.249387  1
  Ta  Ta9  1  0.826206  0.173361  0.750738  1
  Ta  Ta10  1  0.672864  0.672231  0.499840  1
  Ta  Ta11  1  0.146970  0.007403  0.876208  1
  Ti  Ti12  1  0.495789  0.651365  0.123331  1
  Ti  Ti13  1  0.507031  0.349854  0.625743  1
  Ti  Ti14  1  0.652978  0.494217  0.876620  1
  Ti  Ti15  1  0.350525  0.507868  0.374631  1
  Ti  Ti16  1  0.847835  0.990866  0.373527  1
  Ti  Ti17  1  0.008918  0.146230  0.123344  1
  Ti  Ti18  1  0.991241  0.847197  0.626820  1
  Si  Si19  1  0.202668  0.133775  0.682008  1
  Si  Si20  1  0.375399  0.717263  0.927909  1
  Si  Si21  1  0.631729  0.294679  0.432750  1
  Si  Si22  1  0.720801  0.373083  0.072934  1
  Si  Si23  1  0.295092  0.632019  0.566846  1
  Si  Si24  1  0.797836  0.866222  0.182191  1
  Si  Si25  1  0.133008  0.202005  0.316448  1
  Si  Si26  1  0.863278  0.796610  0.818583  1
  Si  Si27  1  0.289283  0.937293  0.065075  1
  Si  Si28  1  0.546693  0.792402  0.313285  1
  Si  Si29  1  0.452097  0.208347  0.809683  1
  Si  Si30  1  0.792284  0.546258  0.686093  1
  Si  Si31  1  0.207873  0.453057  0.190168  1
  Si  Si32  1  0.707937  0.046432  0.563458  1
  Si  Si33  1  0.939090  0.290836  0.935830  1
  Si  Si34  1  0.046701  0.707737  0.436344  1
  Au  Au35  1  0.329595  0.334476  0.000543  1
