# generated using pymatgen
data_CeDy3Tc3B16Os
_symmetry_space_group_name_H-M   'P 1'
_cell_length_a   3.60879200
_cell_length_b   5.97968481
_cell_length_c   11.57319404
_cell_angle_alpha   90.01393877
_cell_angle_beta   90.00000000
_cell_angle_gamma   90.00000000
_symmetry_Int_Tables_number   1
_chemical_formula_structural   CeDy3Tc3B16Os
_chemical_formula_sum   'Ce1 Dy3 Tc3 B16 Os1'
_cell_volume   249.74302397
_cell_formula_units_Z   1
loop_
 _symmetry_equiv_pos_site_id
 _symmetry_equiv_pos_as_xyz
  1  'x, y, z'
loop_
 _atom_site_type_symbol
 _atom_site_label
 _atom_site_symmetry_multiplicity
 _atom_site_fract_x
 _atom_site_fract_y
 _atom_site_fract_z
 _atom_site_occupancy
  Ce  Ce0  1  0.000000  0.627259  0.349578  1
  Dy  Dy1  1  0.000000  0.371784  0.649844  1
  Dy  Dy2  1  0.000000  0.127062  0.149690  1
  Dy  Dy3  1  0.000000  0.873854  0.850062  1
  Tc  Tc4  1  0.000000  0.632435  0.087345  1
  Tc  Tc5  1  0.000000  0.365868  0.911131  1
  Tc  Tc6  1  0.000000  0.139076  0.408862  1
  B  B7  1  0.500000  0.786537  0.184304  1
  B  B8  1  0.500000  0.211822  0.815162  1
  B  B9  1  0.500000  0.287287  0.314515  1
  B  B10  1  0.500000  0.712369  0.686017  1
  B  B11  1  0.500000  0.863692  0.030916  1
  B  B12  1  0.500000  0.135716  0.968266  1
  B  B13  1  0.500000  0.363651  0.470055  1
  B  B14  1  0.500000  0.637913  0.531807  1
  B  B15  1  0.500000  0.889197  0.454465  1
  B  B16  1  0.500000  0.113396  0.547898  1
  B  B17  1  0.500000  0.386153  0.045865  1
  B  B18  1  0.500000  0.612566  0.952565  1
  B  B19  1  0.500000  0.975472  0.308712  1
  B  B20  1  0.500000  0.024793  0.692226  1
  B  B21  1  0.500000  0.477892  0.190759  1
  B  B22  1  0.500000  0.523072  0.807752  1
  Os  Os23  1  0.000000  0.861134  0.592202  1
