# generated using pymatgen
data_Zr10AlSiSb4
_symmetry_space_group_name_H-M   'P 1'
_cell_length_a   5.55395752
_cell_length_b   8.34519654
_cell_length_c   8.34519555
_cell_angle_alpha   96.35750199
_cell_angle_beta   109.43661471
_cell_angle_gamma   70.56337607
_symmetry_Int_Tables_number   1
_chemical_formula_structural   Zr10AlSiSb4
_chemical_formula_sum   'Zr10 Al1 Si1 Sb4'
_cell_volume   343.96036034
_cell_formula_units_Z   1
loop_
 _symmetry_equiv_pos_site_id
 _symmetry_equiv_pos_as_xyz
  1  'x, y, z'
loop_
 _atom_site_type_symbol
 _atom_site_label
 _atom_site_symmetry_multiplicity
 _atom_site_fract_x
 _atom_site_fract_y
 _atom_site_fract_z
 _atom_site_occupancy
  Zr  Zr0  1  0.422538  0.863670  0.713338  1
  Zr  Zr1  1  0.572871  0.136330  0.286662  1
  Zr  Zr2  1  0.927129  0.286662  0.136330  1
  Zr  Zr3  1  0.077462  0.713338  0.863670  1
  Zr  Zr4  1  0.709199  0.713338  0.136330  1
  Zr  Zr5  1  0.286208  0.286662  0.863670  1
  Zr  Zr6  1  0.790801  0.136330  0.713338  1
  Zr  Zr7  1  0.213792  0.863670  0.286662  1
  Zr  Zr8  1  0.250000  0.500000  0.500000  1
  Zr  Zr9  1  0.750000  0.500000  0.500000  1
  Al  Al10  1  0.750000  0.000000  0.000000  1
  Si  Si11  1  0.250000  0.000000  0.000000  1
  Sb  Sb12  1  0.336325  0.500000  0.172650  1
  Sb  Sb13  1  0.663675  0.500000  0.827350  1
  Sb  Sb14  1  0.836325  0.827350  0.500000  1
  Sb  Sb15  1  0.163675  0.172650  0.500000  1
