# generated using pymatgen
data_Sr4CoCu3N4
_symmetry_space_group_name_H-M   'P 1'
_cell_length_a   5.36675933
_cell_length_b   9.10375817
_cell_length_c   13.27794813
_cell_angle_alpha   89.54305898
_cell_angle_beta   89.62465301
_cell_angle_gamma   89.74280069
_symmetry_Int_Tables_number   1
_chemical_formula_structural   Sr4CoCu3N4
_chemical_formula_sum   'Sr12 Co3 Cu9 N12'
_cell_volume   648.68879388
_cell_formula_units_Z   3
loop_
 _symmetry_equiv_pos_site_id
 _symmetry_equiv_pos_as_xyz
  1  'x, y, z'
loop_
 _atom_site_type_symbol
 _atom_site_label
 _atom_site_symmetry_multiplicity
 _atom_site_fract_x
 _atom_site_fract_y
 _atom_site_fract_z
 _atom_site_occupancy
  Sr  Sr0  1  0.491481  0.485225  0.750241  1
  Sr  Sr1  1  0.997109  0.015802  0.251761  1
  Sr  Sr2  1  0.002891  0.984198  0.748239  1
  Sr  Sr3  1  0.508519  0.514775  0.249759  1
  Sr  Sr4  1  0.979883  0.335451  0.415313  1
  Sr  Sr5  1  0.478700  0.164671  0.584915  1
  Sr  Sr6  1  0.519929  0.835447  0.084120  1
  Sr  Sr7  1  0.015337  0.663220  0.913376  1
  Sr  Sr8  1  0.020117  0.664549  0.584687  1
  Sr  Sr9  1  0.521300  0.835329  0.415085  1
  Sr  Sr10  1  0.480071  0.164553  0.915880  1
  Sr  Sr11  1  0.984663  0.336780  0.086624  1
  Co  Co12  1  0.500000  0.500000  0.000000  1
  Co  Co13  1  0.500000  0.500000  0.500000  1
  Co  Co14  1  0.000000  0.000000  0.500000  1
  Cu  Cu15  1  0.485826  0.172649  0.157471  1
  Cu  Cu16  1  0.980786  0.328007  0.843752  1
  Cu  Cu17  1  0.020837  0.671875  0.343239  1
  Cu  Cu18  1  0.515889  0.827673  0.655911  1
  Cu  Cu19  1  0.514174  0.827351  0.842529  1
  Cu  Cu20  1  0.019214  0.671993  0.156248  1
  Cu  Cu21  1  0.979163  0.328125  0.656761  1
  Cu  Cu22  1  0.484111  0.172327  0.344089  1
  Cu  Cu23  1  0.000000  0.000000  0.000000  1
  N  N24  1  0.284716  0.747888  0.749253  1
  N  N25  1  0.791126  0.751715  0.249439  1
  N  N26  1  0.208874  0.248285  0.750561  1
  N  N27  1  0.715284  0.252112  0.250747  1
  N  N28  1  0.236208  0.081711  0.422024  1
  N  N29  1  0.733107  0.418954  0.578939  1
  N  N30  1  0.265529  0.583516  0.077602  1
  N  N31  1  0.760818  0.917011  0.918211  1
  N  N32  1  0.763792  0.918289  0.577976  1
  N  N33  1  0.266893  0.581046  0.421061  1
  N  N34  1  0.734471  0.416484  0.922398  1
  N  N35  1  0.239182  0.082989  0.081789  1
