# generated using pymatgen
data_La3SnI3
_symmetry_space_group_name_H-M   'P 1'
_cell_length_a   11.28192171
_cell_length_b   11.28192197
_cell_length_c   11.28192200
_cell_angle_alpha   109.47121709
_cell_angle_beta   109.47121756
_cell_angle_gamma   109.47122324
_symmetry_Int_Tables_number   1
_chemical_formula_structural   La3SnI3
_chemical_formula_sum   'La12 Sn4 I12'
_cell_volume   1105.42020193
_cell_formula_units_Z   4
loop_
 _symmetry_equiv_pos_site_id
 _symmetry_equiv_pos_as_xyz
  1  'x, y, z'
loop_
 _atom_site_type_symbol
 _atom_site_label
 _atom_site_symmetry_multiplicity
 _atom_site_fract_x
 _atom_site_fract_y
 _atom_site_fract_z
 _atom_site_occupancy
  La  La0  1  0.259148  0.009148  0.018295  1
  La  La1  1  0.018295  0.259148  0.009148  1
  La  La2  1  0.490852  0.750000  0.009148  1
  La  La3  1  0.750000  0.240852  0.259148  1
  La  La4  1  0.009148  0.018295  0.259148  1
  La  La5  1  0.009148  0.490852  0.750000  1
  La  La6  1  0.240852  0.259148  0.750000  1
  La  La7  1  0.259148  0.750000  0.240852  1
  La  La8  1  0.240852  0.481705  0.490852  1
  La  La9  1  0.481705  0.490852  0.240852  1
  La  La10  1  0.750000  0.009148  0.490852  1
  La  La11  1  0.490852  0.240852  0.481705  1
  Sn  Sn12  1  0.000000  0.250000  0.500000  1
  Sn  Sn13  1  0.250000  0.500000  0.000000  1
  Sn  Sn14  1  0.500000  0.000000  0.250000  1
  Sn  Sn15  1  0.250000  0.250000  0.250000  1
  I  I16  1  0.756167  0.743833  0.250000  1
  I  I17  1  0.506167  0.250000  0.993833  1
  I  I18  1  0.250000  0.993833  0.506167  1
  I  I19  1  0.512335  0.506167  0.756167  1
  I  I20  1  0.993833  0.987665  0.743833  1
  I  I21  1  0.743833  0.993833  0.987665  1
  I  I22  1  0.506167  0.756167  0.512335  1
  I  I23  1  0.756167  0.512335  0.506167  1
  I  I24  1  0.993833  0.506167  0.250000  1
  I  I25  1  0.987665  0.743833  0.993833  1
  I  I26  1  0.250000  0.756167  0.743833  1
  I  I27  1  0.743833  0.250000  0.756167  1
