# generated using pymatgen
data_Ho2Ni3As6Rh7
_symmetry_space_group_name_H-M   'P 1'
_cell_length_a   3.91652300
_cell_length_b   11.22391200
_cell_length_c   12.73474500
_cell_angle_alpha   90.00000000
_cell_angle_beta   90.00000000
_cell_angle_gamma   90.00000000
_symmetry_Int_Tables_number   1
_chemical_formula_structural   Ho2Ni3As6Rh7
_chemical_formula_sum   'Ho4 Ni6 As12 Rh14'
_cell_volume   559.80295599
_cell_formula_units_Z   2
loop_
 _symmetry_equiv_pos_site_id
 _symmetry_equiv_pos_as_xyz
  1  'x, y, z'
loop_
 _atom_site_type_symbol
 _atom_site_label
 _atom_site_symmetry_multiplicity
 _atom_site_fract_x
 _atom_site_fract_y
 _atom_site_fract_z
 _atom_site_occupancy
  Ho  Ho0  1  0.250000  0.588570  0.706670  1
  Ho  Ho1  1  0.250000  0.911430  0.206670  1
  Ho  Ho2  1  0.750000  0.413702  0.294835  1
  Ho  Ho3  1  0.750000  0.086298  0.794835  1
  Ni  Ni4  1  0.750000  0.111458  0.306125  1
  Ni  Ni5  1  0.750000  0.388542  0.806125  1
  Ni  Ni6  1  0.250000  0.465709  0.930928  1
  Ni  Ni7  1  0.250000  0.034291  0.430928  1
  Ni  Ni8  1  0.750000  0.527711  0.064866  1
  Ni  Ni9  1  0.750000  0.972289  0.564866  1
  As  As10  1  0.250000  0.411011  0.109017  1
  As  As11  1  0.250000  0.088989  0.609017  1
  As  As12  1  0.750000  0.579378  0.886619  1
  As  As13  1  0.750000  0.920622  0.386619  1
  As  As14  1  0.250000  0.270180  0.876513  1
  As  As15  1  0.250000  0.229820  0.376513  1
  As  As16  1  0.750000  0.725182  0.123615  1
  As  As17  1  0.750000  0.774818  0.623615  1
  As  As18  1  0.250000  0.597987  0.386388  1
  As  As19  1  0.250000  0.902013  0.886388  1
  As  As20  1  0.750000  0.404827  0.618624  1
  As  As21  1  0.750000  0.095173  0.118624  1
  Rh  Rh22  1  0.250000  0.707800  0.979553  1
  Rh  Rh23  1  0.250000  0.792200  0.479553  1
  Rh  Rh24  1  0.750000  0.286161  0.015191  1
  Rh  Rh25  1  0.750000  0.213839  0.515191  1
  Rh  Rh26  1  0.250000  0.409767  0.482998  1
  Rh  Rh27  1  0.250000  0.090233  0.982998  1
  Rh  Rh28  1  0.750000  0.593720  0.520381  1
  Rh  Rh29  1  0.750000  0.906280  0.020381  1
  Rh  Rh30  1  0.250000  0.217084  0.185835  1
  Rh  Rh31  1  0.250000  0.282916  0.685835  1
  Rh  Rh32  1  0.750000  0.777078  0.817491  1
  Rh  Rh33  1  0.750000  0.722922  0.317491  1
  Rh  Rh34  1  0.250000  0.893032  0.694356  1
  Rh  Rh35  1  0.250000  0.606968  0.194356  1
