# generated using pymatgen
data_Hf4Zr4In4Co3Cu5
_symmetry_space_group_name_H-M   'P 1'
_cell_length_a   7.23535250
_cell_length_b   7.23535204
_cell_length_c   6.74519258
_cell_angle_alpha   89.94093138
_cell_angle_beta   89.94093135
_cell_angle_gamma   90.00491647
_symmetry_Int_Tables_number   1
_chemical_formula_structural   Hf4Zr4In4Co3Cu5
_chemical_formula_sum   'Hf4 Zr4 In4 Co3 Cu5'
_cell_volume   353.11262972
_cell_formula_units_Z   1
loop_
 _symmetry_equiv_pos_site_id
 _symmetry_equiv_pos_as_xyz
  1  'x, y, z'
loop_
 _atom_site_type_symbol
 _atom_site_label
 _atom_site_symmetry_multiplicity
 _atom_site_fract_x
 _atom_site_fract_y
 _atom_site_fract_z
 _atom_site_occupancy
  Hf  Hf0  1  0.651894  0.353281  0.492500  1
  Hf  Hf1  1  0.353281  0.651894  0.492500  1
  Hf  Hf2  1  0.675861  0.337074  0.007676  1
  Hf  Hf3  1  0.337074  0.675861  0.007676  1
  Zr  Zr4  1  0.156543  0.156543  0.005713  1
  Zr  Zr5  1  0.829675  0.829675  0.996941  1
  Zr  Zr6  1  0.805103  0.805103  0.502113  1
  Zr  Zr7  1  0.193026  0.193026  0.491681  1
  In  In8  1  0.501568  0.004957  0.245742  1
  In  In9  1  0.498307  0.000912  0.753153  1
  In  In10  1  0.004957  0.501568  0.245742  1
  In  In11  1  0.000912  0.498307  0.753153  1
  Co  Co12  1  0.372360  0.372360  0.225326  1
  Co  Co13  1  0.620965  0.620965  0.767817  1
  Co  Co14  1  0.628664  0.628664  0.229275  1
  Cu  Cu15  1  0.874450  0.124690  0.711236  1
  Cu  Cu16  1  0.874001  0.122130  0.286367  1
  Cu  Cu17  1  0.374540  0.374540  0.787785  1
  Cu  Cu18  1  0.122130  0.874001  0.286367  1
  Cu  Cu19  1  0.124690  0.874450  0.711236  1
