# generated using pymatgen
data_Ho8Re3Si16Tc9
_symmetry_space_group_name_H-M   'P 1'
_cell_length_a   6.78140008
_cell_length_b   6.78139918
_cell_length_c   12.70300139
_cell_angle_alpha   89.92446076
_cell_angle_beta   90.07553867
_cell_angle_gamma   90.08579378
_symmetry_Int_Tables_number   1
_chemical_formula_structural   Ho8Re3Si16Tc9
_chemical_formula_sum   'Ho8 Re3 Si16 Tc9'
_cell_volume   584.17609498
_cell_formula_units_Z   1
loop_
 _symmetry_equiv_pos_site_id
 _symmetry_equiv_pos_as_xyz
  1  'x, y, z'
loop_
 _atom_site_type_symbol
 _atom_site_label
 _atom_site_symmetry_multiplicity
 _atom_site_fract_x
 _atom_site_fract_y
 _atom_site_fract_z
 _atom_site_occupancy
  Ho  Ho0  1  0.338464  0.994477  0.468967  1
  Ho  Ho1  1  0.508363  0.835559  0.718740  1
  Ho  Ho2  1  0.491267  0.163270  0.218227  1
  Ho  Ho3  1  0.835559  0.508363  0.281260  1
  Ho  Ho4  1  0.163270  0.491267  0.781773  1
  Ho  Ho5  1  0.661210  0.005360  0.969000  1
  Ho  Ho6  1  0.994477  0.338464  0.531033  1
  Ho  Ho7  1  0.005360  0.661210  0.031000  1
  Re  Re8  1  0.161500  0.837257  0.250655  1
  Re  Re9  1  0.837257  0.161500  0.749345  1
  Re  Re10  1  0.665201  0.665201  0.500000  1
  Si  Si11  1  0.197168  0.114608  0.684813  1
  Si  Si12  1  0.386407  0.692399  0.935719  1
  Si  Si13  1  0.615065  0.306421  0.435423  1
  Si  Si14  1  0.692399  0.386407  0.064281  1
  Si  Si15  1  0.306421  0.615065  0.564577  1
  Si  Si16  1  0.803194  0.886208  0.184853  1
  Si  Si17  1  0.114608  0.197168  0.315187  1
  Si  Si18  1  0.886208  0.803194  0.815147  1
  Si  Si19  1  0.269546  0.981539  0.061523  1
  Si  Si20  1  0.519909  0.777589  0.312542  1
  Si  Si21  1  0.481298  0.223204  0.811620  1
  Si  Si22  1  0.777589  0.519909  0.687458  1
  Si  Si23  1  0.223204  0.481298  0.188380  1
  Si  Si24  1  0.726263  0.021425  0.562907  1
  Si  Si25  1  0.981539  0.269546  0.938477  1
  Si  Si26  1  0.021425  0.726263  0.437093  1
  Tc  Tc27  1  0.334392  0.334392  0.000000  1
  Tc  Tc28  1  0.187854  0.977233  0.868268  1
  Tc  Tc29  1  0.515673  0.685270  0.120835  1
  Tc  Tc30  1  0.483433  0.315773  0.620189  1
  Tc  Tc31  1  0.685270  0.515673  0.879165  1
  Tc  Tc32  1  0.315773  0.483433  0.379811  1
  Tc  Tc33  1  0.815583  0.020618  0.370138  1
  Tc  Tc34  1  0.977233  0.187854  0.131732  1
  Tc  Tc35  1  0.020618  0.815583  0.629862  1
