# generated using pymatgen
data_Ce3MgCd2AgPt2
_symmetry_space_group_name_H-M   'P 1'
_cell_length_a   7.85694300
_cell_length_b   7.85694154
_cell_length_c   3.93523300
_cell_angle_alpha   90.00000000
_cell_angle_beta   90.00000000
_cell_angle_gamma   120.79481424
_symmetry_Int_Tables_number   1
_chemical_formula_structural   Ce3MgCd2AgPt2
_chemical_formula_sum   'Ce3 Mg1 Cd2 Ag1 Pt2'
_cell_volume   208.67666798
_cell_formula_units_Z   1
loop_
 _symmetry_equiv_pos_site_id
 _symmetry_equiv_pos_as_xyz
  1  'x, y, z'
loop_
 _atom_site_type_symbol
 _atom_site_label
 _atom_site_symmetry_multiplicity
 _atom_site_fract_x
 _atom_site_fract_y
 _atom_site_fract_z
 _atom_site_occupancy
  Ce  Ce0  1  0.415487  0.415487  0.000000  1
  Ce  Ce1  1  0.579650  0.000119  0.000000  1
  Ce  Ce2  1  0.000119  0.579650  0.000000  1
  Mg  Mg3  1  0.746002  0.746002  0.500000  1
  Cd  Cd4  1  0.254721  0.997976  0.500000  1
  Cd  Cd5  1  0.997976  0.254721  0.500000  1
  Ag  Ag6  1  0.991062  0.991062  0.000000  1
  Pt  Pt7  1  0.669724  0.345259  0.500000  1
  Pt  Pt8  1  0.345259  0.669724  0.500000  1
