# generated using pymatgen
data_Lu4FeCo2Si4Ru
_symmetry_space_group_name_H-M   'P 1'
_cell_length_a   4.16991600
_cell_length_b   6.74003922
_cell_length_c   6.93600860
_cell_angle_alpha   89.98370059
_cell_angle_beta   90.00000000
_cell_angle_gamma   90.00000000
_symmetry_Int_Tables_number   1
_chemical_formula_structural   Lu4FeCo2Si4Ru
_chemical_formula_sum   'Lu4 Fe1 Co2 Si4 Ru1'
_cell_volume   194.93927009
_cell_formula_units_Z   1
loop_
 _symmetry_equiv_pos_site_id
 _symmetry_equiv_pos_as_xyz
  1  'x, y, z'
loop_
 _atom_site_type_symbol
 _atom_site_label
 _atom_site_symmetry_multiplicity
 _atom_site_fract_x
 _atom_site_fract_y
 _atom_site_fract_z
 _atom_site_occupancy
  Lu  Lu0  1  0.750000  0.015870  0.811168  1
  Lu  Lu1  1  0.250000  0.487753  0.306632  1
  Lu  Lu2  1  0.750000  0.512379  0.695430  1
  Lu  Lu3  1  0.250000  0.992361  0.188053  1
  Fe  Fe4  1  0.250000  0.153011  0.566711  1
  Co  Co5  1  0.750000  0.345684  0.061393  1
  Co  Co6  1  0.250000  0.648268  0.934629  1
  Si  Si7  1  0.750000  0.203341  0.401247  1
  Si  Si8  1  0.250000  0.301781  0.889266  1
  Si  Si9  1  0.750000  0.695076  0.101045  1
  Si  Si10  1  0.250000  0.802937  0.611997  1
  Ru  Ru11  1  0.750000  0.841538  0.432428  1
