# generated using pymatgen
data_Tb6Al19Si5(OsRu3)2
_symmetry_space_group_name_H-M   'P 1'
_cell_length_a   8.69701695
_cell_length_b   8.68363827
_cell_length_c   9.59335400
_cell_angle_alpha   90.00000000
_cell_angle_beta   90.00000000
_cell_angle_gamma   120.01169790
_symmetry_Int_Tables_number   1
_chemical_formula_structural   Tb6Al19Si5(OsRu3)2
_chemical_formula_sum   'Tb6 Al19 Si5 Os2 Ru6'
_cell_volume   627.36738590
_cell_formula_units_Z   1
loop_
 _symmetry_equiv_pos_site_id
 _symmetry_equiv_pos_as_xyz
  1  'x, y, z'
loop_
 _atom_site_type_symbol
 _atom_site_label
 _atom_site_symmetry_multiplicity
 _atom_site_fract_x
 _atom_site_fract_y
 _atom_site_fract_z
 _atom_site_occupancy
  Tb  Tb0  1  0.195901  0.388469  0.250000  1
  Tb  Tb1  1  0.804721  0.613017  0.750000  1
  Tb  Tb2  1  0.609355  0.805395  0.250000  1
  Tb  Tb3  1  0.388300  0.196038  0.750000  1
  Tb  Tb4  1  0.197664  0.807316  0.250000  1
  Tb  Tb5  1  0.806074  0.194014  0.750000  1
  Al  Al6  1  0.164203  0.329267  0.578430  1
  Al  Al7  1  0.835387  0.669809  0.421209  1
  Al  Al8  1  0.670110  0.835693  0.577506  1
  Al  Al9  1  0.835387  0.669809  0.078791  1
  Al  Al10  1  0.329205  0.164852  0.421716  1
  Al  Al11  1  0.164203  0.329267  0.921570  1
  Al  Al12  1  0.165014  0.835308  0.578133  1
  Al  Al13  1  0.329205  0.164852  0.078284  1
  Al  Al14  1  0.836142  0.165379  0.420766  1
  Al  Al15  1  0.670110  0.835693  0.922494  1
  Al  Al16  1  0.836142  0.165379  0.079234  1
  Al  Al17  1  0.165014  0.835308  0.921867  1
  Al  Al18  1  0.437047  0.874867  0.750000  1
  Al  Al19  1  0.873890  0.434006  0.250000  1
  Al  Al20  1  0.126352  0.563942  0.750000  1
  Al  Al21  1  0.562100  0.432347  0.250000  1
  Al  Al22  1  0.435586  0.565329  0.750000  1
  Al  Al23  1  0.999719  0.999952  0.250000  1
  Al  Al24  1  0.000585  0.000714  0.750000  1
  Si  Si25  1  0.332370  0.665195  0.036251  1
  Si  Si26  1  0.667638  0.334498  0.961426  1
  Si  Si27  1  0.667638  0.334498  0.538574  1
  Si  Si28  1  0.332370  0.665195  0.463749  1
  Si  Si29  1  0.563537  0.127051  0.250000  1
  Os  Os30  1  0.500119  0.498844  0.000468  1
  Os  Os31  1  0.500119  0.498844  0.499532  1
  Ru  Ru32  1  0.500897  0.001718  0.005888  1
  Ru  Ru33  1  0.998840  0.498874  0.000476  1
  Ru  Ru34  1  0.500897  0.001718  0.494112  1
  Ru  Ru35  1  0.998840  0.498874  0.499524  1
  Ru  Ru36  1  0.999662  0.999337  0.999961  1
  Ru  Ru37  1  0.999662  0.999337  0.500039  1
