# generated using pymatgen
data_Nb2Ga3Co
_symmetry_space_group_name_H-M   'P 1'
_cell_length_a   4.93959461
_cell_length_b   5.16113692
_cell_length_c   8.23805300
_cell_angle_alpha   90.00000000
_cell_angle_beta   90.00000000
_cell_angle_gamma   121.49391398
_symmetry_Int_Tables_number   1
_chemical_formula_structural   Nb2Ga3Co
_chemical_formula_sum   'Nb4 Ga6 Co2'
_cell_volume   179.08339668
_cell_formula_units_Z   2
loop_
 _symmetry_equiv_pos_site_id
 _symmetry_equiv_pos_as_xyz
  1  'x, y, z'
loop_
 _atom_site_type_symbol
 _atom_site_label
 _atom_site_symmetry_multiplicity
 _atom_site_fract_x
 _atom_site_fract_y
 _atom_site_fract_z
 _atom_site_occupancy
  Nb  Nb0  1  0.679071  0.339536  0.565105  1
  Nb  Nb1  1  0.320976  0.660490  0.434845  1
  Nb  Nb2  1  0.320976  0.660490  0.065155  1
  Nb  Nb3  1  0.679071  0.339536  0.934895  1
  Ga  Ga4  1  0.000092  0.000047  0.499948  1
  Ga  Ga5  1  0.000092  0.000047  0.000052  1
  Ga  Ga6  1  0.194180  0.358816  0.750000  1
  Ga  Ga7  1  0.194181  0.835373  0.750000  1
  Ga  Ga8  1  0.805702  0.641079  0.250000  1
  Ga  Ga9  1  0.805709  0.164622  0.250000  1
  Co  Co10  1  0.684563  0.842284  0.750000  1
  Co  Co11  1  0.315386  0.157684  0.250000  1
