# generated using pymatgen
data_Ba4U7PaSe20
_symmetry_space_group_name_H-M   'P 1'
_cell_length_a   7.91813833
_cell_length_b   8.81882937
_cell_length_c   12.37692200
_cell_angle_alpha   89.60510378
_cell_angle_beta   89.96674327
_cell_angle_gamma   90.12152431
_symmetry_Int_Tables_number   1
_chemical_formula_structural   Ba4U7PaSe20
_chemical_formula_sum   'Ba4 U7 Pa1 Se20'
_cell_volume   864.24188375
_cell_formula_units_Z   1
loop_
 _symmetry_equiv_pos_site_id
 _symmetry_equiv_pos_as_xyz
  1  'x, y, z'
loop_
 _atom_site_type_symbol
 _atom_site_label
 _atom_site_symmetry_multiplicity
 _atom_site_fract_x
 _atom_site_fract_y
 _atom_site_fract_z
 _atom_site_occupancy
  Ba  Ba0  1  0.054913  0.492597  0.330944  1
  Ba  Ba1  1  0.554558  0.507399  0.168589  1
  Ba  Ba2  1  0.945522  0.508789  0.668556  1
  Ba  Ba3  1  0.445526  0.492502  0.831336  1
  U  U4  1  0.523698  0.001350  0.179699  1
  U  U5  1  0.975264  0.001295  0.682884  1
  U  U6  1  0.476020  0.998901  0.817883  1
  U  U7  1  0.070881  0.755530  0.007078  1
  U  U8  1  0.569636  0.243590  0.492508  1
  U  U9  1  0.929070  0.243827  0.991169  1
  U  U10  1  0.430326  0.756657  0.508023  1
  Pa  Pa11  1  0.023940  0.998948  0.319015  1
  Se  Se12  1  0.664918  0.955886  0.401480  1
  Se  Se13  1  0.161888  0.043998  0.099599  1
  Se  Se14  1  0.335890  0.044337  0.597709  1
  Se  Se15  1  0.835887  0.954184  0.903472  1
  Se  Se16  1  0.451263  0.791277  0.001772  1
  Se  Se17  1  0.954206  0.207136  0.496333  1
  Se  Se18  1  0.548340  0.209720  0.998717  1
  Se  Se19  1  0.046494  0.793396  0.499409  1
  Se  Se20  1  0.841629  0.783431  0.189890  1
  Se  Se21  1  0.336453  0.214278  0.313721  1
  Se  Se22  1  0.161317  0.216919  0.812702  1
  Se  Se23  1  0.660956  0.782107  0.688124  1
  Se  Se24  1  0.310133  0.776851  0.284787  1
  Se  Se25  1  0.813571  0.225083  0.215868  1
  Se  Se26  1  0.690191  0.225640  0.715458  1
  Se  Se27  1  0.188365  0.774391  0.783202  1
  Se  Se28  1  0.176566  0.461354  0.072697  1
  Se  Se29  1  0.676071  0.537860  0.427095  1
  Se  Se30  1  0.823841  0.538788  0.927651  1
  Se  Se31  1  0.322667  0.461976  0.572631  1
