# generated using pymatgen
data_HoMgReH6
_symmetry_space_group_name_H-M   'P 1'
_cell_length_a   4.90501970
_cell_length_b   4.90527553
_cell_length_c   4.90513700
_cell_angle_alpha   120.00324183
_cell_angle_beta   119.99925631
_cell_angle_gamma   89.99685610
_symmetry_Int_Tables_number   1
_chemical_formula_structural   HoMgReH6
_chemical_formula_sum   'Ho1 Mg1 Re1 H6'
_cell_volume   83.45182179
_cell_formula_units_Z   1
loop_
 _symmetry_equiv_pos_site_id
 _symmetry_equiv_pos_as_xyz
  1  'x, y, z'
loop_
 _atom_site_type_symbol
 _atom_site_label
 _atom_site_symmetry_multiplicity
 _atom_site_fract_x
 _atom_site_fract_y
 _atom_site_fract_z
 _atom_site_occupancy
  Ho  Ho0  1  0.750007  0.250020  0.500125  1
  Mg  Mg1  1  0.250004  0.750037  0.499973  1
  Re  Re2  1  0.999981  0.999872  0.999379  1
  H  H3  1  0.253507  0.253513  0.000088  1
  H  H4  1  0.746490  0.253529  0.000094  1
  H  H5  1  0.253511  0.746498  0.000085  1
  H  H6  1  0.746499  0.746508  0.000091  1
  H  H7  1  0.746490  0.746501  0.493062  1
  H  H8  1  0.253506  0.253515  0.507099  1
