# generated using pymatgen
data_Pr8NdY11Sb16
_symmetry_space_group_name_H-M   'P 1'
_cell_length_a   8.16511966
_cell_length_b   8.35092125
_cell_length_c   15.76466000
_cell_angle_alpha   89.86159951
_cell_angle_beta   90.02305130
_cell_angle_gamma   89.92649875
_symmetry_Int_Tables_number   1
_chemical_formula_structural   Pr8NdY11Sb16
_chemical_formula_sum   'Pr8 Nd1 Y11 Sb16'
_cell_volume   1074.92927396
_cell_formula_units_Z   1
loop_
 _symmetry_equiv_pos_site_id
 _symmetry_equiv_pos_as_xyz
  1  'x, y, z'
loop_
 _atom_site_type_symbol
 _atom_site_label
 _atom_site_symmetry_multiplicity
 _atom_site_fract_x
 _atom_site_fract_y
 _atom_site_fract_z
 _atom_site_occupancy
  Pr  Pr0  1  0.521095  0.319425  0.905403  1
  Pr  Pr1  1  0.019170  0.180861  0.593374  1
  Pr  Pr2  1  0.479714  0.680481  0.406070  1
  Pr  Pr3  1  0.981385  0.819191  0.094080  1
  Pr  Pr4  1  0.478929  0.679680  0.095277  1
  Pr  Pr5  1  0.979962  0.819366  0.406315  1
  Pr  Pr6  1  0.519973  0.319492  0.592589  1
  Pr  Pr7  1  0.020745  0.183279  0.906495  1
  Nd  Nd8  1  0.350626  0.850436  0.878327  1
  Y  Y9  1  0.849935  0.648306  0.621384  1
  Y  Y10  1  0.649104  0.149094  0.377597  1
  Y  Y11  1  0.147749  0.350957  0.124469  1
  Y  Y12  1  0.650033  0.149394  0.122663  1
  Y  Y13  1  0.149580  0.351087  0.377605  1
  Y  Y14  1  0.349936  0.851189  0.621912  1
  Y  Y15  1  0.849869  0.649419  0.876799  1
  Y  Y16  1  0.191341  0.498312  0.749612  1
  Y  Y17  1  0.692223  0.002118  0.749175  1
  Y  Y18  1  0.807542  0.502111  0.250253  1
  Y  Y19  1  0.307875  0.998090  0.251139  1
  Sb  Sb20  1  0.295347  0.044011  0.049640  1
  Sb  Sb21  1  0.795376  0.457852  0.452887  1
  Sb  Sb22  1  0.704642  0.957825  0.546396  1
  Sb  Sb23  1  0.202816  0.535929  0.954328  1
  Sb  Sb24  1  0.710266  0.959804  0.953798  1
  Sb  Sb25  1  0.204904  0.542396  0.546394  1
  Sb  Sb26  1  0.294864  0.042136  0.453393  1
  Sb  Sb27  1  0.794194  0.458856  0.046907  1
  Sb  Sb28  1  0.550498  0.636607  0.747500  1
  Sb  Sb29  1  0.047085  0.860231  0.747781  1
  Sb  Sb30  1  0.451116  0.361284  0.250488  1
  Sb  Sb31  1  0.950455  0.138672  0.250976  1
  Sb  Sb32  1  0.340180  0.154105  0.748432  1
  Sb  Sb33  1  0.840100  0.347342  0.749529  1
  Sb  Sb34  1  0.660716  0.848162  0.250325  1
  Sb  Sb35  1  0.160655  0.652501  0.250688  1
