# generated using pymatgen
data_Ba8Ho3Er(CoO5)4
_symmetry_space_group_name_H-M   'P 1'
_cell_length_a   6.14771300
_cell_length_b   7.94248921
_cell_length_c   12.46565417
_cell_angle_alpha   91.62006008
_cell_angle_beta   89.99860270
_cell_angle_gamma   90.00393632
_symmetry_Int_Tables_number   1
_chemical_formula_structural   Ba8Ho3Er(CoO5)4
_chemical_formula_sum   'Ba8 Ho3 Er1 Co4 O20'
_cell_volume   608.43145702
_cell_formula_units_Z   1
loop_
 _symmetry_equiv_pos_site_id
 _symmetry_equiv_pos_as_xyz
  1  'x, y, z'
loop_
 _atom_site_type_symbol
 _atom_site_label
 _atom_site_symmetry_multiplicity
 _atom_site_fract_x
 _atom_site_fract_y
 _atom_site_fract_z
 _atom_site_occupancy
  Ba  Ba0  1  0.758033  0.491741  0.360532  1
  Ba  Ba1  1  0.741940  0.991963  0.860265  1
  Ba  Ba2  1  0.241909  0.507923  0.639576  1
  Ba  Ba3  1  0.258046  0.008180  0.139587  1
  Ba  Ba4  1  0.753013  0.993072  0.384140  1
  Ba  Ba5  1  0.746967  0.492828  0.883856  1
  Ba  Ba6  1  0.247001  0.007283  0.615995  1
  Ba  Ba7  1  0.253018  0.507048  0.115967  1
  Ho  Ho8  1  0.751850  0.763463  0.129038  1
  Ho  Ho9  1  0.251860  0.736532  0.370994  1
  Ho  Ho10  1  0.248068  0.236604  0.870679  1
  Er  Er11  1  0.748033  0.263230  0.629228  1
  Co  Co12  1  0.741326  0.746120  0.592735  1
  Co  Co13  1  0.758633  0.246096  0.092634  1
  Co  Co14  1  0.258713  0.254014  0.407809  1
  Co  Co15  1  0.241315  0.753937  0.907374  1
  O  O16  1  0.754492  0.973102  0.632846  1
  O  O17  1  0.745402  0.472518  0.132942  1
  O  O18  1  0.245491  0.027606  0.367042  1
  O  O19  1  0.254560  0.527309  0.867049  1
  O  O20  1  0.738275  0.055002  0.171308  1
  O  O21  1  0.761676  0.554339  0.671021  1
  O  O22  1  0.261770  0.945151  0.828675  1
  O  O23  1  0.238246  0.444825  0.328710  1
  O  O24  1  0.539855  0.746476  0.269614  1
  O  O25  1  0.959885  0.246603  0.769130  1
  O  O26  1  0.461116  0.253534  0.730225  1
  O  O27  1  0.039956  0.753490  0.230342  1
  O  O28  1  0.528684  0.229152  0.988348  1
  O  O29  1  0.971134  0.729152  0.488436  1
  O  O30  1  0.471134  0.770876  0.011567  1
  O  O31  1  0.028008  0.270841  0.511952  1
  O  O32  1  0.030094  0.233438  0.018110  1
  O  O33  1  0.470086  0.733518  0.518238  1
  O  O34  1  0.970023  0.766539  0.981735  1
  O  O35  1  0.530386  0.266499  0.482300  1
