# generated using pymatgen
data_Li2ScTaRh4
_symmetry_space_group_name_H-M   'P 1'
_cell_length_a   4.35698310
_cell_length_b   6.16058114
_cell_length_c   13.14427200
_cell_angle_alpha   90.00004034
_cell_angle_beta   90.00054641
_cell_angle_gamma   90.02442807
_symmetry_Int_Tables_number   1
_chemical_formula_structural   Li2ScTaRh4
_chemical_formula_sum   'Li6 Sc3 Ta3 Rh12'
_cell_volume   352.81257452
_cell_formula_units_Z   3
loop_
 _symmetry_equiv_pos_site_id
 _symmetry_equiv_pos_as_xyz
  1  'x, y, z'
loop_
 _atom_site_type_symbol
 _atom_site_label
 _atom_site_symmetry_multiplicity
 _atom_site_fract_x
 _atom_site_fract_y
 _atom_site_fract_z
 _atom_site_occupancy
  Li  Li0  1  0.000008  0.499947  0.001226  1
  Li  Li1  1  0.499853  0.000052  0.166646  1
  Li  Li2  1  0.999871  0.499947  0.332194  1
  Li  Li3  1  0.499998  0.000044  0.499397  1
  Li  Li4  1  0.000145  0.499959  0.666638  1
  Li  Li5  1  0.500107  0.000043  0.833917  1
  Sc  Sc6  1  0.000000  0.000064  0.001429  1
  Sc  Sc7  1  0.499878  0.499934  0.166682  1
  Sc  Sc8  1  0.999876  0.000067  0.331907  1
  Ta  Ta9  1  0.500006  0.499981  0.497919  1
  Ta  Ta10  1  0.000110  0.000018  0.666657  1
  Ta  Ta11  1  0.500124  0.499982  0.835405  1
  Rh  Rh12  1  0.500030  0.253205  0.994035  1
  Rh  Rh13  1  0.500001  0.746793  0.994031  1
  Rh  Rh14  1  0.999865  0.251770  0.166683  1
  Rh  Rh15  1  0.999871  0.748233  0.166682  1
  Rh  Rh16  1  0.499906  0.253222  0.339299  1
  Rh  Rh17  1  0.499872  0.746779  0.339306  1
  Rh  Rh18  1  0.000004  0.253977  0.505381  1
  Rh  Rh19  1  0.000009  0.746015  0.505383  1
  Rh  Rh20  1  0.500131  0.249511  0.666660  1
  Rh  Rh21  1  0.500099  0.750462  0.666664  1
  Rh  Rh22  1  0.000123  0.253975  0.827932  1
  Rh  Rh23  1  0.000121  0.746019  0.827927  1
