# generated using pymatgen
data_SrNd2Sn5Pd6
_symmetry_space_group_name_H-M   'P 1'
_cell_length_a   4.52072300
_cell_length_b   9.95458300
_cell_length_c   13.81347300
_cell_angle_alpha   90.00000000
_cell_angle_beta   90.00000000
_cell_angle_gamma   90.00000000
_symmetry_Int_Tables_number   1
_chemical_formula_structural   SrNd2Sn5Pd6
_chemical_formula_sum   'Sr2 Nd4 Sn10 Pd12'
_cell_volume   621.63270083
_cell_formula_units_Z   2
loop_
 _symmetry_equiv_pos_site_id
 _symmetry_equiv_pos_as_xyz
  1  'x, y, z'
loop_
 _atom_site_type_symbol
 _atom_site_label
 _atom_site_symmetry_multiplicity
 _atom_site_fract_x
 _atom_site_fract_y
 _atom_site_fract_z
 _atom_site_occupancy
  Sr  Sr0  1  0.000000  0.232437  0.000000  1
  Sr  Sr1  1  0.500000  0.767563  0.500000  1
  Nd  Nd2  1  0.000000  0.255574  0.308599  1
  Nd  Nd3  1  0.500000  0.744426  0.191401  1
  Nd  Nd4  1  0.000000  0.255574  0.691401  1
  Nd  Nd5  1  0.500000  0.744426  0.808599  1
  Sn  Sn6  1  0.000000  0.517660  0.135448  1
  Sn  Sn7  1  0.500000  0.482340  0.364552  1
  Sn  Sn8  1  0.000000  0.517660  0.864552  1
  Sn  Sn9  1  0.500000  0.482340  0.635448  1
  Sn  Sn10  1  0.000000  0.902676  0.328841  1
  Sn  Sn11  1  0.500000  0.097324  0.171159  1
  Sn  Sn12  1  0.000000  0.902676  0.671159  1
  Sn  Sn13  1  0.500000  0.097324  0.828841  1
  Sn  Sn14  1  0.000000  0.762510  0.000000  1
  Sn  Sn15  1  0.500000  0.237490  0.500000  1
  Pd  Pd16  1  0.000000  0.964373  0.133333  1
  Pd  Pd17  1  0.500000  0.035627  0.366667  1
  Pd  Pd18  1  0.000000  0.964373  0.866667  1
  Pd  Pd19  1  0.500000  0.035627  0.633333  1
  Pd  Pd20  1  0.500000  0.939598  0.000000  1
  Pd  Pd21  1  0.000000  0.060402  0.500000  1
  Pd  Pd22  1  0.000000  0.626043  0.327366  1
  Pd  Pd23  1  0.500000  0.373957  0.172634  1
  Pd  Pd24  1  0.000000  0.626043  0.672634  1
  Pd  Pd25  1  0.500000  0.373957  0.827366  1
  Pd  Pd26  1  0.500000  0.556752  0.000000  1
  Pd  Pd27  1  0.000000  0.443248  0.500000  1
