# generated using pymatgen
data_Mn2Nb6Ga4CN
_symmetry_space_group_name_H-M   'P 1'
_cell_length_a   8.26769346
_cell_length_b   8.26769388
_cell_length_c   8.28456300
_cell_angle_alpha   59.93249426
_cell_angle_beta   59.93249258
_cell_angle_gamma   59.83458613
_symmetry_Int_Tables_number   1
_chemical_formula_structural   Mn2Nb6Ga4CN
_chemical_formula_sum   'Mn4 Nb12 Ga8 C2 N2'
_cell_volume   399.51649581
_cell_formula_units_Z   2
loop_
 _symmetry_equiv_pos_site_id
 _symmetry_equiv_pos_as_xyz
  1  'x, y, z'
loop_
 _atom_site_type_symbol
 _atom_site_label
 _atom_site_symmetry_multiplicity
 _atom_site_fract_x
 _atom_site_fract_y
 _atom_site_fract_z
 _atom_site_occupancy
  Mn  Mn0  1  0.125000  0.625000  0.625000  1
  Mn  Mn1  1  0.625000  0.125000  0.625000  1
  Mn  Mn2  1  0.625000  0.625000  0.125000  1
  Mn  Mn3  1  0.625000  0.625000  0.625000  1
  Nb  Nb4  1  0.806098  0.806098  0.193902  1
  Nb  Nb5  1  0.195055  0.195055  0.804945  1
  Nb  Nb6  1  0.805318  0.195019  0.806040  1
  Nb  Nb7  1  0.195019  0.805318  0.193623  1
  Nb  Nb8  1  0.195019  0.805318  0.806040  1
  Nb  Nb9  1  0.805318  0.195019  0.193623  1
  Nb  Nb10  1  0.443902  0.443902  0.056098  1
  Nb  Nb11  1  0.054945  0.054945  0.445055  1
  Nb  Nb12  1  0.444682  0.054981  0.443960  1
  Nb  Nb13  1  0.054981  0.444682  0.056377  1
  Nb  Nb14  1  0.054981  0.444682  0.443960  1
  Nb  Nb15  1  0.444682  0.054981  0.056377  1
  Ga  Ga16  1  0.758200  0.413741  0.414030  1
  Ga  Ga17  1  0.413741  0.758200  0.414030  1
  Ga  Ga18  1  0.413728  0.413728  0.758396  1
  Ga  Ga19  1  0.413728  0.413728  0.414152  1
  Ga  Ga20  1  0.491800  0.836259  0.835970  1
  Ga  Ga21  1  0.836259  0.491800  0.835970  1
  Ga  Ga22  1  0.836272  0.836272  0.491604  1
  Ga  Ga23  1  0.836272  0.836272  0.835848  1
  C  C24  1  0.125000  0.125000  0.625000  1
  C  C25  1  0.125000  0.125000  0.125000  1
  N  N26  1  0.625000  0.125000  0.125000  1
  N  N27  1  0.125000  0.625000  0.125000  1
