# generated using pymatgen
data_ScRhI18
_symmetry_space_group_name_H-M   'P 1'
_cell_length_a   10.11958516
_cell_length_b   10.11366216
_cell_length_c   10.11232692
_cell_angle_alpha   89.09824350
_cell_angle_beta   89.07518807
_cell_angle_gamma   89.14946344
_symmetry_Int_Tables_number   1
_chemical_formula_structural   ScRhI18
_chemical_formula_sum   'Sc1 Rh1 I18'
_cell_volume   1034.58370325
_cell_formula_units_Z   1
loop_
 _symmetry_equiv_pos_site_id
 _symmetry_equiv_pos_as_xyz
  1  'x, y, z'
loop_
 _atom_site_type_symbol
 _atom_site_label
 _atom_site_symmetry_multiplicity
 _atom_site_fract_x
 _atom_site_fract_y
 _atom_site_fract_z
 _atom_site_occupancy
  Sc  Sc0  1  0.000000  0.000000  0.000000  1
  Rh  Rh1  1  0.500000  0.500000  0.500000  1
  I  I2  1  0.765691  0.477367  0.501111  1
  I  I3  1  0.501462  0.765870  0.477196  1
  I  I4  1  0.477465  0.501734  0.766018  1
  I  I5  1  0.234309  0.522633  0.498889  1
  I  I6  1  0.498538  0.234130  0.522804  1
  I  I7  1  0.522535  0.498266  0.233982  1
  I  I8  1  0.879938  0.379654  0.747141  1
  I  I9  1  0.747519  0.880098  0.379930  1
  I  I10  1  0.379730  0.747871  0.880043  1
  I  I11  1  0.120062  0.620346  0.252859  1
  I  I12  1  0.252481  0.119902  0.620070  1
  I  I13  1  0.620270  0.252129  0.119957  1
  I  I14  1  0.016581  0.971686  0.714617  1
  I  I15  1  0.714880  0.016158  0.972172  1
  I  I16  1  0.971972  0.714773  0.016963  1
  I  I17  1  0.983419  0.028314  0.285383  1
  I  I18  1  0.285120  0.983842  0.027828  1
  I  I19  1  0.028028  0.285227  0.983037  1
