# generated using pymatgen
data_Tm16MgIn3NiRh3
_symmetry_space_group_name_H-M   'P 1'
_cell_length_a   9.52434593
_cell_length_b   9.52434604
_cell_length_c   9.51584322
_cell_angle_alpha   59.92812659
_cell_angle_beta   59.92812383
_cell_angle_gamma   60.09080283
_symmetry_Int_Tables_number   1
_chemical_formula_structural   Tm16MgIn3NiRh3
_chemical_formula_sum   'Tm16 Mg1 In3 Ni1 Rh3'
_cell_volume   610.13569690
_cell_formula_units_Z   1
loop_
 _symmetry_equiv_pos_site_id
 _symmetry_equiv_pos_as_xyz
  1  'x, y, z'
loop_
 _atom_site_type_symbol
 _atom_site_label
 _atom_site_symmetry_multiplicity
 _atom_site_fract_x
 _atom_site_fract_y
 _atom_site_fract_z
 _atom_site_occupancy
  Tm  Tm0  1  0.063023  0.063023  0.438044  1
  Tm  Tm1  1  0.434127  0.065794  0.435645  1
  Tm  Tm2  1  0.061000  0.439273  0.060911  1
  Tm  Tm3  1  0.047022  0.651814  0.646743  1
  Tm  Tm4  1  0.436383  0.436383  0.063677  1
  Tm  Tm5  1  0.651814  0.047022  0.646743  1
  Tm  Tm6  1  0.185779  0.811166  0.189308  1
  Tm  Tm7  1  0.187404  0.187404  0.811908  1
  Tm  Tm8  1  0.810199  0.810199  0.191985  1
  Tm  Tm9  1  0.439273  0.061000  0.060911  1
  Tm  Tm10  1  0.811166  0.185779  0.189308  1
  Tm  Tm11  1  0.065794  0.434127  0.435645  1
  Tm  Tm12  1  0.808803  0.190996  0.810253  1
  Tm  Tm13  1  0.190996  0.808803  0.810253  1
  Tm  Tm14  1  0.648893  0.648893  0.050888  1
  Tm  Tm15  1  0.654272  0.654272  0.648299  1
  Mg  Mg16  1  0.421028  0.421028  0.423364  1
  In  In17  1  0.749211  0.416341  0.418049  1
  In  In18  1  0.416341  0.749211  0.418049  1
  In  In19  1  0.416952  0.416952  0.748537  1
  Ni  Ni20  1  0.858421  0.858421  0.425317  1
  Rh  Rh21  1  0.857047  0.857047  0.858238  1
  Rh  Rh22  1  0.427590  0.857462  0.858964  1
  Rh  Rh23  1  0.857462  0.427590  0.858964  1
