# generated using pymatgen
data_Tb4Ir3PdO14
_symmetry_space_group_name_H-M   'P 1'
_cell_length_a   7.28949538
_cell_length_b   7.25722051
_cell_length_c   7.28949600
_cell_angle_alpha   59.85277306
_cell_angle_beta   59.99999718
_cell_angle_gamma   59.85276610
_symmetry_Int_Tables_number   1
_chemical_formula_structural   Tb4Ir3PdO14
_chemical_formula_sum   'Tb4 Ir3 Pd1 O14'
_cell_volume   272.06972191
_cell_formula_units_Z   1
loop_
 _symmetry_equiv_pos_site_id
 _symmetry_equiv_pos_as_xyz
  1  'x, y, z'
loop_
 _atom_site_type_symbol
 _atom_site_label
 _atom_site_symmetry_multiplicity
 _atom_site_fract_x
 _atom_site_fract_y
 _atom_site_fract_z
 _atom_site_occupancy
  Tb  Tb0  1  0.625000  0.125000  0.125000  1
  Tb  Tb1  1  0.125000  0.625000  0.125000  1
  Tb  Tb2  1  0.125000  0.125000  0.625000  1
  Tb  Tb3  1  0.125000  0.125000  0.125000  1
  Ir  Ir4  1  0.125000  0.625000  0.625000  1
  Ir  Ir5  1  0.625000  0.625000  0.125000  1
  Ir  Ir6  1  0.625000  0.625000  0.625000  1
  Pd  Pd7  1  0.625000  0.125000  0.625000  1
  O  O8  1  0.715288  0.705306  0.289703  1
  O  O9  1  0.280416  0.288458  0.715563  1
  O  O10  1  0.715563  0.288458  0.715563  1
  O  O11  1  0.289703  0.705306  0.289703  1
  O  O12  1  0.289703  0.705306  0.715288  1
  O  O13  1  0.715563  0.288458  0.280416  1
  O  O14  1  0.534712  0.544694  0.960297  1
  O  O15  1  0.969584  0.961542  0.534437  1
  O  O16  1  0.534437  0.961542  0.534437  1
  O  O17  1  0.960297  0.544694  0.960297  1
  O  O18  1  0.960297  0.544694  0.534712  1
  O  O19  1  0.534437  0.961542  0.969584  1
  O  O20  1  0.249975  0.250073  0.249975  1
  O  O21  1  0.000025  0.999927  0.000025  1
