# generated using pymatgen
data_Tb2Ce2YSn3Au
_symmetry_space_group_name_H-M   'P 1'
_cell_length_a   9.43531300
_cell_length_b   9.43060701
_cell_length_c   6.46659600
_cell_angle_alpha   90.00000000
_cell_angle_beta   90.00000000
_cell_angle_gamma   120.01651208
_symmetry_Int_Tables_number   1
_chemical_formula_structural   Tb2Ce2YSn3Au
_chemical_formula_sum   'Tb4 Ce4 Y2 Sn6 Au2'
_cell_volume   498.23018468
_cell_formula_units_Z   2
loop_
 _symmetry_equiv_pos_site_id
 _symmetry_equiv_pos_as_xyz
  1  'x, y, z'
loop_
 _atom_site_type_symbol
 _atom_site_label
 _atom_site_symmetry_multiplicity
 _atom_site_fract_x
 _atom_site_fract_y
 _atom_site_fract_z
 _atom_site_occupancy
  Tb  Tb0  1  0.999985  0.271644  0.750000  1
  Tb  Tb1  1  0.000015  0.728356  0.250000  1
  Tb  Tb2  1  0.728341  0.728356  0.750000  1
  Tb  Tb3  1  0.271659  0.271644  0.250000  1
  Ce  Ce4  1  0.333336  0.666674  0.500000  1
  Ce  Ce5  1  0.666664  0.333326  0.500000  1
  Ce  Ce6  1  0.666664  0.333326  0.000000  1
  Ce  Ce7  1  0.333336  0.666674  0.000000  1
  Y  Y8  1  0.271776  0.000000  0.750000  1
  Y  Y9  1  0.728224  0.000000  0.250000  1
  Sn  Sn10  1  0.620285  0.000000  0.750000  1
  Sn  Sn11  1  0.379715  0.000000  0.250000  1
  Sn  Sn12  1  0.000045  0.620499  0.750000  1
  Sn  Sn13  1  0.999955  0.379501  0.250000  1
  Sn  Sn14  1  0.379546  0.379501  0.750000  1
  Sn  Sn15  1  0.620454  0.620499  0.250000  1
  Au  Au16  1  0.000000  0.000000  0.500000  1
  Au  Au17  1  0.000000  0.000000  0.000000  1
