# generated using pymatgen
data_HoEr7Ti11Si16Pt
_symmetry_space_group_name_H-M   'P 1'
_cell_length_a   7.02628659
_cell_length_b   7.02617726
_cell_length_c   12.81982703
_cell_angle_alpha   90.17209052
_cell_angle_beta   89.82510675
_cell_angle_gamma   89.70051808
_symmetry_Int_Tables_number   1
_chemical_formula_structural   HoEr7Ti11Si16Pt
_chemical_formula_sum   'Ho1 Er7 Ti11 Si16 Pt1'
_cell_volume   632.87390830
_cell_formula_units_Z   1
loop_
 _symmetry_equiv_pos_site_id
 _symmetry_equiv_pos_as_xyz
  1  'x, y, z'
loop_
 _atom_site_type_symbol
 _atom_site_label
 _atom_site_symmetry_multiplicity
 _atom_site_fract_x
 _atom_site_fract_y
 _atom_site_fract_z
 _atom_site_occupancy
  Ho  Ho0  1  0.340753  0.003421  0.467062  1
  Er  Er1  1  0.496707  0.842024  0.717794  1
  Er  Er2  1  0.501512  0.156792  0.214361  1
  Er  Er3  1  0.842079  0.496728  0.282231  1
  Er  Er4  1  0.156861  0.501518  0.785621  1
  Er  Er5  1  0.656017  0.999090  0.968639  1
  Er  Er6  1  0.003299  0.340836  0.532929  1
  Er  Er7  1  0.999078  0.656045  0.031349  1
  Ti  Ti8  1  0.175925  0.825827  0.248430  1
  Ti  Ti9  1  0.825843  0.175941  0.751551  1
  Ti  Ti10  1  0.673521  0.673441  0.500000  1
  Ti  Ti11  1  0.147870  0.003974  0.876570  1
  Ti  Ti12  1  0.494626  0.654298  0.124055  1
  Ti  Ti13  1  0.506544  0.351092  0.627308  1
  Ti  Ti14  1  0.654303  0.494632  0.875953  1
  Ti  Ti15  1  0.351070  0.506528  0.372692  1
  Ti  Ti16  1  0.850352  0.993566  0.374518  1
  Ti  Ti17  1  0.003953  0.147877  0.123451  1
  Ti  Ti18  1  0.993537  0.850367  0.625486  1
  Si  Si19  1  0.201963  0.134152  0.685155  1
  Si  Si20  1  0.372313  0.710193  0.931417  1
  Si  Si21  1  0.631851  0.294661  0.433142  1
  Si  Si22  1  0.710187  0.372320  0.068586  1
  Si  Si23  1  0.294577  0.631646  0.566888  1
  Si  Si24  1  0.797289  0.866384  0.182959  1
  Si  Si25  1  0.134056  0.202051  0.314818  1
  Si  Si26  1  0.866385  0.797282  0.817055  1
  Si  Si27  1  0.285948  0.944660  0.064406  1
  Si  Si28  1  0.547771  0.791817  0.315088  1
  Si  Si29  1  0.449484  0.209471  0.815557  1
  Si  Si30  1  0.791882  0.547692  0.684854  1
  Si  Si31  1  0.209462  0.449494  0.184448  1
  Si  Si32  1  0.708029  0.048287  0.565453  1
  Si  Si33  1  0.944664  0.285953  0.935601  1
  Si  Si34  1  0.048186  0.707839  0.434570  1
  Pt  Pt35  1  0.332105  0.332104  0.000003  1
