# generated using pymatgen
data_Ba4Al6SeO16
_symmetry_space_group_name_H-M   'P 1'
_cell_length_a   8.45729472
_cell_length_b   8.45729472
_cell_length_c   8.45729406
_cell_angle_alpha   109.62944988
_cell_angle_beta   109.62945143
_cell_angle_gamma   109.15522074
_symmetry_Int_Tables_number   1
_chemical_formula_structural   Ba4Al6SeO16
_chemical_formula_sum   'Ba4 Al6 Se1 O16'
_cell_volume   465.65318338
_cell_formula_units_Z   1
loop_
 _symmetry_equiv_pos_site_id
 _symmetry_equiv_pos_as_xyz
  1  'x, y, z'
loop_
 _atom_site_type_symbol
 _atom_site_label
 _atom_site_symmetry_multiplicity
 _atom_site_fract_x
 _atom_site_fract_y
 _atom_site_fract_z
 _atom_site_occupancy
  Ba  Ba0  1  0.503963  0.003963  0.007927  1
  Ba  Ba1  1  0.996037  0.003963  0.500000  1
  Ba  Ba2  1  0.996037  0.496037  0.992073  1
  Ba  Ba3  1  0.503963  0.496037  0.500000  1
  Al  Al4  1  0.498142  0.247515  0.749373  1
  Al  Al5  1  0.750000  0.250000  0.500000  1
  Al  Al6  1  0.251232  0.501858  0.749373  1
  Al  Al7  1  0.250000  0.750000  0.500000  1
  Al  Al8  1  0.498142  0.748768  0.250627  1
  Al  Al9  1  0.752485  0.501858  0.250627  1
  Se  Se10  1  0.000000  0.000000  0.000000  1
  O  O11  1  0.649175  0.998898  0.349723  1
  O  O12  1  0.312780  0.656853  0.655927  1
  O  O13  1  0.653906  0.346094  0.000000  1
  O  O14  1  0.343147  0.999075  0.655927  1
  O  O15  1  0.001102  0.350825  0.650277  1
  O  O16  1  0.653906  0.653906  0.307812  1
  O  O17  1  0.649175  0.299451  0.650277  1
  O  O18  1  0.000925  0.656853  0.344073  1
  O  O19  1  0.346094  0.653906  0.000000  1
  O  O20  1  0.343147  0.687220  0.344073  1
  O  O21  1  0.700549  0.350825  0.349723  1
  O  O22  1  0.346094  0.346094  0.692188  1
  O  O23  1  0.900398  0.759457  0.859060  1
  O  O24  1  0.958662  0.099602  0.859060  1
  O  O25  1  0.240543  0.099602  0.140940  1
  O  O26  1  0.900398  0.041338  0.140940  1
