# generated using pymatgen
data_Dy4Lu4Co(B8W)3
_symmetry_space_group_name_H-M   'P 1'
_cell_length_a   3.56212400
_cell_length_b   9.20365092
_cell_length_c   11.61166444
_cell_angle_alpha   90.19446792
_cell_angle_beta   90.00000000
_cell_angle_gamma   90.00000000
_symmetry_Int_Tables_number   1
_chemical_formula_structural   Dy4Lu4Co(B8W)3
_chemical_formula_sum   'Dy4 Lu4 Co1 B24 W3'
_cell_volume   380.68095221
_cell_formula_units_Z   1
loop_
 _symmetry_equiv_pos_site_id
 _symmetry_equiv_pos_as_xyz
  1  'x, y, z'
loop_
 _atom_site_type_symbol
 _atom_site_label
 _atom_site_symmetry_multiplicity
 _atom_site_fract_x
 _atom_site_fract_y
 _atom_site_fract_z
 _atom_site_occupancy
  Dy  Dy0  1  0.000000  0.820508  0.086509  1
  Dy  Dy1  1  0.000000  0.177672  0.915015  1
  Dy  Dy2  1  0.000000  0.321367  0.414928  1
  Dy  Dy3  1  0.000000  0.678577  0.586055  1
  Lu  Lu4  1  0.000000  0.444054  0.126508  1
  Lu  Lu5  1  0.000000  0.552713  0.867847  1
  Lu  Lu6  1  0.000000  0.946075  0.373857  1
  Lu  Lu7  1  0.000000  0.061551  0.629769  1
  Co  Co8  1  0.000000  0.360630  0.680205  1
  B  B9  1  0.500000  0.050839  0.065360  1
  B  B10  1  0.500000  0.947542  0.934093  1
  B  B11  1  0.500000  0.550700  0.436692  1
  B  B12  1  0.500000  0.444056  0.569202  1
  B  B13  1  0.500000  0.252325  0.078086  1
  B  B14  1  0.500000  0.744990  0.919554  1
  B  B15  1  0.500000  0.754528  0.422330  1
  B  B16  1  0.500000  0.252904  0.583713  1
  B  B17  1  0.500000  0.295976  0.235475  1
  B  B18  1  0.500000  0.702494  0.761893  1
  B  B19  1  0.500000  0.795506  0.265046  1
  B  B20  1  0.500000  0.210929  0.734646  1
  B  B21  1  0.500000  0.131822  0.318302  1
  B  B22  1  0.500000  0.870414  0.681205  1
  B  B23  1  0.500000  0.629631  0.182892  1
  B  B24  1  0.500000  0.368319  0.813745  1
  B  B25  1  0.500000  0.477862  0.286625  1
  B  B26  1  0.500000  0.512747  0.710979  1
  B  B27  1  0.500000  0.978360  0.214721  1
  B  B28  1  0.500000  0.022919  0.786583  1
  B  B29  1  0.500000  0.103569  0.474439  1
  B  B30  1  0.500000  0.903447  0.528446  1
  B  B31  1  0.500000  0.598103  0.025618  1
  B  B32  1  0.500000  0.398850  0.969651  1
  W  W33  1  0.000000  0.139278  0.180251  1
  W  W34  1  0.000000  0.859696  0.818267  1
  W  W35  1  0.000000  0.639047  0.321492  1
