# generated using pymatgen
data_MnV13Re4(Si6Ni)2
_symmetry_space_group_name_H-M   'P 1'
_cell_length_a   6.98230021
_cell_length_b   6.98230063
_cell_length_c   13.25000319
_cell_angle_alpha   89.98136525
_cell_angle_beta   90.01863409
_cell_angle_gamma   140.50270186
_symmetry_Int_Tables_number   1
_chemical_formula_structural   MnV13Re4(Si6Ni)2
_chemical_formula_sum   'Mn1 V13 Re4 Si12 Ni2'
_cell_volume   410.86457585
_cell_formula_units_Z   1
loop_
 _symmetry_equiv_pos_site_id
 _symmetry_equiv_pos_as_xyz
  1  'x, y, z'
loop_
 _atom_site_type_symbol
 _atom_site_label
 _atom_site_symmetry_multiplicity
 _atom_site_fract_x
 _atom_site_fract_y
 _atom_site_fract_z
 _atom_site_occupancy
  Mn  Mn0  1  0.500773  0.500773  0.500000  1
  V  V1  1  0.843531  0.653498  0.680803  1
  V  V2  1  0.348920  0.152910  0.179898  1
  V  V3  1  0.653498  0.843531  0.319197  1
  V  V4  1  0.152910  0.348920  0.820102  1
  V  V5  1  0.656888  0.848502  0.676242  1
  V  V6  1  0.152256  0.348648  0.178109  1
  V  V7  1  0.848502  0.656888  0.323758  1
  V  V8  1  0.348648  0.152256  0.821891  1
  V  V9  1  0.423989  0.070429  0.401368  1
  V  V10  1  0.931213  0.570543  0.903401  1
  V  V11  1  0.070429  0.423989  0.598632  1
  V  V12  1  0.570543  0.931213  0.096599  1
  V  V13  1  0.999627  0.999627  0.500000  1
  Re  Re14  1  0.070875  0.424992  0.400800  1
  Re  Re15  1  0.569533  0.932100  0.900509  1
  Re  Re16  1  0.424992  0.070875  0.599200  1
  Re  Re17  1  0.932100  0.569533  0.099491  1
  Si  Si18  1  0.246845  0.747686  0.749640  1
  Si  Si19  1  0.747686  0.246845  0.250360  1
  Si  Si20  1  0.752000  0.252831  0.749772  1
  Si  Si21  1  0.252831  0.752000  0.250228  1
  Si  Si22  1  0.253543  0.257037  0.661894  1
  Si  Si23  1  0.751162  0.753261  0.154946  1
  Si  Si24  1  0.257037  0.253543  0.338106  1
  Si  Si25  1  0.753261  0.751162  0.845054  1
  Si  Si26  1  0.576551  0.901549  0.498923  1
  Si  Si27  1  0.096753  0.408059  0.999356  1
  Si  Si28  1  0.901549  0.576551  0.501077  1
  Si  Si29  1  0.408059  0.096753  0.000644  1
  Ni  Ni30  1  0.500712  0.500712  0.000000  1
  Ni  Ni31  1  0.002782  0.002782  0.000000  1
