# generated using pymatgen
data_Nd3ZnHg2Pt3
_symmetry_space_group_name_H-M   'P 1'
_cell_length_a   7.75824408
_cell_length_b   7.67971747
_cell_length_c   3.95404700
_cell_angle_alpha   90.00000000
_cell_angle_beta   90.00000000
_cell_angle_gamma   119.66573055
_symmetry_Int_Tables_number   1
_chemical_formula_structural   Nd3ZnHg2Pt3
_chemical_formula_sum   'Nd3 Zn1 Hg2 Pt3'
_cell_volume   204.70768680
_cell_formula_units_Z   1
loop_
 _symmetry_equiv_pos_site_id
 _symmetry_equiv_pos_as_xyz
  1  'x, y, z'
loop_
 _atom_site_type_symbol
 _atom_site_label
 _atom_site_symmetry_multiplicity
 _atom_site_fract_x
 _atom_site_fract_y
 _atom_site_fract_z
 _atom_site_occupancy
  Nd  Nd0  1  0.398422  0.400579  0.000000  1
  Nd  Nd1  1  0.601578  0.002157  0.000000  1
  Nd  Nd2  1  0.000000  0.590884  0.000000  1
  Zn  Zn3  1  0.000000  0.258299  0.500000  1
  Hg  Hg4  1  0.743826  0.741075  0.500000  1
  Hg  Hg5  1  0.256174  0.997248  0.500000  1
  Pt  Pt6  1  0.000000  0.030158  0.000000  1
  Pt  Pt7  1  0.677986  0.328793  0.500000  1
  Pt  Pt8  1  0.322014  0.650807  0.500000  1
