# generated using pymatgen
data_CaGd2Ga4PbO12
_symmetry_space_group_name_H-M   'P 1'
_cell_length_a   10.93577964
_cell_length_b   11.00679910
_cell_length_c   11.02732007
_cell_angle_alpha   109.42834697
_cell_angle_beta   109.40954577
_cell_angle_gamma   109.17674349
_symmetry_Int_Tables_number   1
_chemical_formula_structural   CaGd2Ga4PbO12
_chemical_formula_sum   'Ca4 Gd8 Ga16 Pb4 O48'
_cell_volume   1026.77983356
_cell_formula_units_Z   4
loop_
 _symmetry_equiv_pos_site_id
 _symmetry_equiv_pos_as_xyz
  1  'x, y, z'
loop_
 _atom_site_type_symbol
 _atom_site_label
 _atom_site_symmetry_multiplicity
 _atom_site_fract_x
 _atom_site_fract_y
 _atom_site_fract_z
 _atom_site_occupancy
  Ca  Ca0  1  0.622015  0.239698  0.373569  1
  Ca  Ca1  1  0.874465  0.121062  0.243115  1
  Ca  Ca2  1  0.125535  0.878938  0.756885  1
  Ca  Ca3  1  0.377985  0.760302  0.626431  1
  Gd  Gd4  1  0.249706  0.622737  0.878554  1
  Gd  Gd5  1  0.629412  0.369257  0.750916  1
  Gd  Gd6  1  0.126003  0.253165  0.883369  1
  Gd  Gd7  1  0.249311  0.120916  0.367454  1
  Gd  Gd8  1  0.873997  0.746835  0.116631  1
  Gd  Gd9  1  0.750689  0.879084  0.632546  1
  Gd  Gd10  1  0.370588  0.630743  0.249084  1
  Gd  Gd11  1  0.750294  0.377263  0.121446  1
  Ga  Ga12  1  0.882231  0.636543  0.762973  1
  Ga  Ga13  1  0.627089  0.749457  0.876532  1
  Ga  Ga14  1  0.869324  0.254353  0.631268  1
  Ga  Ga15  1  0.246804  0.870606  0.129661  1
  Ga  Ga16  1  0.254696  0.374383  0.634089  1
  Ga  Ga17  1  0.500000  0.500000  0.000000  1
  Ga  Ga18  1  0.000000  0.000000  0.000000  1
  Ga  Ga19  1  0.622244  0.872027  0.249096  1
  Ga  Ga20  1  0.377756  0.127973  0.750904  1
  Ga  Ga21  1  0.500000  0.000000  0.500000  1
  Ga  Ga22  1  0.753196  0.129394  0.870338  1
  Ga  Ga23  1  0.745304  0.625617  0.365911  1
  Ga  Ga24  1  0.130676  0.745647  0.368732  1
  Ga  Ga25  1  0.000000  0.500000  0.000000  1
  Ga  Ga26  1  0.372911  0.250543  0.123468  1
  Ga  Ga27  1  0.117769  0.363457  0.237027  1
  Pb  Pb28  1  0.000000  0.000000  0.500000  1
  Pb  Pb29  1  0.500000  0.000000  0.000000  1
  Pb  Pb30  1  0.000000  0.500000  0.500000  1
  Pb  Pb31  1  0.500000  0.500000  0.500000  1
  O  O32  1  0.285977  0.868314  0.976439  1
  O  O33  1  0.411084  0.282391  0.314518  1
  O  O34  1  0.691405  0.477541  0.608642  1
  O  O35  1  0.032954  0.628711  0.720540  1
  O  O36  1  0.469202  0.781623  0.874371  1
  O  O37  1  0.216724  0.527100  0.633239  1
  O  O38  1  0.874473  0.286580  0.476733  1
  O  O39  1  0.024892  0.403912  0.823789  1
  O  O40  1  0.673788  0.203601  0.586502  1
  O  O41  1  0.397289  0.019095  0.322204  1
  O  O42  1  0.627169  0.026761  0.213503  1
  O  O43  1  0.621689  0.595054  0.917223  1
  O  O44  1  0.084164  0.174616  0.200716  1
  O  O45  1  0.404388  0.368611  0.589081  1
  O  O46  1  0.297264  0.418577  0.827070  1
  O  O47  1  0.105092  0.186744  0.473139  1
  O  O48  1  0.879006  0.582688  0.907233  1
  O  O49  1  0.821878  0.898219  0.021273  1
  O  O50  1  0.913002  0.101558  0.633748  1
  O  O51  1  0.201439  0.674564  0.081595  1
  O  O52  1  0.582879  0.878120  0.403192  1
  O  O53  1  0.813656  0.906244  0.281608  1
  O  O54  1  0.527900  0.323039  0.902638  1
  O  O55  1  0.094217  0.916044  0.121014  1
  O  O56  1  0.905783  0.083956  0.878986  1
  O  O57  1  0.472100  0.676961  0.097362  1
  O  O58  1  0.186344  0.093756  0.718392  1
  O  O59  1  0.417121  0.121880  0.596808  1
  O  O60  1  0.798561  0.325436  0.918405  1
  O  O61  1  0.086998  0.898442  0.366252  1
  O  O62  1  0.178122  0.101781  0.978727  1
  O  O63  1  0.120994  0.417312  0.092767  1
  O  O64  1  0.894908  0.813256  0.526861  1
  O  O65  1  0.702736  0.581423  0.172930  1
  O  O66  1  0.595612  0.631389  0.410919  1
  O  O67  1  0.915836  0.825384  0.799284  1
  O  O68  1  0.378311  0.404946  0.082777  1
  O  O69  1  0.372831  0.973239  0.786497  1
  O  O70  1  0.602711  0.980905  0.677796  1
  O  O71  1  0.326212  0.796399  0.413498  1
  O  O72  1  0.975108  0.596088  0.176211  1
  O  O73  1  0.125527  0.713420  0.523267  1
  O  O74  1  0.783276  0.472900  0.366761  1
  O  O75  1  0.530798  0.218377  0.125629  1
  O  O76  1  0.967046  0.371289  0.279460  1
  O  O77  1  0.308595  0.522459  0.391358  1
  O  O78  1  0.588916  0.717609  0.685482  1
  O  O79  1  0.714023  0.131686  0.023561  1
