# generated using pymatgen
data_Dy2Ho3V3(Co4P3)4
_symmetry_space_group_name_H-M   'P 1'
_cell_length_a   12.03404700
_cell_length_b   12.03404676
_cell_length_c   3.66208500
_cell_angle_alpha   90.00000000
_cell_angle_beta   90.00000000
_cell_angle_gamma   119.99999242
_symmetry_Int_Tables_number   1
_chemical_formula_structural   Dy2Ho3V3(Co4P3)4
_chemical_formula_sum   'Dy2 Ho3 V3 Co16 P12'
_cell_volume   459.28523418
_cell_formula_units_Z   1
loop_
 _symmetry_equiv_pos_site_id
 _symmetry_equiv_pos_as_xyz
  1  'x, y, z'
loop_
 _atom_site_type_symbol
 _atom_site_label
 _atom_site_symmetry_multiplicity
 _atom_site_fract_x
 _atom_site_fract_y
 _atom_site_fract_z
 _atom_site_occupancy
  Dy  Dy0  1  0.666667  0.333333  0.000000  1
  Dy  Dy1  1  0.333333  0.666667  0.000000  1
  Ho  Ho2  1  0.186280  0.186280  0.500000  1
  Ho  Ho3  1  0.813720  0.000000  0.500000  1
  Ho  Ho4  1  0.000000  0.813720  0.500000  1
  V  V5  1  0.556499  0.556499  0.000000  1
  V  V6  1  0.443501  0.000000  0.000000  1
  V  V7  1  0.000000  0.443501  0.000000  1
  Co  Co8  1  0.823364  0.199558  0.000000  1
  Co  Co9  1  0.800442  0.623806  0.000000  1
  Co  Co10  1  0.376194  0.176636  0.000000  1
  Co  Co11  1  0.199558  0.823364  0.000000  1
  Co  Co12  1  0.623806  0.800442  0.000000  1
  Co  Co13  1  0.176636  0.376194  0.000000  1
  Co  Co14  1  0.644898  0.126127  0.500000  1
  Co  Co15  1  0.873873  0.518772  0.500000  1
  Co  Co16  1  0.481228  0.355102  0.500000  1
  Co  Co17  1  0.126127  0.644898  0.500000  1
  Co  Co18  1  0.518772  0.873873  0.500000  1
  Co  Co19  1  0.355102  0.481228  0.500000  1
  Co  Co20  1  0.718507  0.718507  0.500000  1
  Co  Co21  1  0.281493  0.000000  0.500000  1
  Co  Co22  1  0.000000  0.281493  0.500000  1
  Co  Co23  1  0.000000  0.000000  0.000000  1
  P  P24  1  0.363334  0.363334  0.000000  1
  P  P25  1  0.636666  0.000000  0.000000  1
  P  P26  1  0.000000  0.636666  0.000000  1
  P  P27  1  0.835887  0.316078  0.500000  1
  P  P28  1  0.683922  0.519809  0.500000  1
  P  P29  1  0.480191  0.164113  0.500000  1
  P  P30  1  0.316078  0.835887  0.500000  1
  P  P31  1  0.519809  0.683922  0.500000  1
  P  P32  1  0.164113  0.480191  0.500000  1
  P  P33  1  0.820896  0.820896  0.000000  1
  P  P34  1  0.179104  0.000000  0.000000  1
  P  P35  1  0.000000  0.179104  0.000000  1
