# generated using pymatgen
data_Ac2Ga5GePd2
_symmetry_space_group_name_H-M   'P 1'
_cell_length_a   6.23190400
_cell_length_b   6.23190373
_cell_length_c   6.12310400
_cell_angle_alpha   90.00000000
_cell_angle_beta   90.00000000
_cell_angle_gamma   116.92915320
_symmetry_Int_Tables_number   1
_chemical_formula_structural   Ac2Ga5GePd2
_chemical_formula_sum   'Ac2 Ga5 Ge1 Pd2'
_cell_volume   212.01530463
_cell_formula_units_Z   1
loop_
 _symmetry_equiv_pos_site_id
 _symmetry_equiv_pos_as_xyz
  1  'x, y, z'
loop_
 _atom_site_type_symbol
 _atom_site_label
 _atom_site_symmetry_multiplicity
 _atom_site_fract_x
 _atom_site_fract_y
 _atom_site_fract_z
 _atom_site_occupancy
  Ac  Ac0  1  0.236352  0.763648  0.750000  1
  Ac  Ac1  1  0.761736  0.238264  0.250000  1
  Ga  Ga2  1  0.346226  0.653774  0.250000  1
  Ga  Ga3  1  0.726856  0.728310  0.001307  1
  Ga  Ga4  1  0.726856  0.728310  0.498693  1
  Ga  Ga5  1  0.271690  0.273144  0.001307  1
  Ga  Ga6  1  0.271690  0.273144  0.498693  1
  Ge  Ge7  1  0.655783  0.344217  0.750000  1
  Pd  Pd8  1  0.898160  0.101840  0.750000  1
  Pd  Pd9  1  0.104654  0.895346  0.250000  1
