# generated using pymatgen
data_Ba2AgIO2
_symmetry_space_group_name_H-M   'P 1'
_cell_length_a   11.16406156
_cell_length_b   11.16406158
_cell_length_c   11.16406116
_cell_angle_alpha   22.57605846
_cell_angle_beta   22.57605877
_cell_angle_gamma   22.57605809
_symmetry_Int_Tables_number   1
_chemical_formula_structural   Ba2AgIO2
_chemical_formula_sum   'Ba2 Ag1 I1 O2'
_cell_volume   179.90176407
_cell_formula_units_Z   1
loop_
 _symmetry_equiv_pos_site_id
 _symmetry_equiv_pos_as_xyz
  1  'x, y, z'
loop_
 _atom_site_type_symbol
 _atom_site_label
 _atom_site_symmetry_multiplicity
 _atom_site_fract_x
 _atom_site_fract_y
 _atom_site_fract_z
 _atom_site_occupancy
  Ba  Ba0  1  0.250675  0.250675  0.250675  1
  Ba  Ba1  1  0.749325  0.749325  0.749325  1
  Ag  Ag2  1  0.500000  0.500000  0.500000  1
  I  I3  1  0.000000  0.000000  0.000000  1
  O  O4  1  0.437021  0.437021  0.437021  1
  O  O5  1  0.562979  0.562979  0.562979  1
