# generated using pymatgen
data_NaTiAgF6
_symmetry_space_group_name_H-M   'P 1'
_cell_length_a   5.38614900
_cell_length_b   9.52427200
_cell_length_c   10.86946100
_cell_angle_alpha   90.00000000
_cell_angle_beta   90.00000000
_cell_angle_gamma   90.00000000
_symmetry_Int_Tables_number   1
_chemical_formula_structural   NaTiAgF6
_chemical_formula_sum   'Na4 Ti4 Ag4 F24'
_cell_volume   557.59408970
_cell_formula_units_Z   4
loop_
 _symmetry_equiv_pos_site_id
 _symmetry_equiv_pos_as_xyz
  1  'x, y, z'
loop_
 _atom_site_type_symbol
 _atom_site_label
 _atom_site_symmetry_multiplicity
 _atom_site_fract_x
 _atom_site_fract_y
 _atom_site_fract_z
 _atom_site_occupancy
  Na  Na0  1  0.029050  0.640565  0.091060  1
  Na  Na1  1  0.470950  0.359435  0.591060  1
  Na  Na2  1  0.970950  0.140565  0.408940  1
  Na  Na3  1  0.529050  0.859435  0.908940  1
  Ti  Ti4  1  0.019196  0.995581  0.125069  1
  Ti  Ti5  1  0.480804  0.004419  0.625069  1
  Ti  Ti6  1  0.980804  0.495581  0.374931  1
  Ti  Ti7  1  0.519196  0.504419  0.874931  1
  Ag  Ag8  1  0.500270  0.308193  0.166305  1
  Ag  Ag9  1  0.999730  0.691807  0.666305  1
  Ag  Ag10  1  0.499730  0.808193  0.333695  1
  Ag  Ag11  1  0.000270  0.191807  0.833695  1
  F  F12  1  0.261321  0.144107  0.561521  1
  F  F13  1  0.238679  0.855893  0.061521  1
  F  F14  1  0.738679  0.644107  0.938479  1
  F  F15  1  0.761321  0.355893  0.438479  1
  F  F16  1  0.198469  0.622104  0.294299  1
  F  F17  1  0.301531  0.377896  0.794299  1
  F  F18  1  0.801531  0.122104  0.205701  1
  F  F19  1  0.698469  0.877896  0.705701  1
  F  F20  1  0.223468  0.139119  0.063513  1
  F  F21  1  0.276532  0.860881  0.563513  1
  F  F22  1  0.776532  0.639119  0.436487  1
  F  F23  1  0.723468  0.360881  0.936487  1
  F  F24  1  0.186426  0.341091  0.328697  1
  F  F25  1  0.313574  0.658909  0.828697  1
  F  F26  1  0.813574  0.841091  0.171303  1
  F  F27  1  0.686426  0.158909  0.671303  1
  F  F28  1  0.335956  0.493817  0.023970  1
  F  F29  1  0.164044  0.506183  0.523970  1
  F  F30  1  0.664044  0.993817  0.476030  1
  F  F31  1  0.835956  0.006183  0.976030  1
  F  F32  1  0.195237  0.990034  0.276633  1
  F  F33  1  0.304763  0.009966  0.776633  1
  F  F34  1  0.804763  0.490034  0.223367  1
  F  F35  1  0.695237  0.509966  0.723367  1
