# generated using pymatgen
data_Ba6Ta3MnS16
_symmetry_space_group_name_H-M   'P 1'
_cell_length_a   11.31923534
_cell_length_b   11.31923433
_cell_length_c   11.31923500
_cell_angle_alpha   51.63092690
_cell_angle_beta   51.63093094
_cell_angle_gamma   51.63093202
_symmetry_Int_Tables_number   1
_chemical_formula_structural   Ba6Ta3MnS16
_chemical_formula_sum   'Ba6 Ta3 Mn1 S16'
_cell_volume   823.51272488
_cell_formula_units_Z   1
loop_
 _symmetry_equiv_pos_site_id
 _symmetry_equiv_pos_as_xyz
  1  'x, y, z'
loop_
 _atom_site_type_symbol
 _atom_site_label
 _atom_site_symmetry_multiplicity
 _atom_site_fract_x
 _atom_site_fract_y
 _atom_site_fract_z
 _atom_site_occupancy
  Ba  Ba0  1  0.750075  0.434664  0.067279  1
  Ba  Ba1  1  0.573176  0.929454  0.245281  1
  Ba  Ba2  1  0.067279  0.750075  0.434665  1
  Ba  Ba3  1  0.929455  0.245281  0.573176  1
  Ba  Ba4  1  0.434665  0.067280  0.750074  1
  Ba  Ba5  1  0.245281  0.573176  0.929455  1
  Ta  Ta6  1  0.160373  0.160373  0.160373  1
  Ta  Ta7  1  0.339478  0.339478  0.339478  1
  Ta  Ta8  1  0.660522  0.660522  0.660522  1
  Mn  Mn9  1  0.839270  0.839270  0.839270  1
  S  S10  1  0.626318  0.791734  0.027200  1
  S  S11  1  0.082169  0.082169  0.082169  1
  S  S12  1  0.542860  0.286107  0.110427  1
  S  S13  1  0.956542  0.388637  0.215290  1
  S  S14  1  0.110427  0.542859  0.286107  1
  S  S15  1  0.215289  0.956543  0.388637  1
  S  S16  1  0.417975  0.417975  0.417975  1
  S  S17  1  0.713713  0.889965  0.457393  1
  S  S18  1  0.286107  0.110427  0.542860  1
  S  S19  1  0.582272  0.582272  0.582272  1
  S  S20  1  0.791734  0.027200  0.626318  1
  S  S21  1  0.889965  0.457394  0.713713  1
  S  S22  1  0.027200  0.626318  0.791734  1
  S  S23  1  0.457394  0.713713  0.889965  1
  S  S24  1  0.911822  0.911822  0.911822  1
  S  S25  1  0.388638  0.215289  0.956542  1
