# generated using pymatgen
data_Eu10Si5Sb
_symmetry_space_group_name_H-M   'P 1'
_cell_length_a   9.29727792
_cell_length_b   9.29727825
_cell_length_c   9.29727787
_cell_angle_alpha   129.46831126
_cell_angle_beta   129.46831021
_cell_angle_gamma   74.25819830
_symmetry_Int_Tables_number   1
_chemical_formula_structural   Eu10Si5Sb
_chemical_formula_sum   'Eu10 Si5 Sb1'
_cell_volume   466.90024742
_cell_formula_units_Z   1
loop_
 _symmetry_equiv_pos_site_id
 _symmetry_equiv_pos_as_xyz
  1  'x, y, z'
loop_
 _atom_site_type_symbol
 _atom_site_label
 _atom_site_symmetry_multiplicity
 _atom_site_fract_x
 _atom_site_fract_y
 _atom_site_fract_z
 _atom_site_occupancy
  Eu  Eu0  1  0.811127  0.325395  0.851176  1
  Eu  Eu1  1  0.474220  0.959950  0.148825  1
  Eu  Eu2  1  0.688874  0.540050  0.514269  1
  Eu  Eu3  1  0.025780  0.174605  0.485731  1
  Eu  Eu4  1  0.174605  0.688874  0.148825  1
  Eu  Eu5  1  0.540051  0.025780  0.851176  1
  Eu  Eu6  1  0.959950  0.811125  0.485731  1
  Eu  Eu7  1  0.325395  0.474220  0.514269  1
  Eu  Eu8  1  0.003871  0.003871  0.000000  1
  Eu  Eu9  1  0.496129  0.496129  0.000000  1
  Si  Si10  1  0.750000  0.750000  0.000000  1
  Si  Si11  1  0.889172  0.389172  0.278344  1
  Si  Si12  1  0.110828  0.610827  0.721654  1
  Si  Si13  1  0.610828  0.889172  0.500000  1
  Si  Si14  1  0.389172  0.110828  0.500000  1
  Sb  Sb15  1  0.250000  0.250000  0.000000  1
