# generated using pymatgen
data_NaHo6CoBr12
_symmetry_space_group_name_H-M   'P 1'
_cell_length_a   9.12951054
_cell_length_b   9.12951217
_cell_length_c   9.12951183
_cell_angle_alpha   106.94915668
_cell_angle_beta   106.94916152
_cell_angle_gamma   106.94915623
_symmetry_Int_Tables_number   1
_chemical_formula_structural   NaHo6CoBr12
_chemical_formula_sum   'Na1 Ho6 Co1 Br12'
_cell_volume   634.58358671
_cell_formula_units_Z   1
loop_
 _symmetry_equiv_pos_site_id
 _symmetry_equiv_pos_as_xyz
  1  'x, y, z'
loop_
 _atom_site_type_symbol
 _atom_site_label
 _atom_site_symmetry_multiplicity
 _atom_site_fract_x
 _atom_site_fract_y
 _atom_site_fract_z
 _atom_site_occupancy
  Na  Na0  1  0.500000  0.500000  0.500000  1
  Ho  Ho1  1  0.970895  0.896926  0.689527  1
  Ho  Ho2  1  0.029105  0.103074  0.310473  1
  Ho  Ho3  1  0.103074  0.310473  0.029105  1
  Ho  Ho4  1  0.310473  0.029105  0.103074  1
  Ho  Ho5  1  0.896926  0.689527  0.970895  1
  Ho  Ho6  1  0.689527  0.970895  0.896926  1
  Co  Co7  1  0.000000  0.000000  0.000000  1
  Br  Br8  1  0.550745  0.629227  0.855100  1
  Br  Br9  1  0.449255  0.370773  0.144900  1
  Br  Br10  1  0.318585  0.926520  0.778446  1
  Br  Br11  1  0.370773  0.144900  0.449255  1
  Br  Br12  1  0.926520  0.778446  0.318585  1
  Br  Br13  1  0.681415  0.073480  0.221554  1
  Br  Br14  1  0.073480  0.221554  0.681415  1
  Br  Br15  1  0.778446  0.318585  0.926520  1
  Br  Br16  1  0.221554  0.681415  0.073480  1
  Br  Br17  1  0.855100  0.550745  0.629227  1
  Br  Br18  1  0.144900  0.449255  0.370773  1
  Br  Br19  1  0.629227  0.855100  0.550745  1
