# generated using pymatgen
data_Hf18Re5Mo3P2
_symmetry_space_group_name_H-M   'P 1'
_cell_length_a   8.58514400
_cell_length_b   8.58514417
_cell_length_c   8.63826900
_cell_angle_alpha   90.00000000
_cell_angle_beta   90.00000000
_cell_angle_gamma   119.99999933
_symmetry_Int_Tables_number   1
_chemical_formula_structural   Hf18Re5Mo3P2
_chemical_formula_sum   'Hf18 Re5 Mo3 P2'
_cell_volume   551.38193810
_cell_formula_units_Z   1
loop_
 _symmetry_equiv_pos_site_id
 _symmetry_equiv_pos_as_xyz
  1  'x, y, z'
loop_
 _atom_site_type_symbol
 _atom_site_label
 _atom_site_symmetry_multiplicity
 _atom_site_fract_x
 _atom_site_fract_y
 _atom_site_fract_z
 _atom_site_occupancy
  Hf  Hf0  1  0.196712  0.803288  0.453890  1
  Hf  Hf1  1  0.196712  0.393423  0.453890  1
  Hf  Hf2  1  0.606577  0.803288  0.453890  1
  Hf  Hf3  1  0.804203  0.195797  0.550724  1
  Hf  Hf4  1  0.804203  0.608407  0.550724  1
  Hf  Hf5  1  0.391593  0.195797  0.550724  1
  Hf  Hf6  1  0.804203  0.195797  0.949276  1
  Hf  Hf7  1  0.804203  0.608407  0.949276  1
  Hf  Hf8  1  0.391593  0.195797  0.949276  1
  Hf  Hf9  1  0.196712  0.803288  0.046110  1
  Hf  Hf10  1  0.196712  0.393423  0.046110  1
  Hf  Hf11  1  0.606577  0.803288  0.046110  1
  Hf  Hf12  1  0.538640  0.461360  0.250000  1
  Hf  Hf13  1  0.538640  0.077280  0.250000  1
  Hf  Hf14  1  0.922720  0.461360  0.250000  1
  Hf  Hf15  1  0.459674  0.540326  0.750000  1
  Hf  Hf16  1  0.459674  0.919348  0.750000  1
  Hf  Hf17  1  0.080652  0.540326  0.750000  1
  Re  Re18  1  0.109745  0.890255  0.750000  1
  Re  Re19  1  0.109745  0.219491  0.750000  1
  Re  Re20  1  0.780509  0.890255  0.750000  1
  Re  Re21  1  0.000000  0.000000  0.500882  1
  Re  Re22  1  0.000000  0.000000  0.999118  1
  Mo  Mo23  1  0.890327  0.109673  0.250000  1
  Mo  Mo24  1  0.890327  0.780654  0.250000  1
  Mo  Mo25  1  0.219346  0.109673  0.250000  1
  P  P26  1  0.333333  0.666667  0.250000  1
  P  P27  1  0.666667  0.333333  0.750000  1
