# generated using pymatgen
data_Tm5GaBiOs
_symmetry_space_group_name_H-M   'P 1'
_cell_length_a   8.66515849
_cell_length_b   8.66515832
_cell_length_c   8.77401401
_cell_angle_alpha   126.81022949
_cell_angle_beta   126.81023303
_cell_angle_gamma   77.67908715
_symmetry_Int_Tables_number   1
_chemical_formula_structural   Tm5GaBiOs
_chemical_formula_sum   'Tm10 Ga2 Bi2 Os2'
_cell_volume   411.24789199
_cell_formula_units_Z   2
loop_
 _symmetry_equiv_pos_site_id
 _symmetry_equiv_pos_as_xyz
  1  'x, y, z'
loop_
 _atom_site_type_symbol
 _atom_site_label
 _atom_site_symmetry_multiplicity
 _atom_site_fract_x
 _atom_site_fract_y
 _atom_site_fract_z
 _atom_site_occupancy
  Tm  Tm0  1  0.000000  0.000000  0.000000  1
  Tm  Tm1  1  0.500000  0.500000  0.000000  1
  Tm  Tm2  1  0.782058  0.282058  0.793168  1
  Tm  Tm3  1  0.217942  0.717942  0.206832  1
  Tm  Tm4  1  0.488891  0.988891  0.206832  1
  Tm  Tm5  1  0.308773  0.461531  0.500000  1
  Tm  Tm6  1  0.038469  0.191227  0.500000  1
  Tm  Tm7  1  0.511109  0.011109  0.793168  1
  Tm  Tm8  1  0.691227  0.538469  0.500000  1
  Tm  Tm9  1  0.961531  0.808773  0.500000  1
  Ga  Ga10  1  0.137365  0.637365  0.774731  1
  Ga  Ga11  1  0.862635  0.362635  0.225269  1
  Bi  Bi12  1  0.250000  0.250000  0.000000  1
  Bi  Bi13  1  0.750000  0.750000  0.000000  1
  Os  Os14  1  0.635593  0.864407  0.500000  1
  Os  Os15  1  0.364407  0.135593  0.500000  1
