# generated using pymatgen
data_Tb6Si24Os5Ru3
_symmetry_space_group_name_H-M   'P 1'
_cell_length_a   10.13884924
_cell_length_b   10.13885122
_cell_length_c   8.17359900
_cell_angle_alpha   89.99985074
_cell_angle_beta   89.99988729
_cell_angle_gamma   132.46308738
_symmetry_Int_Tables_number   1
_chemical_formula_structural   Tb6Si24Os5Ru3
_chemical_formula_sum   'Tb6 Si24 Os5 Ru3'
_cell_volume   619.83749568
_cell_formula_units_Z   1
loop_
 _symmetry_equiv_pos_site_id
 _symmetry_equiv_pos_as_xyz
  1  'x, y, z'
loop_
 _atom_site_type_symbol
 _atom_site_label
 _atom_site_symmetry_multiplicity
 _atom_site_fract_x
 _atom_site_fract_y
 _atom_site_fract_z
 _atom_site_occupancy
  Tb  Tb0  1  0.499911  0.499911  0.500020  1
  Tb  Tb1  1  0.000002  0.000002  0.999864  1
  Tb  Tb2  1  0.502218  0.002130  0.749646  1
  Tb  Tb3  1  0.997737  0.497750  0.250295  1
  Tb  Tb4  1  0.497750  0.997737  0.250295  1
  Tb  Tb5  1  0.002130  0.502217  0.749645  1
  Si  Si6  1  0.795730  0.204468  0.500170  1
  Si  Si7  1  0.295775  0.704161  0.000126  1
  Si  Si8  1  0.204468  0.795730  0.500171  1
  Si  Si9  1  0.704161  0.295775  0.000126  1
  Si  Si10  1  0.333607  0.333607  0.833767  1
  Si  Si11  1  0.666905  0.666905  0.166731  1
  Si  Si12  1  0.166195  0.166195  0.331833  1
  Si  Si13  1  0.831635  0.831635  0.665935  1
  Si  Si14  1  0.121899  0.887594  0.728138  1
  Si  Si15  1  0.112663  0.878950  0.272034  1
  Si  Si16  1  0.611032  0.377762  0.228239  1
  Si  Si17  1  0.622681  0.388991  0.771922  1
  Si  Si18  1  0.878950  0.112663  0.272034  1
  Si  Si19  1  0.887594  0.121900  0.728138  1
  Si  Si20  1  0.388991  0.622682  0.771922  1
  Si  Si21  1  0.377762  0.611032  0.228239  1
  Si  Si22  1  0.345335  0.111560  0.505141  1
  Si  Si23  1  0.888288  0.655085  0.495260  1
  Si  Si24  1  0.388416  0.155100  0.006195  1
  Si  Si25  1  0.844867  0.611984  0.994058  1
  Si  Si26  1  0.655085  0.888288  0.495260  1
  Si  Si27  1  0.111560  0.345335  0.505141  1
  Si  Si28  1  0.611984  0.844867  0.994058  1
  Si  Si29  1  0.155100  0.388416  0.006195  1
  Os  Os30  1  0.669571  0.330451  0.499912  1
  Os  Os31  1  0.169729  0.830090  0.000012  1
  Os  Os32  1  0.330451  0.669571  0.499912  1
  Os  Os33  1  0.830090  0.169730  0.000011  1
  Os  Os34  1  0.126457  0.126456  0.626861  1
  Ru  Ru35  1  0.873429  0.873429  0.372889  1
  Ru  Ru36  1  0.372276  0.372276  0.127775  1
  Ru  Ru37  1  0.627569  0.627568  0.872031  1
