# generated using pymatgen
data_Hf3ScSi3Ge3Ir7
_symmetry_space_group_name_H-M   'P 1'
_cell_length_a   7.04557486
_cell_length_b   7.05223330
_cell_length_c   7.06758083
_cell_angle_alpha   109.48823137
_cell_angle_beta   109.54803885
_cell_angle_gamma   109.45977794
_symmetry_Int_Tables_number   1
_chemical_formula_structural   Hf3ScSi3Ge3Ir7
_chemical_formula_sum   'Hf3 Sc1 Si3 Ge3 Ir7'
_cell_volume   270.05326835
_cell_formula_units_Z   1
loop_
 _symmetry_equiv_pos_site_id
 _symmetry_equiv_pos_as_xyz
  1  'x, y, z'
loop_
 _atom_site_type_symbol
 _atom_site_label
 _atom_site_symmetry_multiplicity
 _atom_site_fract_x
 _atom_site_fract_y
 _atom_site_fract_z
 _atom_site_occupancy
  Hf  Hf0  1  0.000000  0.999576  0.541777  1
  Hf  Hf1  1  0.481196  0.000029  0.997323  1
  Hf  Hf2  1  0.518804  0.518833  0.516126  1
  Sc  Sc3  1  0.000000  0.489225  0.997370  1
  Si  Si4  1  0.328711  0.332157  0.005984  1
  Si  Si5  1  0.671289  0.003447  0.677273  1
  Si  Si6  1  0.000000  0.666112  0.673804  1
  Ge  Ge7  1  0.699363  0.697822  0.007815  1
  Ge  Ge8  1  0.300637  0.998460  0.308453  1
  Ge  Ge9  1  0.000000  0.301430  0.305280  1
  Ir  Ir10  1  0.749002  0.248588  0.499407  1
  Ir  Ir11  1  0.748344  0.499114  0.252073  1
  Ir  Ir12  1  0.498120  0.248785  0.750928  1
  Ir  Ir13  1  0.250998  0.499586  0.750404  1
  Ir  Ir14  1  0.251656  0.750770  0.503728  1
  Ir  Ir15  1  0.501880  0.750666  0.252809  1
  Ir  Ir16  1  0.000000  0.995400  0.959445  1
