# generated using pymatgen
data_Ho6Tm4InBi5
_symmetry_space_group_name_H-M   'P 1'
_cell_length_a   9.07095230
_cell_length_b   9.07067237
_cell_length_c   6.42934400
_cell_angle_alpha   90.00000000
_cell_angle_beta   90.00000000
_cell_angle_gamma   119.99897681
_symmetry_Int_Tables_number   1
_chemical_formula_structural   Ho6Tm4InBi5
_chemical_formula_sum   'Ho6 Tm4 In1 Bi5'
_cell_volume   458.13570120
_cell_formula_units_Z   1
loop_
 _symmetry_equiv_pos_site_id
 _symmetry_equiv_pos_as_xyz
  1  'x, y, z'
loop_
 _atom_site_type_symbol
 _atom_site_label
 _atom_site_symmetry_multiplicity
 _atom_site_fract_x
 _atom_site_fract_y
 _atom_site_fract_z
 _atom_site_occupancy
  Ho  Ho0  1  0.759572  0.758303  0.750000  1
  Ho  Ho1  1  0.240428  0.998731  0.750000  1
  Ho  Ho2  1  0.000000  0.240082  0.750000  1
  Ho  Ho3  1  0.234860  0.242670  0.250000  1
  Ho  Ho4  1  0.765140  0.007810  0.250000  1
  Ho  Ho5  1  0.000000  0.755860  0.250000  1
  Tm  Tm6  1  0.672449  0.334468  0.000924  1
  Tm  Tm7  1  0.327551  0.662019  0.000924  1
  Tm  Tm8  1  0.327551  0.662019  0.499076  1
  Tm  Tm9  1  0.672449  0.334468  0.499076  1
  In  In10  1  0.000000  0.395786  0.250000  1
  Bi  Bi11  1  0.393085  0.390377  0.750000  1
  Bi  Bi12  1  0.606915  0.997292  0.750000  1
  Bi  Bi13  1  0.000000  0.607916  0.750000  1
  Bi  Bi14  1  0.609140  0.610668  0.250000  1
  Bi  Bi15  1  0.390860  0.001528  0.250000  1
