# generated using pymatgen
data_Dy8Ho10Sc2Si15Ru
_symmetry_space_group_name_H-M   'P 1'
_cell_length_a   7.25818260
_cell_length_b   7.72808284
_cell_length_c   14.45510400
_cell_angle_alpha   90.00000000
_cell_angle_beta   90.00000000
_cell_angle_gamma   90.09393461
_symmetry_Int_Tables_number   1
_chemical_formula_structural   Dy8Ho10Sc2Si15Ru
_chemical_formula_sum   'Dy8 Ho10 Sc2 Si15 Ru1'
_cell_volume   810.81223924
_cell_formula_units_Z   1
loop_
 _symmetry_equiv_pos_site_id
 _symmetry_equiv_pos_as_xyz
  1  'x, y, z'
loop_
 _atom_site_type_symbol
 _atom_site_label
 _atom_site_symmetry_multiplicity
 _atom_site_fract_x
 _atom_site_fract_y
 _atom_site_fract_z
 _atom_site_occupancy
  Dy  Dy0  1  0.016477  0.184044  0.098291  1
  Dy  Dy1  1  0.986258  0.824287  0.907511  1
  Dy  Dy2  1  0.484344  0.682247  0.906555  1
  Dy  Dy3  1  0.986258  0.824287  0.592489  1
  Dy  Dy4  1  0.516039  0.317917  0.097962  1
  Dy  Dy5  1  0.016477  0.184044  0.401709  1
  Dy  Dy6  1  0.516039  0.317917  0.402038  1
  Dy  Dy7  1  0.484344  0.682247  0.593445  1
  Ho  Ho8  1  0.156142  0.517311  0.750000  1
  Ho  Ho9  1  0.669336  0.987943  0.750000  1
  Ho  Ho10  1  0.313171  0.173548  0.626686  1
  Ho  Ho11  1  0.676287  0.823881  0.372709  1
  Ho  Ho12  1  0.175211  0.679538  0.372448  1
  Ho  Ho13  1  0.676287  0.823881  0.127291  1
  Ho  Ho14  1  0.835024  0.316623  0.624904  1
  Ho  Ho15  1  0.313171  0.173548  0.873314  1
  Ho  Ho16  1  0.835024  0.316623  0.875096  1
  Ho  Ho17  1  0.175211  0.679538  0.127552  1
  Sc  Sc18  1  0.838441  0.483297  0.250000  1
  Sc  Sc19  1  0.340326  0.018304  0.250000  1
  Si  Si20  1  0.977737  0.907594  0.250000  1
  Si  Si21  1  0.478823  0.595000  0.250000  1
  Si  Si22  1  0.529179  0.396744  0.750000  1
  Si  Si23  1  0.279340  0.865465  0.750000  1
  Si  Si24  1  0.715464  0.136775  0.250000  1
  Si  Si25  1  0.217382  0.364331  0.250000  1
  Si  Si26  1  0.768841  0.624340  0.750000  1
  Si  Si27  1  0.158251  0.472228  0.535547  1
  Si  Si28  1  0.845180  0.530587  0.459245  1
  Si  Si29  1  0.344884  0.970935  0.458594  1
  Si  Si30  1  0.845180  0.530587  0.040755  1
  Si  Si31  1  0.651190  0.031525  0.536129  1
  Si  Si32  1  0.158251  0.472228  0.964453  1
  Si  Si33  1  0.651190  0.031525  0.963871  1
  Si  Si34  1  0.344884  0.970935  0.041406  1
  Ru  Ru35  1  0.024353  0.088180  0.750000  1
