# generated using pymatgen
data_Pr4GaPd11Pt
_symmetry_space_group_name_H-M   'P 1'
_cell_length_a   7.45484878
_cell_length_b   7.45484753
_cell_length_c   7.45484800
_cell_angle_alpha   108.59905107
_cell_angle_beta   109.90904801
_cell_angle_gamma   109.90906241
_symmetry_Int_Tables_number   1
_chemical_formula_structural   Pr4GaPd11Pt
_chemical_formula_sum   'Pr4 Ga1 Pd11 Pt1'
_cell_volume   318.87405940
_cell_formula_units_Z   1
loop_
 _symmetry_equiv_pos_site_id
 _symmetry_equiv_pos_as_xyz
  1  'x, y, z'
loop_
 _atom_site_type_symbol
 _atom_site_label
 _atom_site_symmetry_multiplicity
 _atom_site_fract_x
 _atom_site_fract_y
 _atom_site_fract_z
 _atom_site_occupancy
  Pr  Pr0  1  0.509006  0.978296  0.978296  1
  Pr  Pr1  1  0.000003  0.978287  0.469263  1
  Pr  Pr2  1  0.490983  0.469254  0.469254  1
  Pr  Pr3  1  0.000003  0.469263  0.978287  1
  Ga  Ga4  1  0.000001  0.451054  0.451054  1
  Pd  Pd5  1  0.248107  0.964577  0.212686  1
  Pd  Pd6  1  0.000002  0.738993  0.738993  1
  Pd  Pd7  1  0.289340  0.770819  0.481513  1
  Pd  Pd8  1  0.710672  0.481482  0.192174  1
  Pd  Pd9  1  0.500005  0.230011  0.730002  1
  Pd  Pd10  1  0.710672  0.192174  0.481482  1
  Pd  Pd11  1  0.751882  0.716472  0.964575  1
  Pd  Pd12  1  0.751882  0.964575  0.716472  1
  Pd  Pd13  1  0.289340  0.481513  0.770819  1
  Pd  Pd14  1  0.500005  0.730002  0.230011  1
  Pd  Pd15  1  0.248107  0.212686  0.964577  1
  Pt  Pt16  1  0.999989  0.170542  0.170542  1
