# generated using pymatgen
data_Cs2RbAlBi2
_symmetry_space_group_name_H-M   'P 1'
_cell_length_a   10.26403565
_cell_length_b   10.26403652
_cell_length_c   10.26403657
_cell_angle_alpha   128.42723582
_cell_angle_beta   70.04439195
_cell_angle_gamma   136.03563767
_symmetry_Int_Tables_number   1
_chemical_formula_structural   Cs2RbAlBi2
_chemical_formula_sum   'Cs4 Rb2 Al2 Bi4'
_cell_volume   576.77773884
_cell_formula_units_Z   2
loop_
 _symmetry_equiv_pos_site_id
 _symmetry_equiv_pos_as_xyz
  1  'x, y, z'
loop_
 _atom_site_type_symbol
 _atom_site_label
 _atom_site_symmetry_multiplicity
 _atom_site_fract_x
 _atom_site_fract_y
 _atom_site_fract_z
 _atom_site_occupancy
  Cs  Cs0  1  0.328671  0.714443  0.043114  1
  Cs  Cs1  1  0.171330  0.214443  0.385774  1
  Cs  Cs2  1  0.828670  0.785557  0.614226  1
  Cs  Cs3  1  0.671330  0.285557  0.956887  1
  Rb  Rb4  1  0.749999  0.249999  0.500000  1
  Rb  Rb5  1  0.249999  0.749999  0.500000  1
  Al  Al6  1  0.249999  0.249999  0.000000  1
  Al  Al7  1  0.750000  0.750000  0.000000  1
  Bi  Bi8  1  0.913041  0.179356  0.092397  1
  Bi  Bi9  1  0.586959  0.679356  0.266315  1
  Bi  Bi10  1  0.413041  0.320644  0.733685  1
  Bi  Bi11  1  0.086959  0.820644  0.907602  1
