# generated using pymatgen
data_Y8ErTm(SiB4)4
_symmetry_space_group_name_H-M   'P 1'
_cell_length_a   7.22919600
_cell_length_b   7.22919600
_cell_length_c   8.07048100
_cell_angle_alpha   90.00000000
_cell_angle_beta   90.00000000
_cell_angle_gamma   90.00000000
_symmetry_Int_Tables_number   1
_chemical_formula_structural   Y8ErTm(SiB4)4
_chemical_formula_sum   'Y8 Er1 Tm1 Si4 B16'
_cell_volume   421.77362536
_cell_formula_units_Z   1
loop_
 _symmetry_equiv_pos_site_id
 _symmetry_equiv_pos_as_xyz
  1  'x, y, z'
loop_
 _atom_site_type_symbol
 _atom_site_label
 _atom_site_symmetry_multiplicity
 _atom_site_fract_x
 _atom_site_fract_y
 _atom_site_fract_z
 _atom_site_occupancy
  Y  Y0  1  0.680379  0.180255  0.225163  1
  Y  Y1  1  0.319621  0.819745  0.774837  1
  Y  Y2  1  0.319621  0.819745  0.225163  1
  Y  Y3  1  0.819745  0.680379  0.225163  1
  Y  Y4  1  0.819745  0.680379  0.774837  1
  Y  Y5  1  0.680379  0.180255  0.774837  1
  Y  Y6  1  0.180255  0.319621  0.774837  1
  Y  Y7  1  0.180255  0.319621  0.225163  1
  Er  Er8  1  0.500000  0.500000  0.500000  1
  Tm  Tm9  1  0.000000  0.000000  0.500000  1
  Si  Si10  1  0.115175  0.615733  0.500000  1
  Si  Si11  1  0.884825  0.384267  0.500000  1
  Si  Si12  1  0.384267  0.115175  0.500000  1
  Si  Si13  1  0.615733  0.884825  0.500000  1
  B  B14  1  0.172517  0.039094  0.000000  1
  B  B15  1  0.827483  0.960906  0.000000  1
  B  B16  1  0.960906  0.172517  0.000000  1
  B  B17  1  0.327481  0.539116  0.000000  1
  B  B18  1  0.039094  0.827483  0.000000  1
  B  B19  1  0.672519  0.460884  0.000000  1
  B  B20  1  0.539116  0.672519  0.000000  1
  B  B21  1  0.460884  0.327481  0.000000  1
  B  B22  1  0.089894  0.589868  0.000000  1
  B  B23  1  0.910106  0.410132  0.000000  1
  B  B24  1  0.410132  0.089894  0.000000  1
  B  B25  1  0.589868  0.910106  0.000000  1
  B  B26  1  0.000000  0.000000  0.162915  1
  B  B27  1  0.000000  0.000000  0.837085  1
  B  B28  1  0.500000  0.500000  0.837280  1
  B  B29  1  0.500000  0.500000  0.162720  1
