# generated using pymatgen
data_Rb6ScAlSb4
_symmetry_space_group_name_H-M   'P 1'
_cell_length_a   9.88178381
_cell_length_b   9.88178511
_cell_length_c   9.88178459
_cell_angle_alpha   126.32142559
_cell_angle_beta   71.22378561
_cell_angle_gamma   136.84936448
_symmetry_Int_Tables_number   1
_chemical_formula_structural   Rb6ScAlSb4
_chemical_formula_sum   'Rb6 Sc1 Al1 Sb4'
_cell_volume   520.97337347
_cell_formula_units_Z   1
loop_
 _symmetry_equiv_pos_site_id
 _symmetry_equiv_pos_as_xyz
  1  'x, y, z'
loop_
 _atom_site_type_symbol
 _atom_site_label
 _atom_site_symmetry_multiplicity
 _atom_site_fract_x
 _atom_site_fract_y
 _atom_site_fract_z
 _atom_site_occupancy
  Rb  Rb0  1  0.814873  0.185902  0.009651  1
  Rb  Rb1  1  0.685127  0.694778  0.371029  1
  Rb  Rb2  1  0.750000  0.250000  0.500000  1
  Rb  Rb3  1  0.250000  0.750000  0.500000  1
  Rb  Rb4  1  0.323749  0.314098  0.628971  1
  Rb  Rb5  1  0.176251  0.805222  0.990349  1
  Sc  Sc6  1  0.250000  0.250000  0.000000  1
  Al  Al7  1  0.750000  0.750000  0.000000  1
  Sb  Sb8  1  0.418823  0.694148  0.090456  1
  Sb  Sb9  1  0.081177  0.171633  0.275324  1
  Sb  Sb10  1  0.896308  0.805852  0.724676  1
  Sb  Sb11  1  0.603692  0.328367  0.909544  1
