# generated using pymatgen
data_CeTiFeCo10
_symmetry_space_group_name_H-M   'P 1'
_cell_length_a   4.67948470
_cell_length_b   6.37076881
_cell_length_c   6.35499031
_cell_angle_alpha   97.67888640
_cell_angle_beta   111.60305489
_cell_angle_gamma   68.45312068
_symmetry_Int_Tables_number   1
_chemical_formula_structural   CeTiFeCo10
_chemical_formula_sum   'Ce1 Ti1 Fe1 Co10'
_cell_volume   163.83669656
_cell_formula_units_Z   1
loop_
 _symmetry_equiv_pos_site_id
 _symmetry_equiv_pos_as_xyz
  1  'x, y, z'
loop_
 _atom_site_type_symbol
 _atom_site_label
 _atom_site_symmetry_multiplicity
 _atom_site_fract_x
 _atom_site_fract_y
 _atom_site_fract_z
 _atom_site_occupancy
  Ce  Ce0  1  0.006849  0.994461  0.008158  1
  Ti  Ti1  1  0.629996  0.369661  0.629652  1
  Fe  Fe2  1  0.000254  0.640878  0.641387  1
  Co  Co3  1  0.729449  0.770407  0.229305  1
  Co  Co4  1  0.277464  0.222088  0.777015  1
  Co  Co5  1  0.498438  0.783931  0.780807  1
  Co  Co6  1  0.498503  0.221207  0.218213  1
  Co  Co7  1  0.496423  0.996872  0.496272  1
  Co  Co8  1  0.002976  0.996872  0.496272  1
  Co  Co9  1  0.501637  0.500762  0.005998  1
  Co  Co10  1  0.003599  0.500762  0.005998  1
  Co  Co11  1  0.354677  0.645558  0.354911  1
  Co  Co12  1  0.999735  0.356541  0.356012  1
