# generated using pymatgen
data_Tm8Sc12(Bi3Sb)3
_symmetry_space_group_name_H-M   'P 1'
_cell_length_a   7.83688827
_cell_length_b   9.08405400
_cell_length_c   11.65926440
_cell_angle_alpha   90.00000000
_cell_angle_beta   89.97009758
_cell_angle_gamma   90.00000000
_symmetry_Int_Tables_number   1
_chemical_formula_structural   Tm8Sc12(Bi3Sb)3
_chemical_formula_sum   'Tm8 Sc12 Bi9 Sb3'
_cell_volume   830.03126984
_cell_formula_units_Z   1
loop_
 _symmetry_equiv_pos_site_id
 _symmetry_equiv_pos_as_xyz
  1  'x, y, z'
loop_
 _atom_site_type_symbol
 _atom_site_label
 _atom_site_symmetry_multiplicity
 _atom_site_fract_x
 _atom_site_fract_y
 _atom_site_fract_z
 _atom_site_occupancy
  Tm  Tm0  1  0.351960  0.250000  0.284317  1
  Tm  Tm1  1  0.647679  0.750000  0.715416  1
  Tm  Tm2  1  0.147728  0.750000  0.784302  1
  Tm  Tm3  1  0.850837  0.250000  0.219328  1
  Tm  Tm4  1  0.186070  0.250000  0.778255  1
  Tm  Tm5  1  0.818234  0.750000  0.218659  1
  Tm  Tm6  1  0.318536  0.750000  0.281294  1
  Tm  Tm7  1  0.680181  0.250000  0.716604  1
  Sc  Sc8  1  0.022446  0.250000  0.510324  1
  Sc  Sc9  1  0.976824  0.750000  0.489633  1
  Sc  Sc10  1  0.476143  0.750000  0.010561  1
  Sc  Sc11  1  0.518388  0.250000  0.989885  1
  Sc  Sc12  1  0.191124  0.062832  0.058603  1
  Sc  Sc13  1  0.811131  0.930564  0.942727  1
  Sc  Sc14  1  0.312190  0.934788  0.557010  1
  Sc  Sc15  1  0.811131  0.569436  0.942727  1
  Sc  Sc16  1  0.688061  0.065154  0.442985  1
  Sc  Sc17  1  0.191124  0.437168  0.058603  1
  Sc  Sc18  1  0.688061  0.434846  0.442985  1
  Sc  Sc19  1  0.312190  0.565212  0.557010  1
  Bi  Bi20  1  0.903053  0.250000  0.958992  1
  Bi  Bi21  1  0.065051  0.003560  0.331373  1
  Bi  Bi22  1  0.935272  0.996185  0.668818  1
  Bi  Bi23  1  0.435508  0.995754  0.831153  1
  Bi  Bi24  1  0.935272  0.503815  0.668818  1
  Bi  Bi25  1  0.565162  0.003938  0.168942  1
  Bi  Bi26  1  0.065051  0.496440  0.331373  1
  Bi  Bi27  1  0.565162  0.496062  0.168942  1
  Bi  Bi28  1  0.435508  0.504246  0.831153  1
  Sb  Sb29  1  0.402811  0.250000  0.539303  1
  Sb  Sb30  1  0.596104  0.750000  0.460072  1
  Sb  Sb31  1  0.096008  0.750000  0.039832  1
