# generated using pymatgen
data_Rb13TaTi(In3As5)2
_symmetry_space_group_name_H-M   'P 1'
_cell_length_a   9.61925405
_cell_length_b   9.63874479
_cell_length_c   13.72765789
_cell_angle_alpha   81.82479612
_cell_angle_beta   78.71402636
_cell_angle_gamma   63.62465259
_symmetry_Int_Tables_number   1
_chemical_formula_structural   Rb13TaTi(In3As5)2
_chemical_formula_sum   'Rb13 Ta1 Ti1 In6 As10'
_cell_volume   1116.03606982
_cell_formula_units_Z   1
loop_
 _symmetry_equiv_pos_site_id
 _symmetry_equiv_pos_as_xyz
  1  'x, y, z'
loop_
 _atom_site_type_symbol
 _atom_site_label
 _atom_site_symmetry_multiplicity
 _atom_site_fract_x
 _atom_site_fract_y
 _atom_site_fract_z
 _atom_site_occupancy
  Rb  Rb0  1  0.495352  0.868988  0.352633  1
  Rb  Rb1  1  0.505627  0.132310  0.643272  1
  Rb  Rb2  1  0.852659  0.583486  0.885905  1
  Rb  Rb3  1  0.146231  0.412967  0.118019  1
  Rb  Rb4  1  0.089210  0.782240  0.426936  1
  Rb  Rb5  1  0.910260  0.218772  0.567746  1
  Rb  Rb6  1  0.748326  0.683179  0.591190  1
  Rb  Rb7  1  0.256569  0.316319  0.402386  1
  Rb  Rb8  1  0.500741  0.495763  0.004211  1
  Rb  Rb9  1  0.317810  0.931132  0.089405  1
  Rb  Rb10  1  0.681130  0.070891  0.916480  1
  Rb  Rb11  1  0.886360  0.861075  0.168249  1
  Rb  Rb12  1  0.107241  0.144828  0.835837  1
  Ta  Ta13  1  0.380551  0.738410  0.775449  1
  Ti  Ti14  1  0.620843  0.261059  0.224465  1
  In  In15  1  0.023231  0.812997  0.706996  1
  In  In16  1  0.976395  0.183999  0.291932  1
  In  In17  1  0.604001  0.444635  0.406077  1
  In  In18  1  0.397165  0.552491  0.589241  1
  In  In19  1  0.725038  0.564974  0.166284  1
  In  In20  1  0.275521  0.433683  0.832870  1
  As  As21  1  0.432248  0.550870  0.251467  1
  As  As22  1  0.566618  0.452349  0.749490  1
  As  As23  1  0.139769  0.747747  0.894720  1
  As  As24  1  0.863306  0.250841  0.104186  1
  As  As25  1  0.707669  0.127758  0.391824  1
  As  As26  1  0.291733  0.872042  0.610568  1
  As  As27  1  0.858349  0.511807  0.354468  1
  As  As28  1  0.138391  0.489534  0.648423  1
  As  As29  1  0.504288  0.866760  0.841021  1
  As  As30  1  0.497368  0.136094  0.158248  1
