# generated using pymatgen
data_Sm7Er3(Sn3Br)2
_symmetry_space_group_name_H-M   'P 1'
_cell_length_a   9.30761900
_cell_length_b   9.30761831
_cell_length_c   6.67687700
_cell_angle_alpha   90.00000000
_cell_angle_beta   90.00000000
_cell_angle_gamma   119.99999888
_symmetry_Int_Tables_number   1
_chemical_formula_structural   Sm7Er3(Sn3Br)2
_chemical_formula_sum   'Sm7 Er3 Sn6 Br2'
_cell_volume   500.93476789
_cell_formula_units_Z   1
loop_
 _symmetry_equiv_pos_site_id
 _symmetry_equiv_pos_as_xyz
  1  'x, y, z'
loop_
 _atom_site_type_symbol
 _atom_site_label
 _atom_site_symmetry_multiplicity
 _atom_site_fract_x
 _atom_site_fract_y
 _atom_site_fract_z
 _atom_site_occupancy
  Sm  Sm0  1  0.268081  0.268289  0.749662  1
  Sm  Sm1  1  0.000209  0.731919  0.749662  1
  Sm  Sm2  1  0.731711  0.999791  0.749662  1
  Sm  Sm3  1  0.000209  0.268289  0.250338  1
  Sm  Sm4  1  0.731711  0.731919  0.250338  1
  Sm  Sm5  1  0.268081  0.999791  0.250338  1
  Sm  Sm6  1  0.666667  0.333333  0.000000  1
  Er  Er7  1  0.333333  0.666667  0.500000  1
  Er  Er8  1  0.666667  0.333333  0.500000  1
  Er  Er9  1  0.333333  0.666667  0.000000  1
  Sn  Sn10  1  0.609996  0.998288  0.251186  1
  Sn  Sn11  1  0.001712  0.390004  0.748814  1
  Sn  Sn12  1  0.388292  0.998288  0.748814  1
  Sn  Sn13  1  0.609996  0.611708  0.748814  1
  Sn  Sn14  1  0.001712  0.611708  0.251186  1
  Sn  Sn15  1  0.388292  0.390004  0.251186  1
  Br  Br16  1  0.000000  0.000000  0.000000  1
  Br  Br17  1  0.000000  0.000000  0.500000  1
