# generated using pymatgen
data_Sr3Ca7Cr2(MoN7)2
_symmetry_space_group_name_H-M   'P 1'
_cell_length_a   6.16754816
_cell_length_b   8.85239461
_cell_length_c   9.07648413
_cell_angle_alpha   115.82955147
_cell_angle_beta   95.71725346
_cell_angle_gamma   89.50569139
_symmetry_Int_Tables_number   1
_chemical_formula_structural   Sr3Ca7Cr2(MoN7)2
_chemical_formula_sum   'Sr3 Ca7 Cr2 Mo2 N14'
_cell_volume   443.49173343
_cell_formula_units_Z   1
loop_
 _symmetry_equiv_pos_site_id
 _symmetry_equiv_pos_as_xyz
  1  'x, y, z'
loop_
 _atom_site_type_symbol
 _atom_site_label
 _atom_site_symmetry_multiplicity
 _atom_site_fract_x
 _atom_site_fract_y
 _atom_site_fract_z
 _atom_site_occupancy
  Sr  Sr0  1  0.883321  0.823886  0.745207  1
  Sr  Sr1  1  0.116406  0.176273  0.253938  1
  Sr  Sr2  1  0.730590  0.015949  0.434659  1
  Ca  Ca3  1  0.824628  0.582154  0.320188  1
  Ca  Ca4  1  0.257889  0.971117  0.546481  1
  Ca  Ca5  1  0.705869  0.419054  0.849190  1
  Ca  Ca6  1  0.297754  0.582198  0.157322  1
  Ca  Ca7  1  0.404836  0.789153  0.932066  1
  Ca  Ca8  1  0.596304  0.209466  0.073624  1
  Ca  Ca9  1  0.170070  0.403722  0.681015  1
  Cr  Cr10  1  0.574369  0.371298  0.488902  1
  Cr  Cr11  1  0.412070  0.635971  0.516178  1
  Mo  Mo12  1  0.126566  0.213707  0.913150  1
  Mo  Mo13  1  0.885771  0.783649  0.084624  1
  N  N14  1  0.518164  0.565323  0.678859  1
  N  N15  1  0.466948  0.439552  0.326234  1
  N  N16  1  0.145423  0.688457  0.520947  1
  N  N17  1  0.842593  0.324955  0.475185  1
  N  N18  1  0.415654  0.209640  0.489416  1
  N  N19  1  0.573292  0.796350  0.518244  1
  N  N20  1  0.962698  0.131885  0.706531  1
  N  N21  1  0.075361  0.868124  0.279739  1
  N  N22  1  0.244964  0.043080  0.960142  1
  N  N23  1  0.761730  0.956773  0.043410  1
  N  N24  1  0.370770  0.335281  0.907917  1
  N  N25  1  0.956122  0.352284  0.082737  1
  N  N26  1  0.037592  0.640541  0.907751  1
  N  N27  1  0.642245  0.670158  0.106345  1
