# generated using pymatgen
data_TbHf2SnF15
_symmetry_space_group_name_H-M   'P 1'
_cell_length_a   8.11260125
_cell_length_b   8.11260180
_cell_length_c   8.08378600
_cell_angle_alpha   79.66521356
_cell_angle_beta   79.66522003
_cell_angle_gamma   99.74154727
_symmetry_Int_Tables_number   1
_chemical_formula_structural   TbHf2SnF15
_chemical_formula_sum   'Tb2 Hf4 Sn2 F30'
_cell_volume   503.63489922
_cell_formula_units_Z   2
loop_
 _symmetry_equiv_pos_site_id
 _symmetry_equiv_pos_as_xyz
  1  'x, y, z'
loop_
 _atom_site_type_symbol
 _atom_site_label
 _atom_site_symmetry_multiplicity
 _atom_site_fract_x
 _atom_site_fract_y
 _atom_site_fract_z
 _atom_site_occupancy
  Tb  Tb0  1  0.177660  0.822340  0.250000  1
  Tb  Tb1  1  0.822340  0.177660  0.750000  1
  Hf  Hf2  1  0.743595  0.678401  0.674104  1
  Hf  Hf3  1  0.321599  0.256405  0.825896  1
  Hf  Hf4  1  0.256405  0.321599  0.325896  1
  Hf  Hf5  1  0.678401  0.743595  0.174104  1
  Sn  Sn6  1  0.752180  0.247820  0.250000  1
  Sn  Sn7  1  0.247820  0.752180  0.750000  1
  F  F8  1  0.317264  0.349279  0.054393  1
  F  F9  1  0.933580  0.811837  0.151647  1
  F  F10  1  0.838159  0.463308  0.684257  1
  F  F11  1  0.463308  0.838159  0.184257  1
  F  F12  1  0.811837  0.933580  0.651647  1
  F  F13  1  0.349279  0.317264  0.554392  1
  F  F14  1  0.682736  0.650721  0.945607  1
  F  F15  1  0.066420  0.188163  0.848353  1
  F  F16  1  0.161841  0.536692  0.315743  1
  F  F17  1  0.536692  0.161841  0.815743  1
  F  F18  1  0.188163  0.066420  0.348353  1
  F  F19  1  0.650721  0.682736  0.445607  1
  F  F20  1  0.771135  0.286071  0.998248  1
  F  F21  1  0.006838  0.275255  0.212939  1
  F  F22  1  0.783491  0.505524  0.222447  1
  F  F23  1  0.505524  0.783491  0.722447  1
  F  F24  1  0.275255  0.006838  0.712939  1
  F  F25  1  0.286071  0.771135  0.498248  1
  F  F26  1  0.228865  0.713929  0.001752  1
  F  F27  1  0.993162  0.724745  0.787061  1
  F  F28  1  0.216509  0.494476  0.777553  1
  F  F29  1  0.494476  0.216509  0.277553  1
  F  F30  1  0.724745  0.993162  0.287061  1
  F  F31  1  0.713929  0.228865  0.501752  1
  F  F32  1  0.472671  0.527329  0.250000  1
  F  F33  1  0.746116  0.953176  0.975856  1
  F  F34  1  0.046824  0.253884  0.524144  1
  F  F35  1  0.253884  0.046824  0.024144  1
  F  F36  1  0.953176  0.746116  0.475856  1
  F  F37  1  0.527329  0.472671  0.750000  1
