# generated using pymatgen
data_Er12AlInSi4
_symmetry_space_group_name_H-M   'P 1'
_cell_length_a   8.40358234
_cell_length_b   8.40358225
_cell_length_c   8.40358209
_cell_angle_alpha   112.15073879
_cell_angle_beta   111.39236069
_cell_angle_gamma   104.96344698
_symmetry_Int_Tables_number   1
_chemical_formula_structural   Er12AlInSi4
_chemical_formula_sum   'Er12 Al1 In1 Si4'
_cell_volume   454.72713737
_cell_formula_units_Z   1
loop_
 _symmetry_equiv_pos_site_id
 _symmetry_equiv_pos_as_xyz
  1  'x, y, z'
loop_
 _atom_site_type_symbol
 _atom_site_label
 _atom_site_symmetry_multiplicity
 _atom_site_fract_x
 _atom_site_fract_y
 _atom_site_fract_z
 _atom_site_occupancy
  Er  Er0  1  0.182969  0.274496  0.457465  1
  Er  Er1  1  0.817031  0.725504  0.542535  1
  Er  Er2  1  0.182969  0.725504  0.908472  1
  Er  Er3  1  0.817031  0.274496  0.091528  1
  Er  Er4  1  0.319290  0.616220  0.296929  1
  Er  Er5  1  0.680710  0.383780  0.703071  1
  Er  Er6  1  0.319290  0.022361  0.703071  1
  Er  Er7  1  0.680710  0.977639  0.296929  1
  Er  Er8  1  0.435985  0.235635  0.200350  1
  Er  Er9  1  0.564015  0.764365  0.799650  1
  Er  Er10  1  0.035285  0.235635  0.799650  1
  Er  Er11  1  0.964715  0.764365  0.200350  1
  Al  Al12  1  0.000000  0.000000  0.000000  1
  In  In13  1  0.500000  0.500000  0.000000  1
  Si  Si14  1  0.116673  0.616673  0.500000  1
  Si  Si15  1  0.883327  0.383327  0.500000  1
  Si  Si16  1  0.367786  0.000000  0.367786  1
  Si  Si17  1  0.632214  0.000000  0.632214  1
