# generated using pymatgen
data_Np4Ga11NiGe
_symmetry_space_group_name_H-M   'P 1'
_cell_length_a   7.44894594
_cell_length_b   7.45027077
_cell_length_c   7.45027090
_cell_angle_alpha   108.26040469
_cell_angle_beta   110.08184971
_cell_angle_gamma   110.08185663
_symmetry_Int_Tables_number   1
_chemical_formula_structural   Np4Ga11NiGe
_chemical_formula_sum   'Np4 Ga11 Ni1 Ge1'
_cell_volume   318.16459170
_cell_formula_units_Z   1
loop_
 _symmetry_equiv_pos_site_id
 _symmetry_equiv_pos_as_xyz
  1  'x, y, z'
loop_
 _atom_site_type_symbol
 _atom_site_label
 _atom_site_symmetry_multiplicity
 _atom_site_fract_x
 _atom_site_fract_y
 _atom_site_fract_z
 _atom_site_occupancy
  Np  Np0  1  0.500000  0.503735  0.496265  1
  Np  Np1  1  0.992531  0.996265  0.496266  1
  Np  Np2  1  0.007469  0.503734  0.003735  1
  Np  Np3  1  0.500000  0.996264  0.003736  1
  Ga  Ga4  1  0.500000  0.250003  0.749997  1
  Ga  Ga5  1  0.248894  0.496395  0.745403  1
  Ga  Ga6  1  0.751101  0.496511  0.247501  1
  Ga  Ga7  1  0.751106  0.254597  0.503605  1
  Ga  Ga8  1  0.248899  0.752499  0.503489  1
  Ga  Ga9  1  0.000002  0.284462  0.284460  1
  Ga  Ga10  1  0.999998  0.715540  0.715538  1
  Ga  Ga11  1  0.285337  0.005392  0.290814  1
  Ga  Ga12  1  0.714661  0.005482  0.720065  1
  Ga  Ga13  1  0.285339  0.279935  0.994518  1
  Ga  Ga14  1  0.714663  0.709186  0.994608  1
  Ni  Ni15  1  0.000000  0.000000  0.000000  1
  Ge  Ge16  1  0.500000  0.750000  0.250000  1
