# generated using pymatgen
data_Ac3SiAgS7
_symmetry_space_group_name_H-M   'P 1'
_cell_length_a   10.79384801
_cell_length_b   10.79382362
_cell_length_c   5.96286900
_cell_angle_alpha   90.00000000
_cell_angle_beta   90.00000000
_cell_angle_gamma   119.99984025
_symmetry_Int_Tables_number   1
_chemical_formula_structural   Ac3SiAgS7
_chemical_formula_sum   'Ac6 Si2 Ag2 S14'
_cell_volume   601.64209448
_cell_formula_units_Z   2
loop_
 _symmetry_equiv_pos_site_id
 _symmetry_equiv_pos_as_xyz
  1  'x, y, z'
loop_
 _atom_site_type_symbol
 _atom_site_label
 _atom_site_symmetry_multiplicity
 _atom_site_fract_x
 _atom_site_fract_y
 _atom_site_fract_z
 _atom_site_occupancy
  Ac  Ac0  1  0.640516  0.761764  0.248230  1
  Ac  Ac1  1  0.121252  0.359489  0.248231  1
  Ac  Ac2  1  0.238239  0.878751  0.248231  1
  Ac  Ac3  1  0.359484  0.238236  0.748230  1
  Ac  Ac4  1  0.761761  0.121248  0.748231  1
  Ac  Ac5  1  0.878748  0.640510  0.748231  1
  Si  Si6  1  0.666660  0.333330  0.160889  1
  Si  Si7  1  0.333340  0.666670  0.660889  1
  Ag  Ag8  1  0.000000  0.999998  0.294688  1
  Ag  Ag9  1  0.000000  0.000002  0.794688  1
  S  S10  1  0.528218  0.123376  0.024699  1
  S  S11  1  0.595154  0.471777  0.024700  1
  S  S12  1  0.876619  0.404841  0.024706  1
  S  S13  1  0.333344  0.666672  0.017317  1
  S  S14  1  0.913763  0.739488  0.261435  1
  S  S15  1  0.260509  0.174273  0.261436  1
  S  S16  1  0.825730  0.086239  0.261436  1
  S  S17  1  0.471782  0.876624  0.524699  1
  S  S18  1  0.404847  0.528223  0.524700  1
  S  S19  1  0.123382  0.595159  0.524706  1
  S  S20  1  0.666655  0.333328  0.517317  1
  S  S21  1  0.086237  0.260511  0.761435  1
  S  S22  1  0.739491  0.825727  0.761436  1
  S  S23  1  0.174270  0.913761  0.761436  1
