# generated using pymatgen
data_Tb2Y2Ga16Co2Rh
_symmetry_space_group_name_H-M   'P 1'
_cell_length_a   6.07060000
_cell_length_b   6.07060000
_cell_length_c   11.20591100
_cell_angle_alpha   90.00000000
_cell_angle_beta   90.00000000
_cell_angle_gamma   90.00000000
_symmetry_Int_Tables_number   1
_chemical_formula_structural   Tb2Y2Ga16Co2Rh
_chemical_formula_sum   'Tb2 Y2 Ga16 Co2 Rh1'
_cell_volume   412.96229809
_cell_formula_units_Z   1
loop_
 _symmetry_equiv_pos_site_id
 _symmetry_equiv_pos_as_xyz
  1  'x, y, z'
loop_
 _atom_site_type_symbol
 _atom_site_label
 _atom_site_symmetry_multiplicity
 _atom_site_fract_x
 _atom_site_fract_y
 _atom_site_fract_z
 _atom_site_occupancy
  Tb  Tb0  1  0.500000  0.000000  0.804678  1
  Tb  Tb1  1  0.000000  0.500000  0.804678  1
  Y  Y2  1  0.500000  0.000000  0.195464  1
  Y  Y3  1  0.000000  0.500000  0.195464  1
  Ga  Ga4  1  0.250232  0.250232  0.613989  1
  Ga  Ga5  1  0.749768  0.749768  0.613989  1
  Ga  Ga6  1  0.749768  0.250232  0.613989  1
  Ga  Ga7  1  0.250232  0.749768  0.613989  1
  Ga  Ga8  1  0.749859  0.749859  0.385952  1
  Ga  Ga9  1  0.250141  0.250141  0.385952  1
  Ga  Ga10  1  0.250141  0.749859  0.385952  1
  Ga  Ga11  1  0.749859  0.250141  0.385952  1
  Ga  Ga12  1  0.287357  0.287357  0.000090  1
  Ga  Ga13  1  0.712643  0.712643  0.000090  1
  Ga  Ga14  1  0.712643  0.287357  0.000090  1
  Ga  Ga15  1  0.287357  0.712643  0.000090  1
  Ga  Ga16  1  0.500000  0.500000  0.803433  1
  Ga  Ga17  1  0.500000  0.500000  0.196410  1
  Ga  Ga18  1  0.000000  0.000000  0.774470  1
  Ga  Ga19  1  0.000000  0.000000  0.225442  1
  Co  Co20  1  0.500000  0.000000  0.499960  1
  Co  Co21  1  0.000000  0.500000  0.499960  1
  Rh  Rh22  1  0.000000  0.000000  0.999915  1
