# generated using pymatgen
data_Y3Ho(AlSi)2
_symmetry_space_group_name_H-M   'P 1'
_cell_length_a   3.98185200
_cell_length_b   5.83347673
_cell_length_c   8.04892101
_cell_angle_alpha   89.95856614
_cell_angle_beta   90.00000000
_cell_angle_gamma   90.00000000
_symmetry_Int_Tables_number   1
_chemical_formula_structural   Y3Ho(AlSi)2
_chemical_formula_sum   'Y3 Ho1 Al2 Si2'
_cell_volume   186.96061835
_cell_formula_units_Z   1
loop_
 _symmetry_equiv_pos_site_id
 _symmetry_equiv_pos_as_xyz
  1  'x, y, z'
loop_
 _atom_site_type_symbol
 _atom_site_label
 _atom_site_symmetry_multiplicity
 _atom_site_fract_x
 _atom_site_fract_y
 _atom_site_fract_z
 _atom_site_occupancy
  Y  Y0  1  0.250000  0.378902  0.679427  1
  Y  Y1  1  0.250000  0.120628  0.178664  1
  Y  Y2  1  0.750000  0.608899  0.321972  1
  Ho  Ho3  1  0.750000  0.891340  0.821761  1
  Al  Al4  1  0.250000  0.873264  0.537178  1
  Al  Al5  1  0.250000  0.627447  0.035273  1
  Si  Si6  1  0.750000  0.125267  0.463403  1
  Si  Si7  1  0.750000  0.374253  0.962320  1
