# generated using pymatgen
data_Dy16Al4TcPt3
_symmetry_space_group_name_H-M   'P 1'
_cell_length_a   9.58795275
_cell_length_b   9.58795392
_cell_length_c   9.58795362
_cell_angle_alpha   59.96634661
_cell_angle_beta   59.96634140
_cell_angle_gamma   59.96634310
_symmetry_Int_Tables_number   1
_chemical_formula_structural   Dy16Al4TcPt3
_chemical_formula_sum   'Dy16 Al4 Tc1 Pt3'
_cell_volume   622.77497842
_cell_formula_units_Z   1
loop_
 _symmetry_equiv_pos_site_id
 _symmetry_equiv_pos_as_xyz
  1  'x, y, z'
loop_
 _atom_site_type_symbol
 _atom_site_label
 _atom_site_symmetry_multiplicity
 _atom_site_fract_x
 _atom_site_fract_y
 _atom_site_fract_z
 _atom_site_occupancy
  Dy  Dy0  1  0.353393  0.353393  0.353393  1
  Dy  Dy1  1  0.352681  0.352681  0.939783  1
  Dy  Dy2  1  0.352681  0.939783  0.352681  1
  Dy  Dy3  1  0.939783  0.352681  0.352681  1
  Dy  Dy4  1  0.811058  0.192225  0.192225  1
  Dy  Dy5  1  0.193491  0.806484  0.806484  1
  Dy  Dy6  1  0.192225  0.811058  0.192225  1
  Dy  Dy7  1  0.806484  0.193491  0.806484  1
  Dy  Dy8  1  0.192225  0.192225  0.811058  1
  Dy  Dy9  1  0.806484  0.806484  0.193491  1
  Dy  Dy10  1  0.935571  0.564221  0.564221  1
  Dy  Dy11  1  0.557798  0.938524  0.938524  1
  Dy  Dy12  1  0.564221  0.935571  0.564221  1
  Dy  Dy13  1  0.938524  0.557797  0.938524  1
  Dy  Dy14  1  0.564221  0.564221  0.935571  1
  Dy  Dy15  1  0.938524  0.938524  0.557797  1
  Al  Al16  1  0.577930  0.577930  0.577930  1
  Al  Al17  1  0.577298  0.577298  0.267295  1
  Al  Al18  1  0.577298  0.267295  0.577298  1
  Al  Al19  1  0.267295  0.577298  0.577298  1
  Tc  Tc20  1  0.143322  0.143322  0.143322  1
  Pt  Pt21  1  0.143016  0.143016  0.571465  1
  Pt  Pt22  1  0.143016  0.571465  0.143016  1
  Pt  Pt23  1  0.571465  0.143016  0.143016  1
