# generated using pymatgen
data_Er4Al18Pd2PtRh3
_symmetry_space_group_name_H-M   'P 1'
_cell_length_a   7.58465322
_cell_length_b   7.58465245
_cell_length_c   9.40980202
_cell_angle_alpha   89.95782377
_cell_angle_beta   89.95782894
_cell_angle_gamma   119.64854124
_symmetry_Int_Tables_number   1
_chemical_formula_structural   Er4Al18Pd2PtRh3
_chemical_formula_sum   'Er4 Al18 Pd2 Pt1 Rh3'
_cell_volume   470.44544176
_cell_formula_units_Z   1
loop_
 _symmetry_equiv_pos_site_id
 _symmetry_equiv_pos_as_xyz
  1  'x, y, z'
loop_
 _atom_site_type_symbol
 _atom_site_label
 _atom_site_symmetry_multiplicity
 _atom_site_fract_x
 _atom_site_fract_y
 _atom_site_fract_z
 _atom_site_occupancy
  Er  Er0  1  0.995048  0.670109  0.750173  1
  Er  Er1  1  0.004952  0.329891  0.249827  1
  Er  Er2  1  0.670109  0.995048  0.750173  1
  Er  Er3  1  0.329891  0.004952  0.249827  1
  Al  Al4  1  0.128007  0.128007  0.748177  1
  Al  Al5  1  0.871993  0.871993  0.251823  1
  Al  Al6  1  0.000245  0.331108  0.577311  1
  Al  Al7  1  0.999755  0.668892  0.422689  1
  Al  Al8  1  0.001010  0.661880  0.075441  1
  Al  Al9  1  0.338120  0.998990  0.924559  1
  Al  Al10  1  0.998990  0.338120  0.924559  1
  Al  Al11  1  0.661880  0.001010  0.075441  1
  Al  Al12  1  0.668892  0.999755  0.422689  1
  Al  Al13  1  0.331108  0.000245  0.577311  1
  Al  Al14  1  0.334798  0.334798  0.051352  1
  Al  Al15  1  0.665202  0.665202  0.948648  1
  Al  Al16  1  0.669315  0.669315  0.557486  1
  Al  Al17  1  0.330685  0.330685  0.442514  1
  Al  Al18  1  0.340099  0.548462  0.753522  1
  Al  Al19  1  0.659901  0.451538  0.246478  1
  Al  Al20  1  0.548462  0.340099  0.753522  1
  Al  Al21  1  0.451538  0.659901  0.246478  1
  Pd  Pd22  1  0.672731  0.327269  0.500000  1
  Pd  Pd23  1  0.327269  0.672731  0.500000  1
  Pt  Pt24  1  0.000000  0.000000  0.000000  1
  Rh  Rh25  1  0.327876  0.672124  0.000000  1
  Rh  Rh26  1  0.672124  0.327876  0.000000  1
  Rh  Rh27  1  0.000000  0.000000  0.500000  1
