# generated using pymatgen
data_CeEr3(ReB6)2
_symmetry_space_group_name_H-M   'P 1'
_cell_length_a   3.68762700
_cell_length_b   9.16340954
_cell_length_c   11.53440602
_cell_angle_alpha   90.12621938
_cell_angle_beta   90.00000000
_cell_angle_gamma   90.00000000
_symmetry_Int_Tables_number   1
_chemical_formula_structural   CeEr3(ReB6)2
_chemical_formula_sum   'Ce2 Er6 Re4 B24'
_cell_volume   389.76089519
_cell_formula_units_Z   2
loop_
 _symmetry_equiv_pos_site_id
 _symmetry_equiv_pos_as_xyz
  1  'x, y, z'
loop_
 _atom_site_type_symbol
 _atom_site_label
 _atom_site_symmetry_multiplicity
 _atom_site_fract_x
 _atom_site_fract_y
 _atom_site_fract_z
 _atom_site_occupancy
  Ce  Ce0  1  0.000000  0.322037  0.413682  1
  Ce  Ce1  1  0.000000  0.677963  0.586318  1
  Er  Er2  1  0.000000  0.824165  0.085576  1
  Er  Er3  1  0.000000  0.175835  0.914424  1
  Er  Er4  1  0.000000  0.943570  0.370211  1
  Er  Er5  1  0.000000  0.056430  0.629789  1
  Er  Er6  1  0.000000  0.443237  0.128546  1
  Er  Er7  1  0.000000  0.556763  0.871454  1
  Re  Re8  1  0.000000  0.638331  0.321521  1
  Re  Re9  1  0.000000  0.361669  0.678479  1
  Re  Re10  1  0.000000  0.139315  0.179543  1
  Re  Re11  1  0.000000  0.860685  0.820457  1
  B  B12  1  0.500000  0.554381  0.431684  1
  B  B13  1  0.500000  0.445619  0.568316  1
  B  B14  1  0.500000  0.053503  0.066484  1
  B  B15  1  0.500000  0.946497  0.933516  1
  B  B16  1  0.500000  0.750289  0.417402  1
  B  B17  1  0.500000  0.249711  0.582598  1
  B  B18  1  0.500000  0.249002  0.080434  1
  B  B19  1  0.500000  0.750998  0.919566  1
  B  B20  1  0.500000  0.792714  0.264846  1
  B  B21  1  0.500000  0.207286  0.735154  1
  B  B22  1  0.500000  0.291663  0.233296  1
  B  B23  1  0.500000  0.708337  0.766704  1
  B  B24  1  0.500000  0.631364  0.184710  1
  B  B25  1  0.500000  0.368636  0.815290  1
  B  B26  1  0.500000  0.130646  0.313443  1
  B  B27  1  0.500000  0.869354  0.686557  1
  B  B28  1  0.500000  0.982260  0.211342  1
  B  B29  1  0.500000  0.017740  0.788658  1
  B  B30  1  0.500000  0.483526  0.286525  1
  B  B31  1  0.500000  0.516474  0.713475  1
  B  B32  1  0.500000  0.601429  0.028374  1
  B  B33  1  0.500000  0.398571  0.971626  1
  B  B34  1  0.500000  0.101743  0.471699  1
  B  B35  1  0.500000  0.898257  0.528301  1
