# generated using pymatgen
data_Ba3(LiPb2)4
_symmetry_space_group_name_H-M   'P 1'
_cell_length_a   6.99823726
_cell_length_b   7.06197879
_cell_length_c   10.12989968
_cell_angle_alpha   98.92417898
_cell_angle_beta   110.20773351
_cell_angle_gamma   89.99999388
_symmetry_Int_Tables_number   1
_chemical_formula_structural   Ba3(LiPb2)4
_chemical_formula_sum   'Ba3 Li4 Pb8'
_cell_volume   463.35473894
_cell_formula_units_Z   1
loop_
 _symmetry_equiv_pos_site_id
 _symmetry_equiv_pos_as_xyz
  1  'x, y, z'
loop_
 _atom_site_type_symbol
 _atom_site_label
 _atom_site_symmetry_multiplicity
 _atom_site_fract_x
 _atom_site_fract_y
 _atom_site_fract_z
 _atom_site_occupancy
  Ba  Ba0  1  0.000000  0.000000  0.000000  1
  Ba  Ba1  1  0.678556  0.327616  0.357112  1
  Ba  Ba2  1  0.321444  0.672383  0.642888  1
  Li  Li3  1  0.208138  0.500000  0.000000  1
  Li  Li4  1  0.791861  0.500000  0.000000  1
  Li  Li5  1  0.213859  0.138391  0.427719  1
  Li  Li6  1  0.786140  0.861608  0.572280  1
  Pb  Pb7  1  0.514183  0.787935  0.028365  1
  Pb  Pb8  1  0.128378  0.433459  0.256757  1
  Pb  Pb9  1  0.406444  0.812619  0.310185  1
  Pb  Pb10  1  0.903741  0.812619  0.310185  1
  Pb  Pb11  1  0.096259  0.187381  0.689815  1
  Pb  Pb12  1  0.593556  0.187381  0.689815  1
  Pb  Pb13  1  0.871621  0.566542  0.743243  1
  Pb  Pb14  1  0.485817  0.212064  0.971634  1
