# generated using pymatgen
data_Tb8Hg2IrPd
_symmetry_space_group_name_H-M   'P 1'
_cell_length_a   9.66694381
_cell_length_b   9.66694355
_cell_length_c   9.63573700
_cell_angle_alpha   60.10672629
_cell_angle_beta   60.10672718
_cell_angle_gamma   60.39282523
_symmetry_Int_Tables_number   1
_chemical_formula_structural   Tb8Hg2IrPd
_chemical_formula_sum   'Tb16 Hg4 Ir2 Pd2'
_cell_volume   639.62283451
_cell_formula_units_Z   2
loop_
 _symmetry_equiv_pos_site_id
 _symmetry_equiv_pos_as_xyz
  1  'x, y, z'
loop_
 _atom_site_type_symbol
 _atom_site_label
 _atom_site_symmetry_multiplicity
 _atom_site_fract_x
 _atom_site_fract_y
 _atom_site_fract_z
 _atom_site_occupancy
  Tb  Tb0  1  0.602751  0.602751  0.596686  1
  Tb  Tb1  1  0.602751  0.602751  0.197813  1
  Tb  Tb2  1  0.610637  0.185684  0.601841  1
  Tb  Tb3  1  0.185684  0.610637  0.601841  1
  Tb  Tb4  1  0.055617  0.440841  0.439850  1
  Tb  Tb5  1  0.440841  0.055617  0.063692  1
  Tb  Tb6  1  0.440841  0.055617  0.439850  1
  Tb  Tb7  1  0.055617  0.440841  0.063692  1
  Tb  Tb8  1  0.441753  0.441753  0.058247  1
  Tb  Tb9  1  0.061158  0.061158  0.438842  1
  Tb  Tb10  1  0.188022  0.815679  0.811037  1
  Tb  Tb11  1  0.815679  0.188022  0.185262  1
  Tb  Tb12  1  0.815679  0.188022  0.811037  1
  Tb  Tb13  1  0.188022  0.815679  0.185262  1
  Tb  Tb14  1  0.813105  0.813105  0.186895  1
  Tb  Tb15  1  0.187049  0.187049  0.812951  1
  Hg  Hg16  1  0.835101  0.835101  0.836743  1
  Hg  Hg17  1  0.835101  0.835101  0.493055  1
  Hg  Hg18  1  0.834164  0.493559  0.836138  1
  Hg  Hg19  1  0.493559  0.834164  0.836138  1
  Ir  Ir20  1  0.390950  0.820903  0.394074  1
  Ir  Ir21  1  0.820903  0.390950  0.394074  1
  Pd  Pd22  1  0.392510  0.392510  0.397136  1
  Pd  Pd23  1  0.392510  0.392510  0.817844  1
