# generated using pymatgen
data_Ho4Hf2SnO12
_symmetry_space_group_name_H-M   'P 1'
_cell_length_a   6.29617221
_cell_length_b   6.36266455
_cell_length_c   6.55365628
_cell_angle_alpha   100.08651743
_cell_angle_beta   98.26694086
_cell_angle_gamma   99.78137327
_symmetry_Int_Tables_number   1
_chemical_formula_structural   Ho4Hf2SnO12
_chemical_formula_sum   'Ho4 Hf2 Sn1 O12'
_cell_volume   250.61927677
_cell_formula_units_Z   1
loop_
 _symmetry_equiv_pos_site_id
 _symmetry_equiv_pos_as_xyz
  1  'x, y, z'
loop_
 _atom_site_type_symbol
 _atom_site_label
 _atom_site_symmetry_multiplicity
 _atom_site_fract_x
 _atom_site_fract_y
 _atom_site_fract_z
 _atom_site_occupancy
  Ho  Ho0  1  0.387280  0.697926  0.865300  1
  Ho  Ho1  1  0.697847  0.866121  0.390487  1
  Ho  Ho2  1  0.612720  0.302074  0.134700  1
  Ho  Ho3  1  0.302153  0.133879  0.609513  1
  Hf  Hf4  1  0.847900  0.398523  0.668906  1
  Hf  Hf5  1  0.152100  0.601477  0.331094  1
  Sn  Sn6  1  0.000000  0.000000  0.000000  1
  O  O7  1  0.022254  0.678268  0.880802  1
  O  O8  1  0.687022  0.935074  0.057314  1
  O  O9  1  0.921206  0.089807  0.696076  1
  O  O10  1  0.977746  0.321732  0.119198  1
  O  O11  1  0.312978  0.064926  0.942686  1
  O  O12  1  0.078794  0.910193  0.303924  1
  O  O13  1  0.590136  0.189672  0.434576  1
  O  O14  1  0.170449  0.428330  0.572874  1
  O  O15  1  0.414178  0.584890  0.180013  1
  O  O16  1  0.409864  0.810328  0.565424  1
  O  O17  1  0.829551  0.571670  0.427126  1
  O  O18  1  0.585822  0.415110  0.819987  1
