# generated using pymatgen
data_NdY2Cr(Co4P3)2
_symmetry_space_group_name_H-M   'P 1'
_cell_length_a   3.71996100
_cell_length_b   10.57938300
_cell_length_c   12.26151700
_cell_angle_alpha   90.00000000
_cell_angle_beta   90.00000000
_cell_angle_gamma   90.00000000
_symmetry_Int_Tables_number   1
_chemical_formula_structural   NdY2Cr(Co4P3)2
_chemical_formula_sum   'Nd2 Y4 Cr2 Co16 P12'
_cell_volume   482.55067930
_cell_formula_units_Z   2
loop_
 _symmetry_equiv_pos_site_id
 _symmetry_equiv_pos_as_xyz
  1  'x, y, z'
loop_
 _atom_site_type_symbol
 _atom_site_label
 _atom_site_symmetry_multiplicity
 _atom_site_fract_x
 _atom_site_fract_y
 _atom_site_fract_z
 _atom_site_occupancy
  Nd  Nd0  1  0.000000  0.500000  0.522290  1
  Nd  Nd1  1  0.500000  0.000000  0.477710  1
  Y  Y2  1  0.500000  0.817561  0.203403  1
  Y  Y3  1  0.500000  0.182439  0.203403  1
  Y  Y4  1  0.000000  0.682439  0.796597  1
  Y  Y5  1  0.000000  0.317561  0.796597  1
  Cr  Cr6  1  0.500000  0.500000  0.152774  1
  Cr  Cr7  1  0.000000  0.000000  0.847226  1
  Co  Co8  1  0.500000  0.500000  0.704535  1
  Co  Co9  1  0.000000  0.000000  0.295465  1
  Co  Co10  1  0.000000  0.500000  0.987207  1
  Co  Co11  1  0.500000  0.000000  0.012793  1
  Co  Co12  1  0.500000  0.332617  0.992337  1
  Co  Co13  1  0.500000  0.667383  0.992337  1
  Co  Co14  1  0.000000  0.167383  0.007663  1
  Co  Co15  1  0.000000  0.832617  0.007663  1
  Co  Co16  1  0.500000  0.295581  0.429278  1
  Co  Co17  1  0.500000  0.704419  0.429278  1
  Co  Co18  1  0.000000  0.204419  0.570722  1
  Co  Co19  1  0.000000  0.795581  0.570722  1
  Co  Co20  1  0.500000  0.879898  0.711629  1
  Co  Co21  1  0.500000  0.120102  0.711629  1
  Co  Co22  1  0.000000  0.620102  0.288371  1
  Co  Co23  1  0.000000  0.379898  0.288371  1
  P  P24  1  0.500000  0.500000  0.882914  1
  P  P25  1  0.000000  0.000000  0.117086  1
  P  P26  1  0.500000  0.500000  0.338245  1
  P  P27  1  0.000000  0.000000  0.661755  1
  P  P28  1  0.500000  0.308241  0.617353  1
  P  P29  1  0.500000  0.691759  0.617353  1
  P  P30  1  0.000000  0.191759  0.382647  1
  P  P31  1  0.000000  0.808241  0.382647  1
  P  P32  1  0.500000  0.848329  0.893402  1
  P  P33  1  0.500000  0.151671  0.893402  1
  P  P34  1  0.000000  0.651671  0.106598  1
  P  P35  1  0.000000  0.348329  0.106598  1
