# generated using pymatgen
data_Y10InGa4Bi
_symmetry_space_group_name_H-M   'P 1'
_cell_length_a   7.87357700
_cell_length_b   7.87357700
_cell_length_c   14.00135400
_cell_angle_alpha   90.00000000
_cell_angle_beta   90.00000000
_cell_angle_gamma   90.00000000
_symmetry_Int_Tables_number   1
_chemical_formula_structural   Y10InGa4Bi
_chemical_formula_sum   'Y20 In2 Ga8 Bi2'
_cell_volume   867.98894566
_cell_formula_units_Z   2
loop_
 _symmetry_equiv_pos_site_id
 _symmetry_equiv_pos_as_xyz
  1  'x, y, z'
loop_
 _atom_site_type_symbol
 _atom_site_label
 _atom_site_symmetry_multiplicity
 _atom_site_fract_x
 _atom_site_fract_y
 _atom_site_fract_z
 _atom_site_occupancy
  Y  Y0  1  0.839750  0.838685  0.892287  1
  Y  Y1  1  0.164584  0.162647  0.607135  1
  Y  Y2  1  0.837353  0.164584  0.392865  1
  Y  Y3  1  0.162647  0.835416  0.392865  1
  Y  Y4  1  0.335416  0.337353  0.392865  1
  Y  Y5  1  0.838685  0.160250  0.107713  1
  Y  Y6  1  0.338685  0.660250  0.892287  1
  Y  Y7  1  0.161315  0.839750  0.107713  1
  Y  Y8  1  0.500000  0.000000  0.741874  1
  Y  Y9  1  0.000000  0.500000  0.258126  1
  Y  Y10  1  0.337353  0.664584  0.607135  1
  Y  Y11  1  0.660250  0.661315  0.107713  1
  Y  Y12  1  0.662647  0.335416  0.607135  1
  Y  Y13  1  0.000000  0.500000  0.738811  1
  Y  Y14  1  0.835416  0.837353  0.607135  1
  Y  Y15  1  0.661315  0.339750  0.892287  1
  Y  Y16  1  0.160250  0.161315  0.892287  1
  Y  Y17  1  0.500000  0.000000  0.261189  1
  Y  Y18  1  0.664584  0.662647  0.392865  1
  Y  Y19  1  0.339750  0.338685  0.107713  1
  In  In20  1  0.500000  0.000000  0.499831  1
  In  In21  1  0.000000  0.500000  0.500169  1
  Ga  Ga22  1  0.630587  0.369427  0.246645  1
  Ga  Ga23  1  0.369413  0.630573  0.246645  1
  Ga  Ga24  1  0.130573  0.130587  0.246645  1
  Ga  Ga25  1  0.369427  0.369413  0.753355  1
  Ga  Ga26  1  0.130587  0.869427  0.753355  1
  Ga  Ga27  1  0.869427  0.869413  0.246645  1
  Ga  Ga28  1  0.630573  0.630587  0.753355  1
  Ga  Ga29  1  0.869413  0.130573  0.753355  1
  Bi  Bi30  1  0.000000  0.500000  0.000228  1
  Bi  Bi31  1  0.500000  0.000000  0.999772  1
