# generated using pymatgen
data_Y4Ga4PdPtRh2
_symmetry_space_group_name_H-M   'P 1'
_cell_length_a   4.42980000
_cell_length_b   6.90330402
_cell_length_c   7.66711988
_cell_angle_alpha   90.21599318
_cell_angle_beta   90.00000000
_cell_angle_gamma   90.00000000
_symmetry_Int_Tables_number   1
_chemical_formula_structural   Y4Ga4PdPtRh2
_chemical_formula_sum   'Y4 Ga4 Pd1 Pt1 Rh2'
_cell_volume   234.46082381
_cell_formula_units_Z   1
loop_
 _symmetry_equiv_pos_site_id
 _symmetry_equiv_pos_as_xyz
  1  'x, y, z'
loop_
 _atom_site_type_symbol
 _atom_site_label
 _atom_site_symmetry_multiplicity
 _atom_site_fract_x
 _atom_site_fract_y
 _atom_site_fract_z
 _atom_site_occupancy
  Y  Y0  1  0.250000  0.980811  0.305274  1
  Y  Y1  1  0.250000  0.481926  0.195135  1
  Y  Y2  1  0.750000  0.023153  0.687518  1
  Y  Y3  1  0.750000  0.526549  0.810973  1
  Ga  Ga4  1  0.250000  0.337100  0.570483  1
  Ga  Ga5  1  0.250000  0.832460  0.930257  1
  Ga  Ga6  1  0.750000  0.660480  0.424723  1
  Ga  Ga7  1  0.750000  0.161150  0.074485  1
  Pd  Pd8  1  0.250000  0.220547  0.896333  1
  Pt  Pt9  1  0.250000  0.725654  0.604694  1
  Rh  Rh10  1  0.750000  0.775374  0.103279  1
  Rh  Rh11  1  0.750000  0.274794  0.396847  1
