# generated using pymatgen
data_Sc3In3OsAu
_symmetry_space_group_name_H-M   'P 1'
_cell_length_a   7.61763900
_cell_length_b   7.61763834
_cell_length_c   3.36231600
_cell_angle_alpha   90.00000000
_cell_angle_beta   90.00000000
_cell_angle_gamma   119.99999734
_symmetry_Int_Tables_number   1
_chemical_formula_structural   Sc3In3OsAu
_chemical_formula_sum   'Sc3 In3 Os1 Au1'
_cell_volume   168.97011840
_cell_formula_units_Z   1
loop_
 _symmetry_equiv_pos_site_id
 _symmetry_equiv_pos_as_xyz
  1  'x, y, z'
loop_
 _atom_site_type_symbol
 _atom_site_label
 _atom_site_symmetry_multiplicity
 _atom_site_fract_x
 _atom_site_fract_y
 _atom_site_fract_z
 _atom_site_occupancy
  Sc  Sc0  1  0.592278  0.025936  0.500001  1
  Sc  Sc1  1  0.433658  0.407722  0.500001  1
  Sc  Sc2  1  0.974064  0.566343  0.500001  1
  In  In3  1  0.234097  0.001504  0.000000  1
  In  In4  1  0.998496  0.232592  0.000000  1
  In  In5  1  0.767408  0.765903  0.000000  1
  Os  Os6  1  0.666666  0.333333  0.000000  1
  Au  Au7  1  0.333333  0.666666  0.000000  1
