# generated using pymatgen
data_Ta9Si5PtW
_symmetry_space_group_name_H-M   'P 1'
_cell_length_a   7.55755646
_cell_length_b   7.55755684
_cell_length_c   7.55755622
_cell_angle_alpha   128.35138979
_cell_angle_beta   128.35139366
_cell_angle_gamma   76.05647523
_symmetry_Int_Tables_number   1
_chemical_formula_structural   Ta9Si5PtW
_chemical_formula_sum   'Ta9 Si5 Pt1 W1'
_cell_volume   258.08967239
_cell_formula_units_Z   1
loop_
 _symmetry_equiv_pos_site_id
 _symmetry_equiv_pos_as_xyz
  1  'x, y, z'
loop_
 _atom_site_type_symbol
 _atom_site_label
 _atom_site_symmetry_multiplicity
 _atom_site_fract_x
 _atom_site_fract_y
 _atom_site_fract_z
 _atom_site_occupancy
  Ta  Ta0  1  0.017368  0.190743  0.508545  1
  Ta  Ta1  1  0.682197  0.508822  0.491455  1
  Ta  Ta2  1  0.508822  0.017368  0.826625  1
  Ta  Ta3  1  0.190743  0.682197  0.173375  1
  Ta  Ta4  1  0.991249  0.817943  0.509364  1
  Ta  Ta5  1  0.308580  0.481887  0.490636  1
  Ta  Ta6  1  0.481887  0.991249  0.173306  1
  Ta  Ta7  1  0.817943  0.308580  0.826694  1
  Ta  Ta8  1  0.502266  0.502266  0.000000  1
  Si  Si9  1  0.251289  0.251289  0.000000  1
  Si  Si10  1  0.367258  0.129246  0.496731  1
  Si  Si11  1  0.632515  0.870527  0.503269  1
  Si  Si12  1  0.870527  0.367258  0.238012  1
  Si  Si13  1  0.129246  0.632515  0.761988  1
  Pt  Pt14  1  0.751018  0.751018  0.000000  1
  W  W15  1  0.997092  0.997092  0.000000  1
