# generated using pymatgen
data_Na2ZnI4
_symmetry_space_group_name_H-M   'P 1'
_cell_length_a   7.37955400
_cell_length_b   9.37416700
_cell_length_c   15.92323500
_cell_angle_alpha   90.00000000
_cell_angle_beta   90.00000000
_cell_angle_gamma   90.00000000
_symmetry_Int_Tables_number   1
_chemical_formula_structural   Na2ZnI4
_chemical_formula_sum   'Na8 Zn4 I16'
_cell_volume   1101.52435973
_cell_formula_units_Z   4
loop_
 _symmetry_equiv_pos_site_id
 _symmetry_equiv_pos_as_xyz
  1  'x, y, z'
loop_
 _atom_site_type_symbol
 _atom_site_label
 _atom_site_symmetry_multiplicity
 _atom_site_fract_x
 _atom_site_fract_y
 _atom_site_fract_z
 _atom_site_occupancy
  Na  Na0  1  0.000000  0.000000  0.000000  1
  Na  Na1  1  0.500000  0.000000  0.500000  1
  Na  Na2  1  0.000000  0.500000  0.000000  1
  Na  Na3  1  0.500000  0.500000  0.500000  1
  Na  Na4  1  0.007773  0.750000  0.269535  1
  Na  Na5  1  0.507773  0.250000  0.230465  1
  Na  Na6  1  0.992227  0.250000  0.730465  1
  Na  Na7  1  0.492227  0.750000  0.769535  1
  Zn  Zn8  1  0.595895  0.750000  0.090863  1
  Zn  Zn9  1  0.095895  0.250000  0.409137  1
  Zn  Zn10  1  0.404105  0.250000  0.909137  1
  Zn  Zn11  1  0.904105  0.750000  0.590863  1
  I  I12  1  0.241667  0.750000  0.092534  1
  I  I13  1  0.741667  0.250000  0.407466  1
  I  I14  1  0.758333  0.250000  0.907466  1
  I  I15  1  0.258333  0.750000  0.592534  1
  I  I16  1  0.762823  0.750000  0.436410  1
  I  I17  1  0.262823  0.250000  0.063590  1
  I  I18  1  0.237177  0.250000  0.563590  1
  I  I19  1  0.737177  0.750000  0.936410  1
  I  I20  1  0.743945  0.974725  0.166666  1
  I  I21  1  0.243945  0.025275  0.333334  1
  I  I22  1  0.256055  0.474725  0.833334  1
  I  I23  1  0.756055  0.525275  0.666666  1
  I  I24  1  0.256055  0.025275  0.833334  1
  I  I25  1  0.756055  0.974725  0.666666  1
  I  I26  1  0.743945  0.525275  0.166666  1
  I  I27  1  0.243945  0.474725  0.333334  1
