# generated using pymatgen
data_Pr8Ho12Ga9Sn7
_symmetry_space_group_name_H-M   'P 1'
_cell_length_a   7.77722219
_cell_length_b   8.13034385
_cell_length_c   15.26915800
_cell_angle_alpha   89.96026815
_cell_angle_beta   90.18873139
_cell_angle_gamma   89.89419858
_symmetry_Int_Tables_number   1
_chemical_formula_structural   Pr8Ho12Ga9Sn7
_chemical_formula_sum   'Pr8 Ho12 Ga9 Sn7'
_cell_volume   965.48450077
_cell_formula_units_Z   1
loop_
 _symmetry_equiv_pos_site_id
 _symmetry_equiv_pos_as_xyz
  1  'x, y, z'
loop_
 _atom_site_type_symbol
 _atom_site_label
 _atom_site_symmetry_multiplicity
 _atom_site_fract_x
 _atom_site_fract_y
 _atom_site_fract_z
 _atom_site_occupancy
  Pr  Pr0  1  0.010424  0.175402  0.404387  1
  Pr  Pr1  1  0.510126  0.319514  0.403312  1
  Pr  Pr2  1  0.501033  0.675623  0.903119  1
  Pr  Pr3  1  0.497317  0.673704  0.593660  1
  Pr  Pr4  1  0.986952  0.818463  0.595256  1
  Pr  Pr5  1  0.984850  0.824585  0.904215  1
  Pr  Pr6  1  0.507716  0.312985  0.098230  1
  Pr  Pr7  1  0.005381  0.176969  0.098938  1
  Ho  Ho8  1  0.325249  0.169589  0.624701  1
  Ho  Ho9  1  0.678783  0.828494  0.375591  1
  Ho  Ho10  1  0.680459  0.991726  0.751801  1
  Ho  Ho11  1  0.161494  0.681443  0.375387  1
  Ho  Ho12  1  0.821148  0.323233  0.872605  1
  Ho  Ho13  1  0.822964  0.337080  0.626000  1
  Ho  Ho14  1  0.840714  0.484905  0.254942  1
  Ho  Ho15  1  0.332928  0.012247  0.254033  1
  Ho  Ho16  1  0.339922  0.173045  0.870826  1
  Ho  Ho17  1  0.160207  0.674447  0.128708  1
  Ho  Ho18  1  0.680891  0.844726  0.124775  1
  Ho  Ho19  1  0.163841  0.499614  0.749824  1
  Ga  Ga20  1  0.033683  0.121817  0.750120  1
  Ga  Ga21  1  0.530696  0.388952  0.747309  1
  Ga  Ga22  1  0.967557  0.892102  0.250482  1
  Ga  Ga23  1  0.718320  0.125670  0.251402  1
  Ga  Ga24  1  0.337386  0.961373  0.458710  1
  Ga  Ga25  1  0.834604  0.536650  0.458438  1
  Ga  Ga26  1  0.785245  0.624754  0.750841  1
  Ga  Ga27  1  0.209609  0.371143  0.250159  1
  Ga  Ga28  1  0.662211  0.037703  0.956626  1
  Sn  Sn29  1  0.286115  0.866893  0.749200  1
  Sn  Sn30  1  0.468843  0.614347  0.248759  1
  Sn  Sn31  1  0.161298  0.463557  0.537856  1
  Sn  Sn32  1  0.826367  0.538297  0.041082  1
  Sn  Sn33  1  0.335838  0.958976  0.037689  1
  Sn  Sn34  1  0.170374  0.461506  0.960492  1
  Sn  Sn35  1  0.659452  0.038466  0.540524  1
