# generated using pymatgen
data_Dy6Co5Si4Rh
_symmetry_space_group_name_H-M   'P 1'
_cell_length_a   5.50477249
_cell_length_b   7.32235787
_cell_length_c   14.35307500
_cell_angle_alpha   90.00000000
_cell_angle_beta   90.00000000
_cell_angle_gamma   90.14572225
_symmetry_Int_Tables_number   1
_chemical_formula_structural   Dy6Co5Si4Rh
_chemical_formula_sum   'Dy12 Co10 Si8 Rh2'
_cell_volume   578.54064385
_cell_formula_units_Z   2
loop_
 _symmetry_equiv_pos_site_id
 _symmetry_equiv_pos_as_xyz
  1  'x, y, z'
loop_
 _atom_site_type_symbol
 _atom_site_label
 _atom_site_symmetry_multiplicity
 _atom_site_fract_x
 _atom_site_fract_y
 _atom_site_fract_z
 _atom_site_occupancy
  Dy  Dy0  1  0.880149  0.832439  0.750000  1
  Dy  Dy1  1  0.857367  0.523660  0.395272  1
  Dy  Dy2  1  0.356631  0.970526  0.605855  1
  Dy  Dy3  1  0.142633  0.476340  0.895272  1
  Dy  Dy4  1  0.643369  0.029475  0.105855  1
  Dy  Dy5  1  0.119851  0.167561  0.250000  1
  Dy  Dy6  1  0.142633  0.476340  0.604728  1
  Dy  Dy7  1  0.643369  0.029475  0.394145  1
  Dy  Dy8  1  0.386902  0.664567  0.250000  1
  Dy  Dy9  1  0.356631  0.970526  0.894145  1
  Dy  Dy10  1  0.613098  0.335433  0.750000  1
  Dy  Dy11  1  0.857367  0.523660  0.104728  1
  Co  Co12  1  0.593907  0.336066  0.963219  1
  Co  Co13  1  0.100473  0.163461  0.462932  1
  Co  Co14  1  0.100473  0.163461  0.037068  1
  Co  Co15  1  0.425011  0.676872  0.750000  1
  Co  Co16  1  0.899527  0.836539  0.962932  1
  Co  Co17  1  0.574989  0.323128  0.250000  1
  Co  Co18  1  0.899527  0.836539  0.537068  1
  Co  Co19  1  0.593907  0.336066  0.536781  1
  Co  Co20  1  0.406093  0.663934  0.463219  1
  Co  Co21  1  0.406093  0.663934  0.036781  1
  Si  Si22  1  0.633302  0.625995  0.901088  1
  Si  Si23  1  0.862978  0.127046  0.595085  1
  Si  Si24  1  0.137022  0.872954  0.095085  1
  Si  Si25  1  0.137022  0.872954  0.404915  1
  Si  Si26  1  0.633302  0.625995  0.598912  1
  Si  Si27  1  0.862978  0.127046  0.904915  1
  Si  Si28  1  0.366698  0.374005  0.098912  1
  Si  Si29  1  0.366698  0.374005  0.401088  1
  Rh  Rh30  1  0.906174  0.812756  0.250000  1
  Rh  Rh31  1  0.093826  0.187244  0.750000  1
