# generated using pymatgen
data_Nd2RhBr
_symmetry_space_group_name_H-M   'P 1'
_cell_length_a   4.09547900
_cell_length_b   4.09547851
_cell_length_c   15.87306500
_cell_angle_alpha   90.00000000
_cell_angle_beta   90.00000000
_cell_angle_gamma   120.00001204
_symmetry_Int_Tables_number   1
_chemical_formula_structural   Nd2RhBr
_chemical_formula_sum   'Nd4 Rh2 Br2'
_cell_volume   230.56890046
_cell_formula_units_Z   2
loop_
 _symmetry_equiv_pos_site_id
 _symmetry_equiv_pos_as_xyz
  1  'x, y, z'
loop_
 _atom_site_type_symbol
 _atom_site_label
 _atom_site_symmetry_multiplicity
 _atom_site_fract_x
 _atom_site_fract_y
 _atom_site_fract_z
 _atom_site_occupancy
  Nd  Nd0  1  0.333333  0.666667  0.098330  1
  Nd  Nd1  1  0.666667  0.333333  0.598330  1
  Nd  Nd2  1  0.666667  0.333333  0.901670  1
  Nd  Nd3  1  0.333333  0.666667  0.401670  1
  Rh  Rh4  1  0.000000  0.000000  0.000000  1
  Rh  Rh5  1  0.000000  0.000000  0.500000  1
  Br  Br6  1  0.666667  0.333333  0.250000  1
  Br  Br7  1  0.333333  0.666667  0.750000  1
