# generated using pymatgen
data_Al6CoCu2Pd
_symmetry_space_group_name_H-M   'P 1'
_cell_length_a   4.14570200
_cell_length_b   4.14570092
_cell_length_c   10.01558300
_cell_angle_alpha   90.00000000
_cell_angle_beta   90.00000000
_cell_angle_gamma   120.00000863
_symmetry_Int_Tables_number   1
_chemical_formula_structural   Al6CoCu2Pd
_chemical_formula_sum   'Al6 Co1 Cu2 Pd1'
_cell_volume   149.07433378
_cell_formula_units_Z   1
loop_
 _symmetry_equiv_pos_site_id
 _symmetry_equiv_pos_as_xyz
  1  'x, y, z'
loop_
 _atom_site_type_symbol
 _atom_site_label
 _atom_site_symmetry_multiplicity
 _atom_site_fract_x
 _atom_site_fract_y
 _atom_site_fract_z
 _atom_site_occupancy
  Al  Al0  1  0.666667  0.333333  0.190850  1
  Al  Al1  1  0.666667  0.333333  0.670416  1
  Al  Al2  1  0.000000  0.000000  0.329309  1
  Al  Al3  1  0.000000  0.000000  0.820548  1
  Al  Al4  1  0.333333  0.666667  0.004186  1
  Al  Al5  1  0.333333  0.666667  0.472937  1
  Co  Co6  1  0.666667  0.333333  0.430433  1
  Cu  Cu7  1  0.000000  0.000000  0.080529  1
  Cu  Cu8  1  0.000000  0.000000  0.574000  1
  Pd  Pd9  1  0.666667  0.333333  0.926791  1
