# generated using pymatgen
data_Rb4MnCd5Se8
_symmetry_space_group_name_H-M   'P 1'
_cell_length_a   10.10889243
_cell_length_b   10.10286774
_cell_length_c   10.10914800
_cell_angle_alpha   143.01414773
_cell_angle_beta   105.52789917
_cell_angle_gamma   86.21436819
_symmetry_Int_Tables_number   1
_chemical_formula_structural   Rb4MnCd5Se8
_chemical_formula_sum   'Rb4 Mn1 Cd5 Se8'
_cell_volume   578.67471019
_cell_formula_units_Z   1
loop_
 _symmetry_equiv_pos_site_id
 _symmetry_equiv_pos_as_xyz
  1  'x, y, z'
loop_
 _atom_site_type_symbol
 _atom_site_label
 _atom_site_symmetry_multiplicity
 _atom_site_fract_x
 _atom_site_fract_y
 _atom_site_fract_z
 _atom_site_occupancy
  Rb  Rb0  1  0.123210  0.237178  0.360498  1
  Rb  Rb1  1  0.378155  0.739631  0.116427  1
  Rb  Rb2  1  0.623261  0.262782  0.886030  1
  Rb  Rb3  1  0.876762  0.760330  0.638530  1
  Mn  Mn4  1  0.518333  0.750364  0.768302  1
  Cd  Cd5  1  0.970922  0.749964  0.220922  1
  Cd  Cd6  1  0.474663  0.249973  0.224698  1
  Cd  Cd7  1  0.746991  0.249965  0.497019  1
  Cd  Cd8  1  0.250463  0.750002  0.500531  1
  Cd  Cd9  1  0.027964  0.249960  0.777966  1
  Se  Se10  1  0.228921  0.082198  0.590364  1
  Se  Se11  1  0.280383  0.853262  0.850948  1
  Se  Se12  1  0.008122  0.417755  0.146696  1
  Se  Se13  1  0.497657  0.646636  0.426842  1
  Se  Se14  1  0.771546  0.918793  0.411550  1
  Se  Se15  1  0.718926  0.113099  0.124099  1
  Se  Se16  1  0.992721  0.581101  0.852706  1
  Se  Se17  1  0.511000  0.387008  0.605871  1
