# generated using pymatgen
data_Cs4ZnCd3(SiAs2)4
_symmetry_space_group_name_H-M   'P 1'
_cell_length_a   8.82319371
_cell_length_b   8.55078658
_cell_length_c   8.74783157
_cell_angle_alpha   70.57904213
_cell_angle_beta   76.13346430
_cell_angle_gamma   73.46329840
_symmetry_Int_Tables_number   1
_chemical_formula_structural   Cs4ZnCd3(SiAs2)4
_chemical_formula_sum   'Cs4 Zn1 Cd3 Si4 As8'
_cell_volume   588.95863713
_cell_formula_units_Z   1
loop_
 _symmetry_equiv_pos_site_id
 _symmetry_equiv_pos_as_xyz
  1  'x, y, z'
loop_
 _atom_site_type_symbol
 _atom_site_label
 _atom_site_symmetry_multiplicity
 _atom_site_fract_x
 _atom_site_fract_y
 _atom_site_fract_z
 _atom_site_occupancy
  Cs  Cs0  1  0.447585  0.766535  0.318625  1
  Cs  Cs1  1  0.553528  0.236408  0.678198  1
  Cs  Cs2  1  0.431064  0.800909  0.816915  1
  Cs  Cs3  1  0.568468  0.198840  0.184707  1
  Zn  Zn4  1  0.997162  0.888834  0.684935  1
  Cd  Cd5  1  0.004527  0.101632  0.313159  1
  Cd  Cd6  1  0.965619  0.817735  0.172399  1
  Cd  Cd7  1  0.028313  0.176861  0.832997  1
  Si  Si8  1  0.963965  0.583686  0.596736  1
  Si  Si9  1  0.036742  0.412935  0.407418  1
  Si  Si10  1  0.139460  0.450996  0.979262  1
  Si  Si11  1  0.862848  0.552846  0.019101  1
  As  As12  1  0.819792  0.863763  0.471655  1
  As  As13  1  0.172110  0.125829  0.540073  1
  As  As14  1  0.797379  0.415707  0.309458  1
  As  As15  1  0.196594  0.600722  0.689702  1
  As  As16  1  0.790734  0.859565  0.944964  1
  As  As17  1  0.224035  0.147459  0.036061  1
  As  As18  1  0.781695  0.454270  0.826900  1
  As  As19  1  0.218380  0.544468  0.176735  1
