# generated using pymatgen
data_ErTm19(Sb2Os)4
_symmetry_space_group_name_H-M   'P 1'
_cell_length_a   7.73379904
_cell_length_b   8.85843400
_cell_length_c   12.13686006
_cell_angle_alpha   90.00000000
_cell_angle_beta   90.01152050
_cell_angle_gamma   90.00000000
_symmetry_Int_Tables_number   1
_chemical_formula_structural   ErTm19(Sb2Os)4
_chemical_formula_sum   'Er1 Tm19 Sb8 Os4'
_cell_volume   831.48835709
_cell_formula_units_Z   1
loop_
 _symmetry_equiv_pos_site_id
 _symmetry_equiv_pos_as_xyz
  1  'x, y, z'
loop_
 _atom_site_type_symbol
 _atom_site_label
 _atom_site_symmetry_multiplicity
 _atom_site_fract_x
 _atom_site_fract_y
 _atom_site_fract_z
 _atom_site_occupancy
  Er  Er0  1  0.871774  0.750000  0.804632  1
  Tm  Tm1  1  0.162274  0.750000  0.212431  1
  Tm  Tm2  1  0.662341  0.250000  0.287598  1
  Tm  Tm3  1  0.837583  0.250000  0.787548  1
  Tm  Tm4  1  0.337741  0.750000  0.712379  1
  Tm  Tm5  1  0.446850  0.750000  0.996622  1
  Tm  Tm6  1  0.946867  0.250000  0.503285  1
  Tm  Tm7  1  0.553145  0.250000  0.003452  1
  Tm  Tm8  1  0.053281  0.750000  0.496644  1
  Tm  Tm9  1  0.628118  0.750000  0.305040  1
  Tm  Tm10  1  0.128130  0.250000  0.194990  1
  Tm  Tm11  1  0.371880  0.250000  0.694887  1
  Tm  Tm12  1  0.823889  0.959122  0.066450  1
  Tm  Tm13  1  0.323916  0.040934  0.433794  1
  Tm  Tm14  1  0.176200  0.458854  0.933951  1
  Tm  Tm15  1  0.676037  0.540916  0.566071  1
  Tm  Tm16  1  0.176200  0.041146  0.933951  1
  Tm  Tm17  1  0.676037  0.959084  0.566071  1
  Tm  Tm18  1  0.823889  0.540878  0.066450  1
  Tm  Tm19  1  0.323916  0.459066  0.433794  1
  Sb  Sb20  1  0.932927  0.992947  0.329058  1
  Sb  Sb21  1  0.432854  0.007037  0.170958  1
  Sb  Sb22  1  0.067379  0.492719  0.670870  1
  Sb  Sb23  1  0.566707  0.506757  0.829042  1
  Sb  Sb24  1  0.067379  0.007281  0.670870  1
  Sb  Sb25  1  0.566707  0.993243  0.829042  1
  Sb  Sb26  1  0.932927  0.507053  0.329058  1
  Sb  Sb27  1  0.432854  0.492963  0.170958  1
  Os  Os28  1  0.424807  0.750000  0.489646  1
  Os  Os29  1  0.924801  0.250000  0.010343  1
  Os  Os30  1  0.575165  0.250000  0.510250  1
  Os  Os31  1  0.075425  0.750000  0.989863  1
