# generated using pymatgen
data_Sb(WBr3)3
_symmetry_space_group_name_H-M   'P 1'
_cell_length_a   13.05136800
_cell_length_b   9.76979658
_cell_length_c   12.69523000
_cell_angle_alpha   77.77146368
_cell_angle_beta   90.00000000
_cell_angle_gamma   90.00000000
_symmetry_Int_Tables_number   1
_chemical_formula_structural   Sb(WBr3)3
_chemical_formula_sum   'Sb4 W12 Br36'
_cell_volume   1582.02996342
_cell_formula_units_Z   4
loop_
 _symmetry_equiv_pos_site_id
 _symmetry_equiv_pos_as_xyz
  1  'x, y, z'
loop_
 _atom_site_type_symbol
 _atom_site_label
 _atom_site_symmetry_multiplicity
 _atom_site_fract_x
 _atom_site_fract_y
 _atom_site_fract_z
 _atom_site_occupancy
  Sb  Sb0  1  0.859727  0.989946  0.099291  1
  Sb  Sb1  1  0.359727  0.010054  0.400709  1
  Sb  Sb2  1  0.140273  0.010054  0.900709  1
  Sb  Sb3  1  0.640273  0.989946  0.599291  1
  W  W4  1  0.625140  0.403899  0.004593  1
  W  W5  1  0.125140  0.596101  0.495407  1
  W  W6  1  0.374860  0.596101  0.995407  1
  W  W7  1  0.874860  0.403899  0.504593  1
  W  W8  1  0.565586  0.644102  0.050173  1
  W  W9  1  0.065586  0.355898  0.449827  1
  W  W10  1  0.434414  0.355898  0.949827  1
  W  W11  1  0.934414  0.644102  0.550173  1
  W  W12  1  0.472389  0.408230  0.142002  1
  W  W13  1  0.972389  0.591770  0.357998  1
  W  W14  1  0.527611  0.591770  0.857998  1
  W  W15  1  0.027611  0.408230  0.642002  1
  Br  Br16  1  0.661841  0.455589  0.197386  1
  Br  Br17  1  0.161841  0.544411  0.302614  1
  Br  Br18  1  0.338159  0.544411  0.802614  1
  Br  Br19  1  0.838159  0.455589  0.697386  1
  Br  Br20  1  0.533554  0.170827  0.096623  1
  Br  Br21  1  0.033554  0.829173  0.403377  1
  Br  Br22  1  0.466446  0.829173  0.903377  1
  Br  Br23  1  0.966446  0.170827  0.596623  1
  Br  Br24  1  0.584989  0.352976  0.811809  1
  Br  Br25  1  0.084989  0.647024  0.688191  1
  Br  Br26  1  0.415011  0.647024  0.188191  1
  Br  Br27  1  0.915011  0.352976  0.311809  1
  Br  Br28  1  0.718118  0.640147  0.913630  1
  Br  Br29  1  0.218118  0.359853  0.586370  1
  Br  Br30  1  0.281882  0.359853  0.086370  1
  Br  Br31  1  0.781882  0.640147  0.413630  1
  Br  Br32  1  0.806427  0.280814  0.003414  1
  Br  Br33  1  0.306427  0.719186  0.496586  1
  Br  Br34  1  0.193573  0.719186  0.996586  1
  Br  Br35  1  0.693573  0.280814  0.503414  1
  Br  Br36  1  0.649883  0.846338  0.123459  1
  Br  Br37  1  0.149883  0.153662  0.376541  1
  Br  Br38  1  0.350117  0.153662  0.876541  1
  Br  Br39  1  0.850117  0.846338  0.623459  1
  Br  Br40  1  0.431898  0.291433  0.344714  1
  Br  Br41  1  0.931898  0.708567  0.155286  1
  Br  Br42  1  0.568102  0.708567  0.655286  1
  Br  Br43  1  0.068102  0.291433  0.844714  1
  Br  Br44  1  0.048251  0.078611  0.119100  1
  Br  Br45  1  0.548251  0.921389  0.380900  1
  Br  Br46  1  0.951749  0.921389  0.880900  1
  Br  Br47  1  0.451749  0.078611  0.619100  1
  Br  Br48  1  0.811713  0.023066  0.289449  1
  Br  Br49  1  0.311713  0.976934  0.210551  1
  Br  Br50  1  0.188287  0.976934  0.710551  1
  Br  Br51  1  0.688287  0.023066  0.789449  1
