# generated using pymatgen
data_DyLu2Pa3(Ni3Bi4)2
_symmetry_space_group_name_H-M   'P 1'
_cell_length_a   8.30375531
_cell_length_b   8.33246831
_cell_length_c   8.30375468
_cell_angle_alpha   109.21042039
_cell_angle_beta   109.39966330
_cell_angle_gamma   109.66406226
_symmetry_Int_Tables_number   1
_chemical_formula_structural   DyLu2Pa3(Ni3Bi4)2
_chemical_formula_sum   'Dy1 Lu2 Pa3 Ni6 Bi8'
_cell_volume   443.03823146
_cell_formula_units_Z   1
loop_
 _symmetry_equiv_pos_site_id
 _symmetry_equiv_pos_as_xyz
  1  'x, y, z'
loop_
 _atom_site_type_symbol
 _atom_site_label
 _atom_site_symmetry_multiplicity
 _atom_site_fract_x
 _atom_site_fract_y
 _atom_site_fract_z
 _atom_site_occupancy
  Dy  Dy0  1  0.626499  0.750000  0.376499  1
  Lu  Lu1  1  0.251516  0.124890  0.876322  1
  Lu  Lu2  1  0.751432  0.375110  0.626625  1
  Pa  Pa3  1  0.124894  0.877799  0.249498  1
  Pa  Pa4  1  0.371699  0.622201  0.747096  1
  Pa  Pa5  1  0.872916  0.250000  0.122916  1
  Ni  Ni6  1  0.635076  0.363302  0.242722  1
  Ni  Ni7  1  0.879421  0.136698  0.771774  1
  Ni  Ni8  1  0.370197  0.250000  0.620197  1
  Ni  Ni9  1  0.126870  0.750000  0.876870  1
  Ni  Ni10  1  0.236961  0.616316  0.372671  1
  Ni  Ni11  1  0.756355  0.883684  0.120644  1
  Bi  Bi12  1  0.340321  0.336038  0.332320  1
  Bi  Bi13  1  0.168597  0.501670  0.000049  1
  Bi  Bi14  1  0.996285  0.163962  0.504283  1
  Bi  Bi15  1  0.834227  0.831515  0.829166  1
  Bi  Bi16  1  0.498378  0.998330  0.166928  1
  Bi  Bi17  1  0.662097  0.499502  0.998112  1
  Bi  Bi18  1  0.498610  0.000498  0.662595  1
  Bi  Bi19  1  0.997651  0.668485  0.502712  1
