# generated using pymatgen
data_Tb16CdTc(HgPd)3
_symmetry_space_group_name_H-M   'P 1'
_cell_length_a   9.73884634
_cell_length_b   9.74751126
_cell_length_c   9.74751192
_cell_angle_alpha   59.38875215
_cell_angle_beta   59.42498050
_cell_angle_gamma   59.42496879
_symmetry_Int_Tables_number   1
_chemical_formula_structural   Tb16CdTc(HgPd)3
_chemical_formula_sum   'Tb16 Cd1 Tc1 Hg3 Pd3'
_cell_volume   645.56349788
_cell_formula_units_Z   1
loop_
 _symmetry_equiv_pos_site_id
 _symmetry_equiv_pos_as_xyz
  1  'x, y, z'
loop_
 _atom_site_type_symbol
 _atom_site_label
 _atom_site_symmetry_multiplicity
 _atom_site_fract_x
 _atom_site_fract_y
 _atom_site_fract_z
 _atom_site_occupancy
  Tb  Tb0  1  0.354889  0.353875  0.353875  1
  Tb  Tb1  1  0.351838  0.351094  0.943657  1
  Tb  Tb2  1  0.351838  0.943657  0.351094  1
  Tb  Tb3  1  0.940758  0.352479  0.352479  1
  Tb  Tb4  1  0.816539  0.188592  0.188592  1
  Tb  Tb5  1  0.187253  0.809782  0.809782  1
  Tb  Tb6  1  0.187311  0.817187  0.188556  1
  Tb  Tb7  1  0.808907  0.188546  0.808825  1
  Tb  Tb8  1  0.187311  0.188556  0.817187  1
  Tb  Tb9  1  0.808907  0.808825  0.188546  1
  Tb  Tb10  1  0.934241  0.565136  0.565136  1
  Tb  Tb11  1  0.556324  0.937591  0.937591  1
  Tb  Tb12  1  0.564443  0.935196  0.565364  1
  Tb  Tb13  1  0.936611  0.556741  0.938117  1
  Tb  Tb14  1  0.564443  0.565364  0.935196  1
  Tb  Tb15  1  0.936611  0.938117  0.556741  1
  Cd  Cd16  1  0.255244  0.581045  0.581045  1
  Tc  Tc17  1  0.143881  0.144853  0.144853  1
  Hg  Hg18  1  0.582547  0.584513  0.584513  1
  Hg  Hg19  1  0.584137  0.586905  0.241018  1
  Hg  Hg20  1  0.584137  0.241018  0.586905  1
  Pd  Pd21  1  0.145972  0.145890  0.569431  1
  Pd  Pd22  1  0.145972  0.569431  0.145890  1
  Pd  Pd23  1  0.569891  0.145611  0.145611  1
