# generated using pymatgen
data_Er3Sc3B4(Ir4Ru)2
_symmetry_space_group_name_H-M   'P 1'
_cell_length_a   3.10267500
_cell_length_b   9.74965787
_cell_length_c   9.74965787
_cell_angle_alpha   89.48918410
_cell_angle_beta   90.00000000
_cell_angle_gamma   90.00000000
_symmetry_Int_Tables_number   1
_chemical_formula_structural   Er3Sc3B4(Ir4Ru)2
_chemical_formula_sum   'Er3 Sc3 B4 Ir8 Ru2'
_cell_volume   294.91562182
_cell_formula_units_Z   1
loop_
 _symmetry_equiv_pos_site_id
 _symmetry_equiv_pos_as_xyz
  1  'x, y, z'
loop_
 _atom_site_type_symbol
 _atom_site_label
 _atom_site_symmetry_multiplicity
 _atom_site_fract_x
 _atom_site_fract_y
 _atom_site_fract_z
 _atom_site_occupancy
  Er  Er0  1  0.000000  0.174552  0.675242  1
  Er  Er1  1  0.000000  0.824758  0.325448  1
  Er  Er2  1  0.000000  0.326279  0.173721  1
  Sc  Sc3  1  0.000000  0.674476  0.825524  1
  Sc  Sc4  1  0.000000  0.999611  0.999509  1
  Sc  Sc5  1  0.000000  0.500491  0.500389  1
  B  B6  1  0.000000  0.620517  0.117371  1
  B  B7  1  0.000000  0.382629  0.879483  1
  B  B8  1  0.000000  0.878458  0.621542  1
  B  B9  1  0.000000  0.118765  0.381235  1
  Ir  Ir10  1  0.500000  0.071133  0.223343  1
  Ir  Ir11  1  0.500000  0.923224  0.779435  1
  Ir  Ir12  1  0.500000  0.776287  0.066611  1
  Ir  Ir13  1  0.500000  0.433389  0.723713  1
  Ir  Ir14  1  0.500000  0.225010  0.929360  1
  Ir  Ir15  1  0.500000  0.570640  0.274990  1
  Ir  Ir16  1  0.500000  0.720565  0.576776  1
  Ir  Ir17  1  0.500000  0.276657  0.428867  1
  Ru  Ru18  1  0.500000  0.998542  0.501458  1
  Ru  Ru19  1  0.500000  0.504018  0.995982  1
