# generated using pymatgen
data_CsPrSnS4
_symmetry_space_group_name_H-M   'P 1'
_cell_length_a   7.08958200
_cell_length_b   18.40389900
_cell_length_c   6.96731800
_cell_angle_alpha   90.00000000
_cell_angle_beta   90.00000000
_cell_angle_gamma   90.00000000
_symmetry_Int_Tables_number   1
_chemical_formula_structural   CsPrSnS4
_chemical_formula_sum   'Cs4 Pr4 Sn4 S16'
_cell_volume   909.06744253
_cell_formula_units_Z   4
loop_
 _symmetry_equiv_pos_site_id
 _symmetry_equiv_pos_as_xyz
  1  'x, y, z'
loop_
 _atom_site_type_symbol
 _atom_site_label
 _atom_site_symmetry_multiplicity
 _atom_site_fract_x
 _atom_site_fract_y
 _atom_site_fract_z
 _atom_site_occupancy
  Cs  Cs0  1  0.004262  0.032074  0.014643  1
  Cs  Cs1  1  0.995738  0.532074  0.485356  1
  Cs  Cs2  1  0.495738  0.967926  0.514643  1
  Cs  Cs3  1  0.504262  0.467926  0.985357  1
  Pr  Pr4  1  0.022281  0.773447  0.203730  1
  Pr  Pr5  1  0.977719  0.273447  0.296270  1
  Pr  Pr6  1  0.477719  0.226553  0.703729  1
  Pr  Pr7  1  0.522281  0.726553  0.796271  1
  Sn  Sn8  1  0.508791  0.166848  0.200942  1
  Sn  Sn9  1  0.491209  0.666848  0.299059  1
  Sn  Sn10  1  0.991209  0.833152  0.700941  1
  Sn  Sn11  1  0.008791  0.333153  0.799059  1
  S  S12  1  0.010414  0.410388  0.074077  1
  S  S13  1  0.250411  0.648844  0.055801  1
  S  S14  1  0.763825  0.655962  0.092008  1
  S  S15  1  0.597524  0.284819  0.079480  1
  S  S16  1  0.402476  0.784819  0.420521  1
  S  S17  1  0.236175  0.155962  0.407992  1
  S  S18  1  0.749589  0.148843  0.444200  1
  S  S19  1  0.989586  0.910388  0.425923  1
  S  S20  1  0.489586  0.589612  0.574078  1
  S  S21  1  0.249589  0.351157  0.555800  1
  S  S22  1  0.736175  0.344038  0.592008  1
  S  S23  1  0.902476  0.715182  0.579479  1
  S  S24  1  0.097524  0.215181  0.920520  1
  S  S25  1  0.263825  0.844038  0.907992  1
  S  S26  1  0.750411  0.851157  0.944199  1
  S  S27  1  0.510414  0.089612  0.925922  1
