# generated using pymatgen
data_Ti6Ga6PtRh11
_symmetry_space_group_name_H-M   'P 1'
_cell_length_a   4.11485500
_cell_length_b   6.85935000
_cell_length_c   12.34770400
_cell_angle_alpha   90.00000000
_cell_angle_beta   89.99994431
_cell_angle_gamma   90.00000000
_symmetry_Int_Tables_number   1
_chemical_formula_structural   Ti6Ga6PtRh11
_chemical_formula_sum   'Ti6 Ga6 Pt1 Rh11'
_cell_volume   348.51679333
_cell_formula_units_Z   1
loop_
 _symmetry_equiv_pos_site_id
 _symmetry_equiv_pos_as_xyz
  1  'x, y, z'
loop_
 _atom_site_type_symbol
 _atom_site_label
 _atom_site_symmetry_multiplicity
 _atom_site_fract_x
 _atom_site_fract_y
 _atom_site_fract_z
 _atom_site_occupancy
  Ti  Ti0  1  0.000000  0.507689  0.000000  1
  Ti  Ti1  1  0.500011  0.996353  0.167492  1
  Ti  Ti2  1  0.000007  0.499575  0.333274  1
  Ti  Ti3  1  0.500000  0.000558  0.500000  1
  Ti  Ti4  1  0.999993  0.499575  0.666726  1
  Ti  Ti5  1  0.499989  0.996353  0.832507  1
  Ga  Ga6  1  0.000000  0.994883  0.000000  1
  Ga  Ga7  1  0.500009  0.502586  0.166692  1
  Ga  Ga8  1  0.000007  0.000277  0.333130  1
  Ga  Ga9  1  0.500000  0.499501  0.500000  1
  Ga  Ga10  1  0.999993  0.000277  0.666869  1
  Ga  Ga11  1  0.499991  0.502586  0.833307  1
  Pt  Pt12  1  0.500000  0.248883  0.000000  1
  Rh  Rh13  1  0.500000  0.750067  0.000000  1
  Rh  Rh14  1  0.000008  0.250742  0.165951  1
  Rh  Rh15  1  0.000007  0.749750  0.166939  1
  Rh  Rh16  1  0.500008  0.250276  0.332775  1
  Rh  Rh17  1  0.500005  0.749963  0.333759  1
  Rh  Rh18  1  0.000000  0.249210  0.500000  1
  Rh  Rh19  1  0.000000  0.750172  0.500000  1
  Rh  Rh20  1  0.499991  0.250276  0.667226  1
  Rh  Rh21  1  0.499994  0.749963  0.666242  1
  Rh  Rh22  1  0.999992  0.250742  0.834049  1
  Rh  Rh23  1  0.999993  0.749750  0.833061  1
