# generated using pymatgen
data_Yb3Sm3Ti2(MnC6)2
_symmetry_space_group_name_H-M   'P 1'
_cell_length_a   8.25771814
_cell_length_b   8.25294479
_cell_length_c   5.14149200
_cell_angle_alpha   90.00000000
_cell_angle_beta   90.00000000
_cell_angle_gamma   120.03447738
_symmetry_Int_Tables_number   1
_chemical_formula_structural   Yb3Sm3Ti2(MnC6)2
_chemical_formula_sum   'Yb3 Sm3 Ti2 Mn2 C12'
_cell_volume   303.34567345
_cell_formula_units_Z   1
loop_
 _symmetry_equiv_pos_site_id
 _symmetry_equiv_pos_as_xyz
  1  'x, y, z'
loop_
 _atom_site_type_symbol
 _atom_site_label
 _atom_site_symmetry_multiplicity
 _atom_site_fract_x
 _atom_site_fract_y
 _atom_site_fract_z
 _atom_site_occupancy
  Yb  Yb0  1  0.612252  0.684621  0.750000  1
  Yb  Yb1  1  0.925877  0.610303  0.250000  1
  Yb  Yb2  1  0.683611  0.073498  0.250000  1
  Sm  Sm3  1  0.321876  0.929449  0.750000  1
  Sm  Sm4  1  0.069489  0.391543  0.750000  1
  Sm  Sm5  1  0.395072  0.323298  0.250000  1
  Ti  Ti6  1  0.999186  0.998302  0.499807  1
  Ti  Ti7  1  0.999186  0.998302  0.000193  1
  Mn  Mn8  1  0.664801  0.331090  0.750000  1
  Mn  Mn9  1  0.330772  0.664997  0.250000  1
  C  C10  1  0.955577  0.759120  0.750000  1
  C  C11  1  0.197362  0.958248  0.250000  1
  C  C12  1  0.759329  0.804428  0.250000  1
  C  C13  1  0.237149  0.195220  0.750000  1
  C  C14  1  0.807578  0.044519  0.750000  1
  C  C15  1  0.043205  0.235662  0.250000  1
  C  C16  1  0.853849  0.570289  0.750000  1
  C  C17  1  0.282744  0.853661  0.250000  1
  C  C18  1  0.572154  0.719375  0.250000  1
  C  C19  1  0.428572  0.285522  0.750000  1
  C  C20  1  0.143802  0.425805  0.250000  1
  C  C21  1  0.716557  0.142746  0.750000  1
