# generated using pymatgen
data_Tb3CePr12(CdCo)4
_symmetry_space_group_name_H-M   'P 1'
_cell_length_a   9.83569835
_cell_length_b   9.86395582
_cell_length_c   9.61945426
_cell_angle_alpha   60.88764211
_cell_angle_beta   60.91493403
_cell_angle_gamma   59.66730666
_symmetry_Int_Tables_number   1
_chemical_formula_structural   Tb3CePr12(CdCo)4
_chemical_formula_sum   'Tb3 Ce1 Pr12 Cd4 Co4'
_cell_volume   667.02679383
_cell_formula_units_Z   1
loop_
 _symmetry_equiv_pos_site_id
 _symmetry_equiv_pos_as_xyz
  1  'x, y, z'
loop_
 _atom_site_type_symbol
 _atom_site_label
 _atom_site_symmetry_multiplicity
 _atom_site_fract_x
 _atom_site_fract_y
 _atom_site_fract_z
 _atom_site_occupancy
  Tb  Tb0  1  0.602964  0.597981  0.205004  1
  Tb  Tb1  1  0.181318  0.184349  0.817032  1
  Tb  Tb2  1  0.053352  0.438256  0.062736  1
  Ce  Ce3  1  0.427879  0.432584  0.068639  1
  Pr  Pr4  1  0.601313  0.600208  0.591142  1
  Pr  Pr5  1  0.191201  0.806877  0.816320  1
  Pr  Pr6  1  0.057415  0.061039  0.439030  1
  Pr  Pr7  1  0.434595  0.055931  0.062233  1
  Pr  Pr8  1  0.808560  0.192330  0.815300  1
  Pr  Pr9  1  0.435405  0.055206  0.443973  1
  Pr  Pr10  1  0.593568  0.215763  0.595199  1
  Pr  Pr11  1  0.813333  0.812237  0.188708  1
  Pr  Pr12  1  0.215412  0.591540  0.598134  1
  Pr  Pr13  1  0.806183  0.192745  0.188116  1
  Pr  Pr14  1  0.055660  0.437152  0.440272  1
  Pr  Pr15  1  0.194013  0.804111  0.189891  1
  Cd  Cd16  1  0.831011  0.830484  0.511683  1
  Cd  Cd17  1  0.830462  0.827310  0.830922  1
  Cd  Cd18  1  0.511666  0.831440  0.830587  1
  Cd  Cd19  1  0.833677  0.510983  0.831781  1
  Co  Co20  1  0.405863  0.403874  0.339226  1
  Co  Co21  1  0.824868  0.390905  0.387635  1
  Co  Co22  1  0.391258  0.822277  0.389766  1
  Co  Co23  1  0.399024  0.404420  0.856672  1
