# generated using pymatgen
data_Ba2UMoO6
_symmetry_space_group_name_H-M   'P 1'
_cell_length_a   6.08599200
_cell_length_b   8.60581700
_cell_length_c   6.08610700
_cell_angle_alpha   89.99993842
_cell_angle_beta   90.00106381
_cell_angle_gamma   90.00076892
_symmetry_Int_Tables_number   1
_chemical_formula_structural   Ba2UMoO6
_chemical_formula_sum   'Ba4 U2 Mo2 O12'
_cell_volume   318.75944918
_cell_formula_units_Z   2
loop_
 _symmetry_equiv_pos_site_id
 _symmetry_equiv_pos_as_xyz
  1  'x, y, z'
loop_
 _atom_site_type_symbol
 _atom_site_label
 _atom_site_symmetry_multiplicity
 _atom_site_fract_x
 _atom_site_fract_y
 _atom_site_fract_z
 _atom_site_occupancy
  Ba  Ba0  1  0.500034  0.250010  0.000050  1
  Ba  Ba1  1  0.999991  0.749992  0.499923  1
  Ba  Ba2  1  0.500002  0.749994  0.000027  1
  Ba  Ba3  1  0.000023  0.250012  0.499952  1
  U  U4  1  0.499994  0.500044  0.500073  1
  U  U5  1  0.000006  0.999963  0.999944  1
  Mo  Mo6  1  0.500005  0.000027  0.499978  1
  Mo  Mo7  1  0.999992  0.499972  0.000028  1
  O  O8  1  0.000000  0.250195  0.999954  1
  O  O9  1  0.499987  0.750388  0.500046  1
  O  O10  1  0.249694  0.500016  0.249747  1
  O  O11  1  0.749767  0.999979  0.749736  1
  O  O12  1  0.249679  0.500011  0.750349  1
  O  O13  1  0.749780  0.999978  0.250192  1
  O  O14  1  0.999974  0.749747  0.999961  1
  O  O15  1  0.500023  0.249683  0.500018  1
  O  O16  1  0.750300  0.500012  0.750347  1
  O  O17  1  0.250227  0.999979  0.250195  1
  O  O18  1  0.750284  0.500017  0.249748  1
  O  O19  1  0.250237  0.999979  0.749729  1
