# generated using pymatgen
data_SrSmAsPt8
_symmetry_space_group_name_H-M   'P 1'
_cell_length_a   9.28826515
_cell_length_b   9.37735916
_cell_length_c   4.33134500
_cell_angle_alpha   90.00000000
_cell_angle_beta   90.00000000
_cell_angle_gamma   145.66332863
_symmetry_Int_Tables_number   1
_chemical_formula_structural   SrSmAsPt8
_chemical_formula_sum   'Sr1 Sm1 As1 Pt8'
_cell_volume   212.79387773
_cell_formula_units_Z   1
loop_
 _symmetry_equiv_pos_site_id
 _symmetry_equiv_pos_as_xyz
  1  'x, y, z'
loop_
 _atom_site_type_symbol
 _atom_site_label
 _atom_site_symmetry_multiplicity
 _atom_site_fract_x
 _atom_site_fract_y
 _atom_site_fract_z
 _atom_site_occupancy
  Sr  Sr0  1  0.617783  0.375768  0.500000  1
  Sm  Sm1  1  0.374178  0.629105  0.500000  1
  As  As2  1  0.230716  0.224075  0.000000  1
  Pt  Pt3  1  0.099915  0.870242  0.000000  1
  Pt  Pt4  1  0.887023  0.111828  0.000000  1
  Pt  Pt5  1  0.491351  0.981716  0.000000  1
  Pt  Pt6  1  0.994311  0.489554  0.000000  1
  Pt  Pt7  1  0.197978  0.788110  0.500000  1
  Pt  Pt8  1  0.793708  0.195928  0.500000  1
  Pt  Pt9  1  0.986615  0.990158  0.500000  1
  Pt  Pt10  1  0.640020  0.657117  0.000000  1
