# generated using pymatgen
data_NaPr6IrBr12
_symmetry_space_group_name_H-M   'P 1'
_cell_length_a   9.65637212
_cell_length_b   9.63606122
_cell_length_c   9.64220045
_cell_angle_alpha   107.21657368
_cell_angle_beta   107.31386182
_cell_angle_gamma   107.31434817
_symmetry_Int_Tables_number   1
_chemical_formula_structural   NaPr6IrBr12
_chemical_formula_sum   'Na1 Pr6 Ir1 Br12'
_cell_volume   741.38240078
_cell_formula_units_Z   1
loop_
 _symmetry_equiv_pos_site_id
 _symmetry_equiv_pos_as_xyz
  1  'x, y, z'
loop_
 _atom_site_type_symbol
 _atom_site_label
 _atom_site_symmetry_multiplicity
 _atom_site_fract_x
 _atom_site_fract_y
 _atom_site_fract_z
 _atom_site_occupancy
  Na  Na0  1  0.500000  0.500000  0.500000  1
  Pr  Pr1  1  0.113395  0.321033  0.030630  1
  Pr  Pr2  1  0.322772  0.030418  0.114675  1
  Pr  Pr3  1  0.030153  0.113743  0.320836  1
  Pr  Pr4  1  0.969848  0.886257  0.679165  1
  Pr  Pr5  1  0.677228  0.969583  0.885325  1
  Pr  Pr6  1  0.886605  0.678967  0.969370  1
  Ir  Ir7  1  0.000000  0.000000  0.000000  1
  Br  Br8  1  0.215442  0.681895  0.071545  1
  Br  Br9  1  0.454842  0.372265  0.157915  1
  Br  Br10  1  0.682094  0.071688  0.214828  1
  Br  Br11  1  0.928298  0.784582  0.317517  1
  Br  Br12  1  0.158326  0.455569  0.372641  1
  Br  Br13  1  0.372054  0.158037  0.455208  1
  Br  Br14  1  0.627946  0.841963  0.544793  1
  Br  Br15  1  0.841675  0.544431  0.627359  1
  Br  Br16  1  0.071703  0.215418  0.682484  1
  Br  Br17  1  0.317907  0.928313  0.785172  1
  Br  Br18  1  0.545158  0.627735  0.842086  1
  Br  Br19  1  0.784558  0.318105  0.928455  1
