# generated using pymatgen
data_La5Tb2CeSb20
_symmetry_space_group_name_H-M   'P 1'
_cell_length_a   4.29574300
_cell_length_b   13.64999754
_cell_length_c   15.27987600
_cell_angle_alpha   78.82318013
_cell_angle_beta   90.00000000
_cell_angle_gamma   90.00000000
_symmetry_Int_Tables_number   1
_chemical_formula_structural   La5Tb2CeSb20
_chemical_formula_sum   'La5 Tb2 Ce1 Sb20'
_cell_volume   878.97111046
_cell_formula_units_Z   1
loop_
 _symmetry_equiv_pos_site_id
 _symmetry_equiv_pos_as_xyz
  1  'x, y, z'
loop_
 _atom_site_type_symbol
 _atom_site_label
 _atom_site_symmetry_multiplicity
 _atom_site_fract_x
 _atom_site_fract_y
 _atom_site_fract_z
 _atom_site_occupancy
  La  La0  1  0.750000  0.332007  0.141149  1
  La  La1  1  0.250000  0.947709  0.365850  1
  La  La2  1  0.250000  0.667526  0.859046  1
  La  La3  1  0.250000  0.666673  0.577385  1
  La  La4  1  0.750000  0.053379  0.634869  1
  Tb  Tb5  1  0.250000  0.398535  0.769132  1
  Tb  Tb6  1  0.750000  0.600461  0.229730  1
  Ce  Ce7  1  0.750000  0.333622  0.422427  1
  Sb  Sb8  1  0.750000  0.858332  0.817278  1
  Sb  Sb9  1  0.250000  0.863332  0.676029  1
  Sb  Sb10  1  0.250000  0.154502  0.475259  1
  Sb  Sb11  1  0.750000  0.288418  0.928952  1
  Sb  Sb12  1  0.250000  0.151394  0.775918  1
  Sb  Sb13  1  0.750000  0.572456  0.441293  1
  Sb  Sb14  1  0.750000  0.139078  0.324728  1
  Sb  Sb15  1  0.250000  0.701804  0.351595  1
  Sb  Sb16  1  0.750000  0.297001  0.644732  1
  Sb  Sb17  1  0.750000  0.848850  0.224172  1
  Sb  Sb18  1  0.250000  0.420164  0.970662  1
  Sb  Sb19  1  0.250000  0.424444  0.554566  1
  Sb  Sb20  1  0.750000  0.572434  0.737551  1
  Sb  Sb21  1  0.250000  0.422723  0.268995  1
  Sb  Sb22  1  0.750000  0.855101  0.524597  1
  Sb  Sb23  1  0.750000  0.040013  0.884873  1
  Sb  Sb24  1  0.250000  0.709940  0.070724  1
  Sb  Sb25  1  0.250000  0.960188  0.115716  1
  Sb  Sb26  1  0.250000  0.142284  0.183365  1
  Sb  Sb27  1  0.750000  0.577624  0.029407  1
