# generated using pymatgen
data_Y3Tm7(SiSb)4
_symmetry_space_group_name_H-M   'P 1'
_cell_length_a   8.43808451
_cell_length_b   8.46585443
_cell_length_c   7.78505923
_cell_angle_alpha   90.13930356
_cell_angle_beta   90.09959773
_cell_angle_gamma   125.34369262
_symmetry_Int_Tables_number   1
_chemical_formula_structural   Y3Tm7(SiSb)4
_chemical_formula_sum   'Y3 Tm7 Si4 Sb4'
_cell_volume   453.62896505
_cell_formula_units_Z   1
loop_
 _symmetry_equiv_pos_site_id
 _symmetry_equiv_pos_as_xyz
  1  'x, y, z'
loop_
 _atom_site_type_symbol
 _atom_site_label
 _atom_site_symmetry_multiplicity
 _atom_site_fract_x
 _atom_site_fract_y
 _atom_site_fract_z
 _atom_site_occupancy
  Y  Y0  1  0.539136  0.792902  0.166099  1
  Y  Y1  1  0.295345  0.040326  0.333823  1
  Y  Y2  1  0.204635  0.458720  0.833195  1
  Tm  Tm3  1  0.959803  0.710251  0.664726  1
  Tm  Tm4  1  0.709145  0.958311  0.665792  1
  Tm  Tm5  1  0.459006  0.209614  0.834487  1
  Tm  Tm6  1  0.791070  0.541446  0.165508  1
  Tm  Tm7  1  0.040906  0.288969  0.334804  1
  Tm  Tm8  1  0.501354  0.499803  0.500374  1
  Tm  Tm9  1  0.998994  0.000295  0.999553  1
  Si  Si10  1  0.633773  0.632287  0.867434  1
  Si  Si11  1  0.131328  0.130224  0.630819  1
  Si  Si12  1  0.868554  0.867625  0.370186  1
  Si  Si13  1  0.367849  0.367551  0.131724  1
  Sb  Sb14  1  0.293202  0.703891  0.500596  1
  Sb  Sb15  1  0.202820  0.795070  0.996765  1
  Sb  Sb16  1  0.710945  0.296945  0.502932  1
  Sb  Sb17  1  0.792136  0.205768  0.001185  1
