# generated using pymatgen
data_Ac4Sb3TePt4
_symmetry_space_group_name_H-M   'P 1'
_cell_length_a   4.61720500
_cell_length_b   8.77980835
_cell_length_c   8.00922800
_cell_angle_alpha   89.89284535
_cell_angle_beta   90.00000000
_cell_angle_gamma   90.00000000
_symmetry_Int_Tables_number   1
_chemical_formula_structural   Ac4Sb3TePt4
_chemical_formula_sum   'Ac4 Sb3 Te1 Pt4'
_cell_volume   324.67891873
_cell_formula_units_Z   1
loop_
 _symmetry_equiv_pos_site_id
 _symmetry_equiv_pos_as_xyz
  1  'x, y, z'
loop_
 _atom_site_type_symbol
 _atom_site_label
 _atom_site_symmetry_multiplicity
 _atom_site_fract_x
 _atom_site_fract_y
 _atom_site_fract_z
 _atom_site_occupancy
  Ac  Ac0  1  0.750000  0.002971  0.748345  1
  Ac  Ac1  1  0.250000  0.005218  0.251868  1
  Ac  Ac2  1  0.750000  0.495418  0.756640  1
  Ac  Ac3  1  0.250000  0.498681  0.244138  1
  Sb  Sb4  1  0.750000  0.757037  0.083214  1
  Sb  Sb5  1  0.250000  0.245598  0.914738  1
  Sb  Sb6  1  0.750000  0.258013  0.416499  1
  Te  Te7  1  0.250000  0.746859  0.585676  1
  Pt  Pt8  1  0.750000  0.748646  0.412596  1
  Pt  Pt9  1  0.250000  0.244672  0.581545  1
  Pt  Pt10  1  0.750000  0.250535  0.083169  1
  Pt  Pt11  1  0.250000  0.746352  0.921573  1
