# generated using pymatgen
data_Tb2DyNb3(B2Ru5)2
_symmetry_space_group_name_H-M   'P 1'
_cell_length_a   9.62044893
_cell_length_b   9.62044871
_cell_length_c   3.12766900
_cell_angle_alpha   90.00000000
_cell_angle_beta   90.00000000
_cell_angle_gamma   90.46134444
_symmetry_Int_Tables_number   1
_chemical_formula_structural   Tb2DyNb3(B2Ru5)2
_chemical_formula_sum   'Tb2 Dy1 Nb3 B4 Ru10'
_cell_volume   289.46587620
_cell_formula_units_Z   1
loop_
 _symmetry_equiv_pos_site_id
 _symmetry_equiv_pos_as_xyz
  1  'x, y, z'
loop_
 _atom_site_type_symbol
 _atom_site_label
 _atom_site_symmetry_multiplicity
 _atom_site_fract_x
 _atom_site_fract_y
 _atom_site_fract_z
 _atom_site_occupancy
  Tb  Tb0  1  0.824058  0.675086  0.000000  1
  Tb  Tb1  1  0.175086  0.324058  0.000000  1
  Dy  Dy2  1  0.325566  0.825566  0.000000  1
  Nb  Nb3  1  0.675854  0.175854  0.000000  1
  Nb  Nb4  1  0.498138  0.502677  0.000000  1
  Nb  Nb5  1  0.002677  0.998138  0.000000  1
  B  B6  1  0.623103  0.881496  0.000000  1
  B  B7  1  0.381496  0.123103  0.000000  1
  B  B8  1  0.119242  0.619242  0.000000  1
  B  B9  1  0.875894  0.375894  0.000000  1
  Ru  Ru10  1  0.570661  0.722557  0.500000  1
  Ru  Ru11  1  0.441314  0.280058  0.500000  1
  Ru  Ru12  1  0.069718  0.780318  0.500000  1
  Ru  Ru13  1  0.915345  0.213360  0.500000  1
  Ru  Ru14  1  0.280318  0.569718  0.500000  1
  Ru  Ru15  1  0.713360  0.415345  0.500000  1
  Ru  Ru16  1  0.222557  0.070661  0.500000  1
  Ru  Ru17  1  0.780058  0.941314  0.500000  1
  Ru  Ru18  1  0.509556  0.009556  0.500000  1
  Ru  Ru19  1  0.995998  0.495998  0.500000  1
