# generated using pymatgen
data_CaYbDy2(Ga2Ag)4
_symmetry_space_group_name_H-M   'P 1'
_cell_length_a   4.35288900
_cell_length_b   6.99283541
_cell_length_c   10.39010190
_cell_angle_alpha   89.96394841
_cell_angle_beta   90.00000000
_cell_angle_gamma   90.00000000
_symmetry_Int_Tables_number   1
_chemical_formula_structural   CaYbDy2(Ga2Ag)4
_chemical_formula_sum   'Ca1 Yb1 Dy2 Ga8 Ag4'
_cell_volume   316.26462645
_cell_formula_units_Z   1
loop_
 _symmetry_equiv_pos_site_id
 _symmetry_equiv_pos_as_xyz
  1  'x, y, z'
loop_
 _atom_site_type_symbol
 _atom_site_label
 _atom_site_symmetry_multiplicity
 _atom_site_fract_x
 _atom_site_fract_y
 _atom_site_fract_z
 _atom_site_occupancy
  Ca  Ca0  1  0.250000  0.775534  0.825891  1
  Yb  Yb1  1  0.250000  0.275292  0.671913  1
  Dy  Dy2  1  0.750000  0.221063  0.171736  1
  Dy  Dy3  1  0.750000  0.721132  0.329414  1
  Ga  Ga4  1  0.250000  0.703234  0.533352  1
  Ga  Ga5  1  0.750000  0.298136  0.464265  1
  Ga  Ga6  1  0.750000  0.796472  0.037289  1
  Ga  Ga7  1  0.250000  0.203648  0.966088  1
  Ga  Ga8  1  0.250000  0.925762  0.156467  1
  Ga  Ga9  1  0.750000  0.075298  0.850393  1
  Ga  Ga10  1  0.750000  0.571673  0.648279  1
  Ga  Ga11  1  0.250000  0.425736  0.344232  1
  Ag  Ag12  1  0.250000  0.543343  0.099357  1
  Ag  Ag13  1  0.750000  0.458089  0.900568  1
  Ag  Ag14  1  0.750000  0.960947  0.598920  1
  Ag  Ag15  1  0.250000  0.044640  0.401836  1
