# generated using pymatgen
data_Tm3InSn2Pt2Rh
_symmetry_space_group_name_H-M   'P 1'
_cell_length_a   7.64334200
_cell_length_b   7.64751756
_cell_length_c   3.76155300
_cell_angle_alpha   90.00000000
_cell_angle_beta   90.00000000
_cell_angle_gamma   119.98193140
_symmetry_Int_Tables_number   1
_chemical_formula_structural   Tm3InSn2Pt2Rh
_chemical_formula_sum   'Tm3 In1 Sn2 Pt2 Rh1'
_cell_volume   190.44985049
_cell_formula_units_Z   1
loop_
 _symmetry_equiv_pos_site_id
 _symmetry_equiv_pos_as_xyz
  1  'x, y, z'
loop_
 _atom_site_type_symbol
 _atom_site_label
 _atom_site_symmetry_multiplicity
 _atom_site_fract_x
 _atom_site_fract_y
 _atom_site_fract_z
 _atom_site_occupancy
  Tm  Tm0  1  0.404407  0.400913  0.500000  1
  Tm  Tm1  1  0.593783  0.000000  0.500000  1
  Tm  Tm2  1  0.003494  0.599087  0.500000  1
  In  In3  1  0.261744  0.000000  0.000000  1
  Sn  Sn4  1  0.001293  0.262002  0.000000  1
  Sn  Sn5  1  0.739290  0.737998  0.000000  1
  Pt  Pt6  1  0.669430  0.334223  0.000000  1
  Pt  Pt7  1  0.335207  0.665777  0.000000  1
  Rh  Rh8  1  0.991351  0.000000  0.500000  1
