# generated using pymatgen
data_CuB4Ir4Pd3
_symmetry_space_group_name_H-M   'P 1'
_cell_length_a   6.70970990
_cell_length_b   6.09830994
_cell_length_c   5.53905588
_cell_angle_alpha   70.86278264
_cell_angle_beta   58.39971596
_cell_angle_gamma   50.75493875
_symmetry_Int_Tables_number   1
_chemical_formula_structural   CuB4Ir4Pd3
_chemical_formula_sum   'Cu1 B4 Ir4 Pd3'
_cell_volume   149.49722759
_cell_formula_units_Z   1
loop_
 _symmetry_equiv_pos_site_id
 _symmetry_equiv_pos_as_xyz
  1  'x, y, z'
loop_
 _atom_site_type_symbol
 _atom_site_label
 _atom_site_symmetry_multiplicity
 _atom_site_fract_x
 _atom_site_fract_y
 _atom_site_fract_z
 _atom_site_occupancy
  Cu  Cu0  1  0.881821  0.386038  0.791857  1
  B  B1  1  0.055263  0.973365  0.559336  1
  B  B2  1  0.682450  0.854257  0.200051  1
  B  B3  1  0.402821  0.568883  0.973426  1
  B  B4  1  0.271561  0.196988  0.849791  1
  Ir  Ir5  1  0.098840  0.633172  0.869267  1
  Ir  Ir6  1  0.389470  0.848028  0.145159  1
  Ir  Ir7  1  0.618726  0.153381  0.851511  1
  Ir  Ir8  1  0.386499  0.877648  0.636666  1
  Pd  Pd9  1  0.937721  0.780955  0.397013  1
  Pd  Pd10  1  0.459634  0.309366  0.367641  1
  Pd  Pd11  1  0.865594  0.367519  0.307881  1
