# generated using pymatgen
data_Sc20SiBi11
_symmetry_space_group_name_H-M   'P 1'
_cell_length_a   7.76814974
_cell_length_b   8.94061700
_cell_length_c   11.30816139
_cell_angle_alpha   90.00000000
_cell_angle_beta   90.23795672
_cell_angle_gamma   90.00000000
_symmetry_Int_Tables_number   1
_chemical_formula_structural   Sc20SiBi11
_chemical_formula_sum   'Sc20 Si1 Bi11'
_cell_volume   785.36823563
_cell_formula_units_Z   1
loop_
 _symmetry_equiv_pos_site_id
 _symmetry_equiv_pos_as_xyz
  1  'x, y, z'
loop_
 _atom_site_type_symbol
 _atom_site_label
 _atom_site_symmetry_multiplicity
 _atom_site_fract_x
 _atom_site_fract_y
 _atom_site_fract_z
 _atom_site_occupancy
  Sc  Sc0  1  0.194222  0.064452  0.936033  1
  Sc  Sc1  1  0.309389  0.044795  0.439220  1
  Sc  Sc2  1  0.309389  0.455205  0.439220  1
  Sc  Sc3  1  0.335667  0.750000  0.710870  1
  Sc  Sc4  1  0.477774  0.750000  0.005515  1
  Sc  Sc5  1  0.162456  0.250000  0.216755  1
  Sc  Sc6  1  0.804222  0.934994  0.066196  1
  Sc  Sc7  1  0.642925  0.750000  0.296234  1
  Sc  Sc8  1  0.035361  0.750000  0.504476  1
  Sc  Sc9  1  0.679734  0.925105  0.558108  1
  Sc  Sc10  1  0.194222  0.435548  0.936033  1
  Sc  Sc11  1  0.338388  0.250000  0.714029  1
  Sc  Sc12  1  0.186859  0.750000  0.238956  1
  Sc  Sc13  1  0.983438  0.250000  0.492698  1
  Sc  Sc14  1  0.679734  0.574895  0.558108  1
  Sc  Sc15  1  0.680795  0.250000  0.269295  1
  Sc  Sc16  1  0.804222  0.565006  0.066196  1
  Sc  Sc17  1  0.520632  0.250000  0.994052  1
  Sc  Sc18  1  0.824165  0.250000  0.769164  1
  Sc  Sc19  1  0.838160  0.750000  0.785681  1
  Si  Si20  1  0.402191  0.750000  0.472448  1
  Bi  Bi21  1  0.062769  0.491468  0.675489  1
  Bi  Bi22  1  0.563764  0.509370  0.823488  1
  Bi  Bi23  1  0.936015  0.988196  0.324960  1
  Bi  Bi24  1  0.436663  0.010552  0.176414  1
  Bi  Bi25  1  0.563764  0.990630  0.823488  1
  Bi  Bi26  1  0.097515  0.750000  0.976505  1
  Bi  Bi27  1  0.436663  0.489448  0.176414  1
  Bi  Bi28  1  0.062769  0.008532  0.675489  1
  Bi  Bi29  1  0.936015  0.511804  0.324960  1
  Bi  Bi30  1  0.597395  0.250000  0.525854  1
  Bi  Bi31  1  0.902722  0.250000  0.027652  1
