# generated using pymatgen
data_Rb2P2AuSe6
_symmetry_space_group_name_H-M   'P 1'
_cell_length_a   13.19485700
_cell_length_b   6.95624308
_cell_length_c   9.86904771
_cell_angle_alpha   50.77770491
_cell_angle_beta   90.00000000
_cell_angle_gamma   90.00000000
_symmetry_Int_Tables_number   1
_chemical_formula_structural   Rb2P2AuSe6
_chemical_formula_sum   'Rb4 P4 Au2 Se12'
_cell_volume   701.75804023
_cell_formula_units_Z   2
loop_
 _symmetry_equiv_pos_site_id
 _symmetry_equiv_pos_as_xyz
  1  'x, y, z'
loop_
 _atom_site_type_symbol
 _atom_site_label
 _atom_site_symmetry_multiplicity
 _atom_site_fract_x
 _atom_site_fract_y
 _atom_site_fract_z
 _atom_site_occupancy
  Rb  Rb0  1  0.214085  0.145493  0.950964  1
  Rb  Rb1  1  0.714085  0.854507  0.549036  1
  Rb  Rb2  1  0.785915  0.854507  0.049036  1
  Rb  Rb3  1  0.285915  0.145493  0.450964  1
  P  P4  1  0.054319  0.621951  0.384369  1
  P  P5  1  0.554319  0.378049  0.115631  1
  P  P6  1  0.945681  0.378049  0.615631  1
  P  P7  1  0.445681  0.621951  0.884369  1
  Au  Au8  1  0.000000  0.000000  0.500000  1
  Au  Au9  1  0.500000  0.000000  0.000000  1
  Se  Se10  1  0.208493  0.608708  0.466805  1
  Se  Se11  1  0.708493  0.391292  0.033195  1
  Se  Se12  1  0.791507  0.391292  0.533195  1
  Se  Se13  1  0.291507  0.608708  0.966805  1
  Se  Se14  1  0.983990  0.994791  0.237390  1
  Se  Se15  1  0.483990  0.005209  0.262610  1
  Se  Se16  1  0.016010  0.005209  0.762610  1
  Se  Se17  1  0.516010  0.994791  0.737390  1
  Se  Se18  1  0.467318  0.474159  0.741496  1
  Se  Se19  1  0.967318  0.525841  0.758504  1
  Se  Se20  1  0.532682  0.525841  0.258504  1
  Se  Se21  1  0.032682  0.474159  0.241496  1
