# generated using pymatgen
data_TmLu2Sc2(In2Rh)2
_symmetry_space_group_name_H-M   'P 1'
_cell_length_a   3.49571400
_cell_length_b   7.83029100
_cell_length_c   17.87691400
_cell_angle_alpha   90.00000000
_cell_angle_beta   90.00000000
_cell_angle_gamma   90.00000000
_symmetry_Int_Tables_number   1
_chemical_formula_structural   TmLu2Sc2(In2Rh)2
_chemical_formula_sum   'Tm2 Lu4 Sc4 In8 Rh4'
_cell_volume   489.33507536
_cell_formula_units_Z   2
loop_
 _symmetry_equiv_pos_site_id
 _symmetry_equiv_pos_as_xyz
  1  'x, y, z'
loop_
 _atom_site_type_symbol
 _atom_site_label
 _atom_site_symmetry_multiplicity
 _atom_site_fract_x
 _atom_site_fract_y
 _atom_site_fract_z
 _atom_site_occupancy
  Tm  Tm0  1  0.000000  0.000000  0.000000  1
  Tm  Tm1  1  0.000000  0.500000  0.500000  1
  Lu  Lu2  1  0.000000  0.747863  0.781004  1
  Lu  Lu3  1  0.000000  0.252137  0.218996  1
  Lu  Lu4  1  0.000000  0.247863  0.718996  1
  Lu  Lu5  1  0.000000  0.752137  0.281004  1
  Sc  Sc6  1  0.000000  0.877839  0.588156  1
  Sc  Sc7  1  0.000000  0.122161  0.411844  1
  Sc  Sc8  1  0.000000  0.377839  0.911844  1
  Sc  Sc9  1  0.000000  0.622161  0.088156  1
  In  In10  1  0.500000  0.806744  0.437161  1
  In  In11  1  0.500000  0.193256  0.562839  1
  In  In12  1  0.500000  0.306744  0.062839  1
  In  In13  1  0.500000  0.693256  0.937161  1
  In  In14  1  0.500000  0.926611  0.149422  1
  In  In15  1  0.500000  0.073389  0.850578  1
  In  In16  1  0.500000  0.426611  0.350578  1
  In  In17  1  0.500000  0.573389  0.649422  1
  Rh  Rh18  1  0.500000  0.963417  0.693240  1
  Rh  Rh19  1  0.500000  0.036583  0.306760  1
  Rh  Rh20  1  0.500000  0.463417  0.806760  1
  Rh  Rh21  1  0.500000  0.536583  0.193240  1
