# generated using pymatgen
data_LiLu4(TaB4)5
_symmetry_space_group_name_H-M   'P 1'
_cell_length_a   6.24180702
_cell_length_b   7.14664644
_cell_length_c   7.62873499
_cell_angle_alpha   94.99847909
_cell_angle_beta   101.88203243
_cell_angle_gamma   115.74331697
_symmetry_Int_Tables_number   1
_chemical_formula_structural   LiLu4(TaB4)5
_chemical_formula_sum   'Li1 Lu4 Ta5 B20'
_cell_volume   293.88024180
_cell_formula_units_Z   1
loop_
 _symmetry_equiv_pos_site_id
 _symmetry_equiv_pos_as_xyz
  1  'x, y, z'
loop_
 _atom_site_type_symbol
 _atom_site_label
 _atom_site_symmetry_multiplicity
 _atom_site_fract_x
 _atom_site_fract_y
 _atom_site_fract_z
 _atom_site_occupancy
  Li  Li0  1  0.000052  0.999738  0.001616  1
  Lu  Lu1  1  0.502125  0.799727  0.399759  1
  Lu  Lu2  1  0.000380  0.400843  0.197581  1
  Lu  Lu3  1  0.497545  0.195600  0.601344  1
  Lu  Lu4  1  0.998324  0.800450  0.400943  1
  Ta  Ta5  1  0.497917  0.003081  0.997653  1
  Ta  Ta6  1  0.501594  0.601328  0.801994  1
  Ta  Ta7  1  0.500256  0.399977  0.196396  1
  Ta  Ta8  1  0.000619  0.199122  0.602394  1
  Ta  Ta9  1  0.000263  0.600113  0.800690  1
  B  B10  1  0.330407  0.232416  0.871070  1
  B  B11  1  0.334497  0.635510  0.060436  1
  B  B12  1  0.166581  0.364024  0.932270  1
  B  B13  1  0.334292  0.039746  0.256466  1
  B  B14  1  0.167214  0.772333  0.120428  1
  B  B15  1  0.837430  0.231882  0.868070  1
  B  B16  1  0.166392  0.167776  0.328812  1
  B  B17  1  0.830805  0.637371  0.056246  1
  B  B18  1  0.332529  0.430305  0.470780  1
  B  B19  1  0.664738  0.368649  0.931716  1
  B  B20  1  0.834071  0.036133  0.260661  1
  B  B21  1  0.665980  0.769384  0.123087  1
  B  B22  1  0.333719  0.830150  0.674539  1
  B  B23  1  0.166466  0.562502  0.539703  1
  B  B24  1  0.665118  0.166680  0.331311  1
  B  B25  1  0.833642  0.431338  0.469839  1
  B  B26  1  0.164428  0.964112  0.743400  1
  B  B27  1  0.834482  0.830616  0.677514  1
  B  B28  1  0.667463  0.565440  0.539310  1
  B  B29  1  0.670671  0.963653  0.743972  1
