# generated using pymatgen
data_Ac11ErPd12
_symmetry_space_group_name_H-M   'P 1'
_cell_length_a   6.08661942
_cell_length_b   4.72965200
_cell_length_c   23.49627693
_cell_angle_alpha   90.00000000
_cell_angle_beta   97.01074716
_cell_angle_gamma   90.00000000
_symmetry_Int_Tables_number   1
_chemical_formula_structural   Ac11ErPd12
_chemical_formula_sum   'Ac11 Er1 Pd12'
_cell_volume   671.34396075
_cell_formula_units_Z   1
loop_
 _symmetry_equiv_pos_site_id
 _symmetry_equiv_pos_as_xyz
  1  'x, y, z'
loop_
 _atom_site_type_symbol
 _atom_site_label
 _atom_site_symmetry_multiplicity
 _atom_site_fract_x
 _atom_site_fract_y
 _atom_site_fract_z
 _atom_site_occupancy
  Ac  Ac0  1  0.180487  0.750000  0.103660  1
  Ac  Ac1  1  0.514771  0.250001  0.221769  1
  Ac  Ac2  1  0.031689  0.750000  0.268071  1
  Ac  Ac3  1  0.801032  0.250001  0.391337  1
  Ac  Ac4  1  0.324678  0.750000  0.436526  1
  Ac  Ac5  1  0.673467  0.250001  0.560875  1
  Ac  Ac6  1  0.195498  0.750000  0.606040  1
  Ac  Ac7  1  0.964747  0.250001  0.730165  1
  Ac  Ac8  1  0.484820  0.750000  0.776209  1
  Ac  Ac9  1  0.829438  0.250001  0.900798  1
  Ac  Ac10  1  0.331160  0.750000  0.945197  1
  Er  Er11  1  0.680304  0.250001  0.061644  1
  Pd  Pd12  1  0.172007  0.250001  0.018696  1
  Pd  Pd13  1  0.693409  0.750000  0.140107  1
  Pd  Pd14  1  0.989651  0.250001  0.175114  1
  Pd  Pd15  1  0.556944  0.750000  0.313766  1
  Pd  Pd16  1  0.273920  0.250001  0.344421  1
  Pd  Pd17  1  0.844221  0.750000  0.483494  1
  Pd  Pd18  1  0.154563  0.250001  0.513510  1
  Pd  Pd19  1  0.722597  0.750000  0.652673  1
  Pd  Pd20  1  0.438897  0.250001  0.683344  1
  Pd  Pd21  1  0.998124  0.750000  0.823344  1
  Pd  Pd22  1  0.319116  0.250001  0.852472  1
  Pd  Pd23  1  0.824462  0.750000  0.996768  1
