# generated using pymatgen
data_Tb2YHo(WO6)2
_symmetry_space_group_name_H-M   'P 1'
_cell_length_a   5.41305400
_cell_length_b   7.72690241
_cell_length_c   11.48356122
_cell_angle_alpha   75.54401076
_cell_angle_beta   90.00000000
_cell_angle_gamma   90.00000000
_symmetry_Int_Tables_number   1
_chemical_formula_structural   Tb2YHo(WO6)2
_chemical_formula_sum   'Tb4 Y2 Ho2 W4 O24'
_cell_volume   465.10617475
_cell_formula_units_Z   2
loop_
 _symmetry_equiv_pos_site_id
 _symmetry_equiv_pos_as_xyz
  1  'x, y, z'
loop_
 _atom_site_type_symbol
 _atom_site_label
 _atom_site_symmetry_multiplicity
 _atom_site_fract_x
 _atom_site_fract_y
 _atom_site_fract_z
 _atom_site_occupancy
  Tb  Tb0  1  0.739829  0.000389  0.750031  1
  Tb  Tb1  1  0.260171  0.000389  0.250031  1
  Tb  Tb2  1  0.683411  0.499659  0.750181  1
  Tb  Tb3  1  0.316589  0.499659  0.250181  1
  Y  Y4  1  0.185368  0.794826  0.577980  1
  Y  Y5  1  0.814632  0.794826  0.077980  1
  Ho  Ho6  1  0.185245  0.205636  0.921715  1
  Ho  Ho7  1  0.814755  0.205636  0.421715  1
  W  W8  1  0.254763  0.723098  0.885745  1
  W  W9  1  0.745237  0.723098  0.385745  1
  W  W10  1  0.254779  0.276538  0.614198  1
  W  W11  1  0.745221  0.276538  0.114198  1
  O  O12  1  0.045164  0.939944  0.895979  1
  O  O13  1  0.530922  0.846990  0.931185  1
  O  O14  1  0.954836  0.939944  0.395979  1
  O  O15  1  0.458110  0.789087  0.728207  1
  O  O16  1  0.469078  0.846990  0.431185  1
  O  O17  1  0.981735  0.710592  0.772201  1
  O  O18  1  0.541890  0.789087  0.228207  1
  O  O19  1  0.849693  0.634728  0.548310  1
  O  O20  1  0.359861  0.489760  0.886645  1
  O  O21  1  0.018265  0.710592  0.272201  1
  O  O22  1  0.360646  0.509253  0.613301  1
  O  O23  1  0.851337  0.364531  0.951641  1
  O  O24  1  0.150307  0.634728  0.048310  1
  O  O25  1  0.640139  0.489760  0.386645  1
  O  O26  1  0.982523  0.289378  0.728446  1
  O  O27  1  0.639354  0.509253  0.113301  1
  O  O28  1  0.148663  0.364531  0.451641  1
  O  O29  1  0.456889  0.210490  0.772368  1
  O  O30  1  0.017477  0.289378  0.228446  1
  O  O31  1  0.531918  0.153555  0.568225  1
  O  O32  1  0.543111  0.210490  0.272368  1
  O  O33  1  0.043612  0.061545  0.603643  1
  O  O34  1  0.468082  0.153555  0.068225  1
  O  O35  1  0.956388  0.061545  0.103643  1
