# generated using pymatgen
data_Er11Tm(GaCo2)2
_symmetry_space_group_name_H-M   'P 1'
_cell_length_a   8.18910517
_cell_length_b   8.18910546
_cell_length_c   8.18753656
_cell_angle_alpha   112.00811199
_cell_angle_beta   109.58422238
_cell_angle_gamma   106.87029017
_symmetry_Int_Tables_number   1
_chemical_formula_structural   Er11Tm(GaCo2)2
_chemical_formula_sum   'Er11 Tm1 Ga2 Co4'
_cell_volume   421.78045567
_cell_formula_units_Z   1
loop_
 _symmetry_equiv_pos_site_id
 _symmetry_equiv_pos_as_xyz
  1  'x, y, z'
loop_
 _atom_site_type_symbol
 _atom_site_label
 _atom_site_symmetry_multiplicity
 _atom_site_fract_x
 _atom_site_fract_y
 _atom_site_fract_z
 _atom_site_occupancy
  Er  Er0  1  0.958154  0.261118  0.697228  1
  Er  Er1  1  0.041778  0.738729  0.302815  1
  Er  Er2  1  0.673580  0.861802  0.188126  1
  Er  Er3  1  0.326323  0.514545  0.188126  1
  Er  Er4  1  0.326563  0.138276  0.811870  1
  Er  Er5  1  0.673593  0.485306  0.811870  1
  Er  Er6  1  0.564085  0.261036  0.302815  1
  Er  Er7  1  0.436110  0.739074  0.697228  1
  Er  Er8  1  0.180560  0.780599  0.961159  1
  Er  Er9  1  0.819404  0.780638  0.600043  1
  Er  Er10  1  0.180475  0.219434  0.399908  1
  Tm  Tm11  1  0.819529  0.219427  0.038955  1
  Ga  Ga12  1  0.999919  0.499877  0.499796  1
  Ga  Ga13  1  0.500018  0.999999  0.500017  1
  Co  Co14  1  0.115414  0.115596  0.000047  1
  Co  Co15  1  0.884451  0.884634  0.000047  1
  Co  Co16  1  0.663492  0.499910  0.163403  1
  Co  Co17  1  0.336549  0.499998  0.836547  1
