# generated using pymatgen
data_Hf10C7N2
_symmetry_space_group_name_H-M   'P 1'
_cell_length_a   8.65715265
_cell_length_b   8.65509786
_cell_length_c   10.83846917
_cell_angle_alpha   62.86249408
_cell_angle_beta   62.87794570
_cell_angle_gamma   44.42846381
_symmetry_Int_Tables_number   1
_chemical_formula_structural   Hf10C7N2
_chemical_formula_sum   'Hf20 C14 N4'
_cell_volume   494.74387608
_cell_formula_units_Z   2
loop_
 _symmetry_equiv_pos_site_id
 _symmetry_equiv_pos_as_xyz
  1  'x, y, z'
loop_
 _atom_site_type_symbol
 _atom_site_label
 _atom_site_symmetry_multiplicity
 _atom_site_fract_x
 _atom_site_fract_y
 _atom_site_fract_z
 _atom_site_occupancy
  Hf  Hf0  1  0.226910  0.477854  0.947416  1
  Hf  Hf1  1  0.720595  0.968278  0.957962  1
  Hf  Hf2  1  0.565189  0.330250  0.649241  1
  Hf  Hf3  1  0.434912  0.670485  0.350595  1
  Hf  Hf4  1  0.278024  0.031166  0.042834  1
  Hf  Hf5  1  0.083004  0.814850  0.645168  1
  Hf  Hf6  1  0.125090  0.371078  0.750129  1
  Hf  Hf7  1  0.918997  0.184444  0.354499  1
  Hf  Hf8  1  0.968477  0.721224  0.456219  1
  Hf  Hf9  1  0.773422  0.520698  0.051583  1
  Hf  Hf10  1  0.625920  0.876381  0.749042  1
  Hf  Hf11  1  0.815167  0.081373  0.145385  1
  Hf  Hf12  1  0.475903  0.225351  0.447404  1
  Hf  Hf13  1  0.670328  0.434674  0.850922  1
  Hf  Hf14  1  0.522328  0.775817  0.552774  1
  Hf  Hf15  1  0.329165  0.565091  0.148930  1
  Hf  Hf16  1  0.372879  0.124781  0.251667  1
  Hf  Hf17  1  0.184906  0.918918  0.854232  1
  Hf  Hf18  1  0.031548  0.278548  0.544267  1
  Hf  Hf19  1  0.876460  0.627972  0.250807  1
  C  C20  1  0.424795  0.172222  0.852609  1
  C  C21  1  0.626148  0.376763  0.249689  1
  C  C22  1  0.274270  0.528757  0.550457  1
  C  C23  1  0.475575  0.725496  0.950518  1
  C  C24  1  0.324712  0.075282  0.650676  1
  C  C25  1  0.173927  0.423978  0.350959  1
  C  C26  1  0.975133  0.225171  0.952253  1
  C  C27  1  0.826213  0.577824  0.648347  1
  C  C28  1  0.023870  0.775197  0.048958  1
  C  C29  1  0.676524  0.924581  0.349006  1
  C  C30  1  0.726145  0.470907  0.448151  1
  C  C31  1  0.525481  0.273652  0.050014  1
  C  C32  1  0.373355  0.623592  0.750210  1
  C  C33  1  0.221262  0.975494  0.449170  1
  N  N34  1  0.074215  0.322750  0.150355  1
  N  N35  1  0.923588  0.678174  0.850506  1
  N  N36  1  0.577928  0.826798  0.146927  1
  N  N37  1  0.777635  0.024129  0.550116  1
