# generated using pymatgen
data_K2TiMoN4
_symmetry_space_group_name_H-M   'P 1'
_cell_length_a   5.90997045
_cell_length_b   5.90997059
_cell_length_c   5.90997005
_cell_angle_alpha   121.23609727
_cell_angle_beta   121.23610708
_cell_angle_gamma   87.87200776
_symmetry_Int_Tables_number   1
_chemical_formula_structural   K2TiMoN4
_chemical_formula_sum   'K2 Ti1 Mo1 N4'
_cell_volume   143.12805933
_cell_formula_units_Z   1
loop_
 _symmetry_equiv_pos_site_id
 _symmetry_equiv_pos_as_xyz
  1  'x, y, z'
loop_
 _atom_site_type_symbol
 _atom_site_label
 _atom_site_symmetry_multiplicity
 _atom_site_fract_x
 _atom_site_fract_y
 _atom_site_fract_z
 _atom_site_occupancy
  K  K0  1  0.250000  0.750000  0.500000  1
  K  K1  1  0.500000  0.500000  0.000000  1
  Ti  Ti2  1  0.000000  0.000000  0.000000  1
  Mo  Mo3  1  0.750000  0.250000  0.500000  1
  N  N4  1  0.772371  0.128165  0.152471  1
  N  N5  1  0.975695  0.619901  0.847529  1
  N  N6  1  0.380099  0.227629  0.355794  1
  N  N7  1  0.871835  0.024305  0.644206  1
