# generated using pymatgen
data_Sc12Co5Ir6Ru
_symmetry_space_group_name_H-M   'P 1'
_cell_length_a   4.51704000
_cell_length_b   6.40373200
_cell_length_c   13.53779000
_cell_angle_alpha   90.00012612
_cell_angle_beta   89.99890861
_cell_angle_gamma   90.00046095
_symmetry_Int_Tables_number   1
_chemical_formula_structural   Sc12Co5Ir6Ru
_chemical_formula_sum   'Sc12 Co5 Ir6 Ru1'
_cell_volume   391.59294374
_cell_formula_units_Z   1
loop_
 _symmetry_equiv_pos_site_id
 _symmetry_equiv_pos_as_xyz
  1  'x, y, z'
loop_
 _atom_site_type_symbol
 _atom_site_label
 _atom_site_symmetry_multiplicity
 _atom_site_fract_x
 _atom_site_fract_y
 _atom_site_fract_z
 _atom_site_occupancy
  Sc  Sc0  1  0.499999  0.250426  0.000000  1
  Sc  Sc1  1  0.499999  0.749575  0.000000  1
  Sc  Sc2  1  0.999738  0.250378  0.167830  1
  Sc  Sc3  1  0.999739  0.749621  0.167830  1
  Sc  Sc4  1  0.499747  0.249728  0.333730  1
  Sc  Sc5  1  0.499747  0.750272  0.333730  1
  Sc  Sc6  1  0.999999  0.249419  0.500000  1
  Sc  Sc7  1  0.000001  0.750582  0.500000  1
  Sc  Sc8  1  0.500253  0.249729  0.666270  1
  Sc  Sc9  1  0.500253  0.750273  0.666270  1
  Sc  Sc10  1  0.000261  0.250379  0.832170  1
  Sc  Sc11  1  0.000262  0.749622  0.832170  1
  Co  Co12  1  0.499643  0.500000  0.167347  1
  Co  Co13  1  0.999638  0.000000  0.333551  1
  Co  Co14  1  0.499999  0.500000  0.500000  1
  Co  Co15  1  0.000363  0.000000  0.666449  1
  Co  Co16  1  0.500355  0.500000  0.832653  1
  Ir  Ir17  1  0.000000  0.500000  0.000000  1
  Ir  Ir18  1  0.499725  0.000000  0.168189  1
  Ir  Ir19  1  0.999705  0.500000  0.334249  1
  Ir  Ir20  1  0.499999  0.000000  0.500000  1
  Ir  Ir21  1  0.000296  0.500000  0.665751  1
  Ir  Ir22  1  0.500276  0.000000  0.831811  1
  Ru  Ru23  1  0.000000  0.000000  0.000000  1
