# generated using pymatgen
data_K2CaHoB24
_symmetry_space_group_name_H-M   'P 1'
_cell_length_a   4.17071100
_cell_length_b   4.17071100
_cell_length_c   16.68225200
_cell_angle_alpha   90.00000000
_cell_angle_beta   90.00000000
_cell_angle_gamma   90.00000000
_symmetry_Int_Tables_number   1
_chemical_formula_structural   K2CaHoB24
_chemical_formula_sum   'K2 Ca1 Ho1 B24'
_cell_volume   290.18494165
_cell_formula_units_Z   1
loop_
 _symmetry_equiv_pos_site_id
 _symmetry_equiv_pos_as_xyz
  1  'x, y, z'
loop_
 _atom_site_type_symbol
 _atom_site_label
 _atom_site_symmetry_multiplicity
 _atom_site_fract_x
 _atom_site_fract_y
 _atom_site_fract_z
 _atom_site_occupancy
  K  K0  1  0.000000  0.000000  0.250865  1
  K  K1  1  0.000000  0.000000  0.749135  1
  Ca  Ca2  1  0.000000  0.000000  0.500000  1
  Ho  Ho3  1  0.000000  0.000000  0.000000  1
  B  B4  1  0.201375  0.500000  0.121519  1
  B  B5  1  0.200263  0.500000  0.376178  1
  B  B6  1  0.200263  0.500000  0.623822  1
  B  B7  1  0.201375  0.500000  0.878481  1
  B  B8  1  0.500000  0.500000  0.197919  1
  B  B9  1  0.500000  0.500000  0.450615  1
  B  B10  1  0.500000  0.500000  0.699482  1
  B  B11  1  0.500000  0.500000  0.951351  1
  B  B12  1  0.500000  0.201375  0.121519  1
  B  B13  1  0.500000  0.200263  0.376178  1
  B  B14  1  0.500000  0.200263  0.623822  1
  B  B15  1  0.500000  0.201375  0.878481  1
  B  B16  1  0.500000  0.500000  0.048649  1
  B  B17  1  0.500000  0.500000  0.300518  1
  B  B18  1  0.500000  0.500000  0.549385  1
  B  B19  1  0.500000  0.500000  0.802081  1
  B  B20  1  0.500000  0.798625  0.121519  1
  B  B21  1  0.500000  0.799737  0.376178  1
  B  B22  1  0.500000  0.799737  0.623822  1
  B  B23  1  0.500000  0.798625  0.878481  1
  B  B24  1  0.798625  0.500000  0.121519  1
  B  B25  1  0.799737  0.500000  0.376178  1
  B  B26  1  0.799737  0.500000  0.623822  1
  B  B27  1  0.798625  0.500000  0.878481  1
