# generated using pymatgen
data_K3Ho2(InBr4)3
_symmetry_space_group_name_H-M   'P 1'
_cell_length_a   8.49943738
_cell_length_b   7.94955119
_cell_length_c   13.83028500
_cell_angle_alpha   55.96366648
_cell_angle_beta   89.85456005
_cell_angle_gamma   89.79221244
_symmetry_Int_Tables_number   1
_chemical_formula_structural   K3Ho2(InBr4)3
_chemical_formula_sum   'K3 Ho2 In3 Br12'
_cell_volume   774.37140164
_cell_formula_units_Z   1
loop_
 _symmetry_equiv_pos_site_id
 _symmetry_equiv_pos_as_xyz
  1  'x, y, z'
loop_
 _atom_site_type_symbol
 _atom_site_label
 _atom_site_symmetry_multiplicity
 _atom_site_fract_x
 _atom_site_fract_y
 _atom_site_fract_z
 _atom_site_occupancy
  K  K0  1  0.073622  0.717674  0.755799  1
  K  K1  1  0.926792  0.279774  0.244824  1
  K  K2  1  0.572114  0.279937  0.747354  1
  Ho  Ho3  1  0.496524  0.999320  0.499344  1
  Ho  Ho4  1  0.001919  0.999107  0.000975  1
  In  In5  1  0.500279  0.498988  0.001900  1
  In  In6  1  0.996966  0.499999  0.498876  1
  In  In7  1  0.437897  0.722376  0.258703  1
  Br  Br8  1  0.776262  0.768037  0.566799  1
  Br  Br9  1  0.222525  0.237543  0.430253  1
  Br  Br10  1  0.275708  0.239533  0.930555  1
  Br  Br11  1  0.723499  0.766182  0.071394  1
  Br  Br12  1  0.452385  0.887827  0.728631  1
  Br  Br13  1  0.548501  0.103266  0.270781  1
  Br  Br14  1  0.949500  0.112246  0.771301  1
  Br  Br15  1  0.054412  0.885951  0.230340  1
  Br  Br16  1  0.322515  0.661404  0.549190  1
  Br  Br17  1  0.670833  0.342785  0.444198  1
  Br  Br18  1  0.824113  0.337120  0.950990  1
  Br  Br19  1  0.173634  0.660930  0.047792  1
