# generated using pymatgen
data_LiTb2Ag3O8
_symmetry_space_group_name_H-M   'P 1'
_cell_length_a   6.66027462
_cell_length_b   6.53625588
_cell_length_c   6.56507665
_cell_angle_alpha   126.27993618
_cell_angle_beta   126.85454007
_cell_angle_gamma   80.68806640
_symmetry_Int_Tables_number   1
_chemical_formula_structural   LiTb2Ag3O8
_chemical_formula_sum   'Li1 Tb2 Ag3 O8'
_cell_volume   175.89670874
_cell_formula_units_Z   1
loop_
 _symmetry_equiv_pos_site_id
 _symmetry_equiv_pos_as_xyz
  1  'x, y, z'
loop_
 _atom_site_type_symbol
 _atom_site_label
 _atom_site_symmetry_multiplicity
 _atom_site_fract_x
 _atom_site_fract_y
 _atom_site_fract_z
 _atom_site_occupancy
  Li  Li0  1  0.375000  0.625000  0.750000  1
  Tb  Tb1  1  0.734587  0.261329  0.498200  1
  Tb  Tb2  1  0.015413  0.988671  0.001800  1
  Ag  Ag3  1  0.375000  0.625000  0.250000  1
  Ag  Ag4  1  0.875000  0.625000  0.250000  1
  Ag  Ag5  1  0.375000  0.125000  0.750000  1
  O  O6  1  0.127491  0.596971  0.844350  1
  O  O7  1  0.760537  0.287915  0.155965  1
  O  O8  1  0.341449  0.002053  0.954181  1
  O  O9  1  0.705489  0.858467  0.445844  1
  O  O10  1  0.044511  0.391533  0.054156  1
  O  O11  1  0.408551  0.247947  0.545819  1
  O  O12  1  0.989463  0.962085  0.344035  1
  O  O13  1  0.622509  0.653029  0.655650  1
