# generated using pymatgen
data_Sr2Be2Cu15Si8Ni
_symmetry_space_group_name_H-M   'P 1'
_cell_length_a   8.11186947
_cell_length_b   8.11183271
_cell_length_c   8.09319788
_cell_angle_alpha   120.18125928
_cell_angle_beta   120.93280581
_cell_angle_gamma   89.17395438
_symmetry_Int_Tables_number   1
_chemical_formula_structural   Sr2Be2Cu15Si8Ni
_chemical_formula_sum   'Sr2 Be2 Cu15 Si8 Ni1'
_cell_volume   372.88717229
_cell_formula_units_Z   1
loop_
 _symmetry_equiv_pos_site_id
 _symmetry_equiv_pos_as_xyz
  1  'x, y, z'
loop_
 _atom_site_type_symbol
 _atom_site_label
 _atom_site_symmetry_multiplicity
 _atom_site_fract_x
 _atom_site_fract_y
 _atom_site_fract_z
 _atom_site_occupancy
  Sr  Sr0  1  0.248629  0.249604  0.998762  1
  Sr  Sr1  1  0.749166  0.750127  0.998762  1
  Be  Be2  1  0.499503  0.000564  0.500064  1
  Be  Be3  1  0.997807  0.497377  0.495188  1
  Cu  Cu4  1  0.207158  0.054707  0.261869  1
  Cu  Cu5  1  0.793146  0.942997  0.736141  1
  Cu  Cu6  1  0.442135  0.287447  0.729577  1
  Cu  Cu7  1  0.058525  0.785417  0.843948  1
  Cu  Cu8  1  0.800465  0.059912  0.501794  1
  Cu  Cu9  1  0.559256  0.298941  0.501437  1
  Cu  Cu10  1  0.202505  0.942191  0.501455  1
  Cu  Cu11  1  0.441887  0.701336  0.501804  1
  Cu  Cu12  1  0.941508  0.439446  0.740872  1
  Cu  Cu13  1  0.697353  0.201662  0.260617  1
  Cu  Cu14  1  0.058964  0.563270  0.260631  1
  Cu  Cu15  1  0.709321  0.445771  0.155082  1
  Cu  Cu16  1  0.558244  0.712563  0.270807  1
  Cu  Cu17  1  0.301433  0.799365  0.740884  1
  Cu  Cu18  1  0.289958  0.554703  0.844668  1
  Si  Si19  1  0.797695  0.290285  0.859419  1
  Si  Si20  1  0.569135  0.061721  0.859416  1
  Si  Si21  1  0.056076  0.204315  0.490228  1
  Si  Si22  1  0.285913  0.434152  0.490231  1
  Si  Si23  1  0.941031  0.794788  0.500768  1
  Si  Si24  1  0.439617  0.939718  0.146451  1
  Si  Si25  1  0.206731  0.706833  0.146450  1
  Si  Si26  1  0.705968  0.559729  0.500746  1
  Ni  Ni27  1  0.940869  0.221060  0.161930  1
