# generated using pymatgen
data_Sc5MnBi2
_symmetry_space_group_name_H-M   'P 1'
_cell_length_a   5.63257864
_cell_length_b   8.56383764
_cell_length_c   8.56383658
_cell_angle_alpha   83.79144061
_cell_angle_beta   70.80050210
_cell_angle_gamma   70.80049021
_symmetry_Int_Tables_number   1
_chemical_formula_structural   Sc5MnBi2
_chemical_formula_sum   'Sc10 Mn2 Bi4'
_cell_volume   368.41465949
_cell_formula_units_Z   2
loop_
 _symmetry_equiv_pos_site_id
 _symmetry_equiv_pos_as_xyz
  1  'x, y, z'
loop_
 _atom_site_type_symbol
 _atom_site_label
 _atom_site_symmetry_multiplicity
 _atom_site_fract_x
 _atom_site_fract_y
 _atom_site_fract_z
 _atom_site_occupancy
  Sc  Sc0  1  0.070768  0.118027  0.740436  1
  Sc  Sc1  1  0.929232  0.881973  0.259564  1
  Sc  Sc2  1  0.811205  0.259564  0.118027  1
  Sc  Sc3  1  0.429232  0.259564  0.881973  1
  Sc  Sc4  1  0.188795  0.740436  0.881973  1
  Sc  Sc5  1  0.570768  0.740436  0.118027  1
  Sc  Sc6  1  0.688795  0.881973  0.740436  1
  Sc  Sc7  1  0.311205  0.118027  0.259564  1
  Sc  Sc8  1  0.250000  0.500000  0.500000  1
  Sc  Sc9  1  0.750000  0.500000  0.500000  1
  Mn  Mn10  1  0.250000  0.000000  0.000000  1
  Mn  Mn11  1  0.750000  0.000000  0.000000  1
  Bi  Bi12  1  0.161976  0.500000  0.176047  1
  Bi  Bi13  1  0.838024  0.500000  0.823953  1
  Bi  Bi14  1  0.338024  0.823953  0.500000  1
  Bi  Bi15  1  0.661976  0.176047  0.500000  1
