# generated using pymatgen
data_Cs3Nb2Ag3S8
_symmetry_space_group_name_H-M   'P 1'
_cell_length_a   13.23515561
_cell_length_b   13.23515539
_cell_length_c   15.55726413
_cell_angle_alpha   62.67205713
_cell_angle_beta   62.67205805
_cell_angle_gamma   26.30035798
_symmetry_Int_Tables_number   1
_chemical_formula_structural   Cs3Nb2Ag3S8
_chemical_formula_sum   'Cs6 Nb4 Ag6 S16'
_cell_volume   1064.84719711
_cell_formula_units_Z   2
loop_
 _symmetry_equiv_pos_site_id
 _symmetry_equiv_pos_as_xyz
  1  'x, y, z'
loop_
 _atom_site_type_symbol
 _atom_site_label
 _atom_site_symmetry_multiplicity
 _atom_site_fract_x
 _atom_site_fract_y
 _atom_site_fract_z
 _atom_site_occupancy
  Cs  Cs0  1  0.632453  0.755332  0.402448  1
  Cs  Cs1  1  0.000000  0.000000  0.000000  1
  Cs  Cs2  1  0.755332  0.632453  0.902448  1
  Cs  Cs3  1  0.000000  0.000000  0.500000  1
  Cs  Cs4  1  0.244668  0.367547  0.097552  1
  Cs  Cs5  1  0.367547  0.244668  0.597552  1
  Nb  Nb6  1  0.583966  0.166970  0.277860  1
  Nb  Nb7  1  0.166970  0.583966  0.777860  1
  Nb  Nb8  1  0.833030  0.416034  0.222140  1
  Nb  Nb9  1  0.416034  0.833030  0.722140  1
  Ag  Ag10  1  0.291633  0.708367  0.750000  1
  Ag  Ag11  1  0.333227  0.915620  0.215344  1
  Ag  Ag12  1  0.915620  0.333227  0.715344  1
  Ag  Ag13  1  0.084380  0.666773  0.284656  1
  Ag  Ag14  1  0.708367  0.291633  0.250000  1
  Ag  Ag15  1  0.666773  0.084380  0.784656  1
  S  S16  1  0.462588  0.441593  0.664615  1
  S  S17  1  0.222066  0.088734  0.809419  1
  S  S18  1  0.441593  0.462588  0.164615  1
  S  S19  1  0.777934  0.911266  0.190581  1
  S  S20  1  0.558407  0.537412  0.835385  1
  S  S21  1  0.300580  0.291816  0.880183  1
  S  S22  1  0.708184  0.699420  0.619817  1
  S  S23  1  0.291816  0.300580  0.380183  1
  S  S24  1  0.911266  0.777934  0.690581  1
  S  S25  1  0.177841  0.009342  0.627485  1
  S  S26  1  0.699420  0.708184  0.119817  1
  S  S27  1  0.537412  0.558407  0.335385  1
  S  S28  1  0.990658  0.822159  0.872515  1
  S  S29  1  0.088734  0.222066  0.309419  1
  S  S30  1  0.822159  0.990658  0.372515  1
  S  S31  1  0.009342  0.177841  0.127485  1
