# generated using pymatgen
data_Tb3Nd2(SnPb)2
_symmetry_space_group_name_H-M   'P 1'
_cell_length_a   8.31911000
_cell_length_b   8.43539400
_cell_length_c   15.93903000
_cell_angle_alpha   90.00000000
_cell_angle_beta   90.00000000
_cell_angle_gamma   90.00000000
_symmetry_Int_Tables_number   1
_chemical_formula_structural   Tb3Nd2(SnPb)2
_chemical_formula_sum   'Tb12 Nd8 Sn8 Pb8'
_cell_volume   1118.52096131
_cell_formula_units_Z   4
loop_
 _symmetry_equiv_pos_site_id
 _symmetry_equiv_pos_as_xyz
  1  'x, y, z'
loop_
 _atom_site_type_symbol
 _atom_site_label
 _atom_site_symmetry_multiplicity
 _atom_site_fract_x
 _atom_site_fract_y
 _atom_site_fract_z
 _atom_site_occupancy
  Tb  Tb0  1  0.633705  0.159412  0.624742  1
  Tb  Tb1  1  0.133705  0.340588  0.875258  1
  Tb  Tb2  1  0.366295  0.840588  0.124742  1
  Tb  Tb3  1  0.866295  0.659412  0.375258  1
  Tb  Tb4  1  0.366295  0.840588  0.375258  1
  Tb  Tb5  1  0.866295  0.659412  0.124742  1
  Tb  Tb6  1  0.633705  0.159412  0.875258  1
  Tb  Tb7  1  0.133705  0.340588  0.624742  1
  Tb  Tb8  1  0.799581  0.495811  0.750000  1
  Tb  Tb9  1  0.299581  0.004189  0.750000  1
  Tb  Tb10  1  0.200419  0.504189  0.250000  1
  Tb  Tb11  1  0.700419  0.995811  0.250000  1
  Nd  Nd12  1  0.475389  0.677336  0.600336  1
  Nd  Nd13  1  0.975389  0.822664  0.899664  1
  Nd  Nd14  1  0.524611  0.322664  0.100336  1
  Nd  Nd15  1  0.024611  0.177336  0.399664  1
  Nd  Nd16  1  0.524611  0.322664  0.399664  1
  Nd  Nd17  1  0.024611  0.177336  0.100336  1
  Nd  Nd18  1  0.475389  0.677336  0.899664  1
  Nd  Nd19  1  0.975389  0.822664  0.600336  1
  Sn  Sn20  1  0.436481  0.374218  0.750000  1
  Sn  Sn21  1  0.936481  0.125782  0.750000  1
  Sn  Sn22  1  0.563519  0.625782  0.250000  1
  Sn  Sn23  1  0.063519  0.874218  0.250000  1
  Sn  Sn24  1  0.667357  0.852684  0.750000  1
  Sn  Sn25  1  0.167357  0.647316  0.750000  1
  Sn  Sn26  1  0.332643  0.147316  0.250000  1
  Sn  Sn27  1  0.832643  0.352684  0.250000  1
  Pb  Pb28  1  0.704975  0.959262  0.457483  1
  Pb  Pb29  1  0.204975  0.540738  0.042517  1
  Pb  Pb30  1  0.295025  0.040738  0.957483  1
  Pb  Pb31  1  0.795025  0.459262  0.542517  1
  Pb  Pb32  1  0.295025  0.040738  0.542517  1
  Pb  Pb33  1  0.795025  0.459262  0.957483  1
  Pb  Pb34  1  0.704975  0.959262  0.042517  1
  Pb  Pb35  1  0.204975  0.540738  0.457483  1
