# generated using pymatgen
data_Na5Si4P8Rh19
_symmetry_space_group_name_H-M   'P 1'
_cell_length_a   12.62597049
_cell_length_b   12.61543541
_cell_length_c   3.93169100
_cell_angle_alpha   90.00000000
_cell_angle_beta   90.00000000
_cell_angle_gamma   119.93094109
_symmetry_Int_Tables_number   1
_chemical_formula_structural   Na5Si4P8Rh19
_chemical_formula_sum   'Na5 Si4 P8 Rh19'
_cell_volume   542.72374419
_cell_formula_units_Z   1
loop_
 _symmetry_equiv_pos_site_id
 _symmetry_equiv_pos_as_xyz
  1  'x, y, z'
loop_
 _atom_site_type_symbol
 _atom_site_label
 _atom_site_symmetry_multiplicity
 _atom_site_fract_x
 _atom_site_fract_y
 _atom_site_fract_z
 _atom_site_occupancy
  Na  Na0  1  0.999464  0.181500  0.500000  1
  Na  Na1  1  0.817875  0.817573  0.500000  1
  Na  Na2  1  0.181880  0.000799  0.500000  1
  Na  Na3  1  0.666683  0.333142  0.000000  1
  Na  Na4  1  0.333528  0.666962  0.000000  1
  Si  Si5  1  0.477705  0.316195  0.500000  1
  Si  Si6  1  0.684073  0.161425  0.500000  1
  Si  Si7  1  0.838838  0.521922  0.500000  1
  Si  Si8  1  0.521894  0.837301  0.500000  1
  P  P9  1  0.820473  0.998610  0.000000  1
  P  P10  1  0.178411  0.179815  0.000000  1
  P  P11  1  0.000638  0.821177  0.000000  1
  P  P12  1  0.370390  0.000895  0.000000  1
  P  P13  1  0.166691  0.688355  0.500000  1
  P  P14  1  0.312156  0.479650  0.500000  1
  P  P15  1  0.997844  0.367673  0.000000  1
  P  P16  1  0.631060  0.629613  0.000000  1
  Rh  Rh17  1  0.808651  0.180827  0.000000  1
  Rh  Rh18  1  0.370577  0.190257  0.000000  1
  Rh  Rh19  1  0.643698  0.517491  0.500000  1
  Rh  Rh20  1  0.875434  0.356708  0.500000  1
  Rh  Rh21  1  0.355471  0.872305  0.500000  1
  Rh  Rh22  1  0.508914  0.637803  0.500000  1
  Rh  Rh23  1  0.131133  0.491617  0.500000  1
  Rh  Rh24  1  0.819449  0.628270  0.000000  1
  Rh  Rh25  1  0.625331  0.814569  0.000000  1
  Rh  Rh26  1  0.182570  0.805957  0.000000  1
  Rh  Rh27  1  0.193042  0.378148  0.000000  1
  Rh  Rh28  1  0.004267  0.724313  0.500000  1
  Rh  Rh29  1  0.275258  0.280750  0.500000  1
  Rh  Rh30  1  0.725023  0.998542  0.500000  1
  Rh  Rh31  1  0.997167  0.547717  0.000000  1
  Rh  Rh32  1  0.451275  0.448164  0.000000  1
  Rh  Rh33  1  0.549864  0.997992  0.000000  1
  Rh  Rh34  1  0.000451  0.000015  0.000000  1
  Rh  Rh35  1  0.482826  0.125946  0.500000  1
