# generated using pymatgen
data_Ho20Cd6PdRu
_symmetry_space_group_name_H-M   'P 1'
_cell_length_a   9.57531200
_cell_length_b   9.57531162
_cell_length_c   9.82438400
_cell_angle_alpha   90.00000000
_cell_angle_beta   90.00000000
_cell_angle_gamma   120.00000132
_symmetry_Int_Tables_number   1
_chemical_formula_structural   Ho20Cd6PdRu
_chemical_formula_sum   'Ho20 Cd6 Pd1 Ru1'
_cell_volume   780.08478145
_cell_formula_units_Z   1
loop_
 _symmetry_equiv_pos_site_id
 _symmetry_equiv_pos_as_xyz
  1  'x, y, z'
loop_
 _atom_site_type_symbol
 _atom_site_label
 _atom_site_symmetry_multiplicity
 _atom_site_fract_x
 _atom_site_fract_y
 _atom_site_fract_z
 _atom_site_occupancy
  Ho  Ho0  1  0.000000  0.000000  0.499265  1
  Ho  Ho1  1  0.000000  0.000000  0.000735  1
  Ho  Ho2  1  0.208200  0.791800  0.443506  1
  Ho  Ho3  1  0.208200  0.416400  0.443506  1
  Ho  Ho4  1  0.583600  0.791800  0.443506  1
  Ho  Ho5  1  0.790084  0.209916  0.559683  1
  Ho  Ho6  1  0.790084  0.580167  0.559683  1
  Ho  Ho7  1  0.419833  0.209916  0.559683  1
  Ho  Ho8  1  0.790084  0.209916  0.940317  1
  Ho  Ho9  1  0.790084  0.580167  0.940317  1
  Ho  Ho10  1  0.419833  0.209916  0.940317  1
  Ho  Ho11  1  0.208200  0.791800  0.056494  1
  Ho  Ho12  1  0.208200  0.416400  0.056494  1
  Ho  Ho13  1  0.583600  0.791800  0.056494  1
  Ho  Ho14  1  0.542909  0.457091  0.250000  1
  Ho  Ho15  1  0.542909  0.085817  0.250000  1
  Ho  Ho16  1  0.914183  0.457091  0.250000  1
  Ho  Ho17  1  0.458885  0.541115  0.750000  1
  Ho  Ho18  1  0.458885  0.917771  0.750000  1
  Ho  Ho19  1  0.082229  0.541115  0.750000  1
  Cd  Cd20  1  0.885446  0.114554  0.250000  1
  Cd  Cd21  1  0.885446  0.770893  0.250000  1
  Cd  Cd22  1  0.229107  0.114554  0.250000  1
  Cd  Cd23  1  0.114546  0.885454  0.750000  1
  Cd  Cd24  1  0.114546  0.229091  0.750000  1
  Cd  Cd25  1  0.770909  0.885454  0.750000  1
  Pd  Pd26  1  0.333333  0.666667  0.250000  1
  Ru  Ru27  1  0.666667  0.333333  0.750000  1
