# generated using pymatgen
data_PrPu2(CdAu)3
_symmetry_space_group_name_H-M   'P 1'
_cell_length_a   7.98242242
_cell_length_b   7.98242307
_cell_length_c   4.00641600
_cell_angle_alpha   90.00000000
_cell_angle_beta   90.00000000
_cell_angle_gamma   120.60817728
_symmetry_Int_Tables_number   1
_chemical_formula_structural   PrPu2(CdAu)3
_chemical_formula_sum   'Pr1 Pu2 Cd3 Au3'
_cell_volume   219.71607683
_cell_formula_units_Z   1
loop_
 _symmetry_equiv_pos_site_id
 _symmetry_equiv_pos_as_xyz
  1  'x, y, z'
loop_
 _atom_site_type_symbol
 _atom_site_label
 _atom_site_symmetry_multiplicity
 _atom_site_fract_x
 _atom_site_fract_y
 _atom_site_fract_z
 _atom_site_occupancy
  Pr  Pr0  1  0.593704  0.593703  0.000000  1
  Pu  Pu1  1  0.403939  0.999020  0.000000  1
  Pu  Pu2  1  0.999020  0.403939  0.000000  1
  Cd  Cd3  1  0.741832  0.002585  0.500000  1
  Cd  Cd4  1  0.257843  0.257843  0.500000  1
  Cd  Cd5  1  0.002585  0.741831  0.500000  1
  Au  Au6  1  0.001938  0.001938  0.000000  1
  Au  Au7  1  0.668355  0.330783  0.500000  1
  Au  Au8  1  0.330783  0.668355  0.500000  1
