# generated using pymatgen
data_Tb7Sm8Y5Sn16
_symmetry_space_group_name_H-M   'P 1'
_cell_length_a   8.11031002
_cell_length_b   8.26887403
_cell_length_c   15.62720302
_cell_angle_alpha   90.00584288
_cell_angle_beta   90.00206884
_cell_angle_gamma   90.00697504
_symmetry_Int_Tables_number   1
_chemical_formula_structural   Tb7Sm8Y5Sn16
_chemical_formula_sum   'Tb7 Sm8 Y5 Sn16'
_cell_volume   1048.00916268
_cell_formula_units_Z   1
loop_
 _symmetry_equiv_pos_site_id
 _symmetry_equiv_pos_as_xyz
  1  'x, y, z'
loop_
 _atom_site_type_symbol
 _atom_site_label
 _atom_site_symmetry_multiplicity
 _atom_site_fract_x
 _atom_site_fract_y
 _atom_site_fract_z
 _atom_site_occupancy
  Tb  Tb0  1  0.866130  0.664404  0.621747  1
  Tb  Tb1  1  0.633838  0.164405  0.378284  1
  Tb  Tb2  1  0.133849  0.335594  0.121684  1
  Tb  Tb3  1  0.633877  0.164463  0.121738  1
  Tb  Tb4  1  0.133846  0.335582  0.378278  1
  Tb  Tb5  1  0.366171  0.835579  0.621752  1
  Tb  Tb6  1  0.866233  0.664417  0.878267  1
  Sm  Sm7  1  0.518491  0.320435  0.902042  1
  Sm  Sm8  1  0.018508  0.179487  0.597979  1
  Sm  Sm9  1  0.481509  0.679520  0.402037  1
  Sm  Sm10  1  0.981491  0.820468  0.097977  1
  Sm  Sm11  1  0.481482  0.679494  0.097948  1
  Sm  Sm12  1  0.981489  0.820508  0.402024  1
  Sm  Sm13  1  0.518514  0.320514  0.597988  1
  Sm  Sm14  1  0.018558  0.179497  0.902017  1
  Y  Y15  1  0.366020  0.835714  0.878242  1
  Y  Y16  1  0.198293  0.502370  0.750039  1
  Y  Y17  1  0.698267  0.997669  0.749991  1
  Y  Y18  1  0.801743  0.497677  0.250000  1
  Y  Y19  1  0.301751  0.002318  0.249985  1
  Sn  Sn20  1  0.295675  0.036670  0.041764  1
  Sn  Sn21  1  0.795629  0.463221  0.458166  1
  Sn  Sn22  1  0.704380  0.963210  0.541850  1
  Sn  Sn23  1  0.204484  0.536860  0.958147  1
  Sn  Sn24  1  0.704151  0.963192  0.958143  1
  Sn  Sn25  1  0.204354  0.536784  0.541843  1
  Sn  Sn26  1  0.295637  0.036780  0.458146  1
  Sn  Sn27  1  0.795622  0.463230  0.041852  1
  Sn  Sn28  1  0.564870  0.620325  0.749979  1
  Sn  Sn29  1  0.064967  0.879728  0.750031  1
  Sn  Sn30  1  0.435071  0.379749  0.249995  1
  Sn  Sn31  1  0.935078  0.120262  0.250002  1
  Sn  Sn32  1  0.326466  0.143974  0.750033  1
  Sn  Sn33  1  0.826467  0.355934  0.750020  1
  Sn  Sn34  1  0.673556  0.855936  0.250001  1
  Sn  Sn35  1  0.173532  0.644030  0.250006  1
