# generated using pymatgen
data_Sc2AlNi3
_symmetry_space_group_name_H-M   'P 1'
_cell_length_a   5.04068812
_cell_length_b   5.04068831
_cell_length_c   4.90311195
_cell_angle_alpha   59.06739445
_cell_angle_beta   59.06739306
_cell_angle_gamma   60.00000557
_symmetry_Int_Tables_number   1
_chemical_formula_structural   Sc2AlNi3
_chemical_formula_sum   'Sc2 Al1 Ni3'
_cell_volume   86.82973856
_cell_formula_units_Z   1
loop_
 _symmetry_equiv_pos_site_id
 _symmetry_equiv_pos_as_xyz
  1  'x, y, z'
loop_
 _atom_site_type_symbol
 _atom_site_label
 _atom_site_symmetry_multiplicity
 _atom_site_fract_x
 _atom_site_fract_y
 _atom_site_fract_z
 _atom_site_occupancy
  Sc  Sc0  1  0.249495  0.249495  0.251514  1
  Sc  Sc1  1  0.000505  0.000505  0.998486  1
  Al  Al2  1  0.625000  0.625000  0.125000  1
  Ni  Ni3  1  0.625000  0.125000  0.625000  1
  Ni  Ni4  1  0.125000  0.625000  0.625000  1
  Ni  Ni5  1  0.625000  0.625000  0.625000  1
