# generated using pymatgen
data_ErLu9Si16Ge
_symmetry_space_group_name_H-M   'P 1'
_cell_length_a   10.87329405
_cell_length_b   10.87612963
_cell_length_c   10.88109900
_cell_angle_alpha   144.87164182
_cell_angle_beta   136.02005869
_cell_angle_gamma   57.50122095
_symmetry_Int_Tables_number   1
_chemical_formula_structural   ErLu9Si16Ge
_chemical_formula_sum   'Er1 Lu9 Si16 Ge1'
_cell_volume   509.91623135
_cell_formula_units_Z   1
loop_
 _symmetry_equiv_pos_site_id
 _symmetry_equiv_pos_as_xyz
  1  'x, y, z'
loop_
 _atom_site_type_symbol
 _atom_site_label
 _atom_site_symmetry_multiplicity
 _atom_site_fract_x
 _atom_site_fract_y
 _atom_site_fract_z
 _atom_site_occupancy
  Er  Er0  1  0.647561  0.166529  0.015714  1
  Lu  Lu1  1  0.756430  0.757354  0.514816  1
  Lu  Lu2  1  0.448355  0.964195  0.013055  1
  Lu  Lu3  1  0.848681  0.368938  0.017649  1
  Lu  Lu4  1  0.951041  0.963279  0.515597  1
  Lu  Lu5  1  0.150923  0.166403  0.518845  1
  Lu  Lu6  1  0.351591  0.369613  0.520522  1
  Lu  Lu7  1  0.242882  0.757502  0.000855  1
  Lu  Lu8  1  0.549662  0.560930  0.508667  1
  Lu  Lu9  1  0.051587  0.560509  0.011055  1
  Si  Si10  1  0.199518  0.568611  0.368518  1
  Si  Si11  1  0.001849  0.077807  0.077476  1
  Si  Si12  1  0.697297  0.288666  0.592121  1
  Si  Si13  1  0.801049  0.174248  0.377002  1
  Si  Si14  1  0.896335  0.502874  0.608791  1
  Si  Si15  1  0.419192  0.879005  0.456157  1
  Si  Si16  1  0.105408  0.715654  0.610849  1
  Si  Si17  1  0.299774  0.895268  0.592929  1
  Si  Si18  1  0.575829  0.039688  0.463629  1
  Si  Si19  1  0.001288  0.430294  0.430863  1
  Si  Si20  1  0.880968  0.843090  0.965942  1
  Si  Si21  1  0.398036  0.500521  0.098864  1
  Si  Si22  1  0.124775  0.095981  0.971723  1
  Si  Si23  1  0.282850  0.242560  0.959043  1
  Si  Si24  1  0.498286  0.382113  0.879942  1
  Si  Si25  1  0.598721  0.704456  0.105384  1
  Ge  Ge26  1  0.720112  0.685411  0.965491  1
