# generated using pymatgen
data_Y2AlGaTe
_symmetry_space_group_name_H-M   'P 1'
_cell_length_a   4.23576300
_cell_length_b   4.23576380
_cell_length_c   16.57128200
_cell_angle_alpha   90.00000000
_cell_angle_beta   90.00000000
_cell_angle_gamma   120.00000154
_symmetry_Int_Tables_number   1
_chemical_formula_structural   Y2AlGaTe
_chemical_formula_sum   'Y4 Al2 Ga2 Te2'
_cell_volume   257.48392452
_cell_formula_units_Z   2
loop_
 _symmetry_equiv_pos_site_id
 _symmetry_equiv_pos_as_xyz
  1  'x, y, z'
loop_
 _atom_site_type_symbol
 _atom_site_label
 _atom_site_symmetry_multiplicity
 _atom_site_fract_x
 _atom_site_fract_y
 _atom_site_fract_z
 _atom_site_occupancy
  Y  Y0  1  0.000000  0.000000  0.628167  1
  Y  Y1  1  0.000000  0.000000  0.374238  1
  Y  Y2  1  0.000000  0.000000  0.128167  1
  Y  Y3  1  0.000000  0.000000  0.874238  1
  Al  Al4  1  0.666667  0.333333  0.514423  1
  Al  Al5  1  0.333333  0.666667  0.014423  1
  Ga  Ga6  1  0.666667  0.333333  0.982527  1
  Ga  Ga7  1  0.333333  0.666667  0.482527  1
  Te  Te8  1  0.666667  0.333333  0.250647  1
  Te  Te9  1  0.333333  0.666667  0.750647  1
