# generated using pymatgen
data_Sm5Er(CBr5)2
_symmetry_space_group_name_H-M   'P 1'
_cell_length_a   7.47337578
_cell_length_b   9.03486137
_cell_length_c   9.12247728
_cell_angle_alpha   107.06105634
_cell_angle_beta   96.04382229
_cell_angle_gamma   104.72639520
_symmetry_Int_Tables_number   1
_chemical_formula_structural   Sm5Er(CBr5)2
_chemical_formula_sum   'Sm5 Er1 C2 Br10'
_cell_volume   558.62725711
_cell_formula_units_Z   1
loop_
 _symmetry_equiv_pos_site_id
 _symmetry_equiv_pos_as_xyz
  1  'x, y, z'
loop_
 _atom_site_type_symbol
 _atom_site_label
 _atom_site_symmetry_multiplicity
 _atom_site_fract_x
 _atom_site_fract_y
 _atom_site_fract_z
 _atom_site_occupancy
  Sm  Sm0  1  0.028096  0.724090  0.918505  1
  Sm  Sm1  1  0.111012  0.042102  0.768744  1
  Sm  Sm2  1  0.970437  0.275500  0.080826  1
  Sm  Sm3  1  0.886675  0.956165  0.230607  1
  Sm  Sm4  1  0.385348  0.142522  0.189753  1
  Er  Er5  1  0.620473  0.860693  0.813868  1
  C  C6  1  0.091218  0.030786  0.043398  1
  C  C7  1  0.904608  0.967686  0.955691  1
  Br  Br8  1  0.206125  0.740122  0.651568  1
  Br  Br9  1  0.909569  0.628716  0.177801  1
  Br  Br10  1  0.086636  0.368986  0.819605  1
  Br  Br11  1  0.744942  0.915252  0.546933  1
  Br  Br12  1  0.246727  0.081057  0.458622  1
  Br  Br13  1  0.653331  0.552932  0.729004  1
  Br  Br14  1  0.459347  0.813737  0.084363  1
  Br  Br15  1  0.809228  0.263736  0.355377  1
  Br  Br16  1  0.342415  0.456536  0.269333  1
  Br  Br17  1  0.543811  0.179381  0.906004  1
