# generated using pymatgen
data_Nd20Sn8Bi5Sb3
_symmetry_space_group_name_H-M   'P 1'
_cell_length_a   8.43686142
_cell_length_b   8.46513665
_cell_length_c   15.97491533
_cell_angle_alpha   89.97477004
_cell_angle_beta   90.05608838
_cell_angle_gamma   90.06674570
_symmetry_Int_Tables_number   1
_chemical_formula_structural   Nd20Sn8Bi5Sb3
_chemical_formula_sum   'Nd20 Sn8 Bi5 Sb3'
_cell_volume   1140.91399901
_cell_formula_units_Z   1
loop_
 _symmetry_equiv_pos_site_id
 _symmetry_equiv_pos_as_xyz
  1  'x, y, z'
loop_
 _atom_site_type_symbol
 _atom_site_label
 _atom_site_symmetry_multiplicity
 _atom_site_fract_x
 _atom_site_fract_y
 _atom_site_fract_z
 _atom_site_occupancy
  Nd  Nd0  1  0.040047  0.176569  0.393140  1
  Nd  Nd1  1  0.384249  0.836125  0.123100  1
  Nd  Nd2  1  0.113568  0.339859  0.619273  1
  Nd  Nd3  1  0.457640  0.675974  0.891545  1
  Nd  Nd4  1  0.884473  0.663973  0.122804  1
  Nd  Nd5  1  0.115668  0.335985  0.877187  1
  Nd  Nd6  1  0.211470  0.496184  0.252200  1
  Nd  Nd7  1  0.711570  0.003780  0.252305  1
  Nd  Nd8  1  0.458748  0.672387  0.605568  1
  Nd  Nd9  1  0.288386  0.996316  0.749284  1
  Nd  Nd10  1  0.618683  0.164432  0.619554  1
  Nd  Nd11  1  0.788315  0.503840  0.747938  1
  Nd  Nd12  1  0.885065  0.663943  0.381364  1
  Nd  Nd13  1  0.042443  0.176125  0.108881  1
  Nd  Nd14  1  0.957607  0.824131  0.891513  1
  Nd  Nd15  1  0.615677  0.163831  0.877151  1
  Nd  Nd16  1  0.542408  0.324051  0.108477  1
  Nd  Nd17  1  0.386686  0.833935  0.379292  1
  Nd  Nd18  1  0.953653  0.822819  0.606209  1
  Nd  Nd19  1  0.542548  0.324488  0.394837  1
  Sn  Sn20  1  0.655392  0.860616  0.749342  1
  Sn  Sn21  1  0.843630  0.361199  0.250628  1
  Sn  Sn22  1  0.583840  0.620849  0.250413  1
  Sn  Sn23  1  0.416703  0.377989  0.749142  1
  Sn  Sn24  1  0.156030  0.639947  0.749434  1
  Sn  Sn25  1  0.917415  0.121429  0.749259  1
  Sn  Sn26  1  0.344038  0.139434  0.250679  1
  Sn  Sn27  1  0.083240  0.878477  0.250728  1
  Bi  Bi28  1  0.273441  0.024231  0.956124  1
  Bi  Bi29  1  0.773487  0.476022  0.955737  1
  Bi  Bi30  1  0.226510  0.524075  0.044361  1
  Bi  Bi31  1  0.273060  0.024237  0.544140  1
  Bi  Bi32  1  0.726642  0.975961  0.044375  1
  Sb  Sb33  1  0.772016  0.477130  0.545391  1
  Sb  Sb34  1  0.727673  0.976930  0.454320  1
  Sb  Sb35  1  0.227980  0.522727  0.454304  1
