# generated using pymatgen
data_Mg3Zr(B6Ru)2
_symmetry_space_group_name_H-M   'P 1'
_cell_length_a   8.88286642
_cell_length_b   11.11812933
_cell_length_c   3.48027500
_cell_angle_alpha   90.00000000
_cell_angle_beta   90.00000000
_cell_angle_gamma   90.10083211
_symmetry_Int_Tables_number   1
_chemical_formula_structural   Mg3Zr(B6Ru)2
_chemical_formula_sum   'Mg6 Zr2 B24 Ru4'
_cell_volume   343.71441164
_cell_formula_units_Z   2
loop_
 _symmetry_equiv_pos_site_id
 _symmetry_equiv_pos_as_xyz
  1  'x, y, z'
loop_
 _atom_site_type_symbol
 _atom_site_label
 _atom_site_symmetry_multiplicity
 _atom_site_fract_x
 _atom_site_fract_y
 _atom_site_fract_z
 _atom_site_occupancy
  Mg  Mg0  1  0.820855  0.090920  0.000000  1
  Mg  Mg1  1  0.446292  0.131548  0.000000  1
  Mg  Mg2  1  0.943148  0.371227  0.000000  1
  Mg  Mg3  1  0.328102  0.409907  0.000000  1
  Mg  Mg4  1  0.674465  0.581792  0.000000  1
  Mg  Mg5  1  0.054590  0.624077  0.000000  1
  Zr  Zr6  1  0.556110  0.871571  0.000000  1
  Zr  Zr7  1  0.177701  0.918016  0.000000  1
  B  B8  1  0.598832  0.029488  0.500001  1
  B  B9  1  0.054702  0.065805  0.500001  1
  B  B10  1  0.253440  0.081385  0.500001  1
  B  B11  1  0.630708  0.184074  0.500001  1
  B  B12  1  0.978189  0.212217  0.500001  1
  B  B13  1  0.295903  0.238245  0.500001  1
  B  B14  1  0.795190  0.261909  0.500001  1
  B  B15  1  0.480227  0.288108  0.500001  1
  B  B16  1  0.129996  0.318078  0.500001  1
  B  B17  1  0.756663  0.420929  0.500001  1
  B  B18  1  0.553982  0.435928  0.500001  1
  B  B19  1  0.093597  0.473103  0.500001  1
  B  B20  1  0.908620  0.524093  0.500001  1
  B  B21  1  0.444214  0.563730  0.500001  1
  B  B22  1  0.244156  0.576688  0.500001  1
  B  B23  1  0.871560  0.678481  0.500001  1
  B  B24  1  0.518360  0.710283  0.500001  1
  B  B25  1  0.202683  0.736735  0.500001  1
  B  B26  1  0.707890  0.761707  0.500001  1
  B  B27  1  0.019841  0.787548  0.500001  1
  B  B28  1  0.366779  0.817789  0.500001  1
  B  B29  1  0.749200  0.921957  0.500001  1
  B  B30  1  0.946668  0.935574  0.500001  1
  B  B31  1  0.399276  0.974811  0.500001  1
  Ru  Ru32  1  0.139824  0.179794  0.000000  1
  Ru  Ru33  1  0.640129  0.324972  0.000000  1
  Ru  Ru34  1  0.355009  0.679716  0.000000  1
  Ru  Ru35  1  0.863088  0.817802  0.000000  1
