# generated using pymatgen
data_Nd2Sm4RhBr10
_symmetry_space_group_name_H-M   'P 1'
_cell_length_a   7.56693000
_cell_length_b   9.41019949
_cell_length_c   9.52887225
_cell_angle_alpha   108.21357697
_cell_angle_beta   96.92866608
_cell_angle_gamma   104.81066896
_symmetry_Int_Tables_number   1
_chemical_formula_structural   Nd2Sm4RhBr10
_chemical_formula_sum   'Nd2 Sm4 Rh1 Br10'
_cell_volume   608.07006484
_cell_formula_units_Z   1
loop_
 _symmetry_equiv_pos_site_id
 _symmetry_equiv_pos_as_xyz
  1  'x, y, z'
loop_
 _atom_site_type_symbol
 _atom_site_label
 _atom_site_symmetry_multiplicity
 _atom_site_fract_x
 _atom_site_fract_y
 _atom_site_fract_z
 _atom_site_occupancy
  Nd  Nd0  1  0.534206  0.205487  0.408876  1
  Nd  Nd1  1  0.465794  0.794513  0.591124  1
  Sm  Sm2  1  0.135476  0.364074  0.318744  1
  Sm  Sm3  1  0.864524  0.635926  0.681256  1
  Sm  Sm4  1  0.625582  0.546997  0.250086  1
  Sm  Sm5  1  0.374418  0.453003  0.749914  1
  Rh  Rh6  1  0.500000  0.500000  0.500000  1
  Br  Br7  1  0.148880  0.049815  0.230042  1
  Br  Br8  1  0.851120  0.950185  0.769958  1
  Br  Br9  1  0.250225  0.416437  0.046080  1
  Br  Br10  1  0.749775  0.583563  0.953920  1
  Br  Br11  1  0.715028  0.247067  0.151865  1
  Br  Br12  1  0.284972  0.752933  0.848135  1
  Br  Br13  1  0.043791  0.676177  0.415247  1
  Br  Br14  1  0.956209  0.323823  0.584753  1
  Br  Br15  1  0.414611  0.134288  0.676378  1
  Br  Br16  1  0.585389  0.865712  0.323622  1
