# generated using pymatgen
data_NaCr2InO8
_symmetry_space_group_name_H-M   'P 1'
_cell_length_a   5.23129140
_cell_length_b   5.23129299
_cell_length_c   7.25037920
_cell_angle_alpha   91.15498357
_cell_angle_beta   91.15498199
_cell_angle_gamma   66.51859947
_symmetry_Int_Tables_number   1
_chemical_formula_structural   NaCr2InO8
_chemical_formula_sum   'Na1 Cr2 In1 O8'
_cell_volume   181.93301749
_cell_formula_units_Z   1
loop_
 _symmetry_equiv_pos_site_id
 _symmetry_equiv_pos_as_xyz
  1  'x, y, z'
loop_
 _atom_site_type_symbol
 _atom_site_label
 _atom_site_symmetry_multiplicity
 _atom_site_fract_x
 _atom_site_fract_y
 _atom_site_fract_z
 _atom_site_occupancy
  Na  Na0  1  0.000000  0.000000  0.500000  1
  Cr  Cr1  1  0.369497  0.369497  0.228009  1
  Cr  Cr2  1  0.630502  0.630502  0.771991  1
  In  In3  1  0.000000  0.000000  0.000000  1
  O  O4  1  0.247240  0.247240  0.049158  1
  O  O5  1  0.723831  0.233934  0.219628  1
  O  O6  1  0.233934  0.723831  0.219628  1
  O  O7  1  0.279264  0.279264  0.419443  1
  O  O8  1  0.720734  0.720734  0.580556  1
  O  O9  1  0.766067  0.276169  0.780373  1
  O  O10  1  0.276169  0.766067  0.780373  1
  O  O11  1  0.752759  0.752759  0.950842  1
