# generated using pymatgen
data_Tm2PdPtO7
_symmetry_space_group_name_H-M   'P 1'
_cell_length_a   7.19484564
_cell_length_b   7.19478870
_cell_length_c   7.19478812
_cell_angle_alpha   59.97974322
_cell_angle_beta   59.99973613
_cell_angle_gamma   59.99974108
_symmetry_Int_Tables_number   1
_chemical_formula_structural   Tm2PdPtO7
_chemical_formula_sum   'Tm4 Pd2 Pt2 O14'
_cell_volume   263.31420596
_cell_formula_units_Z   2
loop_
 _symmetry_equiv_pos_site_id
 _symmetry_equiv_pos_as_xyz
  1  'x, y, z'
loop_
 _atom_site_type_symbol
 _atom_site_label
 _atom_site_symmetry_multiplicity
 _atom_site_fract_x
 _atom_site_fract_y
 _atom_site_fract_z
 _atom_site_occupancy
  Tm  Tm0  1  0.625000  0.625000  0.125000  1
  Tm  Tm1  1  0.625000  0.625000  0.625000  1
  Tm  Tm2  1  0.625000  0.125000  0.625000  1
  Tm  Tm3  1  0.125000  0.625000  0.625000  1
  Pd  Pd4  1  0.125000  0.125000  0.125000  1
  Pd  Pd5  1  0.625000  0.125000  0.125000  1
  Pt  Pt6  1  0.125000  0.625000  0.125000  1
  Pt  Pt7  1  0.125000  0.125000  0.625000  1
  O  O8  1  0.031107  0.468893  0.468893  1
  O  O9  1  0.782711  0.780572  0.218406  1
  O  O10  1  0.781958  0.218042  0.218042  1
  O  O11  1  0.467289  0.031594  0.469428  1
  O  O12  1  0.031690  0.031594  0.469428  1
  O  O13  1  0.031690  0.469428  0.031594  1
  O  O14  1  0.750084  0.749916  0.749916  1
  O  O15  1  0.499916  0.500084  0.500084  1
  O  O16  1  0.782711  0.218406  0.780572  1
  O  O17  1  0.218310  0.780572  0.218406  1
  O  O18  1  0.218310  0.218406  0.780572  1
  O  O19  1  0.468042  0.031958  0.031958  1
  O  O20  1  0.467289  0.469428  0.031594  1
  O  O21  1  0.218893  0.781107  0.781107  1
