# generated using pymatgen
data_TbHo5TcIr
_symmetry_space_group_name_H-M   'P 1'
_cell_length_a   6.32973900
_cell_length_b   7.30153200
_cell_length_c   9.15388300
_cell_angle_alpha   90.00000000
_cell_angle_beta   90.00000000
_cell_angle_gamma   90.00000000
_symmetry_Int_Tables_number   1
_chemical_formula_structural   TbHo5TcIr
_chemical_formula_sum   'Tb2 Ho10 Tc2 Ir2'
_cell_volume   423.06310532
_cell_formula_units_Z   2
loop_
 _symmetry_equiv_pos_site_id
 _symmetry_equiv_pos_as_xyz
  1  'x, y, z'
loop_
 _atom_site_type_symbol
 _atom_site_label
 _atom_site_symmetry_multiplicity
 _atom_site_fract_x
 _atom_site_fract_y
 _atom_site_fract_z
 _atom_site_occupancy
  Tb  Tb0  1  0.874266  0.537686  0.250000  1
  Tb  Tb1  1  0.625734  0.037686  0.250000  1
  Ho  Ho2  1  0.329178  0.676754  0.065059  1
  Ho  Ho3  1  0.170822  0.176754  0.434941  1
  Ho  Ho4  1  0.668691  0.323907  0.561818  1
  Ho  Ho5  1  0.831309  0.823907  0.938182  1
  Ho  Ho6  1  0.668691  0.323907  0.938182  1
  Ho  Ho7  1  0.831309  0.823907  0.561818  1
  Ho  Ho8  1  0.329178  0.676754  0.434941  1
  Ho  Ho9  1  0.170822  0.176754  0.065059  1
  Ho  Ho10  1  0.132713  0.459800  0.750000  1
  Ho  Ho11  1  0.367287  0.959800  0.750000  1
  Tc  Tc12  1  0.035852  0.886400  0.250000  1
  Tc  Tc13  1  0.464148  0.386400  0.250000  1
  Ir  Ir14  1  0.955861  0.114789  0.750000  1
  Ir  Ir15  1  0.544139  0.614789  0.750000  1
