# generated using pymatgen
data_Tm5Hf3(Co4P3)4
_symmetry_space_group_name_H-M   'P 1'
_cell_length_a   12.24135000
_cell_length_b   12.24134820
_cell_length_c   3.68748200
_cell_angle_alpha   90.00000000
_cell_angle_beta   90.00000000
_cell_angle_gamma   120.00000486
_symmetry_Int_Tables_number   1
_chemical_formula_structural   Tm5Hf3(Co4P3)4
_chemical_formula_sum   'Tm5 Hf3 Co16 P12'
_cell_volume   478.54092668
_cell_formula_units_Z   1
loop_
 _symmetry_equiv_pos_site_id
 _symmetry_equiv_pos_as_xyz
  1  'x, y, z'
loop_
 _atom_site_type_symbol
 _atom_site_label
 _atom_site_symmetry_multiplicity
 _atom_site_fract_x
 _atom_site_fract_y
 _atom_site_fract_z
 _atom_site_occupancy
  Tm  Tm0  1  0.666667  0.333333  0.000000  1
  Tm  Tm1  1  0.333333  0.666667  0.000000  1
  Tm  Tm2  1  0.817577  0.817577  0.500000  1
  Tm  Tm3  1  0.182423  0.000000  0.500000  1
  Tm  Tm4  1  0.000000  0.182423  0.500000  1
  Hf  Hf5  1  0.441368  0.441368  0.000000  1
  Hf  Hf6  1  0.558632  0.000000  0.000000  1
  Hf  Hf7  1  0.000000  0.558632  0.000000  1
  Co  Co8  1  0.875001  0.355945  0.500000  1
  Co  Co9  1  0.644055  0.519056  0.500000  1
  Co  Co10  1  0.480944  0.124999  0.500000  1
  Co  Co11  1  0.355945  0.875001  0.500000  1
  Co  Co12  1  0.519056  0.644055  0.500000  1
  Co  Co13  1  0.124999  0.480944  0.500000  1
  Co  Co14  1  0.805078  0.178362  0.000000  1
  Co  Co15  1  0.821638  0.626715  0.000000  1
  Co  Co16  1  0.373285  0.194922  0.000000  1
  Co  Co17  1  0.178362  0.805078  0.000000  1
  Co  Co18  1  0.626715  0.821638  0.000000  1
  Co  Co19  1  0.194922  0.373285  0.000000  1
  Co  Co20  1  0.277904  0.277904  0.500000  1
  Co  Co21  1  0.722096  0.000000  0.500000  1
  Co  Co22  1  0.000000  0.722096  0.500000  1
  Co  Co23  1  0.000000  0.000000  0.000000  1
  P  P24  1  0.692023  0.172254  0.500000  1
  P  P25  1  0.827746  0.519769  0.500000  1
  P  P26  1  0.480231  0.307977  0.500000  1
  P  P27  1  0.172254  0.692023  0.500000  1
  P  P28  1  0.519769  0.827746  0.500000  1
  P  P29  1  0.307977  0.480231  0.500000  1
  P  P30  1  0.177044  0.177044  0.000000  1
  P  P31  1  0.822956  0.000000  0.000000  1
  P  P32  1  0.000000  0.822956  0.000000  1
  P  P33  1  0.649235  0.649235  0.000000  1
  P  P34  1  0.350765  0.000000  0.000000  1
  P  P35  1  0.000000  0.350765  0.000000  1
