# generated using pymatgen
data_PrTh(AlIr)2
_symmetry_space_group_name_H-M   'P 1'
_cell_length_a   4.37328800
_cell_length_b   7.02539992
_cell_length_c   8.15024800
_cell_angle_alpha   90.38185544
_cell_angle_beta   90.00000000
_cell_angle_gamma   90.00000000
_symmetry_Int_Tables_number   1
_chemical_formula_structural   PrTh(AlIr)2
_chemical_formula_sum   'Pr2 Th2 Al4 Ir4'
_cell_volume   250.40345007
_cell_formula_units_Z   2
loop_
 _symmetry_equiv_pos_site_id
 _symmetry_equiv_pos_as_xyz
  1  'x, y, z'
loop_
 _atom_site_type_symbol
 _atom_site_label
 _atom_site_symmetry_multiplicity
 _atom_site_fract_x
 _atom_site_fract_y
 _atom_site_fract_z
 _atom_site_occupancy
  Pr  Pr0  1  0.750000  0.962348  0.680330  1
  Pr  Pr1  1  0.250000  0.037652  0.319670  1
  Th  Th2  1  0.250000  0.537022  0.183090  1
  Th  Th3  1  0.750000  0.462978  0.816910  1
  Al  Al4  1  0.250000  0.636319  0.560852  1
  Al  Al5  1  0.750000  0.363681  0.439148  1
  Al  Al6  1  0.750000  0.870051  0.061314  1
  Al  Al7  1  0.250000  0.129949  0.938686  1
  Ir  Ir8  1  0.250000  0.756821  0.887129  1
  Ir  Ir9  1  0.750000  0.243179  0.112871  1
  Ir  Ir10  1  0.750000  0.725268  0.375077  1
  Ir  Ir11  1  0.250000  0.274732  0.624923  1
