# generated using pymatgen
data_Ti3V9Si9P
_symmetry_space_group_name_H-M   'P 1'
_cell_length_a   4.88603174
_cell_length_b   7.54194838
_cell_length_c   9.18628948
_cell_angle_alpha   65.59459896
_cell_angle_beta   74.57710245
_cell_angle_gamma   90.00000462
_symmetry_Int_Tables_number   1
_chemical_formula_structural   Ti3V9Si9P
_chemical_formula_sum   'Ti3 V9 Si9 P1'
_cell_volume   294.83006921
_cell_formula_units_Z   1
loop_
 _symmetry_equiv_pos_site_id
 _symmetry_equiv_pos_as_xyz
  1  'x, y, z'
loop_
 _atom_site_type_symbol
 _atom_site_label
 _atom_site_symmetry_multiplicity
 _atom_site_fract_x
 _atom_site_fract_y
 _atom_site_fract_z
 _atom_site_occupancy
  Ti  Ti0  1  0.857751  0.743029  0.284499  1
  Ti  Ti1  1  0.642204  0.029343  0.715593  1
  Ti  Ti2  1  0.357962  0.972274  0.284075  1
  V  V3  1  0.437358  0.687032  0.624769  1
  V  V4  1  0.058669  0.310538  0.379235  1
  V  V5  1  0.562095  0.310538  0.379235  1
  V  V6  1  0.937873  0.687032  0.624769  1
  V  V7  1  0.435118  0.681094  0.129764  1
  V  V8  1  0.564615  0.319769  0.870772  1
  V  V9  1  0.939306  0.194517  0.121389  1
  V  V10  1  0.064378  0.805521  0.871243  1
  V  V11  1  0.141958  0.259252  0.716083  1
  Si  Si12  1  0.936187  0.523234  0.127626  1
  Si  Si13  1  0.562486  0.651795  0.875026  1
  Si  Si14  1  0.435723  0.349615  0.128555  1
  Si  Si15  1  0.751948  0.000298  0.997629  1
  Si  Si16  1  0.250423  0.000298  0.997629  1
  Si  Si17  1  0.285057  0.580117  0.429887  1
  Si  Si18  1  0.713510  0.417502  0.572980  1
  Si  Si19  1  0.787265  0.990126  0.425471  1
  Si  Si20  1  0.212431  0.012316  0.575139  1
  P  P21  1  0.065684  0.474761  0.868632  1
