# generated using pymatgen
data_Hf6Si2Ge3POs6
_symmetry_space_group_name_H-M   'P 1'
_cell_length_a   7.64308045
_cell_length_b   7.65030571
_cell_length_c   7.63696998
_cell_angle_alpha   127.97606834
_cell_angle_beta   121.59091079
_cell_angle_gamma   82.08185883
_symmetry_Int_Tables_number   1
_chemical_formula_structural   Hf6Si2Ge3POs6
_chemical_formula_sum   'Hf6 Si2 Ge3 P1 Os6'
_cell_volume   288.28472510
_cell_formula_units_Z   1
loop_
 _symmetry_equiv_pos_site_id
 _symmetry_equiv_pos_as_xyz
  1  'x, y, z'
loop_
 _atom_site_type_symbol
 _atom_site_label
 _atom_site_symmetry_multiplicity
 _atom_site_fract_x
 _atom_site_fract_y
 _atom_site_fract_z
 _atom_site_occupancy
  Hf  Hf0  1  0.549062  0.098481  0.046291  1
  Hf  Hf1  1  0.443980  0.486994  0.539481  1
  Hf  Hf2  1  0.975330  0.486888  0.024344  1
  Hf  Hf3  1  0.037494  0.055213  0.535746  1
  Hf  Hf4  1  0.760226  0.918398  0.669599  1
  Hf  Hf5  1  0.247753  0.917103  0.163497  1
  Si  Si6  1  0.772893  0.534242  0.254198  1
  Si  Si7  1  0.221731  0.477626  0.749711  1
  Ge  Ge8  1  0.343100  0.828843  0.501720  1
  Ge  Ge9  1  0.665187  0.163233  0.493527  1
  Ge  Ge10  1  0.828284  0.827600  0.994539  1
  P  P11  1  0.175538  0.162937  0.005104  1
  Os  Os12  1  0.147269  0.749893  0.650519  1
  Os  Os13  1  0.851008  0.497353  0.588557  1
  Os  Os14  1  0.588754  0.739283  0.089582  1
  Os  Os15  1  0.396372  0.486724  0.137257  1
  Os  Os16  1  0.498690  0.254490  0.755045  1
  Os  Os17  1  0.997326  0.258702  0.245283  1
