# generated using pymatgen
data_TbY3In(FeB3)2
_symmetry_space_group_name_H-M   'P 1'
_cell_length_a   5.37215194
_cell_length_b   5.37215104
_cell_length_c   8.22656855
_cell_angle_alpha   70.94276181
_cell_angle_beta   70.94276684
_cell_angle_gamma   59.99999084
_symmetry_Int_Tables_number   1
_chemical_formula_structural   TbY3In(FeB3)2
_chemical_formula_sum   'Tb1 Y3 In1 Fe2 B6'
_cell_volume   190.43737893
_cell_formula_units_Z   1
loop_
 _symmetry_equiv_pos_site_id
 _symmetry_equiv_pos_as_xyz
  1  'x, y, z'
loop_
 _atom_site_type_symbol
 _atom_site_label
 _atom_site_symmetry_multiplicity
 _atom_site_fract_x
 _atom_site_fract_y
 _atom_site_fract_z
 _atom_site_occupancy
  Tb  Tb0  1  0.748562  0.748562  0.754313  1
  Y  Y1  1  0.251184  0.251184  0.246447  1
  Y  Y2  1  0.584437  0.584437  0.246690  1
  Y  Y3  1  0.415598  0.415598  0.753204  1
  In  In4  1  0.999996  0.999996  0.000013  1
  Fe  Fe5  1  0.883299  0.883299  0.350102  1
  Fe  Fe6  1  0.116759  0.116759  0.649722  1
  B  B7  1  0.499902  0.168039  0.499918  1
  B  B8  1  0.832140  0.499902  0.499918  1
  B  B9  1  0.168039  0.832140  0.499918  1
  B  B10  1  0.168039  0.499902  0.499918  1
  B  B11  1  0.832140  0.168039  0.499918  1
  B  B12  1  0.499902  0.832140  0.499918  1
