# generated using pymatgen
data_TbS23
_symmetry_space_group_name_H-M   'P 1'
_cell_length_a   5.73225209
_cell_length_b   9.69328277
_cell_length_c   14.74140852
_cell_angle_alpha   97.85669233
_cell_angle_beta   84.99238268
_cell_angle_gamma   95.28655249
_symmetry_Int_Tables_number   1
_chemical_formula_structural   TbS23
_chemical_formula_sum   'Tb1 S23'
_cell_volume   805.63664121
_cell_formula_units_Z   1
loop_
 _symmetry_equiv_pos_site_id
 _symmetry_equiv_pos_as_xyz
  1  'x, y, z'
loop_
 _atom_site_type_symbol
 _atom_site_label
 _atom_site_symmetry_multiplicity
 _atom_site_fract_x
 _atom_site_fract_y
 _atom_site_fract_z
 _atom_site_occupancy
  Tb  Tb0  1  0.459443  0.215009  0.335906  1
  S  S1  1  0.516719  0.784602  0.391910  1
  S  S2  1  0.918118  0.332183  0.144297  1
  S  S3  1  0.757162  0.211317  0.462420  1
  S  S4  1  0.339007  0.755997  0.517644  1
  S  S5  1  0.131384  0.288124  0.025560  1
  S  S6  1  0.864868  0.751011  0.030257  1
  S  S7  1  0.159572  0.409763  0.365990  1
  S  S8  1  0.672198  0.604971  0.342240  1
  S  S9  1  0.782055  0.147623  0.186437  1
  S  S10  1  0.301995  0.902374  0.157102  1
  S  S11  1  0.737934  0.611462  0.616729  1
  S  S12  1  0.298374  0.371340  0.590357  1
  S  S13  1  0.190263  0.886903  0.859401  1
  S  S14  1  0.764035  0.107399  0.878546  1
  S  S15  1  0.107741  0.716009  0.118918  1
  S  S16  1  0.573309  0.793136  0.618453  1
  S  S17  1  0.433066  0.178536  0.531174  1
  S  S18  1  0.011752  0.706334  0.897653  1
  S  S19  1  0.942838  0.299154  0.913405  1
  S  S20  1  0.414024  0.472113  0.269796  1
  S  S21  1  0.131460  0.998127  0.273287  1
  S  S22  1  0.515352  0.471454  0.685644  1
  S  S23  1  0.977332  0.985057  0.786876  1
