# generated using pymatgen
data_Pr19Y(Ga2Sn)4
_symmetry_space_group_name_H-M   'P 1'
_cell_length_a   8.10132000
_cell_length_b   8.10132000
_cell_length_c   14.73596800
_cell_angle_alpha   90.00000000
_cell_angle_beta   90.00000000
_cell_angle_gamma   90.00000000
_symmetry_Int_Tables_number   1
_chemical_formula_structural   Pr19Y(Ga2Sn)4
_chemical_formula_sum   'Pr19 Y1 Ga8 Sn4'
_cell_volume   967.14200010
_cell_formula_units_Z   1
loop_
 _symmetry_equiv_pos_site_id
 _symmetry_equiv_pos_as_xyz
  1  'x, y, z'
loop_
 _atom_site_type_symbol
 _atom_site_label
 _atom_site_symmetry_multiplicity
 _atom_site_fract_x
 _atom_site_fract_y
 _atom_site_fract_z
 _atom_site_occupancy
  Pr  Pr0  1  0.824066  0.838840  0.606811  1
  Pr  Pr1  1  0.177970  0.839445  0.106520  1
  Pr  Pr2  1  0.159749  0.821509  0.393343  1
  Pr  Pr3  1  0.840251  0.178491  0.393343  1
  Pr  Pr4  1  0.678491  0.659749  0.393343  1
  Pr  Pr5  1  0.661160  0.324066  0.606811  1
  Pr  Pr6  1  0.338840  0.675934  0.606811  1
  Pr  Pr7  1  0.000000  0.500000  0.222809  1
  Pr  Pr8  1  0.660555  0.677970  0.106520  1
  Pr  Pr9  1  0.675196  0.339059  0.892733  1
  Pr  Pr10  1  0.839059  0.824804  0.892733  1
  Pr  Pr11  1  0.321509  0.340251  0.393343  1
  Pr  Pr12  1  0.175934  0.161160  0.606811  1
  Pr  Pr13  1  0.822030  0.160555  0.106520  1
  Pr  Pr14  1  0.324804  0.660941  0.892733  1
  Pr  Pr15  1  0.339445  0.322030  0.106520  1
  Pr  Pr16  1  0.500000  0.000000  0.274547  1
  Pr  Pr17  1  0.160941  0.175196  0.892733  1
  Pr  Pr18  1  0.500000  0.000000  0.773669  1
  Y  Y19  1  0.000000  0.500000  0.734150  1
  Ga  Ga20  1  0.622131  0.377891  0.250211  1
  Ga  Ga21  1  0.120838  0.871826  0.748515  1
  Ga  Ga22  1  0.371826  0.379162  0.748515  1
  Ga  Ga23  1  0.377869  0.622109  0.250211  1
  Ga  Ga24  1  0.877891  0.877869  0.250211  1
  Ga  Ga25  1  0.628174  0.620838  0.748515  1
  Ga  Ga26  1  0.879162  0.128174  0.748515  1
  Ga  Ga27  1  0.122109  0.122131  0.250211  1
  Sn  Sn28  1  0.000000  0.500000  0.509419  1
  Sn  Sn29  1  0.500000  0.000000  0.496563  1
  Sn  Sn30  1  0.500000  0.000000  0.996382  1
  Sn  Sn31  1  0.000000  0.500000  0.999927  1
