# generated using pymatgen
data_TiTc(Ir2Rh)2
_symmetry_space_group_name_H-M   'P 1'
_cell_length_a   5.50234178
_cell_length_b   5.50234229
_cell_length_c   4.41062300
_cell_angle_alpha   90.00000000
_cell_angle_beta   90.00000000
_cell_angle_gamma   120.13431563
_symmetry_Int_Tables_number   1
_chemical_formula_structural   TiTc(Ir2Rh)2
_chemical_formula_sum   'Ti1 Tc1 Ir4 Rh2'
_cell_volume   115.48786335
_cell_formula_units_Z   1
loop_
 _symmetry_equiv_pos_site_id
 _symmetry_equiv_pos_as_xyz
  1  'x, y, z'
loop_
 _atom_site_type_symbol
 _atom_site_label
 _atom_site_symmetry_multiplicity
 _atom_site_fract_x
 _atom_site_fract_y
 _atom_site_fract_z
 _atom_site_occupancy
  Ti  Ti0  1  0.333123  0.666877  0.750000  1
  Tc  Tc1  1  0.666997  0.333003  0.250000  1
  Ir  Ir2  1  0.164655  0.835345  0.250000  1
  Ir  Ir3  1  0.832056  0.663633  0.750000  1
  Ir  Ir4  1  0.336367  0.167944  0.750000  1
  Ir  Ir5  1  0.831875  0.168125  0.750000  1
  Rh  Rh6  1  0.165124  0.330198  0.250000  1
  Rh  Rh7  1  0.669802  0.834876  0.250000  1
