# generated using pymatgen
data_Yb2YAl9Si3Os4
_symmetry_space_group_name_H-M   'P 1'
_cell_length_a   8.68596638
_cell_length_b   8.66138740
_cell_length_c   9.61822800
_cell_angle_alpha   90.00000000
_cell_angle_beta   90.00000000
_cell_angle_gamma   120.17872900
_symmetry_Int_Tables_number   1
_chemical_formula_structural   Yb2YAl9Si3Os4
_chemical_formula_sum   'Yb4 Y2 Al18 Si6 Os8'
_cell_volume   625.52738289
_cell_formula_units_Z   2
loop_
 _symmetry_equiv_pos_site_id
 _symmetry_equiv_pos_as_xyz
  1  'x, y, z'
loop_
 _atom_site_type_symbol
 _atom_site_label
 _atom_site_symmetry_multiplicity
 _atom_site_fract_x
 _atom_site_fract_y
 _atom_site_fract_z
 _atom_site_occupancy
  Yb  Yb0  1  0.194574  0.388168  0.250000  1
  Yb  Yb1  1  0.805426  0.611832  0.750000  1
  Yb  Yb2  1  0.608447  0.806625  0.250000  1
  Yb  Yb3  1  0.391553  0.193375  0.750000  1
  Y  Y4  1  0.198280  0.808844  0.250000  1
  Y  Y5  1  0.801720  0.191156  0.750000  1
  Al  Al6  1  0.165862  0.331636  0.576549  1
  Al  Al7  1  0.834138  0.668364  0.423451  1
  Al  Al8  1  0.668545  0.833482  0.575324  1
  Al  Al9  1  0.834138  0.668364  0.076549  1
  Al  Al10  1  0.331455  0.166518  0.424676  1
  Al  Al11  1  0.165862  0.331636  0.923451  1
  Al  Al12  1  0.165390  0.833839  0.576325  1
  Al  Al13  1  0.331455  0.166518  0.075324  1
  Al  Al14  1  0.834610  0.166161  0.423675  1
  Al  Al15  1  0.668545  0.833482  0.924676  1
  Al  Al16  1  0.834610  0.166161  0.076325  1
  Al  Al17  1  0.165390  0.833839  0.923675  1
  Al  Al18  1  0.872117  0.431783  0.250000  1
  Al  Al19  1  0.127883  0.568217  0.750000  1
  Al  Al20  1  0.559351  0.432681  0.250000  1
  Al  Al21  1  0.440649  0.567319  0.750000  1
  Al  Al22  1  0.998845  0.999296  0.250000  1
  Al  Al23  1  0.001155  0.000704  0.750000  1
  Si  Si24  1  0.331944  0.663956  0.036519  1
  Si  Si25  1  0.668056  0.336044  0.963481  1
  Si  Si26  1  0.668056  0.336044  0.536519  1
  Si  Si27  1  0.331944  0.663956  0.463481  1
  Si  Si28  1  0.564442  0.127759  0.250000  1
  Si  Si29  1  0.435558  0.872241  0.750000  1
  Os  Os30  1  0.500000  0.000000  0.000000  1
  Os  Os31  1  0.000000  0.500000  0.000000  1
  Os  Os32  1  0.500000  0.000000  0.500000  1
  Os  Os33  1  0.500000  0.500000  0.000000  1
  Os  Os34  1  0.000000  0.500000  0.500000  1
  Os  Os35  1  0.500000  0.500000  0.500000  1
  Os  Os36  1  0.000000  0.000000  0.000000  1
  Os  Os37  1  0.000000  0.000000  0.500000  1
