# generated using pymatgen
data_Sc16Si16Tc3Mo
_symmetry_space_group_name_H-M   'P 1'
_cell_length_a   6.70212348
_cell_length_b   7.02186034
_cell_length_c   13.27628600
_cell_angle_alpha   90.00000000
_cell_angle_beta   90.00000000
_cell_angle_gamma   89.88381711
_symmetry_Int_Tables_number   1
_chemical_formula_structural   Sc16Si16Tc3Mo
_chemical_formula_sum   'Sc16 Si16 Tc3 Mo1'
_cell_volume   624.79899065
_cell_formula_units_Z   1
loop_
 _symmetry_equiv_pos_site_id
 _symmetry_equiv_pos_as_xyz
  1  'x, y, z'
loop_
 _atom_site_type_symbol
 _atom_site_label
 _atom_site_symmetry_multiplicity
 _atom_site_fract_x
 _atom_site_fract_y
 _atom_site_fract_z
 _atom_site_occupancy
  Sc  Sc0  1  0.991559  0.678848  0.594218  1
  Sc  Sc1  1  0.007748  0.320041  0.405342  1
  Sc  Sc2  1  0.507411  0.181957  0.406048  1
  Sc  Sc3  1  0.007748  0.320041  0.094658  1
  Sc  Sc4  1  0.490087  0.819119  0.594308  1
  Sc  Sc5  1  0.991559  0.678848  0.905782  1
  Sc  Sc6  1  0.490087  0.819119  0.905692  1
  Sc  Sc7  1  0.507411  0.181957  0.093952  1
  Sc  Sc8  1  0.327075  0.328123  0.626298  1
  Sc  Sc9  1  0.675684  0.671230  0.373820  1
  Sc  Sc10  1  0.177092  0.832604  0.372606  1
  Sc  Sc11  1  0.675684  0.671230  0.126180  1
  Sc  Sc12  1  0.821986  0.169472  0.626467  1
  Sc  Sc13  1  0.327075  0.328123  0.873702  1
  Sc  Sc14  1  0.821986  0.169472  0.873533  1
  Sc  Sc15  1  0.177092  0.832604  0.127394  1
  Si  Si16  1  0.016258  0.403799  0.750000  1
  Si  Si17  1  0.985846  0.593197  0.250000  1
  Si  Si18  1  0.487780  0.909721  0.250000  1
  Si  Si19  1  0.515638  0.090922  0.750000  1
  Si  Si20  1  0.286002  0.644766  0.750000  1
  Si  Si21  1  0.714902  0.352304  0.250000  1
  Si  Si22  1  0.215841  0.151035  0.250000  1
  Si  Si23  1  0.783899  0.849255  0.750000  1
  Si  Si24  1  0.160113  0.027151  0.545361  1
  Si  Si25  1  0.839305  0.973058  0.454011  1
  Si  Si26  1  0.336000  0.529989  0.454890  1
  Si  Si27  1  0.839305  0.973058  0.045989  1
  Si  Si28  1  0.662640  0.471321  0.545183  1
  Si  Si29  1  0.160113  0.027151  0.954639  1
  Si  Si30  1  0.662640  0.471321  0.954817  1
  Si  Si31  1  0.336000  0.529989  0.045110  1
  Tc  Tc32  1  0.851103  0.003428  0.250000  1
  Tc  Tc33  1  0.350574  0.500667  0.250000  1
  Tc  Tc34  1  0.649581  0.499797  0.750000  1
  Mo  Mo35  1  0.149181  0.995280  0.750000  1
