# generated using pymatgen
data_GeMo6Rh3N2
_symmetry_space_group_name_H-M   'P 1'
_cell_length_a   6.84764200
_cell_length_b   6.84050647
_cell_length_c   6.84085971
_cell_angle_alpha   89.33938297
_cell_angle_beta   90.00000000
_cell_angle_gamma   90.00000000
_symmetry_Int_Tables_number   1
_chemical_formula_structural   GeMo6Rh3N2
_chemical_formula_sum   'Ge2 Mo12 Rh6 N4'
_cell_volume   320.41373256
_cell_formula_units_Z   2
loop_
 _symmetry_equiv_pos_site_id
 _symmetry_equiv_pos_as_xyz
  1  'x, y, z'
loop_
 _atom_site_type_symbol
 _atom_site_label
 _atom_site_symmetry_multiplicity
 _atom_site_fract_x
 _atom_site_fract_y
 _atom_site_fract_z
 _atom_site_occupancy
  Ge  Ge0  1  0.684855  0.176914  0.934725  1
  Ge  Ge1  1  0.184855  0.823086  0.065275  1
  Mo  Mo2  1  0.620822  0.045159  0.544485  1
  Mo  Mo3  1  0.120822  0.954841  0.455515  1
  Mo  Mo4  1  0.867484  0.538606  0.944028  1
  Mo  Mo5  1  0.367484  0.461394  0.055972  1
  Mo  Mo6  1  0.201502  0.622907  0.696645  1
  Mo  Mo7  1  0.300283  0.125786  0.785247  1
  Mo  Mo8  1  0.800283  0.874214  0.214753  1
  Mo  Mo9  1  0.701502  0.377093  0.303355  1
  Mo  Mo10  1  0.048633  0.210112  0.131316  1
  Mo  Mo11  1  0.962012  0.305992  0.620907  1
  Mo  Mo12  1  0.548633  0.789888  0.868684  1
  Mo  Mo13  1  0.462012  0.694008  0.379093  1
  Rh  Rh14  1  0.811876  0.687910  0.567017  1
  Rh  Rh15  1  0.311876  0.312090  0.432983  1
  Rh  Rh16  1  0.061577  0.571301  0.300633  1
  Rh  Rh17  1  0.436297  0.061449  0.173582  1
  Rh  Rh18  1  0.561577  0.428699  0.699367  1
  Rh  Rh19  1  0.936297  0.938551  0.826418  1
  N  N20  1  0.375747  0.872449  0.619715  1
  N  N21  1  0.875747  0.127551  0.380285  1
  N  N22  1  0.128913  0.375542  0.874711  1
  N  N23  1  0.628913  0.624458  0.125289  1
