# generated using pymatgen
data_Nd2Al4Ir3Pt
_symmetry_space_group_name_H-M   'P 1'
_cell_length_a   4.30729800
_cell_length_b   4.30729800
_cell_length_c   10.17765400
_cell_angle_alpha   90.00000000
_cell_angle_beta   90.00000000
_cell_angle_gamma   90.00000000
_symmetry_Int_Tables_number   1
_chemical_formula_structural   Nd2Al4Ir3Pt
_chemical_formula_sum   'Nd2 Al4 Ir3 Pt1'
_cell_volume   188.82414259
_cell_formula_units_Z   1
loop_
 _symmetry_equiv_pos_site_id
 _symmetry_equiv_pos_as_xyz
  1  'x, y, z'
loop_
 _atom_site_type_symbol
 _atom_site_label
 _atom_site_symmetry_multiplicity
 _atom_site_fract_x
 _atom_site_fract_y
 _atom_site_fract_z
 _atom_site_occupancy
  Nd  Nd0  1  0.000000  0.500000  0.241445  1
  Nd  Nd1  1  0.500000  0.000000  0.761577  1
  Al  Al2  1  0.000000  0.000000  0.497906  1
  Al  Al3  1  0.500000  0.500000  0.497906  1
  Al  Al4  1  0.000000  0.500000  0.879448  1
  Al  Al5  1  0.500000  0.000000  0.121943  1
  Ir  Ir6  1  0.000000  0.000000  0.999313  1
  Ir  Ir7  1  0.500000  0.500000  0.999313  1
  Ir  Ir8  1  0.500000  0.000000  0.367864  1
  Pt  Pt9  1  0.000000  0.500000  0.633285  1
