# generated using pymatgen
data_Ho2LuAl9Si3Ru4
_symmetry_space_group_name_H-M   'P 1'
_cell_length_a   8.66015500
_cell_length_b   8.64380755
_cell_length_c   9.51451700
_cell_angle_alpha   90.00000000
_cell_angle_beta   90.00000000
_cell_angle_gamma   120.06259270
_symmetry_Int_Tables_number   1
_chemical_formula_structural   Ho2LuAl9Si3Ru4
_chemical_formula_sum   'Ho4 Lu2 Al18 Si6 Ru8'
_cell_volume   616.41594744
_cell_formula_units_Z   2
loop_
 _symmetry_equiv_pos_site_id
 _symmetry_equiv_pos_as_xyz
  1  'x, y, z'
loop_
 _atom_site_type_symbol
 _atom_site_label
 _atom_site_symmetry_multiplicity
 _atom_site_fract_x
 _atom_site_fract_y
 _atom_site_fract_z
 _atom_site_occupancy
  Ho  Ho0  1  0.610681  0.808099  0.250000  1
  Ho  Ho1  1  0.389319  0.191901  0.750000  1
  Ho  Ho2  1  0.197417  0.808099  0.250000  1
  Ho  Ho3  1  0.802583  0.191901  0.750000  1
  Lu  Lu4  1  0.194239  0.388478  0.250000  1
  Lu  Lu5  1  0.805761  0.611522  0.750000  1
  Al  Al6  1  0.164749  0.329499  0.579817  1
  Al  Al7  1  0.835251  0.670501  0.420183  1
  Al  Al8  1  0.670741  0.834606  0.578670  1
  Al  Al9  1  0.835251  0.670501  0.079817  1
  Al  Al10  1  0.329259  0.165394  0.421330  1
  Al  Al11  1  0.164749  0.329499  0.920183  1
  Al  Al12  1  0.163864  0.834606  0.578670  1
  Al  Al13  1  0.329259  0.165394  0.078670  1
  Al  Al14  1  0.836136  0.165394  0.421330  1
  Al  Al15  1  0.670741  0.834606  0.921330  1
  Al  Al16  1  0.836136  0.165394  0.078670  1
  Al  Al17  1  0.163864  0.834606  0.921330  1
  Al  Al18  1  0.874250  0.433725  0.250000  1
  Al  Al19  1  0.125750  0.566275  0.750000  1
  Al  Al20  1  0.559475  0.433725  0.250000  1
  Al  Al21  1  0.440525  0.566275  0.750000  1
  Al  Al22  1  0.000040  0.000081  0.250000  1
  Al  Al23  1  0.999960  0.999919  0.750000  1
  Si  Si24  1  0.331545  0.663090  0.040094  1
  Si  Si25  1  0.668455  0.336910  0.959906  1
  Si  Si26  1  0.668455  0.336910  0.540094  1
  Si  Si27  1  0.331545  0.663090  0.459906  1
  Si  Si28  1  0.563099  0.126199  0.250000  1
  Si  Si29  1  0.436901  0.873801  0.750000  1
  Ru  Ru30  1  0.500000  0.000000  0.000000  1
  Ru  Ru31  1  0.000000  0.500000  0.000000  1
  Ru  Ru32  1  0.500000  0.000000  0.500000  1
  Ru  Ru33  1  0.500000  0.500000  0.000000  1
  Ru  Ru34  1  0.000000  0.500000  0.500000  1
  Ru  Ru35  1  0.500000  0.500000  0.500000  1
  Ru  Ru36  1  0.000000  0.000000  0.000000  1
  Ru  Ru37  1  0.000000  0.000000  0.500000  1
