# generated using pymatgen
data_TlIr4Pb2AuO14
_symmetry_space_group_name_H-M   'P 1'
_cell_length_a   7.29295504
_cell_length_b   7.39753803
_cell_length_c   7.35439905
_cell_angle_alpha   59.80577515
_cell_angle_beta   59.43359711
_cell_angle_gamma   59.52447225
_symmetry_Int_Tables_number   1
_chemical_formula_structural   TlIr4Pb2AuO14
_chemical_formula_sum   'Tl1 Ir4 Pb2 Au1 O14'
_cell_volume   277.92396387
_cell_formula_units_Z   1
loop_
 _symmetry_equiv_pos_site_id
 _symmetry_equiv_pos_as_xyz
  1  'x, y, z'
loop_
 _atom_site_type_symbol
 _atom_site_label
 _atom_site_symmetry_multiplicity
 _atom_site_fract_x
 _atom_site_fract_y
 _atom_site_fract_z
 _atom_site_occupancy
  Tl  Tl0  1  0.125000  0.125000  0.625000  1
  Ir  Ir1  1  0.125000  0.625000  0.625000  1
  Ir  Ir2  1  0.625000  0.125000  0.625000  1
  Ir  Ir3  1  0.625000  0.625000  0.125000  1
  Ir  Ir4  1  0.625000  0.625000  0.625000  1
  Pb  Pb5  1  0.125000  0.625000  0.125000  1
  Pb  Pb6  1  0.125000  0.125000  0.125000  1
  Au  Au7  1  0.625000  0.125000  0.125000  1
  O  O8  1  0.704359  0.689684  0.302371  1
  O  O9  1  0.293853  0.297524  0.705301  1
  O  O10  1  0.702347  0.303373  0.690909  1
  O  O11  1  0.293968  0.704776  0.296481  1
  O  O12  1  0.293853  0.703322  0.705301  1
  O  O13  1  0.704359  0.303587  0.302371  1
  O  O14  1  0.545641  0.560316  0.947629  1
  O  O15  1  0.956147  0.952476  0.544699  1
  O  O16  1  0.547653  0.946627  0.559091  1
  O  O17  1  0.956032  0.545224  0.953519  1
  O  O18  1  0.956147  0.546678  0.544699  1
  O  O19  1  0.545641  0.946413  0.947629  1
  O  O20  1  0.283808  0.237993  0.240207  1
  O  O21  1  0.966192  0.012007  0.009793  1
