# generated using pymatgen
data_Pr4Ag3Au
_symmetry_space_group_name_H-M   'P 1'
_cell_length_a   4.91034100
_cell_length_b   5.95787901
_cell_length_c   7.60087602
_cell_angle_alpha   89.99237308
_cell_angle_beta   90.00000000
_cell_angle_gamma   90.00000000
_symmetry_Int_Tables_number   1
_chemical_formula_structural   Pr4Ag3Au
_chemical_formula_sum   'Pr4 Ag3 Au1'
_cell_volume   222.36527979
_cell_formula_units_Z   1
loop_
 _symmetry_equiv_pos_site_id
 _symmetry_equiv_pos_as_xyz
  1  'x, y, z'
loop_
 _atom_site_type_symbol
 _atom_site_label
 _atom_site_symmetry_multiplicity
 _atom_site_fract_x
 _atom_site_fract_y
 _atom_site_fract_z
 _atom_site_occupancy
  Pr  Pr0  1  0.250000  0.352181  0.689107  1
  Pr  Pr1  1  0.250000  0.149662  0.178205  1
  Pr  Pr2  1  0.750000  0.642947  0.313386  1
  Pr  Pr3  1  0.750000  0.854323  0.821315  1
  Ag  Ag4  1  0.250000  0.858012  0.536333  1
  Ag  Ag5  1  0.250000  0.647608  0.038257  1
  Ag  Ag6  1  0.750000  0.139657  0.463035  1
  Au  Au7  1  0.750000  0.355610  0.960362  1
