# generated using pymatgen
data_CaPr2Nd4FeI12
_symmetry_space_group_name_H-M   'P 1'
_cell_length_a   10.09137187
_cell_length_b   9.99530594
_cell_length_c   9.98079356
_cell_angle_alpha   106.95400562
_cell_angle_beta   106.98640472
_cell_angle_gamma   107.19725695
_symmetry_Int_Tables_number   1
_chemical_formula_structural   CaPr2Nd4FeI12
_chemical_formula_sum   'Ca1 Pr2 Nd4 Fe1 I12'
_cell_volume   837.35603638
_cell_formula_units_Z   1
loop_
 _symmetry_equiv_pos_site_id
 _symmetry_equiv_pos_as_xyz
  1  'x, y, z'
loop_
 _atom_site_type_symbol
 _atom_site_label
 _atom_site_symmetry_multiplicity
 _atom_site_fract_x
 _atom_site_fract_y
 _atom_site_fract_z
 _atom_site_occupancy
  Ca  Ca0  1  0.000000  0.000000  0.000000  1
  Pr  Pr1  1  0.595985  0.793827  0.526320  1
  Pr  Pr2  1  0.404015  0.206173  0.473680  1
  Nd  Nd3  1  0.807671  0.526981  0.601037  1
  Nd  Nd4  1  0.526122  0.595915  0.792354  1
  Nd  Nd5  1  0.192329  0.473019  0.398963  1
  Nd  Nd6  1  0.473878  0.404085  0.207646  1
  Fe  Fe7  1  0.500000  0.500000  0.500000  1
  I  I8  1  0.726860  0.183852  0.573489  1
  I  I9  1  0.961451  0.883119  0.657534  1
  I  I10  1  0.573944  0.725562  0.182082  1
  I  I11  1  0.117878  0.343247  0.038257  1
  I  I12  1  0.658699  0.961659  0.885680  1
  I  I13  1  0.882122  0.656753  0.961743  1
  I  I14  1  0.038549  0.116881  0.342466  1
  I  I15  1  0.814981  0.425680  0.272496  1
  I  I16  1  0.341301  0.038341  0.114320  1
  I  I17  1  0.273140  0.816148  0.426511  1
  I  I18  1  0.185019  0.574320  0.727504  1
  I  I19  1  0.426056  0.274438  0.817918  1
