# generated using pymatgen
data_ErTm14Lu5(CoSb2)4
_symmetry_space_group_name_H-M   'P 1'
_cell_length_a   7.72387626
_cell_length_b   8.71495213
_cell_length_c   12.02584139
_cell_angle_alpha   90.01345426
_cell_angle_beta   89.97397807
_cell_angle_gamma   89.98536667
_symmetry_Int_Tables_number   1
_chemical_formula_structural   ErTm14Lu5(CoSb2)4
_chemical_formula_sum   'Er1 Tm14 Lu5 Co4 Sb8'
_cell_volume   809.49787763
_cell_formula_units_Z   1
loop_
 _symmetry_equiv_pos_site_id
 _symmetry_equiv_pos_as_xyz
  1  'x, y, z'
loop_
 _atom_site_type_symbol
 _atom_site_label
 _atom_site_symmetry_multiplicity
 _atom_site_fract_x
 _atom_site_fract_y
 _atom_site_fract_z
 _atom_site_occupancy
  Er  Er0  1  0.877663  0.750254  0.808454  1
  Tm  Tm1  1  0.156889  0.750185  0.204257  1
  Tm  Tm2  1  0.656949  0.249869  0.295627  1
  Tm  Tm3  1  0.843361  0.249983  0.795683  1
  Tm  Tm4  1  0.343084  0.749920  0.704408  1
  Tm  Tm5  1  0.449360  0.750133  0.997968  1
  Tm  Tm6  1  0.950012  0.250073  0.501933  1
  Tm  Tm7  1  0.549694  0.249748  0.002016  1
  Tm  Tm8  1  0.050079  0.750110  0.498048  1
  Tm  Tm9  1  0.622254  0.749851  0.308807  1
  Tm  Tm10  1  0.122412  0.249903  0.191045  1
  Tm  Tm11  1  0.377692  0.249894  0.691205  1
  Tm  Tm12  1  0.676205  0.962663  0.565488  1
  Tm  Tm13  1  0.823796  0.536946  0.065671  1
  Tm  Tm14  1  0.323741  0.462696  0.434481  1
  Lu  Lu15  1  0.825109  0.962923  0.065518  1
  Lu  Lu16  1  0.324668  0.037321  0.434540  1
  Lu  Lu17  1  0.175374  0.462269  0.934649  1
  Lu  Lu18  1  0.675332  0.537396  0.565441  1
  Lu  Lu19  1  0.175118  0.037772  0.934712  1
  Co  Co20  1  0.431838  0.749935  0.490908  1
  Co  Co21  1  0.932563  0.249663  0.008920  1
  Co  Co22  1  0.568224  0.249934  0.509034  1
  Co  Co23  1  0.068635  0.750403  0.991089  1
  Sb  Sb24  1  0.931438  0.991630  0.327505  1
  Sb  Sb25  1  0.431634  0.008400  0.172516  1
  Sb  Sb26  1  0.068902  0.491387  0.672403  1
  Sb  Sb27  1  0.568203  0.508176  0.827518  1
  Sb  Sb28  1  0.069251  0.008723  0.672518  1
  Sb  Sb29  1  0.567999  0.991830  0.827653  1
  Sb  Sb30  1  0.931241  0.508459  0.327489  1
  Sb  Sb31  1  0.431277  0.491549  0.172497  1
