# generated using pymatgen
data_Y2B4Ir4Rh
_symmetry_space_group_name_H-M   'P 1'
_cell_length_a   7.52812842
_cell_length_b   6.33899155
_cell_length_c   5.60871013
_cell_angle_alpha   77.84861233
_cell_angle_beta   55.40389141
_cell_angle_gamma   46.83683446
_symmetry_Int_Tables_number   1
_chemical_formula_structural   Y2B4Ir4Rh
_chemical_formula_sum   'Y2 B4 Ir4 Rh1'
_cell_volume   153.48918374
_cell_formula_units_Z   1
loop_
 _symmetry_equiv_pos_site_id
 _symmetry_equiv_pos_as_xyz
  1  'x, y, z'
loop_
 _atom_site_type_symbol
 _atom_site_label
 _atom_site_symmetry_multiplicity
 _atom_site_fract_x
 _atom_site_fract_y
 _atom_site_fract_z
 _atom_site_occupancy
  Y  Y0  1  0.857647  0.857647  0.142353  1
  Y  Y1  1  0.142353  0.142353  0.857647  1
  B  B2  1  0.211598  0.520262  0.480805  1
  B  B3  1  0.788402  0.479738  0.519195  1
  B  B4  1  0.520262  0.211598  0.787337  1
  B  B5  1  0.479738  0.788402  0.212663  1
  Ir  Ir6  1  0.749801  0.749801  0.750199  1
  Ir  Ir7  1  0.250199  0.250199  0.249801  1
  Ir  Ir8  1  0.000000  0.000000  0.500000  1
  Ir  Ir9  1  0.500000  0.500000  0.500000  1
  Rh  Rh10  1  0.500000  0.500000  0.000000  1
