# generated using pymatgen
data_Dy20Cd6CoRh
_symmetry_space_group_name_H-M   'P 1'
_cell_length_a   9.61532100
_cell_length_b   9.61532276
_cell_length_c   9.84052600
_cell_angle_alpha   90.00000000
_cell_angle_beta   90.00000000
_cell_angle_gamma   119.99999737
_symmetry_Int_Tables_number   1
_chemical_formula_structural   Dy20Cd6CoRh
_chemical_formula_sum   'Dy20 Cd6 Co1 Rh1'
_cell_volume   787.90999698
_cell_formula_units_Z   1
loop_
 _symmetry_equiv_pos_site_id
 _symmetry_equiv_pos_as_xyz
  1  'x, y, z'
loop_
 _atom_site_type_symbol
 _atom_site_label
 _atom_site_symmetry_multiplicity
 _atom_site_fract_x
 _atom_site_fract_y
 _atom_site_fract_z
 _atom_site_occupancy
  Dy  Dy0  1  0.000000  0.000000  0.499831  1
  Dy  Dy1  1  0.000000  0.000000  0.000169  1
  Dy  Dy2  1  0.543150  0.456850  0.250000  1
  Dy  Dy3  1  0.543150  0.086301  0.250000  1
  Dy  Dy4  1  0.913699  0.456850  0.250000  1
  Dy  Dy5  1  0.457851  0.542149  0.750000  1
  Dy  Dy6  1  0.457851  0.915702  0.750000  1
  Dy  Dy7  1  0.084298  0.542149  0.750000  1
  Dy  Dy8  1  0.209039  0.790961  0.440464  1
  Dy  Dy9  1  0.209039  0.418079  0.440464  1
  Dy  Dy10  1  0.581921  0.790961  0.440464  1
  Dy  Dy11  1  0.787741  0.212259  0.564575  1
  Dy  Dy12  1  0.787741  0.575480  0.564575  1
  Dy  Dy13  1  0.424520  0.212259  0.564575  1
  Dy  Dy14  1  0.787741  0.212259  0.935425  1
  Dy  Dy15  1  0.787741  0.575480  0.935425  1
  Dy  Dy16  1  0.424520  0.212259  0.935425  1
  Dy  Dy17  1  0.209039  0.790961  0.059536  1
  Dy  Dy18  1  0.209039  0.418079  0.059536  1
  Dy  Dy19  1  0.581921  0.790961  0.059536  1
  Cd  Cd20  1  0.885314  0.114686  0.250000  1
  Cd  Cd21  1  0.885314  0.770628  0.250000  1
  Cd  Cd22  1  0.229372  0.114686  0.250000  1
  Cd  Cd23  1  0.114591  0.885409  0.750000  1
  Cd  Cd24  1  0.114591  0.229182  0.750000  1
  Cd  Cd25  1  0.770818  0.885409  0.750000  1
  Co  Co26  1  0.666667  0.333333  0.750000  1
  Rh  Rh27  1  0.333333  0.666667  0.250000  1
