# generated using pymatgen
data_Tb3HoAl18Ir5Pd
_symmetry_space_group_name_H-M   'P 1'
_cell_length_a   7.57133992
_cell_length_b   7.57364437
_cell_length_c   9.48503310
_cell_angle_alpha   89.97073068
_cell_angle_beta   89.96872147
_cell_angle_gamma   119.56236245
_symmetry_Int_Tables_number   1
_chemical_formula_structural   Tb3HoAl18Ir5Pd
_chemical_formula_sum   'Tb3 Ho1 Al18 Ir5 Pd1'
_cell_volume   473.09162484
_cell_formula_units_Z   1
loop_
 _symmetry_equiv_pos_site_id
 _symmetry_equiv_pos_as_xyz
  1  'x, y, z'
loop_
 _atom_site_type_symbol
 _atom_site_label
 _atom_site_symmetry_multiplicity
 _atom_site_fract_x
 _atom_site_fract_y
 _atom_site_fract_z
 _atom_site_occupancy
  Tb  Tb0  1  0.994885  0.670861  0.250902  1
  Tb  Tb1  1  0.004790  0.328993  0.749140  1
  Tb  Tb2  1  0.670909  0.995272  0.250839  1
  Ho  Ho3  1  0.328846  0.004878  0.748974  1
  Al  Al4  1  0.129072  0.128091  0.250381  1
  Al  Al5  1  0.872257  0.871016  0.749602  1
  Al  Al6  1  0.005041  0.335505  0.076422  1
  Al  Al7  1  0.002517  0.669004  0.923743  1
  Al  Al8  1  0.999899  0.665228  0.574380  1
  Al  Al9  1  0.335242  0.000518  0.426292  1
  Al  Al10  1  0.000727  0.334786  0.424970  1
  Al  Al11  1  0.664700  0.999259  0.575213  1
  Al  Al12  1  0.664000  0.994970  0.923389  1
  Al  Al13  1  0.331526  0.997941  0.075604  1
  Al  Al14  1  0.333178  0.332775  0.550849  1
  Al  Al15  1  0.666827  0.666809  0.449498  1
  Al  Al16  1  0.666073  0.669267  0.054840  1
  Al  Al17  1  0.330732  0.333569  0.944788  1
  Al  Al18  1  0.340467  0.549126  0.250416  1
  Al  Al19  1  0.659405  0.452489  0.747522  1
  Al  Al20  1  0.547066  0.340036  0.252478  1
  Al  Al21  1  0.450994  0.659962  0.749595  1
  Ir  Ir22  1  0.328221  0.671762  0.999871  1
  Ir  Ir23  1  0.328308  0.671659  0.500155  1
  Ir  Ir24  1  0.671726  0.328117  0.500158  1
  Ir  Ir25  1  0.999977  0.000347  0.999812  1
  Ir  Ir26  1  0.000402  0.999957  0.500182  1
  Pd  Pd27  1  0.672215  0.327801  0.999984  1
