# generated using pymatgen
data_TaNb2Co4Ni5
_symmetry_space_group_name_H-M   'P 1'
_cell_length_a   6.92643499
_cell_length_b   6.94042417
_cell_length_c   6.92643496
_cell_angle_alpha   43.92526451
_cell_angle_beta   43.70822038
_cell_angle_gamma   43.92526085
_symmetry_Int_Tables_number   1
_chemical_formula_structural   TaNb2Co4Ni5
_chemical_formula_sum   'Ta1 Nb2 Co4 Ni5'
_cell_volume   145.11378967
_cell_formula_units_Z   1
loop_
 _symmetry_equiv_pos_site_id
 _symmetry_equiv_pos_as_xyz
  1  'x, y, z'
loop_
 _atom_site_type_symbol
 _atom_site_label
 _atom_site_symmetry_multiplicity
 _atom_site_fract_x
 _atom_site_fract_y
 _atom_site_fract_z
 _atom_site_occupancy
  Ta  Ta0  1  0.779998  0.785961  0.779998  1
  Nb  Nb1  1  0.002187  0.005360  0.002187  1
  Nb  Nb2  1  0.216135  0.210690  0.216135  1
  Co  Co3  1  0.716570  0.236404  0.716570  1
  Co  Co4  1  0.284628  0.760669  0.284628  1
  Co  Co5  1  0.760406  0.286418  0.284260  1
  Co  Co6  1  0.284260  0.286418  0.760406  1
  Ni  Ni7  1  0.499862  0.499014  0.999731  1
  Ni  Ni8  1  0.498528  0.002303  0.498528  1
  Ni  Ni9  1  0.999731  0.499014  0.499862  1
  Ni  Ni10  1  0.239880  0.713876  0.717815  1
  Ni  Ni11  1  0.717815  0.713876  0.239880  1
