# generated using pymatgen
data_Re5TcIrPd
_symmetry_space_group_name_H-M   'P 1'
_cell_length_a   5.58342100
_cell_length_b   5.58078837
_cell_length_c   4.40882800
_cell_angle_alpha   90.00000000
_cell_angle_beta   90.00000000
_cell_angle_gamma   120.01561188
_symmetry_Int_Tables_number   1
_chemical_formula_structural   Re5TcIrPd
_chemical_formula_sum   'Re5 Tc1 Ir1 Pd1'
_cell_volume   118.95463663
_cell_formula_units_Z   1
loop_
 _symmetry_equiv_pos_site_id
 _symmetry_equiv_pos_as_xyz
  1  'x, y, z'
loop_
 _atom_site_type_symbol
 _atom_site_label
 _atom_site_symmetry_multiplicity
 _atom_site_fract_x
 _atom_site_fract_y
 _atom_site_fract_z
 _atom_site_occupancy
  Re  Re0  1  0.841107  0.160207  0.750000  1
  Re  Re1  1  0.319100  0.160207  0.750000  1
  Re  Re2  1  0.840346  0.680692  0.750000  1
  Re  Re3  1  0.161450  0.840796  0.250000  1
  Re  Re4  1  0.679346  0.840796  0.250000  1
  Tc  Tc5  1  0.160035  0.320071  0.250000  1
  Ir  Ir6  1  0.665808  0.331614  0.250000  1
  Pd  Pd7  1  0.332808  0.665617  0.750000  1
