# generated using pymatgen
data_La4Cr(MoO4)3
_symmetry_space_group_name_H-M   'P 1'
_cell_length_a   5.69231835
_cell_length_b   5.87134731
_cell_length_c   8.14678206
_cell_angle_alpha   89.95032254
_cell_angle_beta   90.05654264
_cell_angle_gamma   89.96183717
_symmetry_Int_Tables_number   1
_chemical_formula_structural   La4Cr(MoO4)3
_chemical_formula_sum   'La4 Cr1 Mo3 O12'
_cell_volume   272.27801662
_cell_formula_units_Z   1
loop_
 _symmetry_equiv_pos_site_id
 _symmetry_equiv_pos_as_xyz
  1  'x, y, z'
loop_
 _atom_site_type_symbol
 _atom_site_label
 _atom_site_symmetry_multiplicity
 _atom_site_fract_x
 _atom_site_fract_y
 _atom_site_fract_z
 _atom_site_occupancy
  La  La0  1  0.013377  0.950560  0.755109  1
  La  La1  1  0.514764  0.552235  0.244887  1
  La  La2  1  0.485236  0.447765  0.755113  1
  La  La3  1  0.986623  0.049440  0.244891  1
  Cr  Cr4  1  0.500000  0.000000  0.000000  1
  Mo  Mo5  1  0.500000  0.000000  0.500000  1
  Mo  Mo6  1  0.000000  0.500000  0.500000  1
  Mo  Mo7  1  0.000000  0.500000  0.000000  1
  O  O8  1  0.697138  0.300220  0.438332  1
  O  O9  1  0.197024  0.199556  0.563241  1
  O  O10  1  0.787595  0.800682  0.051575  1
  O  O11  1  0.302203  0.713170  0.947165  1
  O  O12  1  0.302862  0.699780  0.561668  1
  O  O13  1  0.802976  0.800444  0.436759  1
  O  O14  1  0.212405  0.199318  0.948425  1
  O  O15  1  0.697797  0.286830  0.052835  1
  O  O16  1  0.110137  0.458531  0.249722  1
  O  O17  1  0.602792  0.036866  0.757706  1
  O  O18  1  0.397208  0.963134  0.242294  1
  O  O19  1  0.889863  0.541469  0.750278  1
