# generated using pymatgen
data_Fe3SiMoW
_symmetry_space_group_name_H-M   'P 1'
_cell_length_a   4.74472200
_cell_length_b   4.74472169
_cell_length_c   7.69802200
_cell_angle_alpha   90.00000000
_cell_angle_beta   90.00000000
_cell_angle_gamma   119.99998825
_symmetry_Int_Tables_number   1
_chemical_formula_structural   Fe3SiMoW
_chemical_formula_sum   'Fe6 Si2 Mo2 W2'
_cell_volume   150.08294581
_cell_formula_units_Z   2
loop_
 _symmetry_equiv_pos_site_id
 _symmetry_equiv_pos_as_xyz
  1  'x, y, z'
loop_
 _atom_site_type_symbol
 _atom_site_label
 _atom_site_symmetry_multiplicity
 _atom_site_fract_x
 _atom_site_fract_y
 _atom_site_fract_z
 _atom_site_occupancy
  Fe  Fe0  1  0.829143  0.170857  0.248991  1
  Fe  Fe1  1  0.829143  0.658286  0.248991  1
  Fe  Fe2  1  0.341714  0.170857  0.248991  1
  Fe  Fe3  1  0.170857  0.829143  0.751009  1
  Fe  Fe4  1  0.170857  0.341714  0.751009  1
  Fe  Fe5  1  0.658286  0.829143  0.751009  1
  Si  Si6  1  0.000000  0.000000  0.500000  1
  Si  Si7  1  0.000000  0.000000  0.000000  1
  Mo  Mo8  1  0.333333  0.666667  0.436315  1
  Mo  Mo9  1  0.666667  0.333333  0.563685  1
  W  W10  1  0.666667  0.333333  0.934311  1
  W  W11  1  0.333333  0.666667  0.065689  1
