# generated using pymatgen
data_Li8La6Pr2Sn7Bi
_symmetry_space_group_name_H-M   'P 1'
_cell_length_a   9.67514620
_cell_length_b   9.67514603
_cell_length_c   7.84040069
_cell_angle_alpha   89.91931653
_cell_angle_beta   90.08068311
_cell_angle_gamma   119.98488010
_symmetry_Int_Tables_number   1
_chemical_formula_structural   Li8La6Pr2Sn7Bi
_chemical_formula_sum   'Li8 La6 Pr2 Sn7 Bi1'
_cell_volume   635.69607380
_cell_formula_units_Z   1
loop_
 _symmetry_equiv_pos_site_id
 _symmetry_equiv_pos_as_xyz
  1  'x, y, z'
loop_
 _atom_site_type_symbol
 _atom_site_label
 _atom_site_symmetry_multiplicity
 _atom_site_fract_x
 _atom_site_fract_y
 _atom_site_fract_z
 _atom_site_occupancy
  Li  Li0  1  0.833642  0.166358  0.715591  1
  Li  Li1  1  0.832607  0.666467  0.711945  1
  Li  Li2  1  0.333533  0.167393  0.711945  1
  Li  Li3  1  0.166475  0.833525  0.213027  1
  Li  Li4  1  0.169836  0.334451  0.210010  1
  Li  Li5  1  0.665549  0.830164  0.210010  1
  Li  Li6  1  0.665058  0.334942  0.334301  1
  Li  Li7  1  0.333692  0.666308  0.832287  1
  La  La8  1  0.488242  0.511758  0.505006  1
  La  La9  1  0.483596  0.974619  0.507382  1
  La  La10  1  0.025381  0.516404  0.507382  1
  La  La11  1  0.511796  0.488204  0.003721  1
  La  La12  1  0.506775  0.020569  0.002449  1
  La  La13  1  0.979431  0.493225  0.002449  1
  Pr  Pr14  1  0.002510  0.997490  0.503323  1
  Pr  Pr15  1  0.002011  0.997989  0.998499  1
  Sn  Sn16  1  0.834703  0.668505  0.272032  1
  Sn  Sn17  1  0.331495  0.165297  0.272032  1
  Sn  Sn18  1  0.165617  0.834383  0.770949  1
  Sn  Sn19  1  0.165182  0.331417  0.771756  1
  Sn  Sn20  1  0.668583  0.834818  0.771756  1
  Sn  Sn21  1  0.667321  0.332679  0.730712  1
  Sn  Sn22  1  0.333011  0.666989  0.230402  1
  Bi  Bi23  1  0.833952  0.166048  0.269040  1
