# generated using pymatgen
data_Sr3Ca2In(ReN4)2
_symmetry_space_group_name_H-M   'P 1'
_cell_length_a   10.37345056
_cell_length_b   10.02633981
_cell_length_c   8.02969083
_cell_angle_alpha   69.11746313
_cell_angle_beta   64.56187555
_cell_angle_gamma   46.32066396
_symmetry_Int_Tables_number   1
_chemical_formula_structural   Sr3Ca2In(ReN4)2
_chemical_formula_sum   'Sr6 Ca4 In2 Re4 N16'
_cell_volume   543.14492501
_cell_formula_units_Z   2
loop_
 _symmetry_equiv_pos_site_id
 _symmetry_equiv_pos_as_xyz
  1  'x, y, z'
loop_
 _atom_site_type_symbol
 _atom_site_label
 _atom_site_symmetry_multiplicity
 _atom_site_fract_x
 _atom_site_fract_y
 _atom_site_fract_z
 _atom_site_occupancy
  Sr  Sr0  1  0.311799  0.688201  0.688201  1
  Sr  Sr1  1  0.113216  0.113216  0.886784  1
  Sr  Sr2  1  0.128464  0.128464  0.371536  1
  Sr  Sr3  1  0.371536  0.371536  0.128464  1
  Sr  Sr4  1  0.688201  0.311799  0.311799  1
  Sr  Sr5  1  0.886784  0.886784  0.113216  1
  Ca  Ca6  1  0.334442  0.334442  0.665558  1
  Ca  Ca7  1  0.885273  0.885273  0.614727  1
  Ca  Ca8  1  0.665558  0.665558  0.334442  1
  Ca  Ca9  1  0.614727  0.614727  0.885273  1
  In  In10  1  0.531438  0.968562  0.968562  1
  In  In11  1  0.968562  0.531438  0.531438  1
  Re  Re12  1  0.477636  0.022364  0.477636  1
  Re  Re13  1  0.022364  0.477636  0.022364  1
  Re  Re14  1  0.757248  0.242752  0.757248  1
  Re  Re15  1  0.242752  0.757248  0.242752  1
  N  N16  1  0.064090  0.621850  0.829529  1
  N  N17  1  0.712694  0.292222  0.987790  1
  N  N18  1  0.621850  0.064090  0.484531  1
  N  N19  1  0.484531  0.829529  0.621850  1
  N  N20  1  0.266074  0.562607  0.404766  1
  N  N21  1  0.766553  0.404766  0.562607  1
  N  N22  1  0.987790  0.007293  0.712694  1
  N  N23  1  0.548063  0.990192  0.228579  1
  N  N24  1  0.404766  0.766553  0.266074  1
  N  N25  1  0.990192  0.548063  0.233165  1
  N  N26  1  0.292222  0.712694  0.007293  1
  N  N27  1  0.829529  0.484531  0.064090  1
  N  N28  1  0.233165  0.228579  0.990192  1
  N  N29  1  0.562607  0.266074  0.766553  1
  N  N30  1  0.228579  0.233165  0.548063  1
  N  N31  1  0.007293  0.987790  0.292222  1
