# generated using pymatgen
data_NbCo2B2Ru
_symmetry_space_group_name_H-M   'P 1'
_cell_length_a   5.77338864
_cell_length_b   5.77338885
_cell_length_c   5.77338925
_cell_angle_alpha   95.59899164
_cell_angle_beta   95.59897528
_cell_angle_gamma   95.59899229
_symmetry_Int_Tables_number   1
_chemical_formula_structural   NbCo2B2Ru
_chemical_formula_sum   'Nb3 Co6 B6 Ru3'
_cell_volume   189.48966085
_cell_formula_units_Z   3
loop_
 _symmetry_equiv_pos_site_id
 _symmetry_equiv_pos_as_xyz
  1  'x, y, z'
loop_
 _atom_site_type_symbol
 _atom_site_label
 _atom_site_symmetry_multiplicity
 _atom_site_fract_x
 _atom_site_fract_y
 _atom_site_fract_z
 _atom_site_occupancy
  Nb  Nb0  1  0.000000  0.000000  0.000000  1
  Nb  Nb1  1  0.667689  0.667689  0.667689  1
  Nb  Nb2  1  0.332311  0.332311  0.332311  1
  Co  Co3  1  0.695010  0.212371  0.695010  1
  Co  Co4  1  0.695010  0.695010  0.212371  1
  Co  Co5  1  0.212371  0.695010  0.695010  1
  Co  Co6  1  0.304990  0.787629  0.304990  1
  Co  Co7  1  0.304990  0.304990  0.787629  1
  Co  Co8  1  0.787629  0.304990  0.304990  1
  B  B9  1  0.611279  0.388721  0.000000  1
  B  B10  1  0.000000  0.611279  0.388721  1
  B  B11  1  0.388721  0.000000  0.611279  1
  B  B12  1  0.000000  0.388721  0.611279  1
  B  B13  1  0.611279  0.000000  0.388721  1
  B  B14  1  0.388721  0.611279  0.000000  1
  Ru  Ru15  1  0.000000  0.000000  0.500000  1
  Ru  Ru16  1  0.500000  0.000000  0.000000  1
  Ru  Ru17  1  0.000000  0.500000  0.000000  1
