# generated using pymatgen
data_Dy5ErAl18
_symmetry_space_group_name_H-M   'P 1'
_cell_length_a   14.38669711
_cell_length_b   14.38669660
_cell_length_c   14.38669820
_cell_angle_alpha   24.93795369
_cell_angle_beta   24.93795693
_cell_angle_gamma   24.93795728
_symmetry_Int_Tables_number   1
_chemical_formula_structural   Dy5ErAl18
_chemical_formula_sum   'Dy5 Er1 Al18'
_cell_volume   465.68101297
_cell_formula_units_Z   1
loop_
 _symmetry_equiv_pos_site_id
 _symmetry_equiv_pos_as_xyz
  1  'x, y, z'
loop_
 _atom_site_type_symbol
 _atom_site_label
 _atom_site_symmetry_multiplicity
 _atom_site_fract_x
 _atom_site_fract_y
 _atom_site_fract_z
 _atom_site_occupancy
  Dy  Dy0  1  0.999934  0.999934  0.999934  1
  Dy  Dy1  1  0.500030  0.500030  0.500030  1
  Dy  Dy2  1  0.108526  0.108526  0.108526  1
  Dy  Dy3  1  0.891549  0.891549  0.891549  1
  Dy  Dy4  1  0.391330  0.391330  0.391330  1
  Er  Er5  1  0.608470  0.608470  0.608470  1
  Al  Al6  1  0.927012  0.369193  0.369193  1
  Al  Al7  1  0.427590  0.868524  0.868524  1
  Al  Al8  1  0.369193  0.369193  0.927012  1
  Al  Al9  1  0.868524  0.868524  0.427590  1
  Al  Al10  1  0.369193  0.927012  0.369193  1
  Al  Al11  1  0.868524  0.427590  0.868524  1
  Al  Al12  1  0.572180  0.131506  0.131506  1
  Al  Al13  1  0.072347  0.631438  0.631438  1
  Al  Al14  1  0.131506  0.131506  0.572180  1
  Al  Al15  1  0.631438  0.631438  0.072347  1
  Al  Al16  1  0.131506  0.572180  0.131506  1
  Al  Al17  1  0.631438  0.072347  0.631438  1
  Al  Al18  1  0.500767  0.500767  0.997846  1
  Al  Al19  1  0.000283  0.000283  0.499770  1
  Al  Al20  1  0.500767  0.997846  0.500767  1
  Al  Al21  1  0.000283  0.499770  0.000283  1
  Al  Al22  1  0.997846  0.500767  0.500767  1
  Al  Al23  1  0.499770  0.000283  0.000283  1
