# generated using pymatgen
data_Nb10VPt4
_symmetry_space_group_name_H-M   'P 1'
_cell_length_a   9.98913800
_cell_length_b   9.98913800
_cell_length_c   5.20632800
_cell_angle_alpha   90.00000000
_cell_angle_beta   90.00000000
_cell_angle_gamma   90.00000000
_symmetry_Int_Tables_number   1
_chemical_formula_structural   Nb10VPt4
_chemical_formula_sum   'Nb20 V2 Pt8'
_cell_volume   519.50239156
_cell_formula_units_Z   2
loop_
 _symmetry_equiv_pos_site_id
 _symmetry_equiv_pos_as_xyz
  1  'x, y, z'
loop_
 _atom_site_type_symbol
 _atom_site_label
 _atom_site_symmetry_multiplicity
 _atom_site_fract_x
 _atom_site_fract_y
 _atom_site_fract_z
 _atom_site_occupancy
  Nb  Nb0  1  0.897455  0.102545  0.500000  1
  Nb  Nb1  1  0.102545  0.897455  0.500000  1
  Nb  Nb2  1  0.397455  0.397455  0.000000  1
  Nb  Nb3  1  0.602545  0.602545  0.000000  1
  Nb  Nb4  1  0.960837  0.373836  0.500000  1
  Nb  Nb5  1  0.039163  0.626164  0.500000  1
  Nb  Nb6  1  0.460837  0.126164  0.000000  1
  Nb  Nb7  1  0.539163  0.873836  0.000000  1
  Nb  Nb8  1  0.373836  0.960837  0.500000  1
  Nb  Nb9  1  0.626164  0.039163  0.500000  1
  Nb  Nb10  1  0.126164  0.460837  0.000000  1
  Nb  Nb11  1  0.873836  0.539163  0.000000  1
  Nb  Nb12  1  0.680286  0.319714  0.247324  1
  Nb  Nb13  1  0.319714  0.680286  0.247324  1
  Nb  Nb14  1  0.180286  0.180286  0.747324  1
  Nb  Nb15  1  0.819714  0.819714  0.747324  1
  Nb  Nb16  1  0.319714  0.680286  0.752676  1
  Nb  Nb17  1  0.680286  0.319714  0.752676  1
  Nb  Nb18  1  0.819714  0.819714  0.252676  1
  Nb  Nb19  1  0.180286  0.180286  0.252676  1
  V  V20  1  0.500000  0.500000  0.500000  1
  V  V21  1  0.000000  0.000000  0.000000  1
  Pt  Pt22  1  0.240896  0.433463  0.500000  1
  Pt  Pt23  1  0.759104  0.566537  0.500000  1
  Pt  Pt24  1  0.740896  0.066537  0.000000  1
  Pt  Pt25  1  0.259104  0.933463  0.000000  1
  Pt  Pt26  1  0.433463  0.240896  0.500000  1
  Pt  Pt27  1  0.566537  0.759104  0.500000  1
  Pt  Pt28  1  0.066537  0.740896  0.000000  1
  Pt  Pt29  1  0.933463  0.259104  0.000000  1
