# generated using pymatgen
data_CsKTbU(AgS3)2
_symmetry_space_group_name_H-M   'P 1'
_cell_length_a   4.12626400
_cell_length_b   8.12113405
_cell_length_c   10.56138200
_cell_angle_alpha   92.03151020
_cell_angle_beta   90.00000000
_cell_angle_gamma   75.28300665
_symmetry_Int_Tables_number   1
_chemical_formula_structural   CsKTbU(AgS3)2
_chemical_formula_sum   'Cs1 K1 Tb1 U1 Ag2 S6'
_cell_volume   342.07035645
_cell_formula_units_Z   1
loop_
 _symmetry_equiv_pos_site_id
 _symmetry_equiv_pos_as_xyz
  1  'x, y, z'
loop_
 _atom_site_type_symbol
 _atom_site_label
 _atom_site_symmetry_multiplicity
 _atom_site_fract_x
 _atom_site_fract_y
 _atom_site_fract_z
 _atom_site_occupancy
  Cs  Cs0  1  0.263087  0.473827  0.773056  1
  K  K1  1  0.732107  0.535786  0.192583  1
  Tb  Tb2  1  0.996413  0.007174  0.004342  1
  U  U3  1  0.003144  0.993712  0.502133  1
  Ag  Ag4  1  0.453759  0.092485  0.254392  1
  Ag  Ag5  1  0.548864  0.902273  0.750510  1
  S  S6  1  0.378402  0.243197  0.052657  1
  S  S7  1  0.054395  0.891207  0.261708  1
  S  S8  1  0.395252  0.209496  0.476962  1
  S  S9  1  0.611886  0.776230  0.529590  1
  S  S10  1  0.949964  0.100076  0.741553  1
  S  S11  1  0.612732  0.774538  0.960514  1
