# generated using pymatgen
data_Dy4Ga12Tc
_symmetry_space_group_name_H-M   'P 1'
_cell_length_a   7.47823352
_cell_length_b   7.47823274
_cell_length_c   7.47823300
_cell_angle_alpha   109.47122675
_cell_angle_beta   109.47122465
_cell_angle_gamma   109.47121871
_symmetry_Int_Tables_number   1
_chemical_formula_structural   Dy4Ga12Tc
_chemical_formula_sum   'Dy4 Ga12 Tc1'
_cell_volume   321.94008737
_cell_formula_units_Z   1
loop_
 _symmetry_equiv_pos_site_id
 _symmetry_equiv_pos_as_xyz
  1  'x, y, z'
loop_
 _atom_site_type_symbol
 _atom_site_label
 _atom_site_symmetry_multiplicity
 _atom_site_fract_x
 _atom_site_fract_y
 _atom_site_fract_z
 _atom_site_occupancy
  Dy  Dy0  1  0.500000  0.000000  0.000000  1
  Dy  Dy1  1  0.000000  0.500000  0.000000  1
  Dy  Dy2  1  0.000000  0.000000  0.500000  1
  Dy  Dy3  1  0.500000  0.500000  0.500000  1
  Ga  Ga4  1  0.290951  0.290951  0.000000  1
  Ga  Ga5  1  0.709048  0.709048  0.000000  1
  Ga  Ga6  1  0.750000  0.500000  0.250000  1
  Ga  Ga7  1  0.500000  0.750000  0.250000  1
  Ga  Ga8  1  0.290951  0.000000  0.290951  1
  Ga  Ga9  1  0.000000  0.290951  0.290951  1
  Ga  Ga10  1  0.750000  0.250000  0.500000  1
  Ga  Ga11  1  0.250000  0.750000  0.500000  1
  Ga  Ga12  1  0.709048  0.000000  0.709048  1
  Ga  Ga13  1  0.000000  0.709048  0.709048  1
  Ga  Ga14  1  0.500000  0.250000  0.750000  1
  Ga  Ga15  1  0.250000  0.500000  0.750000  1
  Tc  Tc16  1  0.000000  0.000000  0.000000  1
