# generated using pymatgen
data_Pr4Dy6Ga5Si3
_symmetry_space_group_name_H-M   'P 1'
_cell_length_a   7.57760500
_cell_length_b   7.97134608
_cell_length_c   15.27266381
_cell_angle_alpha   90.10035622
_cell_angle_beta   90.00000000
_cell_angle_gamma   90.00000000
_symmetry_Int_Tables_number   1
_chemical_formula_structural   Pr4Dy6Ga5Si3
_chemical_formula_sum   'Pr8 Dy12 Ga10 Si6'
_cell_volume   922.52416998
_cell_formula_units_Z   2
loop_
 _symmetry_equiv_pos_site_id
 _symmetry_equiv_pos_as_xyz
  1  'x, y, z'
loop_
 _atom_site_type_symbol
 _atom_site_label
 _atom_site_symmetry_multiplicity
 _atom_site_fract_x
 _atom_site_fract_y
 _atom_site_fract_z
 _atom_site_occupancy
  Pr  Pr0  1  0.979221  0.822076  0.094352  1
  Pr  Pr1  1  0.479221  0.677924  0.405648  1
  Pr  Pr2  1  0.519847  0.322062  0.903969  1
  Pr  Pr3  1  0.019847  0.177938  0.596031  1
  Pr  Pr4  1  0.023657  0.174625  0.903854  1
  Pr  Pr5  1  0.523657  0.325375  0.596146  1
  Pr  Pr6  1  0.478881  0.678122  0.095637  1
  Pr  Pr7  1  0.978881  0.821878  0.404363  1
  Dy  Dy8  1  0.655491  0.991116  0.250411  1
  Dy  Dy9  1  0.155491  0.508884  0.249589  1
  Dy  Dy10  1  0.844856  0.491190  0.749207  1
  Dy  Dy11  1  0.344856  0.008810  0.750793  1
  Dy  Dy12  1  0.678355  0.822610  0.876155  1
  Dy  Dy13  1  0.178355  0.677390  0.623845  1
  Dy  Dy14  1  0.819420  0.324536  0.122310  1
  Dy  Dy15  1  0.319420  0.175464  0.377690  1
  Dy  Dy16  1  0.318424  0.175800  0.122027  1
  Dy  Dy17  1  0.818424  0.324200  0.377973  1
  Dy  Dy18  1  0.181449  0.677821  0.878048  1
  Dy  Dy19  1  0.681449  0.822179  0.621952  1
  Ga  Ga20  1  0.761224  0.619118  0.250193  1
  Ga  Ga21  1  0.261224  0.880882  0.249807  1
  Ga  Ga22  1  0.738403  0.119495  0.750264  1
  Ga  Ga23  1  0.238403  0.380505  0.749736  1
  Ga  Ga24  1  0.848528  0.533088  0.957775  1
  Ga  Ga25  1  0.348528  0.966912  0.542225  1
  Ga  Ga26  1  0.649126  0.032711  0.039783  1
  Ga  Ga27  1  0.149126  0.467289  0.460217  1
  Ga  Ga28  1  0.150796  0.466858  0.040077  1
  Ga  Ga29  1  0.650796  0.033142  0.459923  1
  Si  Si30  1  0.023602  0.116768  0.249332  1
  Si  Si31  1  0.523602  0.383232  0.250668  1
  Si  Si32  1  0.474725  0.616541  0.749963  1
  Si  Si33  1  0.974725  0.883459  0.750037  1
  Si  Si34  1  0.353996  0.968081  0.958996  1
  Si  Si35  1  0.853996  0.531919  0.541004  1
