# generated using pymatgen
data_TbEr3Ga18(PtRh2)2
_symmetry_space_group_name_H-M   'P 1'
_cell_length_a   7.60367564
_cell_length_b   7.60363226
_cell_length_c   9.48201900
_cell_angle_alpha   90.00000000
_cell_angle_beta   90.00000000
_cell_angle_gamma   119.90339419
_symmetry_Int_Tables_number   1
_chemical_formula_structural   TbEr3Ga18(PtRh2)2
_chemical_formula_sum   'Tb1 Er3 Ga18 Pt2 Rh4'
_cell_volume   475.22369517
_cell_formula_units_Z   1
loop_
 _symmetry_equiv_pos_site_id
 _symmetry_equiv_pos_as_xyz
  1  'x, y, z'
loop_
 _atom_site_type_symbol
 _atom_site_label
 _atom_site_symmetry_multiplicity
 _atom_site_fract_x
 _atom_site_fract_y
 _atom_site_fract_z
 _atom_site_occupancy
  Tb  Tb0  1  0.328798  0.003533  0.750000  1
  Er  Er1  1  0.996540  0.671208  0.250000  1
  Er  Er2  1  0.003513  0.328844  0.750000  1
  Er  Er3  1  0.671248  0.996586  0.250000  1
  Ga  Ga4  1  0.133358  0.133386  0.250000  1
  Ga  Ga5  1  0.866366  0.866554  0.750000  1
  Ga  Ga6  1  0.998389  0.338544  0.080429  1
  Ga  Ga7  1  0.001223  0.661016  0.919638  1
  Ga  Ga8  1  0.001223  0.661016  0.580362  1
  Ga  Ga9  1  0.338555  0.998396  0.419307  1
  Ga  Ga10  1  0.998389  0.338544  0.419571  1
  Ga  Ga11  1  0.661830  0.001620  0.580347  1
  Ga  Ga12  1  0.661830  0.001620  0.919653  1
  Ga  Ga13  1  0.338555  0.998396  0.080693  1
  Ga  Ga14  1  0.336872  0.337224  0.567113  1
  Ga  Ga15  1  0.663105  0.663104  0.432740  1
  Ga  Ga16  1  0.663105  0.663104  0.067260  1
  Ga  Ga17  1  0.336872  0.337224  0.932887  1
  Ga  Ga18  1  0.336419  0.548378  0.250000  1
  Ga  Ga19  1  0.663861  0.452000  0.750000  1
  Ga  Ga20  1  0.548391  0.336433  0.250000  1
  Ga  Ga21  1  0.451696  0.663396  0.750000  1
  Pt  Pt22  1  0.999846  0.999935  0.000238  1
  Pt  Pt23  1  0.999846  0.999935  0.499762  1
  Rh  Rh24  1  0.671239  0.328919  0.000234  1
  Rh  Rh25  1  0.328846  0.671085  0.000233  1
  Rh  Rh26  1  0.328846  0.671085  0.499767  1
  Rh  Rh27  1  0.671239  0.328919  0.499766  1
