# generated using pymatgen
data_K6YHgF12
_symmetry_space_group_name_H-M   'P 1'
_cell_length_a   6.64834090
_cell_length_b   6.39959182
_cell_length_c   11.16639100
_cell_angle_alpha   55.30779222
_cell_angle_beta   89.71387071
_cell_angle_gamma   90.10285904
_symmetry_Int_Tables_number   1
_chemical_formula_structural   K6YHgF12
_chemical_formula_sum   'K6 Y1 Hg1 F12'
_cell_volume   390.62035225
_cell_formula_units_Z   1
loop_
 _symmetry_equiv_pos_site_id
 _symmetry_equiv_pos_as_xyz
  1  'x, y, z'
loop_
 _atom_site_type_symbol
 _atom_site_label
 _atom_site_symmetry_multiplicity
 _atom_site_fract_x
 _atom_site_fract_y
 _atom_site_fract_z
 _atom_site_occupancy
  K  K0  1  0.500000  0.500000  0.000000  1
  K  K1  1  0.000000  0.500000  0.500000  1
  K  K2  1  0.054323  0.723586  0.754568  1
  K  K3  1  0.945677  0.276414  0.245432  1
  K  K4  1  0.552475  0.264198  0.746470  1
  K  K5  1  0.447525  0.735802  0.253530  1
  Y  Y6  1  0.500000  0.000000  0.500000  1
  Hg  Hg7  1  0.000000  0.000000  0.000000  1
  F  F8  1  0.772518  0.762600  0.570554  1
  F  F9  1  0.227482  0.237400  0.429446  1
  F  F10  1  0.275139  0.250941  0.925508  1
  F  F11  1  0.724861  0.749059  0.074492  1
  F  F12  1  0.442024  0.886424  0.723953  1
  F  F13  1  0.557976  0.113576  0.276047  1
  F  F14  1  0.937080  0.102772  0.774615  1
  F  F15  1  0.062920  0.897228  0.225385  1
  F  F16  1  0.325206  0.667584  0.550267  1
  F  F17  1  0.674794  0.332416  0.449733  1
  F  F18  1  0.818346  0.328006  0.947932  1
  F  F19  1  0.181654  0.671994  0.052068  1
