# generated using pymatgen
data_Tb3Pr7(In3Br)2
_symmetry_space_group_name_H-M   'P 1'
_cell_length_a   9.56356900
_cell_length_b   9.56356727
_cell_length_c   6.80919800
_cell_angle_alpha   90.00000000
_cell_angle_beta   90.00000000
_cell_angle_gamma   120.00000251
_symmetry_Int_Tables_number   1
_chemical_formula_structural   Tb3Pr7(In3Br)2
_chemical_formula_sum   'Tb3 Pr7 In6 Br2'
_cell_volume   539.34480061
_cell_formula_units_Z   1
loop_
 _symmetry_equiv_pos_site_id
 _symmetry_equiv_pos_as_xyz
  1  'x, y, z'
loop_
 _atom_site_type_symbol
 _atom_site_label
 _atom_site_symmetry_multiplicity
 _atom_site_fract_x
 _atom_site_fract_y
 _atom_site_fract_z
 _atom_site_occupancy
  Tb  Tb0  1  0.666667  0.333333  0.500000  1
  Tb  Tb1  1  0.333333  0.666667  0.000000  1
  Tb  Tb2  1  0.666667  0.333333  0.000000  1
  Pr  Pr3  1  0.733548  0.732442  0.249310  1
  Pr  Pr4  1  0.998894  0.732442  0.750690  1
  Pr  Pr5  1  0.733548  0.001106  0.750690  1
  Pr  Pr6  1  0.333333  0.666667  0.500000  1
  Pr  Pr7  1  0.267558  0.266452  0.750690  1
  Pr  Pr8  1  0.998894  0.266452  0.249310  1
  Pr  Pr9  1  0.267558  0.001106  0.249310  1
  In  In10  1  0.395190  0.002020  0.751107  1
  In  In11  1  0.997980  0.604810  0.248893  1
  In  In12  1  0.606830  0.002020  0.248893  1
  In  In13  1  0.997980  0.393170  0.751107  1
  In  In14  1  0.395190  0.393170  0.248893  1
  In  In15  1  0.606830  0.604810  0.751107  1
  Br  Br16  1  0.000000  0.000000  0.500000  1
  Br  Br17  1  0.000000  0.000000  0.000000  1
