# generated using pymatgen
data_Nd2HoLu(AsPt)4
_symmetry_space_group_name_H-M   'P 1'
_cell_length_a   4.28112200
_cell_length_b   4.28112301
_cell_length_c   15.86825600
_cell_angle_alpha   90.00000000
_cell_angle_beta   90.00000000
_cell_angle_gamma   120.00000763
_symmetry_Int_Tables_number   1
_chemical_formula_structural   Nd2HoLu(AsPt)4
_chemical_formula_sum   'Nd2 Ho1 Lu1 As4 Pt4'
_cell_volume   251.86922601
_cell_formula_units_Z   1
loop_
 _symmetry_equiv_pos_site_id
 _symmetry_equiv_pos_as_xyz
  1  'x, y, z'
loop_
 _atom_site_type_symbol
 _atom_site_label
 _atom_site_symmetry_multiplicity
 _atom_site_fract_x
 _atom_site_fract_y
 _atom_site_fract_z
 _atom_site_occupancy
  Nd  Nd0  1  0.000000  0.000000  0.501997  1
  Nd  Nd1  1  0.000000  0.000000  0.998003  1
  Ho  Ho2  1  0.000000  0.000000  0.250000  1
  Lu  Lu3  1  0.000000  0.000000  0.750000  1
  As  As4  1  0.333333  0.666667  0.879997  1
  As  As5  1  0.666667  0.333333  0.118820  1
  As  As6  1  0.666667  0.333333  0.381180  1
  As  As7  1  0.333333  0.666667  0.620003  1
  Pt  Pt8  1  0.333333  0.666667  0.360137  1
  Pt  Pt9  1  0.666667  0.333333  0.646749  1
  Pt  Pt10  1  0.666667  0.333333  0.853251  1
  Pt  Pt11  1  0.333333  0.666667  0.139863  1
