# generated using pymatgen
data_Er16Al4Ir3Pd
_symmetry_space_group_name_H-M   'P 1'
_cell_length_a   9.42655387
_cell_length_b   9.42655473
_cell_length_c   9.42655442
_cell_angle_alpha   60.72997004
_cell_angle_beta   60.72996678
_cell_angle_gamma   60.72996890
_symmetry_Int_Tables_number   1
_chemical_formula_structural   Er16Al4Ir3Pd
_chemical_formula_sum   'Er16 Al4 Ir3 Pd1'
_cell_volume   602.05955389
_cell_formula_units_Z   1
loop_
 _symmetry_equiv_pos_site_id
 _symmetry_equiv_pos_as_xyz
  1  'x, y, z'
loop_
 _atom_site_type_symbol
 _atom_site_label
 _atom_site_symmetry_multiplicity
 _atom_site_fract_x
 _atom_site_fract_y
 _atom_site_fract_z
 _atom_site_occupancy
  Er  Er0  1  0.061194  0.061194  0.433909  1
  Er  Er1  1  0.643307  0.062802  0.643307  1
  Er  Er2  1  0.193619  0.804160  0.193619  1
  Er  Er3  1  0.436248  0.061811  0.436248  1
  Er  Er4  1  0.193619  0.193619  0.804160  1
  Er  Er5  1  0.651825  0.651825  0.651825  1
  Er  Er6  1  0.062802  0.643307  0.643307  1
  Er  Er7  1  0.433909  0.061194  0.061194  1
  Er  Er8  1  0.643307  0.643307  0.062802  1
  Er  Er9  1  0.200030  0.804976  0.804976  1
  Er  Er10  1  0.804976  0.200030  0.804976  1
  Er  Er11  1  0.804160  0.193619  0.193619  1
  Er  Er12  1  0.804976  0.804976  0.200030  1
  Er  Er13  1  0.061811  0.436248  0.436248  1
  Er  Er14  1  0.436248  0.436248  0.061811  1
  Er  Er15  1  0.061194  0.433909  0.061194  1
  Al  Al16  1  0.732786  0.422988  0.422988  1
  Al  Al17  1  0.422988  0.422988  0.732786  1
  Al  Al18  1  0.422988  0.732786  0.422988  1
  Al  Al19  1  0.421996  0.421996  0.421996  1
  Ir  Ir20  1  0.426033  0.861515  0.861515  1
  Ir  Ir21  1  0.861515  0.861515  0.426033  1
  Ir  Ir22  1  0.861515  0.426033  0.861515  1
  Pd  Pd23  1  0.856958  0.856958  0.856958  1
