# generated using pymatgen
data_La3Pr7(Sn3O)2
_symmetry_space_group_name_H-M   'P 1'
_cell_length_a   9.44733804
_cell_length_b   9.44733801
_cell_length_c   9.44456200
_cell_angle_alpha   126.31363980
_cell_angle_beta   126.31363211
_cell_angle_gamma   79.29527579
_symmetry_Int_Tables_number   1
_chemical_formula_structural   La3Pr7(Sn3O)2
_chemical_formula_sum   'La3 Pr7 Sn6 O2'
_cell_volume   529.36205674
_cell_formula_units_Z   1
loop_
 _symmetry_equiv_pos_site_id
 _symmetry_equiv_pos_as_xyz
  1  'x, y, z'
loop_
 _atom_site_type_symbol
 _atom_site_label
 _atom_site_symmetry_multiplicity
 _atom_site_fract_x
 _atom_site_fract_y
 _atom_site_fract_z
 _atom_site_occupancy
  La  La0  1  0.497869  0.307219  0.499267  1
  La  La1  1  0.807219  0.997869  0.499267  1
  La  La2  1  0.999569  0.499569  0.192763  1
  Pr  Pr3  1  0.304944  0.804944  0.808098  1
  Pr  Pr4  1  0.506071  0.699119  0.502042  1
  Pr  Pr5  1  0.199119  0.006071  0.502042  1
  Pr  Pr6  1  0.005553  0.505553  0.807624  1
  Pr  Pr7  1  0.697057  0.197057  0.191651  1
  Pr  Pr8  1  0.501273  0.501557  0.999976  1
  Pr  Pr9  1  0.001557  0.001273  0.999976  1
  Sn  Sn10  1  0.139466  0.360769  0.500556  1
  Sn  Sn11  1  0.860769  0.639466  0.500556  1
  Sn  Sn12  1  0.639951  0.139951  0.780117  1
  Sn  Sn13  1  0.359428  0.859428  0.218988  1
  Sn  Sn14  1  0.750600  0.753831  0.999375  1
  Sn  Sn15  1  0.253831  0.250600  0.999375  1
  O  O16  1  0.749901  0.249901  0.501055  1
  O  O17  1  0.248666  0.748666  0.497273  1
