# generated using pymatgen
data_Zn3Fe8Co(P2O7)8
_symmetry_space_group_name_H-M   'P 1'
_cell_length_a   9.03589990
_cell_length_b   10.29159003
_cell_length_c   12.43239000
_cell_angle_alpha   90.00000000
_cell_angle_beta   90.00000000
_cell_angle_gamma   89.94868914
_symmetry_Int_Tables_number   1
_chemical_formula_structural   Zn3Fe8Co(P2O7)8
_chemical_formula_sum   'Zn3 Fe8 Co1 P16 O56'
_cell_volume   1156.13444459
_cell_formula_units_Z   1
loop_
 _symmetry_equiv_pos_site_id
 _symmetry_equiv_pos_as_xyz
  1  'x, y, z'
loop_
 _atom_site_type_symbol
 _atom_site_label
 _atom_site_symmetry_multiplicity
 _atom_site_fract_x
 _atom_site_fract_y
 _atom_site_fract_z
 _atom_site_occupancy
  Zn  Zn0  1  0.745506  0.881950  0.750000  1
  Zn  Zn1  1  0.754669  0.382043  0.250000  1
  Zn  Zn2  1  0.254728  0.118054  0.250000  1
  Fe  Fe3  1  0.251061  0.621281  0.988965  1
  Fe  Fe4  1  0.751234  0.879141  0.510406  1
  Fe  Fe5  1  0.748787  0.379258  0.489396  1
  Fe  Fe6  1  0.248832  0.120657  0.010531  1
  Fe  Fe7  1  0.748787  0.379258  0.010604  1
  Fe  Fe8  1  0.248832  0.120657  0.489469  1
  Fe  Fe9  1  0.251061  0.621281  0.511035  1
  Fe  Fe10  1  0.751234  0.879141  0.989594  1
  Co  Co11  1  0.246301  0.615255  0.750000  1
  P  P12  1  0.585608  0.620520  0.866666  1
  P  P13  1  0.085965  0.879469  0.633416  1
  P  P14  1  0.414175  0.379767  0.366802  1
  P  P15  1  0.914283  0.120300  0.133279  1
  P  P16  1  0.414175  0.379767  0.133198  1
  P  P17  1  0.914283  0.120300  0.366721  1
  P  P18  1  0.585608  0.620520  0.633334  1
  P  P19  1  0.085965  0.879469  0.866584  1
  P  P20  1  0.573427  0.133609  0.872565  1
  P  P21  1  0.073182  0.366340  0.627498  1
  P  P22  1  0.426606  0.866370  0.372547  1
  P  P23  1  0.926700  0.633524  0.127449  1
  P  P24  1  0.426606  0.866370  0.127453  1
  P  P25  1  0.926700  0.633524  0.372551  1
  P  P26  1  0.573427  0.133609  0.627435  1
  P  P27  1  0.073182  0.366340  0.872502  1
  O  O28  1  0.129166  0.937428  0.750000  1
  O  O29  1  0.629229  0.562823  0.750000  1
  O  O30  1  0.870799  0.062892  0.250000  1
  O  O31  1  0.370723  0.437147  0.250000  1
  O  O32  1  0.048041  0.320547  0.750000  1
  O  O33  1  0.548161  0.179263  0.750000  1
  O  O34  1  0.951777  0.679141  0.250000  1
  O  O35  1  0.451839  0.820778  0.250000  1
  O  O36  1  0.920933  0.392358  0.580618  1
  O  O37  1  0.421046  0.107851  0.919412  1
  O  O38  1  0.079044  0.607759  0.080500  1
  O  O39  1  0.578950  0.892201  0.419407  1
  O  O40  1  0.079044  0.607759  0.419500  1
  O  O41  1  0.578950  0.892201  0.080593  1
  O  O42  1  0.920933  0.392358  0.919382  1
  O  O43  1  0.421046  0.107851  0.580588  1
  O  O44  1  0.153425  0.255439  0.927315  1
  O  O45  1  0.653235  0.244814  0.572676  1
  O  O46  1  0.846732  0.744756  0.427287  1
  O  O47  1  0.346779  0.755204  0.072683  1
  O  O48  1  0.846732  0.744756  0.072713  1
  O  O49  1  0.346779  0.755204  0.427317  1
  O  O50  1  0.153425  0.255439  0.572685  1
  O  O51  1  0.653235  0.244814  0.927324  1
  O  O52  1  0.415480  0.629458  0.868038  1
  O  O53  1  0.915836  0.870950  0.631590  1
  O  O54  1  0.584348  0.371147  0.368394  1
  O  O55  1  0.084388  0.128873  0.131618  1
  O  O56  1  0.584348  0.371147  0.131606  1
  O  O57  1  0.084388  0.128873  0.368382  1
  O  O58  1  0.415480  0.629458  0.631962  1
  O  O59  1  0.915836  0.870950  0.868410  1
  O  O60  1  0.667152  0.008254  0.868542  1
  O  O61  1  0.166459  0.491897  0.631834  1
  O  O62  1  0.332873  0.991751  0.368545  1
  O  O63  1  0.832947  0.508278  0.131438  1
  O  O64  1  0.332873  0.991751  0.131455  1
  O  O65  1  0.832947  0.508278  0.368562  1
  O  O66  1  0.667152  0.008254  0.631458  1
  O  O67  1  0.166459  0.491897  0.868166  1
  O  O68  1  0.158176  0.743806  0.872150  1
  O  O69  1  0.657494  0.756172  0.627334  1
  O  O70  1  0.842444  0.256130  0.372728  1
  O  O71  1  0.342459  0.243952  0.127251  1
  O  O72  1  0.842444  0.256130  0.127272  1
  O  O73  1  0.342459  0.243952  0.372749  1
  O  O74  1  0.158176  0.743806  0.627850  1
  O  O75  1  0.657494  0.756172  0.872666  1
  O  O76  1  0.147450  0.971876  0.948580  1
  O  O77  1  0.647162  0.528072  0.551428  1
  O  O78  1  0.852497  0.028007  0.448604  1
  O  O79  1  0.352364  0.472099  0.051232  1
  O  O80  1  0.852497  0.028007  0.051396  1
  O  O81  1  0.352364  0.472099  0.448768  1
  O  O82  1  0.147450  0.971876  0.551420  1
  O  O83  1  0.647162  0.528072  0.948572  1
