# generated using pymatgen
data_Lu2Al9Os2Au
_symmetry_space_group_name_H-M   'P 1'
_cell_length_a   7.60139006
_cell_length_b   7.60138985
_cell_length_c   9.47189900
_cell_angle_alpha   90.00000000
_cell_angle_beta   90.00000000
_cell_angle_gamma   119.61930681
_symmetry_Int_Tables_number   1
_chemical_formula_structural   Lu2Al9Os2Au
_chemical_formula_sum   'Lu4 Al18 Os4 Au2'
_cell_volume   475.78086370
_cell_formula_units_Z   2
loop_
 _symmetry_equiv_pos_site_id
 _symmetry_equiv_pos_as_xyz
  1  'x, y, z'
loop_
 _atom_site_type_symbol
 _atom_site_label
 _atom_site_symmetry_multiplicity
 _atom_site_fract_x
 _atom_site_fract_y
 _atom_site_fract_z
 _atom_site_occupancy
  Lu  Lu0  1  0.998422  0.672110  0.250000  1
  Lu  Lu1  1  0.001578  0.327890  0.750000  1
  Lu  Lu2  1  0.672110  0.998422  0.250000  1
  Lu  Lu3  1  0.327890  0.001578  0.750000  1
  Al  Al4  1  0.140175  0.140175  0.250000  1
  Al  Al5  1  0.859825  0.859825  0.750000  1
  Al  Al6  1  0.001734  0.345335  0.076210  1
  Al  Al7  1  0.998266  0.654665  0.923790  1
  Al  Al8  1  0.998266  0.654665  0.576210  1
  Al  Al9  1  0.345335  0.001734  0.423790  1
  Al  Al10  1  0.001734  0.345335  0.423790  1
  Al  Al11  1  0.654665  0.998266  0.576210  1
  Al  Al12  1  0.654665  0.998266  0.923790  1
  Al  Al13  1  0.345335  0.001734  0.076210  1
  Al  Al14  1  0.343330  0.343330  0.556351  1
  Al  Al15  1  0.656670  0.656670  0.443649  1
  Al  Al16  1  0.656670  0.656670  0.056351  1
  Al  Al17  1  0.343330  0.343330  0.943649  1
  Al  Al18  1  0.336915  0.553424  0.250000  1
  Al  Al19  1  0.663085  0.446576  0.750000  1
  Al  Al20  1  0.553424  0.336915  0.250000  1
  Al  Al21  1  0.446576  0.663085  0.750000  1
  Os  Os22  1  0.672666  0.327334  0.000000  1
  Os  Os23  1  0.327334  0.672666  0.000000  1
  Os  Os24  1  0.327334  0.672666  0.500000  1
  Os  Os25  1  0.672666  0.327334  0.500000  1
  Au  Au26  1  0.000000  0.000000  0.000000  1
  Au  Au27  1  0.000000  0.000000  0.500000  1
