# generated using pymatgen
data_Mg4As6Ir(RuRh)3
_symmetry_space_group_name_H-M   'P 1'
_cell_length_a   7.05179528
_cell_length_b   7.05615817
_cell_length_c   7.05615917
_cell_angle_alpha   109.32442661
_cell_angle_beta   109.47778869
_cell_angle_gamma   109.63675879
_symmetry_Int_Tables_number   1
_chemical_formula_structural   Mg4As6Ir(RuRh)3
_chemical_formula_sum   'Mg4 As6 Ir1 Ru3 Rh3'
_cell_volume   270.19438497
_cell_formula_units_Z   1
loop_
 _symmetry_equiv_pos_site_id
 _symmetry_equiv_pos_as_xyz
  1  'x, y, z'
loop_
 _atom_site_type_symbol
 _atom_site_label
 _atom_site_symmetry_multiplicity
 _atom_site_fract_x
 _atom_site_fract_y
 _atom_site_fract_z
 _atom_site_occupancy
  Mg  Mg0  1  0.000217  0.998571  0.499396  1
  Mg  Mg1  1  0.499816  0.000190  0.999309  1
  Mg  Mg2  1  0.000217  0.500821  0.001645  1
  Mg  Mg3  1  0.499816  0.500507  0.499625  1
  As  As4  1  0.685357  0.688743  0.996614  1
  As  As5  1  0.307823  0.311005  0.996818  1
  As  As6  1  0.999878  0.684575  0.691415  1
  As  As7  1  0.999878  0.308463  0.315303  1
  As  As8  1  0.692691  0.003645  0.689046  1
  As  As9  1  0.314899  0.003716  0.311183  1
  Ir  Ir10  1  0.250135  0.750752  0.499383  1
  Ru  Ru11  1  0.000241  0.999707  0.000534  1
  Ru  Ru12  1  0.251334  0.500211  0.751125  1
  Ru  Ru13  1  0.749072  0.249149  0.499922  1
  Rh  Rh14  1  0.499515  0.250144  0.750353  1
  Rh  Rh15  1  0.499515  0.749163  0.249371  1
  Rh  Rh16  1  0.749597  0.500638  0.248958  1
