# generated using pymatgen
data_Y7Ho(Sc3Ga4)4
_symmetry_space_group_name_H-M   'P 1'
_cell_length_a   7.27799601
_cell_length_b   7.57997503
_cell_length_c   14.46576604
_cell_angle_alpha   89.99195843
_cell_angle_beta   90.00335242
_cell_angle_gamma   90.00505183
_symmetry_Int_Tables_number   1
_chemical_formula_structural   Y7Ho(Sc3Ga4)4
_chemical_formula_sum   'Y7 Ho1 Sc12 Ga16'
_cell_volume   798.03330790
_cell_formula_units_Z   1
loop_
 _symmetry_equiv_pos_site_id
 _symmetry_equiv_pos_as_xyz
  1  'x, y, z'
loop_
 _atom_site_type_symbol
 _atom_site_label
 _atom_site_symmetry_multiplicity
 _atom_site_fract_x
 _atom_site_fract_y
 _atom_site_fract_z
 _atom_site_occupancy
  Y  Y0  1  0.010939  0.180059  0.094428  1
  Y  Y1  1  0.989058  0.819935  0.905554  1
  Y  Y2  1  0.489054  0.680047  0.905577  1
  Y  Y3  1  0.989045  0.819879  0.594440  1
  Y  Y4  1  0.510941  0.319947  0.094423  1
  Y  Y5  1  0.010959  0.180046  0.405561  1
  Y  Y6  1  0.510933  0.319992  0.405607  1
  Ho  Ho7  1  0.489004  0.680283  0.594491  1
  Sc  Sc8  1  0.162271  0.502927  0.749960  1
  Sc  Sc9  1  0.837820  0.497178  0.250026  1
  Sc  Sc10  1  0.337826  0.002807  0.250034  1
  Sc  Sc11  1  0.662141  0.997057  0.749964  1
  Sc  Sc12  1  0.329690  0.172357  0.624702  1
  Sc  Sc13  1  0.670248  0.827557  0.375361  1
  Sc  Sc14  1  0.170321  0.672383  0.375330  1
  Sc  Sc15  1  0.670315  0.827630  0.124712  1
  Sc  Sc16  1  0.829645  0.327746  0.624700  1
  Sc  Sc17  1  0.329687  0.172393  0.875279  1
  Sc  Sc18  1  0.829703  0.327655  0.875268  1
  Sc  Sc19  1  0.170299  0.672353  0.124709  1
  Ga  Ga20  1  0.030236  0.116598  0.750007  1
  Ga  Ga21  1  0.969731  0.883363  0.250024  1
  Ga  Ga22  1  0.469736  0.616612  0.250018  1
  Ga  Ga23  1  0.530186  0.383538  0.749939  1
  Ga  Ga24  1  0.283232  0.870991  0.749884  1
  Ga  Ga25  1  0.716930  0.128795  0.250008  1
  Ga  Ga26  1  0.216913  0.371217  0.250001  1
  Ga  Ga27  1  0.782934  0.628876  0.749917  1
  Ga  Ga28  1  0.162307  0.465037  0.540610  1
  Ga  Ga29  1  0.837922  0.535242  0.459431  1
  Ga  Ga30  1  0.338049  0.964583  0.459475  1
  Ga  Ga31  1  0.837988  0.535188  0.040573  1
  Ga  Ga32  1  0.661940  0.034918  0.540583  1
  Ga  Ga33  1  0.162010  0.464826  0.959414  1
  Ga  Ga34  1  0.662010  0.035177  0.959420  1
  Ga  Ga35  1  0.337979  0.964808  0.040570  1
