# generated using pymatgen
data_CsScBeSe3
_symmetry_space_group_name_H-M   'P 1'
_cell_length_a   8.30666672
_cell_length_b   8.30666640
_cell_length_c   10.36681100
_cell_angle_alpha   90.00000000
_cell_angle_beta   90.00000000
_cell_angle_gamma   152.54051893
_symmetry_Int_Tables_number   1
_chemical_formula_structural   CsScBeSe3
_chemical_formula_sum   'Cs2 Sc2 Be2 Se6'
_cell_volume   329.84798743
_cell_formula_units_Z   2
loop_
 _symmetry_equiv_pos_site_id
 _symmetry_equiv_pos_as_xyz
  1  'x, y, z'
loop_
 _atom_site_type_symbol
 _atom_site_label
 _atom_site_symmetry_multiplicity
 _atom_site_fract_x
 _atom_site_fract_y
 _atom_site_fract_z
 _atom_site_occupancy
  Cs  Cs0  1  0.760836  0.239164  0.250000  1
  Cs  Cs1  1  0.239164  0.760836  0.750000  1
  Sc  Sc2  1  0.500000  0.500000  0.000000  1
  Sc  Sc3  1  0.500000  0.500000  0.500000  1
  Be  Be4  1  0.036182  0.963818  0.250000  1
  Be  Be5  1  0.963818  0.036182  0.750000  1
  Se  Se6  1  0.108384  0.891615  0.066195  1
  Se  Se7  1  0.452086  0.547914  0.250000  1
  Se  Se8  1  0.108384  0.891615  0.433805  1
  Se  Se9  1  0.891615  0.108384  0.566195  1
  Se  Se10  1  0.547914  0.452086  0.750000  1
  Se  Se11  1  0.891615  0.108384  0.933804  1
