# generated using pymatgen
data_YEr7(GeI6)2
_symmetry_space_group_name_H-M   'P 1'
_cell_length_a   4.18853800
_cell_length_b   13.98718111
_cell_length_c   14.74610300
_cell_angle_alpha   90.00711119
_cell_angle_beta   90.00000000
_cell_angle_gamma   90.00000000
_symmetry_Int_Tables_number   1
_chemical_formula_structural   YEr7(GeI6)2
_chemical_formula_sum   'Y1 Er7 Ge2 I12'
_cell_volume   863.91281817
_cell_formula_units_Z   1
loop_
 _symmetry_equiv_pos_site_id
 _symmetry_equiv_pos_as_xyz
  1  'x, y, z'
loop_
 _atom_site_type_symbol
 _atom_site_label
 _atom_site_symmetry_multiplicity
 _atom_site_fract_x
 _atom_site_fract_y
 _atom_site_fract_z
 _atom_site_occupancy
  Y  Y0  1  0.500000  0.115347  0.346876  1
  Er  Er1  1  0.500000  0.884885  0.652856  1
  Er  Er2  1  0.500000  0.614824  0.152206  1
  Er  Er3  1  0.500000  0.385482  0.847688  1
  Er  Er4  1  0.000000  0.109896  0.574499  1
  Er  Er5  1  0.000000  0.890425  0.425103  1
  Er  Er6  1  0.000000  0.609522  0.925311  1
  Er  Er7  1  0.000000  0.390818  0.074191  1
  Ge  Ge8  1  0.500000  0.999410  0.500856  1
  Ge  Ge9  1  0.500000  0.500135  0.999790  1
  I  I10  1  0.500000  0.250657  0.163374  1
  I  I11  1  0.500000  0.750223  0.835321  1
  I  I12  1  0.500000  0.749315  0.335517  1
  I  I13  1  0.500000  0.249715  0.665683  1
  I  I14  1  0.000000  0.259628  0.418626  1
  I  I15  1  0.000000  0.742547  0.583826  1
  I  I16  1  0.000000  0.757273  0.083535  1
  I  I17  1  0.000000  0.242846  0.916054  1
  I  I18  1  0.000000  0.998116  0.239901  1
  I  I19  1  0.000000  0.998824  0.759119  1
  I  I20  1  0.000000  0.501175  0.258767  1
  I  I21  1  0.000000  0.498934  0.740902  1
