# generated using pymatgen
data_Tb3Al12FeRh3
_symmetry_space_group_name_H-M   'P 1'
_cell_length_a   8.80612600
_cell_length_b   8.80612615
_cell_length_c   9.46503500
_cell_angle_alpha   90.00000000
_cell_angle_beta   90.00000000
_cell_angle_gamma   119.99999943
_symmetry_Int_Tables_number   1
_chemical_formula_structural   Tb3Al12FeRh3
_chemical_formula_sum   'Tb6 Al24 Fe2 Rh6'
_cell_volume   635.65673992
_cell_formula_units_Z   2
loop_
 _symmetry_equiv_pos_site_id
 _symmetry_equiv_pos_as_xyz
  1  'x, y, z'
loop_
 _atom_site_type_symbol
 _atom_site_label
 _atom_site_symmetry_multiplicity
 _atom_site_fract_x
 _atom_site_fract_y
 _atom_site_fract_z
 _atom_site_occupancy
  Tb  Tb0  1  0.383649  0.191824  0.250000  1
  Tb  Tb1  1  0.808176  0.191824  0.250000  1
  Tb  Tb2  1  0.808176  0.616351  0.250000  1
  Tb  Tb3  1  0.616351  0.808176  0.750000  1
  Tb  Tb4  1  0.191824  0.808176  0.750000  1
  Tb  Tb5  1  0.191824  0.383649  0.750000  1
  Al  Al6  1  0.437250  0.874501  0.250000  1
  Al  Al7  1  0.125499  0.562750  0.250000  1
  Al  Al8  1  0.437250  0.562750  0.250000  1
  Al  Al9  1  0.562750  0.125499  0.750000  1
  Al  Al10  1  0.874501  0.437250  0.750000  1
  Al  Al11  1  0.562750  0.437250  0.750000  1
  Al  Al12  1  0.160250  0.839750  0.424816  1
  Al  Al13  1  0.160250  0.320503  0.424816  1
  Al  Al14  1  0.679497  0.839750  0.424816  1
  Al  Al15  1  0.839750  0.160250  0.575184  1
  Al  Al16  1  0.839750  0.679497  0.575184  1
  Al  Al17  1  0.320503  0.160250  0.575184  1
  Al  Al18  1  0.839750  0.160250  0.924816  1
  Al  Al19  1  0.839750  0.679497  0.924816  1
  Al  Al20  1  0.320503  0.160250  0.924816  1
  Al  Al21  1  0.160250  0.839750  0.075184  1
  Al  Al22  1  0.160250  0.320503  0.075184  1
  Al  Al23  1  0.679497  0.839750  0.075184  1
  Al  Al24  1  0.333333  0.666667  0.526435  1
  Al  Al25  1  0.666667  0.333333  0.473565  1
  Al  Al26  1  0.666667  0.333333  0.026435  1
  Al  Al27  1  0.333333  0.666667  0.973565  1
  Al  Al28  1  0.000000  0.000000  0.250000  1
  Al  Al29  1  0.000000  0.000000  0.750000  1
  Fe  Fe30  1  0.000000  0.000000  0.500000  1
  Fe  Fe31  1  0.000000  0.000000  0.000000  1
  Rh  Rh32  1  0.500000  0.000000  0.500000  1
  Rh  Rh33  1  0.000000  0.500000  0.500000  1
  Rh  Rh34  1  0.500000  0.500000  0.500000  1
  Rh  Rh35  1  0.500000  0.000000  0.000000  1
  Rh  Rh36  1  0.000000  0.500000  0.000000  1
  Rh  Rh37  1  0.500000  0.500000  0.000000  1
