# generated using pymatgen
data_NdSmCo18Si7Ge
_symmetry_space_group_name_H-M   'P 1'
_cell_length_a   7.95213412
_cell_length_b   7.95196247
_cell_length_c   7.97394116
_cell_angle_alpha   121.73197291
_cell_angle_beta   121.73067536
_cell_angle_gamma   87.13567017
_symmetry_Int_Tables_number   1
_chemical_formula_structural   NdSmCo18Si7Ge
_chemical_formula_sum   'Nd1 Sm1 Co18 Si7 Ge1'
_cell_volume   346.39321920
_cell_formula_units_Z   1
loop_
 _symmetry_equiv_pos_site_id
 _symmetry_equiv_pos_as_xyz
  1  'x, y, z'
loop_
 _atom_site_type_symbol
 _atom_site_label
 _atom_site_symmetry_multiplicity
 _atom_site_fract_x
 _atom_site_fract_y
 _atom_site_fract_z
 _atom_site_occupancy
  Nd  Nd0  1  0.249796  0.251280  0.000076  1
  Sm  Sm1  1  0.751336  0.749739  0.000101  1
  Co  Co2  1  0.689031  0.450578  0.500471  1
  Co  Co3  1  0.451271  0.951087  0.753668  1
  Co  Co4  1  0.188400  0.688581  0.238089  1
  Co  Co5  1  0.556896  0.056746  0.254004  1
  Co  Co6  1  0.950406  0.188882  0.500109  1
  Co  Co7  1  0.197558  0.931612  0.132343  1
  Co  Co8  1  0.802083  0.070048  0.871005  1
  Co  Co9  1  0.431737  0.697709  0.132353  1
  Co  Co10  1  0.570137  0.302203  0.870991  1
  Co  Co11  1  0.698144  0.568275  0.268005  1
  Co  Co12  1  0.300737  0.427828  0.730190  1
  Co  Co13  1  0.927708  0.800636  0.730184  1
  Co  Co14  1  0.310601  0.546520  0.495230  1
  Co  Co15  1  0.810245  0.310399  0.759954  1
  Co  Co16  1  0.997344  0.497347  0.497457  1
  Co  Co17  1  0.500014  0.000035  0.500758  1
  Co  Co18  1  0.068136  0.198006  0.267951  1
  Co  Co19  1  0.046324  0.810406  0.494797  1
  Si  Si20  1  0.045434  0.545617  0.836040  1
  Si  Si21  1  0.546261  0.708763  0.498766  1
  Si  Si22  1  0.790753  0.953294  0.500951  1
  Si  Si23  1  0.453487  0.290907  0.501248  1
  Si  Si24  1  0.953227  0.453373  0.163094  1
  Si  Si25  1  0.708148  0.208028  0.162169  1
  Si  Si26  1  0.208616  0.046084  0.498489  1
  Ge  Ge27  1  0.296170  0.796014  0.841510  1
