# generated using pymatgen
data_RbVTe3O8
_symmetry_space_group_name_H-M   'P 1'
_cell_length_a   5.71125330
_cell_length_b   7.65247997
_cell_length_c   10.98648440
_cell_angle_alpha   99.50323301
_cell_angle_beta   90.02408075
_cell_angle_gamma   108.55677149
_symmetry_Int_Tables_number   1
_chemical_formula_structural   RbVTe3O8
_chemical_formula_sum   'Rb2 V2 Te6 O16'
_cell_volume   448.23466366
_cell_formula_units_Z   2
loop_
 _symmetry_equiv_pos_site_id
 _symmetry_equiv_pos_as_xyz
  1  'x, y, z'
loop_
 _atom_site_type_symbol
 _atom_site_label
 _atom_site_symmetry_multiplicity
 _atom_site_fract_x
 _atom_site_fract_y
 _atom_site_fract_z
 _atom_site_occupancy
  Rb  Rb0  1  0.827385  0.110690  0.166086  1
  Rb  Rb1  1  0.172615  0.889310  0.833914  1
  V  V2  1  0.500000  0.500000  0.000000  1
  V  V3  1  0.000000  0.500000  0.500000  1
  Te  Te4  1  0.220855  0.981280  0.414988  1
  Te  Te5  1  0.779145  0.018720  0.585012  1
  Te  Te6  1  0.053195  0.656616  0.144870  1
  Te  Te7  1  0.946805  0.343384  0.855130  1
  Te  Te8  1  0.521579  0.533698  0.339240  1
  Te  Te9  1  0.478421  0.466302  0.660760  1
  O  O10  1  0.177020  0.726033  0.421815  1
  O  O11  1  0.822980  0.273967  0.578185  1
  O  O12  1  0.234171  0.915651  0.223157  1
  O  O13  1  0.765829  0.084349  0.776843  1
  O  O14  1  0.880823  0.966592  0.393665  1
  O  O15  1  0.119177  0.033408  0.606335  1
  O  O16  1  0.253195  0.657282  0.006274  1
  O  O17  1  0.746805  0.342718  0.993726  1
  O  O18  1  0.797843  0.724286  0.074183  1
  O  O19  1  0.202157  0.275714  0.925817  1
  O  O20  1  0.396971  0.440913  0.171100  1
  O  O21  1  0.603029  0.559087  0.828900  1
  O  O22  1  0.252030  0.372759  0.412643  1
  O  O23  1  0.747970  0.627241  0.587357  1
  O  O24  1  0.749680  0.399578  0.350852  1
  O  O25  1  0.250320  0.600422  0.649148  1
