# generated using pymatgen
data_YErReB6
_symmetry_space_group_name_H-M   'P 1'
_cell_length_a   3.66836900
_cell_length_b   9.15532900
_cell_length_c   11.54454500
_cell_angle_alpha   90.00000000
_cell_angle_beta   90.00000000
_cell_angle_gamma   90.00000000
_symmetry_Int_Tables_number   1
_chemical_formula_structural   YErReB6
_chemical_formula_sum   'Y4 Er4 Re4 B24'
_cell_volume   387.72498791
_cell_formula_units_Z   4
loop_
 _symmetry_equiv_pos_site_id
 _symmetry_equiv_pos_as_xyz
  1  'x, y, z'
loop_
 _atom_site_type_symbol
 _atom_site_label
 _atom_site_symmetry_multiplicity
 _atom_site_fract_x
 _atom_site_fract_y
 _atom_site_fract_z
 _atom_site_occupancy
  Y  Y0  1  0.000000  0.323565  0.413880  1
  Y  Y1  1  0.000000  0.676435  0.586120  1
  Y  Y2  1  0.000000  0.823565  0.086120  1
  Y  Y3  1  0.000000  0.176435  0.913880  1
  Er  Er4  1  0.000000  0.943649  0.370275  1
  Er  Er5  1  0.000000  0.056351  0.629725  1
  Er  Er6  1  0.000000  0.443649  0.129725  1
  Er  Er7  1  0.000000  0.556351  0.870275  1
  Re  Re8  1  0.000000  0.639036  0.320578  1
  Re  Re9  1  0.000000  0.360964  0.679422  1
  Re  Re10  1  0.000000  0.139036  0.179422  1
  Re  Re11  1  0.000000  0.860964  0.820578  1
  B  B12  1  0.500000  0.553653  0.432704  1
  B  B13  1  0.500000  0.446347  0.567296  1
  B  B14  1  0.500000  0.053653  0.067296  1
  B  B15  1  0.500000  0.946347  0.932704  1
  B  B16  1  0.500000  0.749767  0.418645  1
  B  B17  1  0.500000  0.250233  0.581355  1
  B  B18  1  0.500000  0.249767  0.081355  1
  B  B19  1  0.500000  0.750233  0.918645  1
  B  B20  1  0.500000  0.792742  0.265962  1
  B  B21  1  0.500000  0.207258  0.734038  1
  B  B22  1  0.500000  0.292742  0.234038  1
  B  B23  1  0.500000  0.707258  0.765962  1
  B  B24  1  0.500000  0.630806  0.185735  1
  B  B25  1  0.500000  0.369194  0.814265  1
  B  B26  1  0.500000  0.130806  0.314265  1
  B  B27  1  0.500000  0.869194  0.685735  1
  B  B28  1  0.500000  0.982534  0.212329  1
  B  B29  1  0.500000  0.017466  0.787671  1
  B  B30  1  0.500000  0.482534  0.287671  1
  B  B31  1  0.500000  0.517466  0.712329  1
  B  B32  1  0.500000  0.599708  0.027892  1
  B  B33  1  0.500000  0.400292  0.972108  1
  B  B34  1  0.500000  0.099708  0.472108  1
  B  B35  1  0.500000  0.900292  0.527892  1
