# generated using pymatgen
data_CaAc3(PPd)4
_symmetry_space_group_name_H-M   'P 1'
_cell_length_a   4.30939700
_cell_length_b   8.28803079
_cell_length_c   7.43832100
_cell_angle_alpha   90.06158860
_cell_angle_beta   90.00000000
_cell_angle_gamma   90.00000000
_symmetry_Int_Tables_number   1
_chemical_formula_structural   CaAc3(PPd)4
_chemical_formula_sum   'Ca1 Ac3 P4 Pd4'
_cell_volume   265.67000636
_cell_formula_units_Z   1
loop_
 _symmetry_equiv_pos_site_id
 _symmetry_equiv_pos_as_xyz
  1  'x, y, z'
loop_
 _atom_site_type_symbol
 _atom_site_label
 _atom_site_symmetry_multiplicity
 _atom_site_fract_x
 _atom_site_fract_y
 _atom_site_fract_z
 _atom_site_occupancy
  Ca  Ca0  1  0.250000  0.999498  0.249717  1
  Ac  Ac1  1  0.250000  0.499878  0.249990  1
  Ac  Ac2  1  0.750000  0.500384  0.750303  1
  Ac  Ac3  1  0.750000  0.000120  0.749576  1
  P  P4  1  0.250000  0.749062  0.920795  1
  P  P5  1  0.750000  0.246241  0.086281  1
  P  P6  1  0.750000  0.750955  0.413952  1
  P  P7  1  0.250000  0.251116  0.579282  1
  Pd  Pd8  1  0.250000  0.757670  0.580195  1
  Pd  Pd9  1  0.750000  0.239174  0.415604  1
  Pd  Pd10  1  0.750000  0.761758  0.084561  1
  Pd  Pd11  1  0.250000  0.244144  0.919746  1
