# generated using pymatgen
data_Ho12ErLu7(CoSb2)4
_symmetry_space_group_name_H-M   'P 1'
_cell_length_a   7.75502281
_cell_length_b   8.76050533
_cell_length_c   12.11777715
_cell_angle_alpha   89.98060770
_cell_angle_beta   90.04597613
_cell_angle_gamma   90.02473935
_symmetry_Int_Tables_number   1
_chemical_formula_structural   Ho12ErLu7(CoSb2)4
_chemical_formula_sum   'Ho12 Er1 Lu7 Co4 Sb8'
_cell_volume   823.25616883
_cell_formula_units_Z   1
loop_
 _symmetry_equiv_pos_site_id
 _symmetry_equiv_pos_as_xyz
  1  'x, y, z'
loop_
 _atom_site_type_symbol
 _atom_site_label
 _atom_site_symmetry_multiplicity
 _atom_site_fract_x
 _atom_site_fract_y
 _atom_site_fract_z
 _atom_site_occupancy
  Ho  Ho0  1  0.155389  0.749739  0.204181  1
  Ho  Ho1  1  0.654820  0.250049  0.296097  1
  Ho  Ho2  1  0.844949  0.250081  0.795717  1
  Ho  Ho3  1  0.345033  0.749964  0.704077  1
  Ho  Ho4  1  0.450387  0.749723  0.997644  1
  Ho  Ho5  1  0.950703  0.250021  0.502395  1
  Ho  Ho6  1  0.548331  0.250431  0.002266  1
  Ho  Ho7  1  0.049368  0.749947  0.497657  1
  Ho  Ho8  1  0.623612  0.750032  0.308999  1
  Ho  Ho9  1  0.124259  0.250271  0.191383  1
  Ho  Ho10  1  0.376324  0.250006  0.691015  1
  Ho  Ho11  1  0.876571  0.749592  0.808586  1
  Er  Er12  1  0.823062  0.963873  0.065374  1
  Lu  Lu13  1  0.325360  0.036352  0.434807  1
  Lu  Lu14  1  0.174633  0.463283  0.934683  1
  Lu  Lu15  1  0.674664  0.536376  0.565275  1
  Lu  Lu16  1  0.175128  0.036564  0.934541  1
  Lu  Lu17  1  0.674635  0.963567  0.565226  1
  Lu  Lu18  1  0.825298  0.536425  0.065189  1
  Lu  Lu19  1  0.325379  0.463627  0.434791  1
  Co  Co20  1  0.434721  0.749974  0.491616  1
  Co  Co21  1  0.935306  0.250555  0.008377  1
  Co  Co22  1  0.565325  0.250002  0.508407  1
  Co  Co23  1  0.066691  0.749319  0.991196  1
  Sb  Sb24  1  0.932036  0.992406  0.327611  1
  Sb  Sb25  1  0.431043  0.007857  0.172924  1
  Sb  Sb26  1  0.068261  0.492318  0.672535  1
  Sb  Sb27  1  0.568284  0.507621  0.827355  1
  Sb  Sb28  1  0.068194  0.007687  0.672628  1
  Sb  Sb29  1  0.568483  0.992385  0.827423  1
  Sb  Sb30  1  0.931904  0.507620  0.327345  1
  Sb  Sb31  1  0.431848  0.492332  0.172682  1
