# generated using pymatgen
data_Th8Sc11Si16Hg
_symmetry_space_group_name_H-M   'P 1'
_cell_length_a   7.19739806
_cell_length_b   7.47605469
_cell_length_c   14.33739200
_cell_angle_alpha   90.00000000
_cell_angle_beta   90.00000000
_cell_angle_gamma   89.87515622
_symmetry_Int_Tables_number   1
_chemical_formula_structural   Th8Sc11Si16Hg
_chemical_formula_sum   'Th8 Sc11 Si16 Hg1'
_cell_volume   771.46658592
_cell_formula_units_Z   1
loop_
 _symmetry_equiv_pos_site_id
 _symmetry_equiv_pos_as_xyz
  1  'x, y, z'
loop_
 _atom_site_type_symbol
 _atom_site_label
 _atom_site_symmetry_multiplicity
 _atom_site_fract_x
 _atom_site_fract_y
 _atom_site_fract_z
 _atom_site_occupancy
  Th  Th0  1  0.006075  0.171743  0.096108  1
  Th  Th1  1  0.995232  0.822381  0.901258  1
  Th  Th2  1  0.486144  0.670884  0.900610  1
  Th  Th3  1  0.995232  0.822381  0.598742  1
  Th  Th4  1  0.506838  0.326196  0.096694  1
  Th  Th5  1  0.006075  0.171743  0.403892  1
  Th  Th6  1  0.506838  0.326196  0.403306  1
  Th  Th7  1  0.486144  0.670884  0.599390  1
  Sc  Sc8  1  0.836389  0.496619  0.250000  1
  Sc  Sc9  1  0.337151  0.003424  0.250000  1
  Sc  Sc10  1  0.661202  0.999623  0.750000  1
  Sc  Sc11  1  0.328861  0.184495  0.623472  1
  Sc  Sc12  1  0.666542  0.824993  0.375899  1
  Sc  Sc13  1  0.167311  0.678846  0.373395  1
  Sc  Sc14  1  0.666542  0.824993  0.124101  1
  Sc  Sc15  1  0.843589  0.324183  0.623741  1
  Sc  Sc16  1  0.328861  0.184495  0.876528  1
  Sc  Sc17  1  0.843589  0.324183  0.876259  1
  Sc  Sc18  1  0.167311  0.678846  0.126605  1
  Si  Si19  1  0.032556  0.106048  0.750000  1
  Si  Si20  1  0.963437  0.877148  0.250000  1
  Si  Si21  1  0.466529  0.621405  0.250000  1
  Si  Si22  1  0.553857  0.372055  0.750000  1
  Si  Si23  1  0.296355  0.900690  0.750000  1
  Si  Si24  1  0.709732  0.124972  0.250000  1
  Si  Si25  1  0.209575  0.375270  0.250000  1
  Si  Si26  1  0.772165  0.627069  0.750000  1
  Si  Si27  1  0.162822  0.460154  0.526826  1
  Si  Si28  1  0.839664  0.537940  0.461322  1
  Si  Si29  1  0.339716  0.962047  0.462692  1
  Si  Si30  1  0.839664  0.537940  0.038678  1
  Si  Si31  1  0.661128  0.034188  0.540914  1
  Si  Si32  1  0.162822  0.460154  0.973174  1
  Si  Si33  1  0.661128  0.034188  0.959086  1
  Si  Si34  1  0.339716  0.962047  0.037308  1
  Hg  Hg35  1  0.153212  0.499580  0.750000  1
