# generated using pymatgen
data_MgNb(FePt6)2
_symmetry_space_group_name_H-M   'P 1'
_cell_length_a   5.60457800
_cell_length_b   5.60457834
_cell_length_c   7.92799000
_cell_angle_alpha   90.00000000
_cell_angle_beta   90.00000000
_cell_angle_gamma   89.97993219
_symmetry_Int_Tables_number   1
_chemical_formula_structural   MgNb(FePt6)2
_chemical_formula_sum   'Mg1 Nb1 Fe2 Pt12'
_cell_volume   249.02842914
_cell_formula_units_Z   1
loop_
 _symmetry_equiv_pos_site_id
 _symmetry_equiv_pos_as_xyz
  1  'x, y, z'
loop_
 _atom_site_type_symbol
 _atom_site_label
 _atom_site_symmetry_multiplicity
 _atom_site_fract_x
 _atom_site_fract_y
 _atom_site_fract_z
 _atom_site_occupancy
  Mg  Mg0  1  0.500000  0.000000  0.750037  1
  Nb  Nb1  1  0.000000  0.500000  0.749994  1
  Fe  Fe2  1  0.500000  0.000000  0.250073  1
  Fe  Fe3  1  0.000000  0.500000  0.250013  1
  Pt  Pt4  1  0.246030  0.253970  0.003948  1
  Pt  Pt5  1  0.754304  0.254304  0.496028  1
  Pt  Pt6  1  0.749725  0.249725  0.004311  1
  Pt  Pt7  1  0.753970  0.746030  0.003948  1
  Pt  Pt8  1  0.500000  0.500000  0.749933  1
  Pt  Pt9  1  0.250588  0.249412  0.495656  1
  Pt  Pt10  1  0.749412  0.750588  0.495656  1
  Pt  Pt11  1  0.245696  0.745696  0.496028  1
  Pt  Pt12  1  0.500000  0.500000  0.250065  1
  Pt  Pt13  1  0.000000  0.000000  0.749933  1
  Pt  Pt14  1  0.000000  0.000000  0.250065  1
  Pt  Pt15  1  0.250275  0.750275  0.004311  1
