# generated using pymatgen
data_Ca3InGeRh2
_symmetry_space_group_name_H-M   'P 1'
_cell_length_a   5.77742600
_cell_length_b   8.18933200
_cell_length_c   13.84161500
_cell_angle_alpha   90.00000000
_cell_angle_beta   90.00000000
_cell_angle_gamma   90.00000000
_symmetry_Int_Tables_number   1
_chemical_formula_structural   Ca3InGeRh2
_chemical_formula_sum   'Ca12 In4 Ge4 Rh8'
_cell_volume   654.89192405
_cell_formula_units_Z   4
loop_
 _symmetry_equiv_pos_site_id
 _symmetry_equiv_pos_as_xyz
  1  'x, y, z'
loop_
 _atom_site_type_symbol
 _atom_site_label
 _atom_site_symmetry_multiplicity
 _atom_site_fract_x
 _atom_site_fract_y
 _atom_site_fract_z
 _atom_site_occupancy
  Ca  Ca0  1  0.639819  0.252368  0.250000  1
  Ca  Ca1  1  0.360181  0.747632  0.750000  1
  Ca  Ca2  1  0.360181  0.752368  0.250000  1
  Ca  Ca3  1  0.639819  0.247632  0.750000  1
  Ca  Ca4  1  0.150698  0.398680  0.099846  1
  Ca  Ca5  1  0.849302  0.601320  0.900154  1
  Ca  Ca6  1  0.849302  0.601320  0.599846  1
  Ca  Ca7  1  0.849302  0.898680  0.400154  1
  Ca  Ca8  1  0.150698  0.398680  0.400154  1
  Ca  Ca9  1  0.150698  0.101320  0.599846  1
  Ca  Ca10  1  0.150698  0.101320  0.900154  1
  Ca  Ca11  1  0.849302  0.898680  0.099846  1
  In  In12  1  0.632604  0.250000  0.000000  1
  In  In13  1  0.367396  0.750000  0.000000  1
  In  In14  1  0.367396  0.750000  0.500000  1
  In  In15  1  0.632604  0.250000  0.500000  1
  Ge  Ge16  1  0.148719  0.101481  0.250000  1
  Ge  Ge17  1  0.851281  0.898519  0.750000  1
  Ge  Ge18  1  0.851281  0.601481  0.250000  1
  Ge  Ge19  1  0.148719  0.398519  0.750000  1
  Rh  Rh20  1  0.354484  0.034460  0.099526  1
  Rh  Rh21  1  0.645516  0.965540  0.900474  1
  Rh  Rh22  1  0.645516  0.965540  0.599526  1
  Rh  Rh23  1  0.645516  0.534460  0.400474  1
  Rh  Rh24  1  0.354484  0.034460  0.400474  1
  Rh  Rh25  1  0.354484  0.465540  0.599526  1
  Rh  Rh26  1  0.354484  0.465540  0.900474  1
  Rh  Rh27  1  0.645516  0.534460  0.099526  1
