# generated using pymatgen
data_Y3Th(GaPd2)4
_symmetry_space_group_name_H-M   'P 1'
_cell_length_a   5.66424217
_cell_length_b   7.19200500
_cell_length_c   7.42738506
_cell_angle_alpha   90.00000000
_cell_angle_beta   89.60655503
_cell_angle_gamma   90.00000000
_symmetry_Int_Tables_number   1
_chemical_formula_structural   Y3Th(GaPd2)4
_chemical_formula_sum   'Y3 Th1 Ga4 Pd8'
_cell_volume   302.56416793
_cell_formula_units_Z   1
loop_
 _symmetry_equiv_pos_site_id
 _symmetry_equiv_pos_as_xyz
  1  'x, y, z'
loop_
 _atom_site_type_symbol
 _atom_site_label
 _atom_site_symmetry_multiplicity
 _atom_site_fract_x
 _atom_site_fract_y
 _atom_site_fract_z
 _atom_site_occupancy
  Y  Y0  1  0.145586  0.750000  0.529566  1
  Y  Y1  1  0.649592  0.250000  0.968403  1
  Y  Y2  1  0.854323  0.250000  0.467702  1
  Th  Th3  1  0.352743  0.750000  0.033603  1
  Ga  Ga4  1  0.646882  0.750000  0.390903  1
  Ga  Ga5  1  0.855562  0.750000  0.879125  1
  Ga  Ga6  1  0.356879  0.250000  0.616557  1
  Ga  Ga7  1  0.142728  0.250000  0.115780  1
  Pd  Pd8  1  0.910697  0.553166  0.183091  1
  Pd  Pd9  1  0.586989  0.948908  0.683536  1
  Pd  Pd10  1  0.088677  0.051793  0.817051  1
  Pd  Pd11  1  0.411491  0.448417  0.315502  1
  Pd  Pd12  1  0.088677  0.448207  0.817051  1
  Pd  Pd13  1  0.411491  0.051583  0.315502  1
  Pd  Pd14  1  0.910697  0.946834  0.183091  1
  Pd  Pd15  1  0.586989  0.551092  0.683536  1
