# generated using pymatgen
data_Tm5ZnIn4Rh
_symmetry_space_group_name_H-M   'P 1'
_cell_length_a   3.56380400
_cell_length_b   8.12618142
_cell_length_c   18.17349223
_cell_angle_alpha   89.52765039
_cell_angle_beta   90.00000000
_cell_angle_gamma   90.00000000
_symmetry_Int_Tables_number   1
_chemical_formula_structural   Tm5ZnIn4Rh
_chemical_formula_sum   'Tm10 Zn2 In8 Rh2'
_cell_volume   526.28859220
_cell_formula_units_Z   2
loop_
 _symmetry_equiv_pos_site_id
 _symmetry_equiv_pos_as_xyz
  1  'x, y, z'
loop_
 _atom_site_type_symbol
 _atom_site_label
 _atom_site_symmetry_multiplicity
 _atom_site_fract_x
 _atom_site_fract_y
 _atom_site_fract_z
 _atom_site_occupancy
  Tm  Tm0  1  0.000000  0.119161  0.419935  1
  Tm  Tm1  1  0.000000  0.880839  0.580065  1
  Tm  Tm2  1  0.000000  0.383911  0.914186  1
  Tm  Tm3  1  0.000000  0.616089  0.085814  1
  Tm  Tm4  1  0.000000  0.261155  0.216976  1
  Tm  Tm5  1  0.000000  0.738845  0.783024  1
  Tm  Tm6  1  0.000000  0.281843  0.722431  1
  Tm  Tm7  1  0.000000  0.718157  0.277569  1
  Tm  Tm8  1  0.000000  0.000000  0.000000  1
  Tm  Tm9  1  0.000000  0.500000  0.500000  1
  Zn  Zn10  1  0.500000  0.021575  0.301330  1
  Zn  Zn11  1  0.500000  0.978425  0.698670  1
  In  In12  1  0.500000  0.419144  0.351762  1
  In  In13  1  0.500000  0.580856  0.648238  1
  In  In14  1  0.500000  0.078801  0.849941  1
  In  In15  1  0.500000  0.921199  0.150059  1
  In  In16  1  0.500000  0.294925  0.066152  1
  In  In17  1  0.500000  0.705075  0.933848  1
  In  In18  1  0.500000  0.208296  0.569093  1
  In  In19  1  0.500000  0.791704  0.430907  1
  Rh  Rh20  1  0.500000  0.476002  0.804233  1
  Rh  Rh21  1  0.500000  0.523998  0.195767  1
