# generated using pymatgen
data_Tm7Hf13Si16
_symmetry_space_group_name_H-M   'P 1'
_cell_length_a   7.22167530
_cell_length_b   7.22165479
_cell_length_c   13.24395419
_cell_angle_alpha   90.01673206
_cell_angle_beta   89.95380986
_cell_angle_gamma   89.94925050
_symmetry_Int_Tables_number   1
_chemical_formula_structural   Tm7Hf13Si16
_chemical_formula_sum   'Tm7 Hf13 Si16'
_cell_volume   690.70408156
_cell_formula_units_Z   1
loop_
 _symmetry_equiv_pos_site_id
 _symmetry_equiv_pos_as_xyz
  1  'x, y, z'
loop_
 _atom_site_type_symbol
 _atom_site_label
 _atom_site_symmetry_multiplicity
 _atom_site_fract_x
 _atom_site_fract_y
 _atom_site_fract_z
 _atom_site_occupancy
  Tm  Tm0  1  0.494915  0.153200  0.533816  1
  Tm  Tm1  1  0.504342  0.846920  0.036042  1
  Tm  Tm2  1  0.655194  0.005614  0.283080  1
  Tm  Tm3  1  0.346126  0.996056  0.785482  1
  Tm  Tm4  1  0.846427  0.504780  0.965901  1
  Tm  Tm5  1  0.153596  0.495309  0.465049  1
  Tm  Tm6  1  0.004960  0.654367  0.715119  1
  Hf  Hf7  1  0.676081  0.323424  0.749901  1
  Hf  Hf8  1  0.322502  0.673799  0.249983  1
  Hf  Hf9  1  0.823949  0.823458  0.499126  1
  Hf  Hf10  1  0.174118  0.177781  0.001725  1
  Hf  Hf11  1  0.999783  0.351393  0.213734  1
  Hf  Hf12  1  0.497937  0.352934  0.126464  1
  Hf  Hf13  1  0.502891  0.647556  0.625200  1
  Hf  Hf14  1  0.853009  0.003866  0.876803  1
  Hf  Hf15  1  0.144113  0.995839  0.373489  1
  Hf  Hf16  1  0.646839  0.500021  0.372873  1
  Hf  Hf17  1  0.352621  0.497048  0.875680  1
  Hf  Hf18  1  0.002659  0.853157  0.125328  1
  Hf  Hf19  1  0.997012  0.146529  0.624239  1
  Si  Si20  1  0.799581  0.146287  0.072294  1
  Si  Si21  1  0.204655  0.858803  0.567218  1
  Si  Si22  1  0.640841  0.704707  0.818305  1
  Si  Si23  1  0.353261  0.296666  0.317226  1
  Si  Si24  1  0.859372  0.205850  0.428631  1
  Si  Si25  1  0.140582  0.794876  0.932679  1
  Si  Si26  1  0.708763  0.637986  0.181075  1
  Si  Si27  1  0.296207  0.358529  0.681922  1
  Si  Si28  1  0.550870  0.204560  0.936886  1
  Si  Si29  1  0.449994  0.795311  0.435252  1
  Si  Si30  1  0.704321  0.949527  0.685742  1
  Si  Si31  1  0.293930  0.052672  0.186186  1
  Si  Si32  1  0.795807  0.449678  0.563482  1
  Si  Si33  1  0.201090  0.547254  0.066460  1
  Si  Si34  1  0.950885  0.698544  0.313319  1
  Si  Si35  1  0.050768  0.295702  0.814287  1
