# generated using pymatgen
data_Hf2Zr6Cu3Ag
_symmetry_space_group_name_H-M   'P 1'
_cell_length_a   3.21391700
_cell_length_b   3.21391700
_cell_length_c   22.96670000
_cell_angle_alpha   90.00000000
_cell_angle_beta   90.00000000
_cell_angle_gamma   90.00000000
_symmetry_Int_Tables_number   1
_chemical_formula_structural   Hf2Zr6Cu3Ag
_chemical_formula_sum   'Hf2 Zr6 Cu3 Ag1'
_cell_volume   237.22907267
_cell_formula_units_Z   1
loop_
 _symmetry_equiv_pos_site_id
 _symmetry_equiv_pos_as_xyz
  1  'x, y, z'
loop_
 _atom_site_type_symbol
 _atom_site_label
 _atom_site_symmetry_multiplicity
 _atom_site_fract_x
 _atom_site_fract_y
 _atom_site_fract_z
 _atom_site_occupancy
  Hf  Hf0  1  0.000000  0.000000  0.330676  1
  Hf  Hf1  1  0.000000  0.000000  0.818722  1
  Zr  Zr2  1  0.500000  0.500000  0.087509  1
  Zr  Zr3  1  0.500000  0.500000  0.574795  1
  Zr  Zr4  1  0.000000  0.000000  0.180955  1
  Zr  Zr5  1  0.500000  0.500000  0.422802  1
  Zr  Zr6  1  0.000000  0.000000  0.668948  1
  Zr  Zr7  1  0.500000  0.500000  0.910320  1
  Cu  Cu8  1  0.500000  0.500000  0.258747  1
  Cu  Cu9  1  0.000000  0.000000  0.499638  1
  Cu  Cu10  1  0.500000  0.500000  0.747557  1
  Ag  Ag11  1  0.000000  0.000000  0.999332  1
