# generated using pymatgen
data_NdY2(HoRh6)3
_symmetry_space_group_name_H-M   'P 1'
_cell_length_a   5.28635700
_cell_length_b   5.28635636
_cell_length_c   17.51503700
_cell_angle_alpha   90.00000000
_cell_angle_beta   90.00000000
_cell_angle_gamma   119.99999778
_symmetry_Int_Tables_number   1
_chemical_formula_structural   NdY2(HoRh6)3
_chemical_formula_sum   'Nd1 Y2 Ho3 Rh18'
_cell_volume   423.89141892
_cell_formula_units_Z   1
loop_
 _symmetry_equiv_pos_site_id
 _symmetry_equiv_pos_as_xyz
  1  'x, y, z'
loop_
 _atom_site_type_symbol
 _atom_site_label
 _atom_site_symmetry_multiplicity
 _atom_site_fract_x
 _atom_site_fract_y
 _atom_site_fract_z
 _atom_site_occupancy
  Nd  Nd0  1  0.666667  0.333333  0.249962  1
  Y  Y1  1  0.333333  0.666667  0.542074  1
  Y  Y2  1  0.333333  0.666667  0.750143  1
  Ho  Ho3  1  0.666667  0.333333  0.041172  1
  Ho  Ho4  1  0.666667  0.333333  0.458586  1
  Ho  Ho5  1  0.333333  0.666667  0.957733  1
  Rh  Rh6  1  0.167469  0.334937  0.124677  1
  Rh  Rh7  1  0.832605  0.665211  0.625915  1
  Rh  Rh8  1  0.665063  0.832531  0.124677  1
  Rh  Rh9  1  0.167469  0.832531  0.124677  1
  Rh  Rh10  1  0.832605  0.167395  0.625915  1
  Rh  Rh11  1  0.334789  0.167395  0.625915  1
  Rh  Rh12  1  0.832549  0.665099  0.874379  1
  Rh  Rh13  1  0.832549  0.167451  0.874379  1
  Rh  Rh14  1  0.334901  0.167451  0.874379  1
  Rh  Rh15  1  0.665212  0.832605  0.375160  1
  Rh  Rh16  1  0.167395  0.832605  0.375160  1
  Rh  Rh17  1  0.167395  0.334788  0.375160  1
  Rh  Rh18  1  0.000000  0.000000  0.249885  1
  Rh  Rh19  1  0.000000  0.000000  0.750065  1
  Rh  Rh20  1  0.333333  0.666667  0.249974  1
  Rh  Rh21  1  0.666667  0.333333  0.750053  1
  Rh  Rh22  1  0.000000  0.000000  0.999577  1
  Rh  Rh23  1  0.000000  0.000000  0.500382  1
