# generated using pymatgen
data_Zr10BeSn4GeSb2
_symmetry_space_group_name_H-M   'P 1'
_cell_length_a   8.66940062
_cell_length_b   8.66939910
_cell_length_c   5.85926994
_cell_angle_alpha   90.03250723
_cell_angle_beta   90.03251612
_cell_angle_gamma   120.02707385
_symmetry_Int_Tables_number   1
_chemical_formula_structural   Zr10BeSn4GeSb2
_chemical_formula_sum   'Zr10 Be1 Sn4 Ge1 Sb2'
_cell_volume   381.27065587
_cell_formula_units_Z   1
loop_
 _symmetry_equiv_pos_site_id
 _symmetry_equiv_pos_as_xyz
  1  'x, y, z'
loop_
 _atom_site_type_symbol
 _atom_site_label
 _atom_site_symmetry_multiplicity
 _atom_site_fract_x
 _atom_site_fract_y
 _atom_site_fract_z
 _atom_site_occupancy
  Zr  Zr0  1  0.666793  0.332444  0.998944  1
  Zr  Zr1  1  0.332444  0.666793  0.998944  1
  Zr  Zr2  1  0.332181  0.666830  0.500673  1
  Zr  Zr3  1  0.666830  0.332181  0.500673  1
  Zr  Zr4  1  0.740640  0.740640  0.760607  1
  Zr  Zr5  1  0.260187  0.999949  0.760849  1
  Zr  Zr6  1  0.999949  0.260187  0.760849  1
  Zr  Zr7  1  0.256601  0.256601  0.239950  1
  Zr  Zr8  1  0.742591  0.000744  0.240274  1
  Zr  Zr9  1  0.000744  0.742591  0.240274  1
  Be  Be10  1  0.999397  0.999397  0.995862  1
  Sn  Sn11  1  0.391764  0.391764  0.749432  1
  Sn  Sn12  1  0.609888  0.999142  0.749149  1
  Sn  Sn13  1  0.999142  0.609888  0.749149  1
  Sn  Sn14  1  0.608073  0.608073  0.250714  1
  Ge  Ge15  1  0.999646  0.999646  0.503684  1
  Sb  Sb16  1  0.393060  0.000069  0.249987  1
  Sb  Sb17  1  0.000069  0.393060  0.249987  1
