# generated using pymatgen
data_Np4Al18Pd5Ru
_symmetry_space_group_name_H-M   'P 1'
_cell_length_a   7.65499943
_cell_length_b   7.65499876
_cell_length_c   9.52089951
_cell_angle_alpha   90.08877308
_cell_angle_beta   90.08878552
_cell_angle_gamma   119.75718789
_symmetry_Int_Tables_number   1
_chemical_formula_structural   Np4Al18Pd5Ru
_chemical_formula_sum   'Np4 Al18 Pd5 Ru1'
_cell_volume   484.34435542
_cell_formula_units_Z   1
loop_
 _symmetry_equiv_pos_site_id
 _symmetry_equiv_pos_as_xyz
  1  'x, y, z'
loop_
 _atom_site_type_symbol
 _atom_site_label
 _atom_site_symmetry_multiplicity
 _atom_site_fract_x
 _atom_site_fract_y
 _atom_site_fract_z
 _atom_site_occupancy
  Np  Np0  1  0.995311  0.669058  0.245496  1
  Np  Np1  1  0.004448  0.331065  0.754180  1
  Np  Np2  1  0.668935  0.995552  0.245820  1
  Np  Np3  1  0.330942  0.004689  0.754504  1
  Al  Al4  1  0.128621  0.129866  0.251244  1
  Al  Al5  1  0.870134  0.871379  0.748756  1
  Al  Al6  1  0.999340  0.334617  0.075958  1
  Al  Al7  1  0.995512  0.660997  0.922902  1
  Al  Al8  1  0.001415  0.666096  0.574955  1
  Al  Al9  1  0.333904  0.998585  0.425045  1
  Al  Al10  1  0.998767  0.335407  0.426124  1
  Al  Al11  1  0.664593  0.001233  0.573876  1
  Al  Al12  1  0.665383  0.000660  0.924042  1
  Al  Al13  1  0.339003  0.004488  0.077098  1
  Al  Al14  1  0.331660  0.332417  0.559696  1
  Al  Al15  1  0.667583  0.668340  0.440304  1
  Al  Al16  1  0.666651  0.662511  0.054357  1
  Al  Al17  1  0.337489  0.333349  0.945643  1
  Al  Al18  1  0.338944  0.547169  0.250649  1
  Al  Al19  1  0.659196  0.452045  0.752563  1
  Al  Al20  1  0.547955  0.340804  0.247437  1
  Al  Al21  1  0.452831  0.661056  0.749351  1
  Pd  Pd22  1  0.329613  0.670387  0.000000  1
  Pd  Pd23  1  0.329973  0.670027  0.500000  1
  Pd  Pd24  1  0.669303  0.330697  0.500000  1
  Pd  Pd25  1  0.000728  0.999272  0.000000  1
  Pd  Pd26  1  0.999458  0.000542  0.500000  1
  Ru  Ru27  1  0.672308  0.327692  0.000000  1
