# generated using pymatgen
data_TmTaB2Ru5W
_symmetry_space_group_name_H-M   'P 1'
_cell_length_a   9.51004494
_cell_length_b   9.51004552
_cell_length_c   3.05099600
_cell_angle_alpha   90.00000000
_cell_angle_beta   90.00000000
_cell_angle_gamma   90.40826022
_symmetry_Int_Tables_number   1
_chemical_formula_structural   TmTaB2Ru5W
_chemical_formula_sum   'Tm2 Ta2 B4 Ru10 W2'
_cell_volume   275.92800316
_cell_formula_units_Z   2
loop_
 _symmetry_equiv_pos_site_id
 _symmetry_equiv_pos_as_xyz
  1  'x, y, z'
loop_
 _atom_site_type_symbol
 _atom_site_label
 _atom_site_symmetry_multiplicity
 _atom_site_fract_x
 _atom_site_fract_y
 _atom_site_fract_z
 _atom_site_occupancy
  Tm  Tm0  1  0.823761  0.676239  0.000000  1
  Tm  Tm1  1  0.176239  0.323761  0.000000  1
  Ta  Ta2  1  0.323764  0.823764  0.000000  1
  Ta  Ta3  1  0.676236  0.176236  0.000000  1
  B  B4  1  0.620400  0.879600  0.000000  1
  B  B5  1  0.379600  0.120400  0.000000  1
  B  B6  1  0.120829  0.620829  0.000000  1
  B  B7  1  0.879171  0.379171  0.000000  1
  Ru  Ru8  1  0.562388  0.720031  0.500000  1
  Ru  Ru9  1  0.437612  0.279969  0.500000  1
  Ru  Ru10  1  0.078376  0.786872  0.500000  1
  Ru  Ru11  1  0.921624  0.213128  0.500000  1
  Ru  Ru12  1  0.286872  0.578376  0.500000  1
  Ru  Ru13  1  0.713128  0.421624  0.500000  1
  Ru  Ru14  1  0.220031  0.062388  0.500000  1
  Ru  Ru15  1  0.779969  0.937612  0.500000  1
  Ru  Ru16  1  0.500000  0.000000  0.500000  1
  Ru  Ru17  1  0.000000  0.500000  0.500000  1
  W  W18  1  0.500000  0.500000  0.000000  1
  W  W19  1  0.000000  0.000000  0.000000  1
