# generated using pymatgen
data_Er10CoBi4Sb
_symmetry_space_group_name_H-M   'P 1'
_cell_length_a   7.98438900
_cell_length_b   9.30595700
_cell_length_c   12.01372400
_cell_angle_alpha   90.00000000
_cell_angle_beta   90.00000000
_cell_angle_gamma   90.00000000
_symmetry_Int_Tables_number   1
_chemical_formula_structural   Er10CoBi4Sb
_chemical_formula_sum   'Er20 Co2 Bi8 Sb2'
_cell_volume   892.64829434
_cell_formula_units_Z   2
loop_
 _symmetry_equiv_pos_site_id
 _symmetry_equiv_pos_as_xyz
  1  'x, y, z'
loop_
 _atom_site_type_symbol
 _atom_site_label
 _atom_site_symmetry_multiplicity
 _atom_site_fract_x
 _atom_site_fract_y
 _atom_site_fract_z
 _atom_site_occupancy
  Er  Er0  1  0.430058  0.180414  0.562761  1
  Er  Er1  1  0.569942  0.819586  0.062761  1
  Er  Er2  1  0.073328  0.724803  0.437175  1
  Er  Er3  1  0.926672  0.275197  0.937175  1
  Er  Er4  1  0.073328  0.275197  0.437175  1
  Er  Er5  1  0.926672  0.724803  0.937175  1
  Er  Er6  1  0.430058  0.819586  0.562761  1
  Er  Er7  1  0.569942  0.180414  0.062761  1
  Er  Er8  1  0.574574  0.500000  0.775483  1
  Er  Er9  1  0.425426  0.500000  0.275483  1
  Er  Er10  1  0.907212  0.000000  0.201075  1
  Er  Er11  1  0.092788  0.000000  0.701075  1
  Er  Er12  1  0.264431  0.500000  0.993985  1
  Er  Er13  1  0.735569  0.500000  0.493985  1
  Er  Er14  1  0.196196  0.000000  0.996023  1
  Er  Er15  1  0.803804  0.000000  0.496023  1
  Er  Er16  1  0.095189  0.500000  0.715134  1
  Er  Er17  1  0.904811  0.500000  0.215134  1
  Er  Er18  1  0.370110  0.000000  0.308679  1
  Er  Er19  1  0.629890  0.000000  0.808679  1
  Co  Co20  1  0.173759  0.000000  0.488897  1
  Co  Co21  1  0.826241  0.000000  0.988897  1
  Bi  Bi22  1  0.814595  0.740774  0.671977  1
  Bi  Bi23  1  0.185405  0.259226  0.171977  1
  Bi  Bi24  1  0.679903  0.241603  0.325060  1
  Bi  Bi25  1  0.320097  0.758397  0.825060  1
  Bi  Bi26  1  0.679903  0.758397  0.325060  1
  Bi  Bi27  1  0.320097  0.241603  0.825060  1
  Bi  Bi28  1  0.814595  0.259226  0.671977  1
  Bi  Bi29  1  0.185405  0.740774  0.171977  1
  Sb  Sb30  1  0.347012  0.500000  0.526779  1
  Sb  Sb31  1  0.652988  0.500000  0.026779  1
