# generated using pymatgen
data_Tm2Lu2CoAg
_symmetry_space_group_name_H-M   'P 1'
_cell_length_a   9.24572918
_cell_length_b   9.24589439
_cell_length_c   9.24667001
_cell_angle_alpha   59.99776208
_cell_angle_beta   59.99986570
_cell_angle_gamma   59.99947378
_symmetry_Int_Tables_number   1
_chemical_formula_structural   Tm2Lu2CoAg
_chemical_formula_sum   'Tm8 Lu8 Co4 Ag4'
_cell_volume   558.92166516
_cell_formula_units_Z   4
loop_
 _symmetry_equiv_pos_site_id
 _symmetry_equiv_pos_as_xyz
  1  'x, y, z'
loop_
 _atom_site_type_symbol
 _atom_site_label
 _atom_site_symmetry_multiplicity
 _atom_site_fract_x
 _atom_site_fract_y
 _atom_site_fract_z
 _atom_site_occupancy
  Tm  Tm0  1  0.188157  0.188148  0.811869  1
  Tm  Tm1  1  0.811850  0.811848  0.188136  1
  Tm  Tm2  1  0.937898  0.562111  0.562097  1
  Tm  Tm3  1  0.562100  0.937903  0.937884  1
  Tm  Tm4  1  0.562096  0.937875  0.562117  1
  Tm  Tm5  1  0.937899  0.562124  0.937876  1
  Tm  Tm6  1  0.562018  0.562003  0.937996  1
  Tm  Tm7  1  0.938006  0.938008  0.562017  1
  Lu  Lu8  1  0.347689  0.347687  0.347368  1
  Lu  Lu9  1  0.347673  0.347641  0.957289  1
  Lu  Lu10  1  0.347429  0.957266  0.347631  1
  Lu  Lu11  1  0.957265  0.347433  0.347640  1
  Lu  Lu12  1  0.811690  0.188306  0.188293  1
  Lu  Lu13  1  0.188304  0.811664  0.811723  1
  Lu  Lu14  1  0.188299  0.811692  0.188305  1
  Lu  Lu15  1  0.811661  0.188303  0.811726  1
  Co  Co16  1  0.141358  0.141365  0.141449  1
  Co  Co17  1  0.141348  0.141353  0.575834  1
  Co  Co18  1  0.141457  0.575823  0.141358  1
  Co  Co19  1  0.575829  0.141452  0.141367  1
  Ag  Ag20  1  0.581644  0.581648  0.581872  1
  Ag  Ag21  1  0.581652  0.581650  0.254837  1
  Ag  Ag22  1  0.581844  0.254835  0.581660  1
  Ag  Ag23  1  0.254832  0.581861  0.581656  1
