# generated using pymatgen
data_CrFeP4PbO14
_symmetry_space_group_name_H-M   'P 1'
_cell_length_a   4.87833413
_cell_length_b   7.17674407
_cell_length_c   7.98764365
_cell_angle_alpha   89.68448483
_cell_angle_beta   92.67558428
_cell_angle_gamma   105.98630067
_symmetry_Int_Tables_number   1
_chemical_formula_structural   CrFeP4PbO14
_chemical_formula_sum   'Cr1 Fe1 P4 Pb1 O14'
_cell_volume   268.53609003
_cell_formula_units_Z   1
loop_
 _symmetry_equiv_pos_site_id
 _symmetry_equiv_pos_as_xyz
  1  'x, y, z'
loop_
 _atom_site_type_symbol
 _atom_site_label
 _atom_site_symmetry_multiplicity
 _atom_site_fract_x
 _atom_site_fract_y
 _atom_site_fract_z
 _atom_site_occupancy
  Cr  Cr0  1  0.500000  0.500000  0.500000  1
  Fe  Fe1  1  0.000000  0.000000  0.000000  1
  P  P2  1  0.024878  0.615403  0.251944  1
  P  P3  1  0.975122  0.384597  0.748056  1
  P  P4  1  0.616122  0.230377  0.203347  1
  P  P5  1  0.383878  0.769623  0.796653  1
  Pb  Pb6  1  0.000000  0.000000  0.500000  1
  O  O7  1  0.800890  0.443845  0.148114  1
  O  O8  1  0.199110  0.556155  0.851886  1
  O  O9  1  0.522394  0.246446  0.385860  1
  O  O10  1  0.477606  0.753554  0.614140  1
  O  O11  1  0.293416  0.554345  0.294659  1
  O  O12  1  0.706584  0.445655  0.705341  1
  O  O13  1  0.871251  0.649189  0.410971  1
  O  O14  1  0.184065  0.903985  0.793152  1
  O  O15  1  0.815935  0.096015  0.206848  1
  O  O16  1  0.914519  0.202681  0.853058  1
  O  O17  1  0.085481  0.797319  0.146942  1
  O  O18  1  0.626070  0.823576  0.927149  1
  O  O19  1  0.373930  0.176424  0.072851  1
  O  O20  1  0.128749  0.350811  0.589029  1
