# generated using pymatgen
data_Er3Lu5(BBr6)2
_symmetry_space_group_name_H-M   'P 1'
_cell_length_a   3.88684000
_cell_length_b   12.96019161
_cell_length_c   13.42392786
_cell_angle_alpha   90.11579379
_cell_angle_beta   90.00000000
_cell_angle_gamma   90.00000000
_symmetry_Int_Tables_number   1
_chemical_formula_structural   Er3Lu5(BBr6)2
_chemical_formula_sum   'Er3 Lu5 B2 Br12'
_cell_volume   676.21812717
_cell_formula_units_Z   1
loop_
 _symmetry_equiv_pos_site_id
 _symmetry_equiv_pos_as_xyz
  1  'x, y, z'
loop_
 _atom_site_type_symbol
 _atom_site_label
 _atom_site_symmetry_multiplicity
 _atom_site_fract_x
 _atom_site_fract_y
 _atom_site_fract_z
 _atom_site_occupancy
  Er  Er0  1  0.500000  0.122290  0.856355  1
  Er  Er1  1  0.500000  0.877740  0.143688  1
  Er  Er2  1  0.500000  0.622157  0.643544  1
  Lu  Lu3  1  0.000000  0.099702  0.079234  1
  Lu  Lu4  1  0.000000  0.900472  0.920939  1
  Lu  Lu5  1  0.000000  0.599268  0.420731  1
  Lu  Lu6  1  0.000000  0.400271  0.578768  1
  Lu  Lu7  1  0.500000  0.378564  0.357293  1
  B  B8  1  0.500000  0.000130  0.000070  1
  B  B9  1  0.500000  0.499483  0.499379  1
  Br  Br10  1  0.500000  0.269378  0.680618  1
  Br  Br11  1  0.500000  0.730402  0.319123  1
  Br  Br12  1  0.500000  0.769223  0.818958  1
  Br  Br13  1  0.500000  0.231670  0.182178  1
  Br  Br14  1  0.000000  0.262076  0.932592  1
  Br  Br15  1  0.000000  0.737914  0.067471  1
  Br  Br16  1  0.000000  0.479679  0.239987  1
  Br  Br17  1  0.000000  0.518019  0.761026  1
  Br  Br18  1  0.000000  0.982066  0.261443  1
  Br  Br19  1  0.000000  0.017927  0.738618  1
  Br  Br20  1  0.000000  0.239844  0.430455  1
  Br  Br21  1  0.000000  0.761726  0.567529  1
