# generated using pymatgen
data_SmEr4Ga2Ru3
_symmetry_space_group_name_H-M   'P 1'
_cell_length_a   8.30487991
_cell_length_b   8.29828018
_cell_length_c   8.30042749
_cell_angle_alpha   109.24808274
_cell_angle_beta   109.81744207
_cell_angle_gamma   109.41449221
_symmetry_Int_Tables_number   1
_chemical_formula_structural   SmEr4Ga2Ru3
_chemical_formula_sum   'Sm2 Er8 Ga4 Ru6'
_cell_volume   439.98244854
_cell_formula_units_Z   2
loop_
 _symmetry_equiv_pos_site_id
 _symmetry_equiv_pos_as_xyz
  1  'x, y, z'
loop_
 _atom_site_type_symbol
 _atom_site_label
 _atom_site_symmetry_multiplicity
 _atom_site_fract_x
 _atom_site_fract_y
 _atom_site_fract_z
 _atom_site_occupancy
  Sm  Sm0  1  0.934572  0.250709  0.185650  1
  Sm  Sm1  1  0.185242  0.932271  0.250917  1
  Er  Er2  1  0.781213  0.782477  0.780242  1
  Er  Er3  1  0.319111  0.568970  0.752445  1
  Er  Er4  1  0.750815  0.319764  0.570402  1
  Er  Er5  1  0.567757  0.748765  0.315994  1
  Er  Er6  1  0.715909  0.500891  0.998319  1
  Er  Er7  1  0.000051  0.718340  0.503685  1
  Er  Er8  1  0.499709  0.996624  0.716041  1
  Er  Er9  1  0.251676  0.183310  0.929567  1
  Ga  Ga10  1  0.416714  0.414300  0.414259  1
  Ga  Ga11  1  0.089095  0.495551  0.997429  1
  Ga  Ga12  1  0.997973  0.087758  0.500740  1
  Ga  Ga13  1  0.499217  0.004155  0.088896  1
  Ru  Ru14  1  0.871088  0.119889  0.745580  1
  Ru  Ru15  1  0.743928  0.871839  0.119701  1
  Ru  Ru16  1  0.122988  0.748653  0.873699  1
  Ru  Ru17  1  0.251572  0.625166  0.378605  1
  Ru  Ru18  1  0.375144  0.249993  0.626508  1
  Ru  Ru19  1  0.626228  0.380576  0.251322  1
