# generated using pymatgen
data_Rb4UTe6Pb
_symmetry_space_group_name_H-M   'P 1'
_cell_length_a   8.38154675
_cell_length_b   8.38154706
_cell_length_c   8.82812266
_cell_angle_alpha   80.73376898
_cell_angle_beta   80.73377234
_cell_angle_gamma   119.97458715
_symmetry_Int_Tables_number   1
_chemical_formula_structural   Rb4UTe6Pb
_chemical_formula_sum   'Rb4 U1 Te6 Pb1'
_cell_volume   508.62940491
_cell_formula_units_Z   1
loop_
 _symmetry_equiv_pos_site_id
 _symmetry_equiv_pos_as_xyz
  1  'x, y, z'
loop_
 _atom_site_type_symbol
 _atom_site_label
 _atom_site_symmetry_multiplicity
 _atom_site_fract_x
 _atom_site_fract_y
 _atom_site_fract_z
 _atom_site_occupancy
  Rb  Rb0  1  0.500177  0.499823  0.000000  1
  Rb  Rb1  1  0.655174  0.344826  0.500000  1
  Rb  Rb2  1  0.347665  0.652335  0.500000  1
  Rb  Rb3  1  0.997039  0.002961  0.500000  1
  U  U4  1  0.167748  0.832252  0.000000  1
  Te  Te5  1  0.820328  0.790685  0.200944  1
  Te  Te6  1  0.209315  0.179672  0.799056  1
  Te  Te7  1  0.399302  0.038870  0.204968  1
  Te  Te8  1  0.539026  0.929002  0.793991  1
  Te  Te9  1  0.961130  0.600698  0.795032  1
  Te  Te10  1  0.070998  0.460974  0.206009  1
  Pb  Pb11  1  0.832100  0.167900  0.000000  1
