# generated using pymatgen
data_Tm2Ga2IrPd
_symmetry_space_group_name_H-M   'P 1'
_cell_length_a   4.39547900
_cell_length_b   6.77752900
_cell_length_c   7.65150000
_cell_angle_alpha   90.00000000
_cell_angle_beta   90.00000000
_cell_angle_gamma   90.00000000
_symmetry_Int_Tables_number   1
_chemical_formula_structural   Tm2Ga2IrPd
_chemical_formula_sum   'Tm4 Ga4 Ir2 Pd2'
_cell_volume   227.94190662
_cell_formula_units_Z   2
loop_
 _symmetry_equiv_pos_site_id
 _symmetry_equiv_pos_as_xyz
  1  'x, y, z'
loop_
 _atom_site_type_symbol
 _atom_site_label
 _atom_site_symmetry_multiplicity
 _atom_site_fract_x
 _atom_site_fract_y
 _atom_site_fract_z
 _atom_site_occupancy
  Tm  Tm0  1  0.250000  0.977554  0.309660  1
  Tm  Tm1  1  0.250000  0.477554  0.190340  1
  Tm  Tm2  1  0.750000  0.011395  0.698377  1
  Tm  Tm3  1  0.750000  0.511395  0.801623  1
  Ga  Ga4  1  0.250000  0.333473  0.575254  1
  Ga  Ga5  1  0.250000  0.833473  0.924746  1
  Ga  Ga6  1  0.750000  0.671580  0.428151  1
  Ga  Ga7  1  0.750000  0.171580  0.071849  1
  Ir  Ir8  1  0.250000  0.229396  0.898561  1
  Ir  Ir9  1  0.250000  0.729396  0.601439  1
  Pd  Pd10  1  0.750000  0.776601  0.101579  1
  Pd  Pd11  1  0.750000  0.276601  0.398421  1
