# generated using pymatgen
data_Cs4ThUI12
_symmetry_space_group_name_H-M   'P 1'
_cell_length_a   8.63557700
_cell_length_b   8.63557700
_cell_length_c   12.37780000
_cell_angle_alpha   90.00000000
_cell_angle_beta   90.00000000
_cell_angle_gamma   90.00000000
_symmetry_Int_Tables_number   1
_chemical_formula_structural   Cs4ThUI12
_chemical_formula_sum   'Cs4 Th1 U1 I12'
_cell_volume   923.05203271
_cell_formula_units_Z   1
loop_
 _symmetry_equiv_pos_site_id
 _symmetry_equiv_pos_as_xyz
  1  'x, y, z'
loop_
 _atom_site_type_symbol
 _atom_site_label
 _atom_site_symmetry_multiplicity
 _atom_site_fract_x
 _atom_site_fract_y
 _atom_site_fract_z
 _atom_site_occupancy
  Cs  Cs0  1  0.500000  0.000000  0.749379  1
  Cs  Cs1  1  0.500000  0.000000  0.250621  1
  Cs  Cs2  1  0.000000  0.500000  0.250621  1
  Cs  Cs3  1  0.000000  0.500000  0.749379  1
  Th  Th4  1  0.000000  0.000000  0.000000  1
  U  U5  1  0.500000  0.500000  0.500000  1
  I  I6  1  0.782190  0.282529  0.000000  1
  I  I7  1  0.217810  0.717471  0.000000  1
  I  I8  1  0.500000  0.500000  0.256546  1
  I  I9  1  0.286660  0.223541  0.500000  1
  I  I10  1  0.282529  0.217810  0.000000  1
  I  I11  1  0.776459  0.286660  0.500000  1
  I  I12  1  0.000000  0.000000  0.249329  1
  I  I13  1  0.713340  0.776459  0.500000  1
  I  I14  1  0.223541  0.713340  0.500000  1
  I  I15  1  0.500000  0.500000  0.743454  1
  I  I16  1  0.717471  0.782190  0.000000  1
  I  I17  1  0.000000  0.000000  0.750671  1
