# generated using pymatgen
data_YHo7Tc3B24Ru
_symmetry_space_group_name_H-M   'P 1'
_cell_length_a   3.67063400
_cell_length_b   9.13799635
_cell_length_c   11.52127300
_cell_angle_alpha   89.91895280
_cell_angle_beta   90.00000000
_cell_angle_gamma   90.00000000
_symmetry_Int_Tables_number   1
_chemical_formula_structural   YHo7Tc3B24Ru
_chemical_formula_sum   'Y1 Ho7 Tc3 B24 Ru1'
_cell_volume   386.44891857
_cell_formula_units_Z   1
loop_
 _symmetry_equiv_pos_site_id
 _symmetry_equiv_pos_as_xyz
  1  'x, y, z'
loop_
 _atom_site_type_symbol
 _atom_site_label
 _atom_site_symmetry_multiplicity
 _atom_site_fract_x
 _atom_site_fract_y
 _atom_site_fract_z
 _atom_site_occupancy
  Y  Y0  1  0.000000  0.323566  0.413964  1
  Ho  Ho1  1  0.000000  0.675054  0.584002  1
  Ho  Ho2  1  0.000000  0.823119  0.087302  1
  Ho  Ho3  1  0.000000  0.177855  0.914590  1
  Ho  Ho4  1  0.000000  0.942414  0.370228  1
  Ho  Ho5  1  0.000000  0.057668  0.630781  1
  Ho  Ho6  1  0.000000  0.443087  0.129940  1
  Ho  Ho7  1  0.000000  0.557876  0.869197  1
  Tc  Tc8  1  0.000000  0.638717  0.320483  1
  Tc  Tc9  1  0.000000  0.361652  0.680138  1
  Tc  Tc10  1  0.000000  0.137890  0.178109  1
  B  B11  1  0.500000  0.553308  0.432948  1
  B  B12  1  0.500000  0.446932  0.566912  1
  B  B13  1  0.500000  0.052995  0.066726  1
  B  B14  1  0.500000  0.946152  0.932885  1
  B  B15  1  0.500000  0.748634  0.418872  1
  B  B16  1  0.500000  0.250681  0.581652  1
  B  B17  1  0.500000  0.249176  0.081006  1
  B  B18  1  0.500000  0.751553  0.918551  1
  B  B19  1  0.500000  0.791844  0.265462  1
  B  B20  1  0.500000  0.208360  0.735326  1
  B  B21  1  0.500000  0.291648  0.234332  1
  B  B22  1  0.500000  0.709262  0.765225  1
  B  B23  1  0.500000  0.631321  0.185352  1
  B  B24  1  0.500000  0.368911  0.815093  1
  B  B25  1  0.500000  0.130361  0.314013  1
  B  B26  1  0.500000  0.868665  0.685711  1
  B  B27  1  0.500000  0.981660  0.211741  1
  B  B28  1  0.500000  0.016772  0.788449  1
  B  B29  1  0.500000  0.482427  0.287733  1
  B  B30  1  0.500000  0.517897  0.711691  1
  B  B31  1  0.500000  0.602436  0.028123  1
  B  B32  1  0.500000  0.399217  0.971499  1
  B  B33  1  0.500000  0.101278  0.472125  1
  B  B34  1  0.500000  0.897974  0.528814  1
  Ru  Ru35  1  0.000000  0.861636  0.821026  1
