# generated using pymatgen
data_PrHo2(Co3P2)3
_symmetry_space_group_name_H-M   'P 1'
_cell_length_a   3.71920900
_cell_length_b   10.55914600
_cell_length_c   12.23466600
_cell_angle_alpha   90.00000000
_cell_angle_beta   90.00000000
_cell_angle_gamma   90.00000000
_symmetry_Int_Tables_number   1
_chemical_formula_structural   PrHo2(Co3P2)3
_chemical_formula_sum   'Pr2 Ho4 Co18 P12'
_cell_volume   480.47577593
_cell_formula_units_Z   2
loop_
 _symmetry_equiv_pos_site_id
 _symmetry_equiv_pos_as_xyz
  1  'x, y, z'
loop_
 _atom_site_type_symbol
 _atom_site_label
 _atom_site_symmetry_multiplicity
 _atom_site_fract_x
 _atom_site_fract_y
 _atom_site_fract_z
 _atom_site_occupancy
  Pr  Pr0  1  0.000000  0.500000  0.522571  1
  Pr  Pr1  1  0.500000  0.000000  0.477429  1
  Ho  Ho2  1  0.500000  0.817350  0.204519  1
  Ho  Ho3  1  0.500000  0.182650  0.204519  1
  Ho  Ho4  1  0.000000  0.682650  0.795481  1
  Ho  Ho5  1  0.000000  0.317350  0.795481  1
  Co  Co6  1  0.000000  0.500000  0.986689  1
  Co  Co7  1  0.500000  0.000000  0.013311  1
  Co  Co8  1  0.500000  0.296657  0.428532  1
  Co  Co9  1  0.500000  0.703343  0.428532  1
  Co  Co10  1  0.000000  0.203343  0.571468  1
  Co  Co11  1  0.000000  0.796657  0.571468  1
  Co  Co12  1  0.500000  0.879699  0.713385  1
  Co  Co13  1  0.500000  0.120301  0.713385  1
  Co  Co14  1  0.000000  0.620301  0.286615  1
  Co  Co15  1  0.000000  0.379699  0.286615  1
  Co  Co16  1  0.500000  0.333218  0.995057  1
  Co  Co17  1  0.500000  0.666782  0.995057  1
  Co  Co18  1  0.000000  0.166782  0.004943  1
  Co  Co19  1  0.000000  0.833218  0.004943  1
  Co  Co20  1  0.500000  0.500000  0.156239  1
  Co  Co21  1  0.000000  0.000000  0.843761  1
  Co  Co22  1  0.500000  0.500000  0.707512  1
  Co  Co23  1  0.000000  0.000000  0.292488  1
  P  P24  1  0.500000  0.306659  0.618246  1
  P  P25  1  0.500000  0.693341  0.618246  1
  P  P26  1  0.000000  0.193341  0.381754  1
  P  P27  1  0.000000  0.806659  0.381754  1
  P  P28  1  0.500000  0.500000  0.884153  1
  P  P29  1  0.000000  0.000000  0.115847  1
  P  P30  1  0.500000  0.846513  0.894367  1
  P  P31  1  0.500000  0.153487  0.894367  1
  P  P32  1  0.000000  0.653487  0.105633  1
  P  P33  1  0.000000  0.346513  0.105633  1
  P  P34  1  0.500000  0.500000  0.338758  1
  P  P35  1  0.000000  0.000000  0.661242  1
