# generated using pymatgen
data_CaEr6Nb3(ReN4)6
_symmetry_space_group_name_H-M   'P 1'
_cell_length_a   11.10005986
_cell_length_b   11.17263456
_cell_length_c   11.17263417
_cell_angle_alpha   109.55267390
_cell_angle_beta   109.62673604
_cell_angle_gamma   109.62674606
_symmetry_Int_Tables_number   1
_chemical_formula_structural   CaEr6Nb3(ReN4)6
_chemical_formula_sum   'Ca2 Er12 Nb6 Re12 N48'
_cell_volume   1061.43344738
_cell_formula_units_Z   2
loop_
 _symmetry_equiv_pos_site_id
 _symmetry_equiv_pos_as_xyz
  1  'x, y, z'
loop_
 _atom_site_type_symbol
 _atom_site_label
 _atom_site_symmetry_multiplicity
 _atom_site_fract_x
 _atom_site_fract_y
 _atom_site_fract_z
 _atom_site_occupancy
  Ca  Ca0  1  0.500000  0.000000  0.000000  1
  Ca  Ca1  1  0.000000  0.500000  0.500000  1
  Er  Er2  1  0.250000  0.374030  0.125970  1
  Er  Er3  1  0.372533  0.743539  0.122465  1
  Er  Er4  1  0.377246  0.129534  0.256102  1
  Er  Er5  1  0.872533  0.622465  0.243539  1
  Er  Er6  1  0.750000  0.122271  0.377729  1
  Er  Er7  1  0.122754  0.243898  0.370466  1
  Er  Er8  1  0.877246  0.756102  0.629534  1
  Er  Er9  1  0.250000  0.877729  0.622271  1
  Er  Er10  1  0.127467  0.377535  0.756461  1
  Er  Er11  1  0.622754  0.870466  0.743898  1
  Er  Er12  1  0.627467  0.256461  0.877535  1
  Er  Er13  1  0.750000  0.625970  0.874030  1
  Nb  Nb14  1  0.000000  0.000000  0.000000  1
  Nb  Nb15  1  0.000000  0.500000  0.000000  1
  Nb  Nb16  1  0.500000  0.500000  0.000000  1
  Nb  Nb17  1  0.000000  0.000000  0.500000  1
  Nb  Nb18  1  0.500000  0.000000  0.500000  1
  Nb  Nb19  1  0.500000  0.500000  0.500000  1
  Re  Re20  1  0.878225  0.248923  0.118918  1
  Re  Re21  1  0.752193  0.873762  0.129560  1
  Re  Re22  1  0.621775  0.381082  0.251077  1
  Re  Re23  1  0.122023  0.877892  0.251034  1
  Re  Re24  1  0.252193  0.629560  0.373762  1
  Re  Re25  1  0.622023  0.751034  0.377892  1
  Re  Re26  1  0.377977  0.248966  0.622108  1
  Re  Re27  1  0.747807  0.370440  0.626238  1
  Re  Re28  1  0.877977  0.122108  0.748966  1
  Re  Re29  1  0.378225  0.618918  0.748923  1
  Re  Re30  1  0.247807  0.126238  0.870440  1
  Re  Re31  1  0.121775  0.751077  0.881082  1
  N  N32  1  0.207307  0.115834  0.017184  1
  N  N33  1  0.300719  0.899045  0.038640  1
  N  N34  1  0.881947  0.408262  0.093950  1
  N  N35  1  0.710449  0.683292  0.086763  1
  N  N36  1  0.618053  0.406050  0.091738  1
  N  N37  1  0.982520  0.686611  0.098442  1
  N  N38  1  0.601796  0.901290  0.132209  1
  N  N39  1  0.030207  0.211594  0.121242  1
  N  N40  1  0.210449  0.586763  0.183292  1
  N  N41  1  0.482520  0.598442  0.186611  1
  N  N42  1  0.120597  0.024960  0.206988  1
  N  N43  1  0.603335  0.207952  0.235252  1
  N  N44  1  0.469793  0.378758  0.288406  1
  N  N45  1  0.309937  0.913403  0.299986  1
  N  N46  1  0.896666  0.264748  0.292048  1
  N  N47  1  0.906504  0.023889  0.316028  1
  N  N48  1  0.292693  0.482816  0.384166  1
  N  N49  1  0.584491  0.901244  0.379826  1
  N  N50  1  0.800720  0.538640  0.399045  1
  N  N51  1  0.084491  0.879826  0.401244  1
  N  N52  1  0.101796  0.632209  0.401289  1
  N  N53  1  0.809938  0.799986  0.413402  1
  N  N54  1  0.593496  0.183972  0.476111  1
  N  N55  1  0.379403  0.293012  0.475040  1
  N  N56  1  0.620597  0.706988  0.524960  1
  N  N57  1  0.406504  0.816029  0.523889  1
  N  N58  1  0.190063  0.200014  0.586598  1
  N  N59  1  0.898204  0.367791  0.598711  1
  N  N60  1  0.915510  0.120174  0.598756  1
  N  N61  1  0.199281  0.461360  0.600955  1
  N  N62  1  0.415509  0.098756  0.620174  1
  N  N63  1  0.707307  0.517184  0.615834  1
  N  N64  1  0.103335  0.735252  0.707952  1
  N  N65  1  0.093496  0.976111  0.683972  1
  N  N66  1  0.690063  0.086598  0.700014  1
  N  N67  1  0.530207  0.621242  0.711594  1
  N  N68  1  0.396665  0.792049  0.764748  1
  N  N69  1  0.879403  0.975040  0.793012  1
  N  N70  1  0.517480  0.401558  0.813390  1
  N  N71  1  0.789551  0.413237  0.816709  1
  N  N72  1  0.398204  0.098711  0.867791  1
  N  N73  1  0.969793  0.788406  0.878758  1
  N  N74  1  0.017480  0.313389  0.901558  1
  N  N75  1  0.381947  0.593950  0.908262  1
  N  N76  1  0.289551  0.316708  0.913238  1
  N  N77  1  0.118053  0.591738  0.906051  1
  N  N78  1  0.699281  0.100955  0.961360  1
  N  N79  1  0.792693  0.884166  0.982816  1
