# generated using pymatgen
data_DyThScAl3
_symmetry_space_group_name_H-M   'P 1'
_cell_length_a   5.82260000
_cell_length_b   5.82259919
_cell_length_c   9.30170100
_cell_angle_alpha   90.00000000
_cell_angle_beta   90.00000000
_cell_angle_gamma   120.00001598
_symmetry_Int_Tables_number   1
_chemical_formula_structural   DyThScAl3
_chemical_formula_sum   'Dy2 Th2 Sc2 Al6'
_cell_volume   273.10319967
_cell_formula_units_Z   2
loop_
 _symmetry_equiv_pos_site_id
 _symmetry_equiv_pos_as_xyz
  1  'x, y, z'
loop_
 _atom_site_type_symbol
 _atom_site_label
 _atom_site_symmetry_multiplicity
 _atom_site_fract_x
 _atom_site_fract_y
 _atom_site_fract_z
 _atom_site_occupancy
  Dy  Dy0  1  0.333333  0.666667  0.440118  1
  Dy  Dy1  1  0.666667  0.333333  0.559882  1
  Th  Th2  1  0.666667  0.333333  0.946708  1
  Th  Th3  1  0.333333  0.666667  0.053292  1
  Sc  Sc4  1  0.000000  0.000000  0.500000  1
  Sc  Sc5  1  0.000000  0.000000  0.000000  1
  Al  Al6  1  0.826436  0.173564  0.254158  1
  Al  Al7  1  0.826436  0.652872  0.254158  1
  Al  Al8  1  0.347128  0.173564  0.254158  1
  Al  Al9  1  0.173564  0.826436  0.745842  1
  Al  Al10  1  0.173564  0.347128  0.745842  1
  Al  Al11  1  0.652872  0.826436  0.745842  1
