# generated using pymatgen
data_Dy5YAl24(OsRu)4
_symmetry_space_group_name_H-M   'P 1'
_cell_length_a   8.80179291
_cell_length_b   8.81460325
_cell_length_c   9.59845200
_cell_angle_alpha   90.00000000
_cell_angle_beta   90.00000000
_cell_angle_gamma   120.17859029
_symmetry_Int_Tables_number   1
_chemical_formula_structural   Dy5YAl24(OsRu)4
_chemical_formula_sum   'Dy5 Y1 Al24 Os4 Ru4'
_cell_volume   643.75612575
_cell_formula_units_Z   1
loop_
 _symmetry_equiv_pos_site_id
 _symmetry_equiv_pos_as_xyz
  1  'x, y, z'
loop_
 _atom_site_type_symbol
 _atom_site_label
 _atom_site_symmetry_multiplicity
 _atom_site_fract_x
 _atom_site_fract_y
 _atom_site_fract_z
 _atom_site_occupancy
  Dy  Dy0  1  0.195181  0.386350  0.250000  1
  Dy  Dy1  1  0.612045  0.805725  0.250000  1
  Dy  Dy2  1  0.804887  0.191472  0.750000  1
  Dy  Dy3  1  0.804842  0.613521  0.750000  1
  Dy  Dy4  1  0.388049  0.194158  0.750000  1
  Y  Y5  1  0.194729  0.808915  0.250000  1
  Al  Al6  1  0.561824  0.438428  0.250000  1
  Al  Al7  1  0.562301  0.124027  0.250000  1
  Al  Al8  1  0.878612  0.439043  0.250000  1
  Al  Al9  1  0.438244  0.561486  0.750000  1
  Al  Al10  1  0.437811  0.875951  0.750000  1
  Al  Al11  1  0.121460  0.560901  0.750000  1
  Al  Al12  1  0.326449  0.163552  0.424354  1
  Al  Al13  1  0.837361  0.162760  0.423888  1
  Al  Al14  1  0.836813  0.674245  0.423220  1
  Al  Al15  1  0.673728  0.836620  0.575808  1
  Al  Al16  1  0.162653  0.837202  0.576312  1
  Al  Al17  1  0.163023  0.325563  0.576913  1
  Al  Al18  1  0.673728  0.836620  0.924192  1
  Al  Al19  1  0.162653  0.837202  0.923688  1
  Al  Al20  1  0.163023  0.325563  0.923087  1
  Al  Al21  1  0.326449  0.163552  0.075646  1
  Al  Al22  1  0.837361  0.162760  0.076112  1
  Al  Al23  1  0.836813  0.674245  0.076780  1
  Al  Al24  1  0.667403  0.334011  0.516671  1
  Al  Al25  1  0.332627  0.665999  0.483503  1
  Al  Al26  1  0.332627  0.665999  0.016497  1
  Al  Al27  1  0.667403  0.334011  0.983329  1
  Al  Al28  1  0.999662  0.000365  0.250000  1
  Al  Al29  1  0.999870  0.000049  0.750000  1
  Os  Os30  1  0.499986  0.500015  0.500011  1
  Os  Os31  1  0.500141  0.000058  0.500100  1
  Os  Os32  1  0.499986  0.500015  0.999989  1
  Os  Os33  1  0.500141  0.000058  0.999900  1
  Ru  Ru34  1  0.000085  0.999894  0.499907  1
  Ru  Ru35  1  0.000085  0.999894  0.000093  1
  Ru  Ru36  1  0.999971  0.499887  0.500086  1
  Ru  Ru37  1  0.999971  0.499887  0.999914  1
