# generated using pymatgen
data_CaPr4(Nd2Rh3)2
_symmetry_space_group_name_H-M   'P 1'
_cell_length_a   7.64550295
_cell_length_b   7.64427312
_cell_length_c   7.63955777
_cell_angle_alpha   71.07776665
_cell_angle_beta   71.14765990
_cell_angle_gamma   71.10654060
_symmetry_Int_Tables_number   1
_chemical_formula_structural   CaPr4(Nd2Rh3)2
_chemical_formula_sum   'Ca1 Pr4 Nd4 Rh6'
_cell_volume   387.55509966
_cell_formula_units_Z   1
loop_
 _symmetry_equiv_pos_site_id
 _symmetry_equiv_pos_as_xyz
  1  'x, y, z'
loop_
 _atom_site_type_symbol
 _atom_site_label
 _atom_site_symmetry_multiplicity
 _atom_site_fract_x
 _atom_site_fract_y
 _atom_site_fract_z
 _atom_site_occupancy
  Ca  Ca0  1  0.999830  0.000529  0.000088  1
  Pr  Pr1  1  0.388666  0.666880  0.160383  1
  Pr  Pr2  1  0.840291  0.611164  0.332739  1
  Pr  Pr3  1  0.332514  0.840756  0.611137  1
  Pr  Pr4  1  0.611378  0.332055  0.839908  1
  Nd  Nd5  1  0.800250  0.800013  0.799522  1
  Nd  Nd6  1  0.199981  0.200306  0.200040  1
  Nd  Nd7  1  0.159566  0.387535  0.668683  1
  Nd  Nd8  1  0.668607  0.159389  0.388050  1
  Rh  Rh9  1  0.955671  0.168902  0.581485  1
  Rh  Rh10  1  0.582035  0.956721  0.168899  1
  Rh  Rh11  1  0.167958  0.580973  0.954970  1
  Rh  Rh12  1  0.043569  0.831945  0.418683  1
  Rh  Rh13  1  0.417769  0.045863  0.830491  1
  Rh  Rh14  1  0.831915  0.416970  0.044920  1
