# generated using pymatgen
data_NdHgPd4
_symmetry_space_group_name_H-M   'P 1'
_cell_length_a   5.43926446
_cell_length_b   5.43926423
_cell_length_c   5.43926501
_cell_angle_alpha   120.00943215
_cell_angle_beta   120.00944047
_cell_angle_gamma   89.98366001
_symmetry_Int_Tables_number   1
_chemical_formula_structural   NdHgPd4
_chemical_formula_sum   'Nd1 Hg1 Pd4'
_cell_volume   113.77414300
_cell_formula_units_Z   1
loop_
 _symmetry_equiv_pos_site_id
 _symmetry_equiv_pos_as_xyz
  1  'x, y, z'
loop_
 _atom_site_type_symbol
 _atom_site_label
 _atom_site_symmetry_multiplicity
 _atom_site_fract_x
 _atom_site_fract_y
 _atom_site_fract_z
 _atom_site_occupancy
  Nd  Nd0  1  0.000000  0.000000  0.000000  1
  Hg  Hg1  1  0.750001  0.250000  0.500001  1
  Pd  Pd2  1  0.375308  0.624683  0.249375  1
  Pd  Pd3  1  0.874068  0.624693  0.249375  1
  Pd  Pd4  1  0.375308  0.125932  0.750626  1
  Pd  Pd5  1  0.375319  0.624694  0.750626  1
