# generated using pymatgen
data_Er6UFe22
_symmetry_space_group_name_H-M   'P 1'
_cell_length_a   8.47228200
_cell_length_b   8.47228125
_cell_length_c   8.47228200
_cell_angle_alpha   120.00000291
_cell_angle_beta   90.00000000
_cell_angle_gamma   120.00000291
_symmetry_Int_Tables_number   1
_chemical_formula_structural   Er6UFe22
_chemical_formula_sum   'Er6 U1 Fe22'
_cell_volume   430.01750421
_cell_formula_units_Z   1
loop_
 _symmetry_equiv_pos_site_id
 _symmetry_equiv_pos_as_xyz
  1  'x, y, z'
loop_
 _atom_site_type_symbol
 _atom_site_label
 _atom_site_symmetry_multiplicity
 _atom_site_fract_x
 _atom_site_fract_y
 _atom_site_fract_z
 _atom_site_occupancy
  Er  Er0  1  0.293369  0.000000  0.293369  1
  Er  Er1  1  0.293369  0.586739  0.293369  1
  Er  Er2  1  0.706632  0.000000  0.293370  1
  Er  Er3  1  0.706631  0.000000  0.706631  1
  Er  Er4  1  0.293370  0.000000  0.706632  1
  Er  Er5  1  0.706632  0.413261  0.706632  1
  U  U6  1  0.000000  0.000000  0.000000  1
  Fe  Fe7  1  0.500000  0.000000  0.000000  1
  Fe  Fe8  1  0.000000  0.500000  0.000000  1
  Fe  Fe9  1  0.500000  0.500000  0.000000  1
  Fe  Fe10  1  0.674726  0.349454  0.024179  1
  Fe  Fe11  1  0.367262  0.244841  0.122420  1
  Fe  Fe12  1  0.877578  0.244841  0.122420  1
  Fe  Fe13  1  0.877578  0.755157  0.122420  1
  Fe  Fe14  1  0.674726  0.349454  0.325274  1
  Fe  Fe15  1  0.674726  0.650546  0.325274  1
  Fe  Fe16  1  0.975821  0.650546  0.325274  1
  Fe  Fe17  1  0.122420  0.244841  0.367262  1
  Fe  Fe18  1  0.000000  0.000000  0.500000  1
  Fe  Fe19  1  0.000000  0.500000  0.500000  1
  Fe  Fe20  1  0.500000  0.500000  0.500000  1
  Fe  Fe21  1  0.877578  0.755157  0.632737  1
  Fe  Fe22  1  0.024179  0.349454  0.674726  1
  Fe  Fe23  1  0.325274  0.349454  0.674726  1
  Fe  Fe24  1  0.325274  0.650546  0.674726  1
  Fe  Fe25  1  0.122420  0.244841  0.877578  1
  Fe  Fe26  1  0.122420  0.755157  0.877578  1
  Fe  Fe27  1  0.632737  0.755157  0.877578  1
  Fe  Fe28  1  0.325274  0.650546  0.975821  1
