# generated using pymatgen
data_Ce8ScSi16Mo11
_symmetry_space_group_name_H-M   'P 1'
_cell_length_a   6.92160864
_cell_length_b   7.02747383
_cell_length_c   13.08875200
_cell_angle_alpha   90.00000000
_cell_angle_beta   90.00000000
_cell_angle_gamma   90.10149355
_symmetry_Int_Tables_number   1
_chemical_formula_structural   Ce8ScSi16Mo11
_chemical_formula_sum   'Ce8 Sc1 Si16 Mo11'
_cell_volume   636.65453161
_cell_formula_units_Z   1
loop_
 _symmetry_equiv_pos_site_id
 _symmetry_equiv_pos_as_xyz
  1  'x, y, z'
loop_
 _atom_site_type_symbol
 _atom_site_label
 _atom_site_symmetry_multiplicity
 _atom_site_fract_x
 _atom_site_fract_y
 _atom_site_fract_z
 _atom_site_occupancy
  Ce  Ce0  1  0.003893  0.161654  0.093907  1
  Ce  Ce1  1  0.504163  0.338921  0.406104  1
  Ce  Ce2  1  0.497462  0.663779  0.907086  1
  Ce  Ce3  1  0.998238  0.835566  0.591605  1
  Ce  Ce4  1  0.998238  0.835566  0.908395  1
  Ce  Ce5  1  0.497462  0.663779  0.592914  1
  Ce  Ce6  1  0.504163  0.338921  0.093896  1
  Ce  Ce7  1  0.003893  0.161654  0.406093  1
  Sc  Sc8  1  0.332360  0.001591  0.750000  1
  Si  Si9  1  0.807910  0.377347  0.250000  1
  Si  Si10  1  0.308688  0.124079  0.250000  1
  Si  Si11  1  0.703250  0.876121  0.750000  1
  Si  Si12  1  0.191841  0.612504  0.750000  1
  Si  Si13  1  0.037408  0.860478  0.250000  1
  Si  Si14  1  0.540809  0.641191  0.250000  1
  Si  Si15  1  0.464270  0.368313  0.750000  1
  Si  Si16  1  0.953215  0.140243  0.750000  1
  Si  Si17  1  0.842664  0.454707  0.953995  1
  Si  Si18  1  0.343782  0.044183  0.541561  1
  Si  Si19  1  0.654391  0.955521  0.048593  1
  Si  Si20  1  0.155478  0.544112  0.451947  1
  Si  Si21  1  0.155478  0.544112  0.048053  1
  Si  Si22  1  0.654391  0.955521  0.451407  1
  Si  Si23  1  0.343782  0.044183  0.958439  1
  Si  Si24  1  0.842664  0.454707  0.546005  1
  Mo  Mo25  1  0.668578  0.002388  0.250000  1
  Mo  Mo26  1  0.167694  0.498594  0.250000  1
  Mo  Mo27  1  0.831901  0.497817  0.750000  1
  Mo  Mo28  1  0.833267  0.664667  0.125711  1
  Mo  Mo29  1  0.330721  0.834691  0.371773  1
  Mo  Mo30  1  0.667619  0.169461  0.876902  1
  Mo  Mo31  1  0.164359  0.332406  0.623472  1
  Mo  Mo32  1  0.164359  0.332406  0.876528  1
  Mo  Mo33  1  0.667619  0.169461  0.623098  1
  Mo  Mo34  1  0.330721  0.834691  0.128227  1
  Mo  Mo35  1  0.833267  0.664667  0.374289  1
