# generated using pymatgen
data_LiLa3Ag3Pt2
_symmetry_space_group_name_H-M   'P 1'
_cell_length_a   7.73606100
_cell_length_b   7.73606231
_cell_length_c   3.96824700
_cell_angle_alpha   90.00000000
_cell_angle_beta   90.00000000
_cell_angle_gamma   120.00000722
_symmetry_Int_Tables_number   1
_chemical_formula_structural   LiLa3Ag3Pt2
_chemical_formula_sum   'Li1 La3 Ag3 Pt2'
_cell_volume   205.66914445
_cell_formula_units_Z   1
loop_
 _symmetry_equiv_pos_site_id
 _symmetry_equiv_pos_as_xyz
  1  'x, y, z'
loop_
 _atom_site_type_symbol
 _atom_site_label
 _atom_site_symmetry_multiplicity
 _atom_site_fract_x
 _atom_site_fract_y
 _atom_site_fract_z
 _atom_site_occupancy
  Li  Li0  1  0.000000  0.000000  0.500000  1
  La  La1  1  0.416903  0.416903  0.500000  1
  La  La2  1  0.000000  0.583097  0.500000  1
  La  La3  1  0.583097  0.000000  0.500000  1
  Ag  Ag4  1  0.767007  0.767007  0.000000  1
  Ag  Ag5  1  0.232993  0.000000  0.000000  1
  Ag  Ag6  1  0.000000  0.232993  0.000000  1
  Pt  Pt7  1  0.666667  0.333333  0.000000  1
  Pt  Pt8  1  0.333333  0.666667  0.000000  1
