# generated using pymatgen
data_La8DyLuIr6
_symmetry_space_group_name_H-M   'P 1'
_cell_length_a   11.36414500
_cell_length_b   11.36414500
_cell_length_c   6.53992100
_cell_angle_alpha   90.00000000
_cell_angle_beta   90.00000000
_cell_angle_gamma   90.00000000
_symmetry_Int_Tables_number   1
_chemical_formula_structural   La8DyLuIr6
_chemical_formula_sum   'La16 Dy2 Lu2 Ir12'
_cell_volume   844.59019458
_cell_formula_units_Z   2
loop_
 _symmetry_equiv_pos_site_id
 _symmetry_equiv_pos_as_xyz
  1  'x, y, z'
loop_
 _atom_site_type_symbol
 _atom_site_label
 _atom_site_symmetry_multiplicity
 _atom_site_fract_x
 _atom_site_fract_y
 _atom_site_fract_z
 _atom_site_occupancy
  La  La0  1  0.286323  0.088249  0.389096  1
  La  La1  1  0.286323  0.911751  0.889096  1
  La  La2  1  0.713677  0.088249  0.889096  1
  La  La3  1  0.713677  0.911751  0.389096  1
  La  La4  1  0.588338  0.788219  0.888413  1
  La  La5  1  0.588338  0.211781  0.388413  1
  La  La6  1  0.411662  0.788219  0.388413  1
  La  La7  1  0.411662  0.211781  0.888413  1
  La  La8  1  0.211781  0.411662  0.611587  1
  La  La9  1  0.211781  0.588338  0.111587  1
  La  La10  1  0.788219  0.411662  0.111587  1
  La  La11  1  0.788219  0.588338  0.611587  1
  La  La12  1  0.911751  0.713677  0.110904  1
  La  La13  1  0.911751  0.286323  0.610904  1
  La  La14  1  0.088249  0.713677  0.610904  1
  La  La15  1  0.088249  0.286323  0.110904  1
  Dy  Dy16  1  0.500000  0.500000  0.000000  1
  Dy  Dy17  1  0.500000  0.500000  0.500000  1
  Lu  Lu18  1  0.000000  0.000000  0.500000  1
  Lu  Lu19  1  0.000000  0.000000  0.000000  1
  Ir  Ir20  1  0.854312  0.145688  0.250000  1
  Ir  Ir21  1  0.854312  0.854312  0.750000  1
  Ir  Ir22  1  0.145688  0.145688  0.750000  1
  Ir  Ir23  1  0.145688  0.854312  0.250000  1
  Ir  Ir24  1  0.649287  0.350713  0.750000  1
  Ir  Ir25  1  0.649287  0.649287  0.250000  1
  Ir  Ir26  1  0.350713  0.350713  0.250000  1
  Ir  Ir27  1  0.350713  0.649287  0.750000  1
  Ir  Ir28  1  0.500000  0.000000  0.122384  1
  Ir  Ir29  1  0.500000  0.000000  0.622384  1
  Ir  Ir30  1  0.000000  0.500000  0.877616  1
  Ir  Ir31  1  0.000000  0.500000  0.377616  1
