# generated using pymatgen
data_Tm4Ga4RuRh3
_symmetry_space_group_name_H-M   'P 1'
_cell_length_a   4.25688900
_cell_length_b   6.76712719
_cell_length_c   7.76827054
_cell_angle_alpha   89.95867584
_cell_angle_beta   90.00000000
_cell_angle_gamma   90.00000000
_symmetry_Int_Tables_number   1
_chemical_formula_structural   Tm4Ga4RuRh3
_chemical_formula_sum   'Tm4 Ga4 Ru1 Rh3'
_cell_volume   223.77980658
_cell_formula_units_Z   1
loop_
 _symmetry_equiv_pos_site_id
 _symmetry_equiv_pos_as_xyz
  1  'x, y, z'
loop_
 _atom_site_type_symbol
 _atom_site_label
 _atom_site_symmetry_multiplicity
 _atom_site_fract_x
 _atom_site_fract_y
 _atom_site_fract_z
 _atom_site_occupancy
  Tm  Tm0  1  0.250000  0.973250  0.312250  1
  Tm  Tm1  1  0.250000  0.475014  0.185480  1
  Tm  Tm2  1  0.750000  0.027283  0.691033  1
  Tm  Tm3  1  0.750000  0.522822  0.813354  1
  Ga  Ga4  1  0.250000  0.344651  0.568970  1
  Ga  Ga5  1  0.250000  0.844902  0.930834  1
  Ga  Ga6  1  0.750000  0.654270  0.431042  1
  Ga  Ga7  1  0.750000  0.158825  0.067599  1
  Ru  Ru8  1  0.250000  0.234053  0.888228  1
  Rh  Rh9  1  0.250000  0.730817  0.610087  1
  Rh  Rh10  1  0.750000  0.769368  0.111756  1
  Rh  Rh11  1  0.750000  0.264746  0.389368  1
