# generated using pymatgen
data_Nd4ReMoRu6
_symmetry_space_group_name_H-M   'P 1'
_cell_length_a   5.69871600
_cell_length_b   5.29136440
_cell_length_c   9.25591200
_cell_angle_alpha   90.00000000
_cell_angle_beta   90.00000000
_cell_angle_gamma   122.76256585
_symmetry_Int_Tables_number   1
_chemical_formula_structural   Nd4ReMoRu6
_chemical_formula_sum   'Nd4 Re1 Mo1 Ru6'
_cell_volume   234.70306667
_cell_formula_units_Z   1
loop_
 _symmetry_equiv_pos_site_id
 _symmetry_equiv_pos_as_xyz
  1  'x, y, z'
loop_
 _atom_site_type_symbol
 _atom_site_label
 _atom_site_symmetry_multiplicity
 _atom_site_fract_x
 _atom_site_fract_y
 _atom_site_fract_z
 _atom_site_occupancy
  Nd  Nd0  1  0.666959  0.334510  0.564021  1
  Nd  Nd1  1  0.334816  0.668759  0.433452  1
  Nd  Nd2  1  0.334816  0.668759  0.066548  1
  Nd  Nd3  1  0.666959  0.334510  0.935979  1
  Re  Re4  1  0.841194  0.683527  0.250000  1
  Mo  Mo5  1  0.155189  0.313749  0.750000  1
  Ru  Ru6  1  0.998738  0.994826  0.497778  1
  Ru  Ru7  1  0.998738  0.994826  0.002222  1
  Ru  Ru8  1  0.162886  0.813808  0.750000  1
  Ru  Ru9  1  0.651911  0.814484  0.750000  1
  Ru  Ru10  1  0.839582  0.190034  0.250000  1
  Ru  Ru11  1  0.348210  0.188208  0.250000  1
