# generated using pymatgen
data_Yb3Eu3(WO6)2
_symmetry_space_group_name_H-M   'P 1'
_cell_length_a   6.66115445
_cell_length_b   6.70839570
_cell_length_c   6.68313757
_cell_angle_alpha   91.75661680
_cell_angle_beta   91.56270555
_cell_angle_gamma   91.84756627
_symmetry_Int_Tables_number   1
_chemical_formula_structural   Yb3Eu3(WO6)2
_chemical_formula_sum   'Yb3 Eu3 W2 O12'
_cell_volume   298.22550340
_cell_formula_units_Z   1
loop_
 _symmetry_equiv_pos_site_id
 _symmetry_equiv_pos_as_xyz
  1  'x, y, z'
loop_
 _atom_site_type_symbol
 _atom_site_label
 _atom_site_symmetry_multiplicity
 _atom_site_fract_x
 _atom_site_fract_y
 _atom_site_fract_z
 _atom_site_occupancy
  Yb  Yb0  1  0.436636  0.747169  0.931762  1
  Yb  Yb1  1  0.256399  0.064077  0.562240  1
  Yb  Yb2  1  0.070446  0.563641  0.251813  1
  Eu  Eu3  1  0.935277  0.439146  0.746271  1
  Eu  Eu4  1  0.743316  0.934462  0.441313  1
  Eu  Eu5  1  0.556087  0.258799  0.067723  1
  W  W6  1  0.005088  0.997038  0.003700  1
  W  W7  1  0.492633  0.503269  0.499540  1
  O  O8  1  0.946501  0.278605  0.073617  1
  O  O9  1  0.940809  0.060313  0.720639  1
  O  O10  1  0.781526  0.576895  0.448505  1
  O  O11  1  0.721747  0.928873  0.055939  1
  O  O12  1  0.579742  0.462976  0.790589  1
  O  O13  1  0.537814  0.209229  0.422851  1
  O  O14  1  0.448404  0.791121  0.585624  1
  O  O15  1  0.409909  0.554034  0.209171  1
  O  O16  1  0.284202  0.061357  0.931983  1
  O  O17  1  0.211777  0.414546  0.534851  1
  O  O18  1  0.073565  0.937189  0.282269  1
  O  O19  1  0.068121  0.717259  0.939599  1
