# generated using pymatgen
data_Yb2Pr7Rh6
_symmetry_space_group_name_H-M   'P 1'
_cell_length_a   7.62557098
_cell_length_b   7.62557096
_cell_length_c   7.62557101
_cell_angle_alpha   71.18240893
_cell_angle_beta   71.18240618
_cell_angle_gamma   71.18240046
_symmetry_Int_Tables_number   1
_chemical_formula_structural   Yb2Pr7Rh6
_chemical_formula_sum   'Yb2 Pr7 Rh6'
_cell_volume   385.29031782
_cell_formula_units_Z   1
loop_
 _symmetry_equiv_pos_site_id
 _symmetry_equiv_pos_as_xyz
  1  'x, y, z'
loop_
 _atom_site_type_symbol
 _atom_site_label
 _atom_site_symmetry_multiplicity
 _atom_site_fract_x
 _atom_site_fract_y
 _atom_site_fract_z
 _atom_site_occupancy
  Yb  Yb0  1  0.997354  0.997354  0.997354  1
  Yb  Yb1  1  0.800052  0.800052  0.800052  1
  Pr  Pr2  1  0.198986  0.198986  0.198986  1
  Pr  Pr3  1  0.153432  0.391995  0.673391  1
  Pr  Pr4  1  0.673391  0.153432  0.391995  1
  Pr  Pr5  1  0.391995  0.673391  0.153432  1
  Pr  Pr6  1  0.842967  0.611294  0.327956  1
  Pr  Pr7  1  0.327956  0.842967  0.611294  1
  Pr  Pr8  1  0.611294  0.327956  0.842967  1
  Rh  Rh9  1  0.956135  0.167147  0.587123  1
  Rh  Rh10  1  0.587123  0.956135  0.167147  1
  Rh  Rh11  1  0.167147  0.587123  0.956135  1
  Rh  Rh12  1  0.044761  0.832884  0.414522  1
  Rh  Rh13  1  0.414522  0.044761  0.832884  1
  Rh  Rh14  1  0.832884  0.414522  0.044761  1
