# generated using pymatgen
data_Tm9Mg(SiPb3)2
_symmetry_space_group_name_H-M   'P 1'
_cell_length_a   9.19229900
_cell_length_b   9.19229886
_cell_length_c   6.40831400
_cell_angle_alpha   90.00000000
_cell_angle_beta   90.00000000
_cell_angle_gamma   120.00000411
_symmetry_Int_Tables_number   1
_chemical_formula_structural   Tm9Mg(SiPb3)2
_chemical_formula_sum   'Tm9 Mg1 Si2 Pb6'
_cell_volume   468.94582651
_cell_formula_units_Z   1
loop_
 _symmetry_equiv_pos_site_id
 _symmetry_equiv_pos_as_xyz
  1  'x, y, z'
loop_
 _atom_site_type_symbol
 _atom_site_label
 _atom_site_symmetry_multiplicity
 _atom_site_fract_x
 _atom_site_fract_y
 _atom_site_fract_z
 _atom_site_occupancy
  Tm  Tm0  1  0.333333  0.666667  0.500000  1
  Tm  Tm1  1  0.333333  0.666667  0.000000  1
  Tm  Tm2  1  0.666667  0.333333  0.000000  1
  Tm  Tm3  1  0.750353  0.749790  0.249190  1
  Tm  Tm4  1  0.250210  0.000564  0.249190  1
  Tm  Tm5  1  0.999436  0.249647  0.249190  1
  Tm  Tm6  1  0.250210  0.249647  0.750810  1
  Tm  Tm7  1  0.750353  0.000564  0.750810  1
  Tm  Tm8  1  0.999436  0.749790  0.750810  1
  Mg  Mg9  1  0.666667  0.333333  0.500000  1
  Si  Si10  1  0.000000  0.000000  0.500000  1
  Si  Si11  1  0.000000  0.000000  0.000000  1
  Pb  Pb12  1  0.393551  0.393306  0.249426  1
  Pb  Pb13  1  0.606694  0.000245  0.249426  1
  Pb  Pb14  1  0.999755  0.606449  0.249426  1
  Pb  Pb15  1  0.606694  0.606449  0.750574  1
  Pb  Pb16  1  0.393551  0.000245  0.750574  1
  Pb  Pb17  1  0.999755  0.393306  0.750574  1
