# generated using pymatgen
data_La3(ZnAs3)2
_symmetry_space_group_name_H-M   'P 1'
_cell_length_a   4.06634800
_cell_length_b   10.37903300
_cell_length_c   12.27384700
_cell_angle_alpha   90.00000000
_cell_angle_beta   90.00000000
_cell_angle_gamma   90.00000000
_symmetry_Int_Tables_number   1
_chemical_formula_structural   La3(ZnAs3)2
_chemical_formula_sum   'La6 Zn4 As12'
_cell_volume   518.01476791
_cell_formula_units_Z   2
loop_
 _symmetry_equiv_pos_site_id
 _symmetry_equiv_pos_as_xyz
  1  'x, y, z'
loop_
 _atom_site_type_symbol
 _atom_site_label
 _atom_site_symmetry_multiplicity
 _atom_site_fract_x
 _atom_site_fract_y
 _atom_site_fract_z
 _atom_site_occupancy
  La  La0  1  0.750000  0.265438  0.750000  1
  La  La1  1  0.750000  0.269290  0.413035  1
  La  La2  1  0.250000  0.730710  0.913035  1
  La  La3  1  0.250000  0.730710  0.586965  1
  La  La4  1  0.250000  0.734562  0.250000  1
  La  La5  1  0.750000  0.269290  0.086965  1
  Zn  Zn6  1  0.250000  0.002634  0.095675  1
  Zn  Zn7  1  0.250000  0.002634  0.404325  1
  Zn  Zn8  1  0.750000  0.997366  0.595675  1
  Zn  Zn9  1  0.750000  0.997366  0.904325  1
  As  As10  1  0.750000  0.503495  0.250000  1
  As  As11  1  0.750000  0.497989  0.916484  1
  As  As12  1  0.750000  0.841168  0.750000  1
  As  As13  1  0.750000  0.851695  0.418370  1
  As  As14  1  0.250000  0.148305  0.918370  1
  As  As15  1  0.250000  0.148305  0.581630  1
  As  As16  1  0.250000  0.158832  0.250000  1
  As  As17  1  0.250000  0.502011  0.083516  1
  As  As18  1  0.250000  0.496505  0.750000  1
  As  As19  1  0.250000  0.502011  0.416484  1
  As  As20  1  0.750000  0.497989  0.583516  1
  As  As21  1  0.750000  0.851695  0.081630  1
