# generated using pymatgen
data_Tb2MnCo2Si5
_symmetry_space_group_name_H-M   'P 1'
_cell_length_a   7.99033577
_cell_length_b   7.99033520
_cell_length_c   7.99033580
_cell_angle_alpha   140.12984269
_cell_angle_beta   106.87596865
_cell_angle_gamma   86.68645680
_symmetry_Int_Tables_number   1
_chemical_formula_structural   Tb2MnCo2Si5
_chemical_formula_sum   'Tb4 Mn2 Co4 Si10'
_cell_volume   301.41249703
_cell_formula_units_Z   2
loop_
 _symmetry_equiv_pos_site_id
 _symmetry_equiv_pos_as_xyz
  1  'x, y, z'
loop_
 _atom_site_type_symbol
 _atom_site_label
 _atom_site_symmetry_multiplicity
 _atom_site_fract_x
 _atom_site_fract_y
 _atom_site_fract_z
 _atom_site_occupancy
  Tb  Tb0  1  0.867481  0.134042  0.733439  1
  Tb  Tb1  1  0.132519  0.865958  0.266561  1
  Tb  Tb2  1  0.400601  0.634042  0.766561  1
  Tb  Tb3  1  0.599399  0.365958  0.233439  1
  Mn  Mn4  1  0.000000  0.250000  0.250000  1
  Mn  Mn5  1  0.000000  0.750000  0.750000  1
  Co  Co6  1  0.260981  0.360286  0.900695  1
  Co  Co7  1  0.739019  0.639714  0.099305  1
  Co  Co8  1  0.459590  0.860286  0.599305  1
  Co  Co9  1  0.540410  0.139714  0.400695  1
  Si  Si10  1  0.500000  0.250000  0.750000  1
  Si  Si11  1  0.500000  0.750000  0.250000  1
  Si  Si12  1  0.220512  0.470512  0.250000  1
  Si  Si13  1  0.779488  0.029488  0.250000  1
  Si  Si14  1  0.779488  0.529488  0.750000  1
  Si  Si15  1  0.220512  0.970512  0.750000  1
  Si  Si16  1  0.065646  0.399170  0.666476  1
  Si  Si17  1  0.934354  0.600830  0.333524  1
  Si  Si18  1  0.732694  0.899170  0.833524  1
  Si  Si19  1  0.267306  0.100830  0.166476  1
