# generated using pymatgen
data_Dy8Zr12Si15Ge
_symmetry_space_group_name_H-M   'P 1'
_cell_length_a   7.33902957
_cell_length_b   7.33985670
_cell_length_c   13.47769500
_cell_angle_alpha   90.00630734
_cell_angle_beta   89.87112199
_cell_angle_gamma   90.09764509
_symmetry_Int_Tables_number   1
_chemical_formula_structural   Dy8Zr12Si15Ge
_chemical_formula_sum   'Dy8 Zr12 Si15 Ge1'
_cell_volume   726.00583406
_cell_formula_units_Z   1
loop_
 _symmetry_equiv_pos_site_id
 _symmetry_equiv_pos_as_xyz
  1  'x, y, z'
loop_
 _atom_site_type_symbol
 _atom_site_label
 _atom_site_symmetry_multiplicity
 _atom_site_fract_x
 _atom_site_fract_y
 _atom_site_fract_z
 _atom_site_occupancy
  Dy  Dy0  1  0.996217  0.653141  0.036501  1
  Dy  Dy1  1  0.004166  0.345171  0.536334  1
  Dy  Dy2  1  0.654044  0.995885  0.963758  1
  Dy  Dy3  1  0.154372  0.504056  0.785844  1
  Dy  Dy4  1  0.843596  0.494166  0.284555  1
  Dy  Dy5  1  0.503298  0.153775  0.214097  1
  Dy  Dy6  1  0.497525  0.847594  0.714295  1
  Dy  Dy7  1  0.347352  0.003934  0.464319  1
  Zr  Zr8  1  0.354083  0.503462  0.375230  1
  Zr  Zr9  1  0.850570  0.999048  0.373503  1
  Zr  Zr10  1  0.003509  0.147081  0.124836  1
  Zr  Zr11  1  0.997090  0.853577  0.625333  1
  Zr  Zr12  1  0.505094  0.352410  0.625492  1
  Zr  Zr13  1  0.147260  0.003933  0.875401  1
  Zr  Zr14  1  0.672913  0.675855  0.500488  1
  Zr  Zr15  1  0.825141  0.176273  0.750068  1
  Zr  Zr16  1  0.176234  0.825105  0.248970  1
  Zr  Zr17  1  0.324257  0.324287  0.000058  1
  Zr  Zr18  1  0.495619  0.646524  0.125152  1
  Zr  Zr19  1  0.647500  0.496179  0.874782  1
  Si  Si20  1  0.948715  0.295297  0.937047  1
  Si  Si21  1  0.705496  0.050928  0.562793  1
  Si  Si22  1  0.204260  0.448511  0.187354  1
  Si  Si23  1  0.796638  0.551364  0.686558  1
  Si  Si24  1  0.448907  0.205048  0.813206  1
  Si  Si25  1  0.550337  0.795484  0.313197  1
  Si  Si26  1  0.295495  0.948691  0.062728  1
  Si  Si27  1  0.793308  0.860069  0.183203  1
  Si  Si28  1  0.297380  0.639255  0.569544  1
  Si  Si29  1  0.705784  0.359788  0.066534  1
  Si  Si30  1  0.639608  0.293985  0.433283  1
  Si  Si31  1  0.360315  0.705737  0.933545  1
  Si  Si32  1  0.139746  0.206035  0.317093  1
  Si  Si33  1  0.206713  0.140067  0.683336  1
  Si  Si34  1  0.860599  0.794276  0.816378  1
  Ge  Ge35  1  0.046856  0.704013  0.435189  1
