# generated using pymatgen
data_KRbS2
_symmetry_space_group_name_H-M   'P 1'
_cell_length_a   8.72789600
_cell_length_b   8.72789580
_cell_length_c   6.13884000
_cell_angle_alpha   90.00000000
_cell_angle_beta   90.00000000
_cell_angle_gamma   119.99999319
_symmetry_Int_Tables_number   1
_chemical_formula_structural   KRbS2
_chemical_formula_sum   'K3 Rb3 S6'
_cell_volume   404.98234513
_cell_formula_units_Z   3
loop_
 _symmetry_equiv_pos_site_id
 _symmetry_equiv_pos_as_xyz
  1  'x, y, z'
loop_
 _atom_site_type_symbol
 _atom_site_label
 _atom_site_symmetry_multiplicity
 _atom_site_fract_x
 _atom_site_fract_y
 _atom_site_fract_z
 _atom_site_occupancy
  K  K0  1  0.000000  0.306935  0.500000  1
  K  K1  1  0.693065  0.693065  0.500000  1
  K  K2  1  0.306935  0.000000  0.500000  1
  Rb  Rb3  1  0.000000  0.638360  0.000000  1
  Rb  Rb4  1  0.361640  0.361640  0.000000  1
  Rb  Rb5  1  0.638360  0.000000  0.000000  1
  S  S6  1  0.666667  0.333333  0.325998  1
  S  S7  1  0.666667  0.333333  0.674002  1
  S  S8  1  0.333333  0.666667  0.674002  1
  S  S9  1  0.333333  0.666667  0.325998  1
  S  S10  1  0.000000  0.000000  0.825387  1
  S  S11  1  0.000000  0.000000  0.174613  1
