# generated using pymatgen
data_U4Mn4Re3Si5As
_symmetry_space_group_name_H-M   'P 1'
_cell_length_a   7.01375766
_cell_length_b   7.00723035
_cell_length_c   7.00723153
_cell_angle_alpha   109.91321733
_cell_angle_beta   109.35195736
_cell_angle_gamma   109.11224618
_symmetry_Int_Tables_number   1
_chemical_formula_structural   U4Mn4Re3Si5As
_chemical_formula_sum   'U4 Mn4 Re3 Si5 As1'
_cell_volume   265.21557637
_cell_formula_units_Z   1
loop_
 _symmetry_equiv_pos_site_id
 _symmetry_equiv_pos_as_xyz
  1  'x, y, z'
loop_
 _atom_site_type_symbol
 _atom_site_label
 _atom_site_symmetry_multiplicity
 _atom_site_fract_x
 _atom_site_fract_y
 _atom_site_fract_z
 _atom_site_occupancy
  U  U0  1  0.500982  0.498728  0.505311  1
  U  U1  1  0.996257  0.999432  0.495960  1
  U  U2  1  0.500982  0.995671  0.002255  1
  U  U3  1  0.996257  0.500297  0.996825  1
  Mn  Mn4  1  0.751949  0.250611  0.501339  1
  Mn  Mn5  1  0.502814  0.253721  0.747391  1
  Mn  Mn6  1  0.502814  0.755423  0.249093  1
  Mn  Mn7  1  0.250616  0.501551  0.749065  1
  Re  Re8  1  0.751014  0.500466  0.250548  1
  Re  Re9  1  0.253244  0.751185  0.502059  1
  Re  Re10  1  0.995778  0.995416  0.000361  1
  Si  Si11  1  0.999970  0.311362  0.321343  1
  Si  Si12  1  0.999970  0.678627  0.688607  1
  Si  Si13  1  0.684455  0.004868  0.679586  1
  Si  Si14  1  0.325447  0.004507  0.320940  1
  Si  Si15  1  0.677619  0.682172  0.995448  1
  As  As16  1  0.309833  0.315966  0.993866  1
