# generated using pymatgen
data_Zr10InCuGeSb5
_symmetry_space_group_name_H-M   'P 1'
_cell_length_a   8.68112805
_cell_length_b   8.68112743
_cell_length_c   5.87410927
_cell_angle_alpha   90.05026465
_cell_angle_beta   90.05026734
_cell_angle_gamma   120.12102764
_symmetry_Int_Tables_number   1
_chemical_formula_structural   Zr10InCuGeSb5
_chemical_formula_sum   'Zr10 In1 Cu1 Ge1 Sb5'
_cell_volume   382.90702694
_cell_formula_units_Z   1
loop_
 _symmetry_equiv_pos_site_id
 _symmetry_equiv_pos_as_xyz
  1  'x, y, z'
loop_
 _atom_site_type_symbol
 _atom_site_label
 _atom_site_symmetry_multiplicity
 _atom_site_fract_x
 _atom_site_fract_y
 _atom_site_fract_z
 _atom_site_occupancy
  Zr  Zr0  1  0.668585  0.332626  0.999237  1
  Zr  Zr1  1  0.332626  0.668585  0.999237  1
  Zr  Zr2  1  0.332633  0.668633  0.500988  1
  Zr  Zr3  1  0.668633  0.332633  0.500988  1
  Zr  Zr4  1  0.735016  0.735016  0.750484  1
  Zr  Zr5  1  0.266163  0.998438  0.751155  1
  Zr  Zr6  1  0.998438  0.266163  0.751155  1
  Zr  Zr7  1  0.261752  0.261752  0.249606  1
  Zr  Zr8  1  0.736814  0.999556  0.249618  1
  Zr  Zr9  1  0.999556  0.736814  0.249618  1
  In  In10  1  0.385802  0.385802  0.751666  1
  Cu  Cu11  1  0.002830  0.002830  0.993195  1
  Ge  Ge12  1  0.001097  0.001097  0.504886  1
  Sb  Sb13  1  0.612019  0.000006  0.751911  1
  Sb  Sb14  1  0.000006  0.612019  0.751911  1
  Sb  Sb15  1  0.607151  0.607151  0.247284  1
  Sb  Sb16  1  0.389607  0.001273  0.248529  1
  Sb  Sb17  1  0.001273  0.389607  0.248529  1
