# generated using pymatgen
data_Al8Ir4RuRh3
_symmetry_space_group_name_H-M   'P 1'
_cell_length_a   6.03682600
_cell_length_b   4.25965800
_cell_length_c   8.51180000
_cell_angle_alpha   90.00005384
_cell_angle_beta   89.99993908
_cell_angle_gamma   89.99996832
_symmetry_Int_Tables_number   1
_chemical_formula_structural   Al8Ir4RuRh3
_chemical_formula_sum   'Al8 Ir4 Ru1 Rh3'
_cell_volume   218.87935521
_cell_formula_units_Z   1
loop_
 _symmetry_equiv_pos_site_id
 _symmetry_equiv_pos_as_xyz
  1  'x, y, z'
loop_
 _atom_site_type_symbol
 _atom_site_label
 _atom_site_symmetry_multiplicity
 _atom_site_fract_x
 _atom_site_fract_y
 _atom_site_fract_z
 _atom_site_occupancy
  Al  Al0  1  0.497517  0.749997  0.125004  1
  Al  Al1  1  0.002483  0.749997  0.125005  1
  Al  Al2  1  0.498602  0.249995  0.372804  1
  Al  Al3  1  0.001402  0.249995  0.372805  1
  Al  Al4  1  0.999823  0.750001  0.625001  1
  Al  Al5  1  0.500172  0.750001  0.625002  1
  Al  Al6  1  0.001409  0.249999  0.877192  1
  Al  Al7  1  0.498592  0.249999  0.877193  1
  Ir  Ir8  1  0.749999  0.249994  0.124997  1
  Ir  Ir9  1  0.250003  0.749999  0.377272  1
  Ir  Ir10  1  0.749996  0.250000  0.624997  1
  Ir  Ir11  1  0.249998  0.750001  0.872730  1
  Ru  Ru12  1  0.250003  0.249997  0.125003  1
  Rh  Rh13  1  0.750006  0.749981  0.376307  1
  Rh  Rh14  1  0.250005  0.250028  0.624997  1
  Rh  Rh15  1  0.749988  0.750008  0.873689  1
