# generated using pymatgen
data_Zr3Sc(Co3Os)2
_symmetry_space_group_name_H-M   'P 1'
_cell_length_a   4.95750300
_cell_length_b   4.95750228
_cell_length_c   8.24467800
_cell_angle_alpha   90.00000000
_cell_angle_beta   90.00000000
_cell_angle_gamma   119.99999810
_symmetry_Int_Tables_number   1
_chemical_formula_structural   Zr3Sc(Co3Os)2
_chemical_formula_sum   'Zr3 Sc1 Co6 Os2'
_cell_volume   175.48105932
_cell_formula_units_Z   1
loop_
 _symmetry_equiv_pos_site_id
 _symmetry_equiv_pos_as_xyz
  1  'x, y, z'
loop_
 _atom_site_type_symbol
 _atom_site_label
 _atom_site_symmetry_multiplicity
 _atom_site_fract_x
 _atom_site_fract_y
 _atom_site_fract_z
 _atom_site_occupancy
  Zr  Zr0  1  0.333333  0.666667  0.572648  1
  Zr  Zr1  1  0.666667  0.333333  0.429798  1
  Zr  Zr2  1  0.666667  0.333333  0.061854  1
  Sc  Sc3  1  0.333333  0.666667  0.936989  1
  Co  Co4  1  0.829078  0.170922  0.750029  1
  Co  Co5  1  0.658334  0.829166  0.249981  1
  Co  Co6  1  0.170834  0.829166  0.249981  1
  Co  Co7  1  0.829078  0.658158  0.750029  1
  Co  Co8  1  0.170834  0.341666  0.249981  1
  Co  Co9  1  0.341842  0.170922  0.750029  1
  Os  Os10  1  0.000000  0.000000  0.499591  1
  Os  Os11  1  0.000000  0.000000  0.999089  1
