# generated using pymatgen
data_Dy6B14MoRu
_symmetry_space_group_name_H-M   'P 1'
_cell_length_a   8.11403783
_cell_length_b   8.11403722
_cell_length_c   9.38880300
_cell_angle_alpha   90.00000000
_cell_angle_beta   90.00000000
_cell_angle_gamma   155.02929021
_symmetry_Int_Tables_number   1
_chemical_formula_structural   Dy6B14MoRu
_chemical_formula_sum   'Dy6 B14 Mo1 Ru1'
_cell_volume   260.94926467
_cell_formula_units_Z   1
loop_
 _symmetry_equiv_pos_site_id
 _symmetry_equiv_pos_as_xyz
  1  'x, y, z'
loop_
 _atom_site_type_symbol
 _atom_site_label
 _atom_site_symmetry_multiplicity
 _atom_site_fract_x
 _atom_site_fract_y
 _atom_site_fract_z
 _atom_site_occupancy
  Dy  Dy0  1  0.256869  0.743131  0.250000  1
  Dy  Dy1  1  0.744517  0.255483  0.750000  1
  Dy  Dy2  1  0.605744  0.394256  0.062170  1
  Dy  Dy3  1  0.393229  0.606771  0.940793  1
  Dy  Dy4  1  0.393229  0.606771  0.559207  1
  Dy  Dy5  1  0.605744  0.394256  0.437830  1
  B  B6  1  0.978753  0.021247  0.096625  1
  B  B7  1  0.019780  0.980220  0.908598  1
  B  B8  1  0.019780  0.980220  0.591402  1
  B  B9  1  0.978753  0.021247  0.403375  1
  B  B10  1  0.773522  0.226478  0.034153  1
  B  B11  1  0.227773  0.772227  0.968091  1
  B  B12  1  0.227773  0.772227  0.531909  1
  B  B13  1  0.773522  0.226478  0.465847  1
  B  B14  1  0.868392  0.131608  0.151477  1
  B  B15  1  0.134677  0.865323  0.852377  1
  B  B16  1  0.134677  0.865323  0.647623  1
  B  B17  1  0.868392  0.131608  0.348523  1
  B  B18  1  0.041304  0.958696  0.250000  1
  B  B19  1  0.955302  0.044698  0.750000  1
  Mo  Mo20  1  0.552775  0.447225  0.750000  1
  Ru  Ru21  1  0.445499  0.554501  0.250000  1
