# generated using pymatgen
data_Tb3YSc4(ReB6)4
_symmetry_space_group_name_H-M   'P 1'
_cell_length_a   3.59373600
_cell_length_b   9.01514600
_cell_length_c   11.40289400
_cell_angle_alpha   89.99933789
_cell_angle_beta   90.00000000
_cell_angle_gamma   90.00000000
_symmetry_Int_Tables_number   1
_chemical_formula_structural   Tb3YSc4(ReB6)4
_chemical_formula_sum   'Tb3 Y1 Sc4 Re4 B24'
_cell_volume   369.43158383
_cell_formula_units_Z   1
loop_
 _symmetry_equiv_pos_site_id
 _symmetry_equiv_pos_as_xyz
  1  'x, y, z'
loop_
 _atom_site_type_symbol
 _atom_site_label
 _atom_site_symmetry_multiplicity
 _atom_site_fract_x
 _atom_site_fract_y
 _atom_site_fract_z
 _atom_site_occupancy
  Tb  Tb0  1  0.000000  0.321660  0.414042  1
  Tb  Tb1  1  0.000000  0.678344  0.585978  1
  Tb  Tb2  1  0.000000  0.821655  0.085921  1
  Y  Y3  1  0.000000  0.178409  0.914063  1
  Sc  Sc4  1  0.000000  0.944197  0.370338  1
  Sc  Sc5  1  0.000000  0.055800  0.629697  1
  Sc  Sc6  1  0.000000  0.444217  0.129582  1
  Sc  Sc7  1  0.000000  0.555754  0.870404  1
  Re  Re8  1  0.000000  0.641125  0.318310  1
  Re  Re9  1  0.000000  0.358824  0.681761  1
  Re  Re10  1  0.000000  0.141129  0.181639  1
  Re  Re11  1  0.000000  0.858890  0.818301  1
  B  B12  1  0.500000  0.554576  0.432294  1
  B  B13  1  0.500000  0.445413  0.567718  1
  B  B14  1  0.500000  0.054546  0.067626  1
  B  B15  1  0.500000  0.945465  0.932324  1
  B  B16  1  0.500000  0.754477  0.418024  1
  B  B17  1  0.500000  0.245513  0.581995  1
  B  B18  1  0.500000  0.254491  0.081899  1
  B  B19  1  0.500000  0.745539  0.918002  1
  B  B20  1  0.500000  0.795210  0.265158  1
  B  B21  1  0.500000  0.204730  0.734893  1
  B  B22  1  0.500000  0.295213  0.234820  1
  B  B23  1  0.500000  0.704790  0.765162  1
  B  B24  1  0.500000  0.629003  0.183131  1
  B  B25  1  0.500000  0.370976  0.816919  1
  B  B26  1  0.500000  0.129018  0.316849  1
  B  B27  1  0.500000  0.871009  0.683159  1
  B  B28  1  0.500000  0.981551  0.213854  1
  B  B29  1  0.500000  0.018529  0.786159  1
  B  B30  1  0.500000  0.481534  0.286118  1
  B  B31  1  0.500000  0.518458  0.713884  1
  B  B32  1  0.500000  0.595246  0.026045  1
  B  B33  1  0.500000  0.404699  0.973923  1
  B  B34  1  0.500000  0.095213  0.473959  1
  B  B35  1  0.500000  0.904797  0.526051  1
