# generated using pymatgen
data_Dy3Sc3Bi2W
_symmetry_space_group_name_H-M   'P 1'
_cell_length_a   4.31613500
_cell_length_b   7.97084489
_cell_length_c   7.97084400
_cell_angle_alpha   119.99998800
_cell_angle_beta   90.00000000
_cell_angle_gamma   90.00000000
_symmetry_Int_Tables_number   1
_chemical_formula_structural   Dy3Sc3Bi2W
_chemical_formula_sum   'Dy3 Sc3 Bi2 W1'
_cell_volume   237.48400907
_cell_formula_units_Z   1
loop_
 _symmetry_equiv_pos_site_id
 _symmetry_equiv_pos_as_xyz
  1  'x, y, z'
loop_
 _atom_site_type_symbol
 _atom_site_label
 _atom_site_symmetry_multiplicity
 _atom_site_fract_x
 _atom_site_fract_y
 _atom_site_fract_z
 _atom_site_occupancy
  Dy  Dy0  1  0.000000  0.391571  0.391571  1
  Dy  Dy1  1  0.000000  0.000000  0.608429  1
  Dy  Dy2  1  0.000000  0.608429  0.000000  1
  Sc  Sc3  1  0.500000  0.773308  0.773308  1
  Sc  Sc4  1  0.500000  0.000000  0.226692  1
  Sc  Sc5  1  0.500000  0.226692  0.000000  1
  Bi  Bi6  1  0.500000  0.666667  0.333333  1
  Bi  Bi7  1  0.500000  0.333333  0.666667  1
  W  W8  1  0.000000  0.000000  0.000000  1
