# generated using pymatgen
data_Sr5CaSn8BiAs
_symmetry_space_group_name_H-M   'P 1'
_cell_length_a   8.91353993
_cell_length_b   8.91354031
_cell_length_c   8.91354076
_cell_angle_alpha   119.83945537
_cell_angle_beta   119.83945598
_cell_angle_gamma   90.27830298
_symmetry_Int_Tables_number   1
_chemical_formula_structural   Sr5CaSn8BiAs
_chemical_formula_sum   'Sr5 Ca1 Sn8 Bi1 As1'
_cell_volume   501.97573609
_cell_formula_units_Z   1
loop_
 _symmetry_equiv_pos_site_id
 _symmetry_equiv_pos_as_xyz
  1  'x, y, z'
loop_
 _atom_site_type_symbol
 _atom_site_label
 _atom_site_symmetry_multiplicity
 _atom_site_fract_x
 _atom_site_fract_y
 _atom_site_fract_z
 _atom_site_occupancy
  Sr  Sr0  1  0.762825  0.762825  0.000000  1
  Sr  Sr1  1  0.151100  0.679239  0.829238  1
  Sr  Sr2  1  0.850004  0.321864  0.170762  1
  Sr  Sr3  1  0.679239  0.850004  0.528140  1
  Sr  Sr4  1  0.321864  0.151100  0.471860  1
  Ca  Ca5  1  0.235016  0.235016  0.000000  1
  Sn  Sn6  1  0.829899  0.334758  0.787333  1
  Sn  Sn7  1  0.173859  0.661246  0.211430  1
  Sn  Sn8  1  0.547424  0.042566  0.212667  1
  Sn  Sn9  1  0.334758  0.547424  0.504859  1
  Sn  Sn10  1  0.962428  0.173859  0.512613  1
  Sn  Sn11  1  0.449816  0.962428  0.788570  1
  Sn  Sn12  1  0.661246  0.449816  0.487387  1
  Sn  Sn13  1  0.042566  0.829899  0.495141  1
  Bi  Bi14  1  0.492345  0.492345  0.000000  1
  As  As15  1  0.005612  0.005612  0.000000  1
