# generated using pymatgen
data_Nd3Lu(Sn5Rh3)2
_symmetry_space_group_name_H-M   'P 1'
_cell_length_a   13.53151690
_cell_length_b   13.53151706
_cell_length_c   7.27531876
_cell_angle_alpha   89.97036119
_cell_angle_beta   90.02963740
_cell_angle_gamma   160.93985639
_symmetry_Int_Tables_number   1
_chemical_formula_structural   Nd3Lu(Sn5Rh3)2
_chemical_formula_sum   'Nd3 Lu1 Sn10 Rh6'
_cell_volume   435.01935349
_cell_formula_units_Z   1
loop_
 _symmetry_equiv_pos_site_id
 _symmetry_equiv_pos_as_xyz
  1  'x, y, z'
loop_
 _atom_site_type_symbol
 _atom_site_label
 _atom_site_symmetry_multiplicity
 _atom_site_fract_x
 _atom_site_fract_y
 _atom_site_fract_z
 _atom_site_occupancy
  Nd  Nd0  1  0.172192  0.827808  0.746442  1
  Nd  Nd1  1  0.827787  0.172213  0.245922  1
  Nd  Nd2  1  0.476835  0.523165  0.762545  1
  Lu  Lu3  1  0.524618  0.475382  0.261829  1
  Sn  Sn4  1  0.880056  0.119944  0.768759  1
  Sn  Sn5  1  0.119270  0.880730  0.268238  1
  Sn  Sn6  1  0.704060  0.295940  0.449552  1
  Sn  Sn7  1  0.295231  0.704769  0.949312  1
  Sn  Sn8  1  0.595905  0.404095  0.888304  1
  Sn  Sn9  1  0.404903  0.595097  0.385710  1
  Sn  Sn10  1  0.953379  0.046621  0.103333  1
  Sn  Sn11  1  0.047977  0.952023  0.597971  1
  Sn  Sn12  1  0.290186  0.709814  0.524784  1
  Sn  Sn13  1  0.709636  0.290364  0.025230  1
  Rh  Rh14  1  0.050810  0.949190  0.985753  1
  Rh  Rh15  1  0.949751  0.050249  0.478515  1
  Rh  Rh16  1  0.777153  0.222847  0.736255  1
  Rh  Rh17  1  0.222126  0.777874  0.236424  1
  Rh  Rh18  1  0.393881  0.606119  0.017039  1
  Rh  Rh19  1  0.604243  0.395757  0.512083  1
