# generated using pymatgen
data_Ba5Na16SrAu
_symmetry_space_group_name_H-M   'P 1'
_cell_length_a   10.90205941
_cell_length_b   10.90205976
_cell_length_c   10.90205884
_cell_angle_alpha   109.26361323
_cell_angle_beta   109.26361591
_cell_angle_gamma   109.88723073
_symmetry_Int_Tables_number   1
_chemical_formula_structural   Ba5Na16SrAu
_chemical_formula_sum   'Ba5 Na16 Sr1 Au1'
_cell_volume   997.43952154
_cell_formula_units_Z   1
loop_
 _symmetry_equiv_pos_site_id
 _symmetry_equiv_pos_as_xyz
  1  'x, y, z'
loop_
 _atom_site_type_symbol
 _atom_site_label
 _atom_site_symmetry_multiplicity
 _atom_site_fract_x
 _atom_site_fract_y
 _atom_site_fract_z
 _atom_site_occupancy
  Ba  Ba0  1  0.000823  0.257852  0.257030  1
  Ba  Ba1  1  0.000823  0.743793  0.742970  1
  Ba  Ba2  1  0.743793  0.000823  0.742970  1
  Ba  Ba3  1  0.257852  0.000823  0.257030  1
  Ba  Ba4  1  0.742665  0.742665  0.000000  1
  Na  Na5  1  0.499688  0.499688  0.499236  1
  Na  Na6  1  0.000452  0.000452  0.500764  1
  Na  Na7  1  0.499688  0.000452  0.000000  1
  Na  Na8  1  0.000452  0.499688  0.000000  1
  Na  Na9  1  0.343756  0.687178  0.343422  1
  Na  Na10  1  0.656238  0.000122  0.343885  1
  Na  Na11  1  0.343756  0.000333  0.656578  1
  Na  Na12  1  0.654837  0.343467  0.000000  1
  Na  Na13  1  0.343467  0.343467  0.688630  1
  Na  Na14  1  0.687178  0.343756  0.343422  1
  Na  Na15  1  0.000333  0.343756  0.656578  1
  Na  Na16  1  0.312353  0.656238  0.656115  1
  Na  Na17  1  0.343467  0.654837  0.000000  1
  Na  Na18  1  0.000122  0.656238  0.343885  1
  Na  Na19  1  0.654837  0.654837  0.311370  1
  Na  Na20  1  0.656238  0.312353  0.656115  1
  Sr  Sr21  1  0.254203  0.254203  0.000000  1
  Au  Au22  1  0.002980  0.002980  0.000000  1
