# generated using pymatgen
data_Tm3LuAl2(ZnRh2)2
_symmetry_space_group_name_H-M   'P 1'
_cell_length_a   4.04070200
_cell_length_b   6.87131552
_cell_length_c   8.04530503
_cell_angle_alpha   89.91299406
_cell_angle_beta   90.00000000
_cell_angle_gamma   90.00000000
_symmetry_Int_Tables_number   1
_chemical_formula_structural   Tm3LuAl2(ZnRh2)2
_chemical_formula_sum   'Tm3 Lu1 Al2 Zn2 Rh4'
_cell_volume   223.37714075
_cell_formula_units_Z   1
loop_
 _symmetry_equiv_pos_site_id
 _symmetry_equiv_pos_as_xyz
  1  'x, y, z'
loop_
 _atom_site_type_symbol
 _atom_site_label
 _atom_site_symmetry_multiplicity
 _atom_site_fract_x
 _atom_site_fract_y
 _atom_site_fract_z
 _atom_site_occupancy
  Tm  Tm0  1  0.250000  0.536283  0.178619  1
  Tm  Tm1  1  0.750000  0.463703  0.821751  1
  Tm  Tm2  1  0.750000  0.963283  0.684342  1
  Lu  Lu3  1  0.250000  0.037125  0.315172  1
  Al  Al4  1  0.250000  0.638355  0.561017  1
  Al  Al5  1  0.750000  0.361366  0.438588  1
  Zn  Zn6  1  0.750000  0.859814  0.064583  1
  Zn  Zn7  1  0.250000  0.140402  0.936059  1
  Rh  Rh8  1  0.250000  0.754657  0.869190  1
  Rh  Rh9  1  0.750000  0.244527  0.131303  1
  Rh  Rh10  1  0.750000  0.736238  0.385601  1
  Rh  Rh11  1  0.250000  0.264246  0.613775  1
