# generated using pymatgen
data_LuSc2Pa(Al3Ir)6
_symmetry_space_group_name_H-M   'P 1'
_cell_length_a   7.52743435
_cell_length_b   7.52552029
_cell_length_c   9.33190000
_cell_angle_alpha   90.00000000
_cell_angle_beta   90.00000000
_cell_angle_gamma   119.64217220
_symmetry_Int_Tables_number   1
_chemical_formula_structural   LuSc2Pa(Al3Ir)6
_chemical_formula_sum   'Lu1 Sc2 Pa1 Al18 Ir6'
_cell_volume   459.45067065
_cell_formula_units_Z   1
loop_
 _symmetry_equiv_pos_site_id
 _symmetry_equiv_pos_as_xyz
  1  'x, y, z'
loop_
 _atom_site_type_symbol
 _atom_site_label
 _atom_site_symmetry_multiplicity
 _atom_site_fract_x
 _atom_site_fract_y
 _atom_site_fract_z
 _atom_site_occupancy
  Lu  Lu0  1  0.672886  0.994552  0.250000  1
  Sc  Sc1  1  0.004341  0.327651  0.750000  1
  Sc  Sc2  1  0.328759  0.004498  0.750000  1
  Pa  Pa3  1  0.995294  0.671989  0.250000  1
  Al  Al4  1  0.132968  0.132669  0.250000  1
  Al  Al5  1  0.877859  0.879535  0.750000  1
  Al  Al6  1  0.000936  0.331826  0.071373  1
  Al  Al7  1  0.002653  0.664665  0.914549  1
  Al  Al8  1  0.002653  0.664665  0.585451  1
  Al  Al9  1  0.339514  0.004455  0.428507  1
  Al  Al10  1  0.000936  0.331826  0.428627  1
  Al  Al11  1  0.664916  0.003352  0.581874  1
  Al  Al12  1  0.664916  0.003352  0.918126  1
  Al  Al13  1  0.339514  0.004455  0.071493  1
  Al  Al14  1  0.329228  0.329436  0.564108  1
  Al  Al15  1  0.662280  0.665683  0.451054  1
  Al  Al16  1  0.662280  0.665683  0.048946  1
  Al  Al17  1  0.329228  0.329436  0.935892  1
  Al  Al18  1  0.339984  0.547204  0.250000  1
  Al  Al19  1  0.658629  0.443955  0.750000  1
  Al  Al20  1  0.545986  0.340316  0.250000  1
  Al  Al21  1  0.444830  0.660413  0.750000  1
  Ir  Ir22  1  0.674471  0.329857  0.001653  1
  Ir  Ir23  1  0.326043  0.672570  0.001552  1
  Ir  Ir24  1  0.326043  0.672570  0.498448  1
  Ir  Ir25  1  0.674471  0.329857  0.498347  1
  Ir  Ir26  1  0.999190  0.996766  0.002678  1
  Ir  Ir27  1  0.999190  0.996766  0.497322  1
