# generated using pymatgen
data_La2Nd4Er14Si15Ge
_symmetry_space_group_name_H-M   'P 1'
_cell_length_a   7.48350904
_cell_length_b   7.74158023
_cell_length_c   14.68609130
_cell_angle_alpha   89.55054744
_cell_angle_beta   89.99465178
_cell_angle_gamma   89.88805612
_symmetry_Int_Tables_number   1
_chemical_formula_structural   La2Nd4Er14Si15Ge
_chemical_formula_sum   'La2 Nd4 Er14 Si15 Ge1'
_cell_volume   850.79893545
_cell_formula_units_Z   1
loop_
 _symmetry_equiv_pos_site_id
 _symmetry_equiv_pos_as_xyz
  1  'x, y, z'
loop_
 _atom_site_type_symbol
 _atom_site_label
 _atom_site_symmetry_multiplicity
 _atom_site_fract_x
 _atom_site_fract_y
 _atom_site_fract_z
 _atom_site_occupancy
  La  La0  1  0.524769  0.574030  0.344773  1
  La  La1  1  0.025640  0.427129  0.654760  1
  Nd  Nd2  1  0.474608  0.931228  0.150697  1
  Nd  Nd3  1  0.974408  0.070373  0.848803  1
  Nd  Nd4  1  0.524949  0.571360  0.653861  1
  Nd  Nd5  1  0.024663  0.429730  0.346474  1
  Er  Er6  1  0.817667  0.575278  0.874176  1
  Er  Er7  1  0.312871  0.422119  0.127125  1
  Er  Er8  1  0.181096  0.929782  0.371633  1
  Er  Er9  1  0.681111  0.070225  0.628210  1
  Er  Er10  1  0.184523  0.926326  0.627712  1
  Er  Er11  1  0.684965  0.074233  0.372344  1
  Er  Er12  1  0.819542  0.572009  0.125014  1
  Er  Er13  1  0.315004  0.424433  0.873998  1
  Er  Er14  1  0.647438  0.239901  0.999700  1
  Er  Er15  1  0.145626  0.759797  0.000293  1
  Er  Er16  1  0.351539  0.260653  0.499896  1
  Er  Er17  1  0.851136  0.738790  0.500067  1
  Er  Er18  1  0.470818  0.936398  0.853657  1
  Er  Er19  1  0.970127  0.066230  0.146597  1
  Si  Si20  1  0.019042  0.359235  0.000881  1
  Si  Si21  1  0.477396  0.865762  0.500195  1
  Si  Si22  1  0.977515  0.134254  0.499818  1
  Si  Si23  1  0.642642  0.277599  0.793267  1
  Si  Si24  1  0.142974  0.723096  0.206897  1
  Si  Si25  1  0.360140  0.217909  0.290432  1
  Si  Si26  1  0.860115  0.782070  0.710396  1
  Si  Si27  1  0.358385  0.213055  0.712425  1
  Si  Si28  1  0.857998  0.787369  0.286704  1
  Si  Si29  1  0.649816  0.277290  0.207200  1
  Si  Si30  1  0.151073  0.723199  0.792583  1
  Si  Si31  1  0.771534  0.879971  0.999468  1
  Si  Si32  1  0.267504  0.123360  0.000640  1
  Si  Si33  1  0.232491  0.629755  0.500079  1
  Si  Si34  1  0.732411  0.370381  0.499946  1
  Ge  Ge35  1  0.516454  0.635668  0.999279  1
