# generated using pymatgen
data_Zr2Co9B6Ir
_symmetry_space_group_name_H-M   'P 1'
_cell_length_a   5.67004906
_cell_length_b   5.67005012
_cell_length_c   5.67004978
_cell_angle_alpha   95.78460552
_cell_angle_beta   95.78461603
_cell_angle_gamma   95.78463072
_symmetry_Int_Tables_number   1
_chemical_formula_structural   Zr2Co9B6Ir
_chemical_formula_sum   'Zr2 Co9 B6 Ir1'
_cell_volume   179.30024642
_cell_formula_units_Z   1
loop_
 _symmetry_equiv_pos_site_id
 _symmetry_equiv_pos_as_xyz
  1  'x, y, z'
loop_
 _atom_site_type_symbol
 _atom_site_label
 _atom_site_symmetry_multiplicity
 _atom_site_fract_x
 _atom_site_fract_y
 _atom_site_fract_z
 _atom_site_occupancy
  Zr  Zr0  1  0.684441  0.684441  0.684441  1
  Zr  Zr1  1  0.315559  0.315559  0.315559  1
  Co  Co2  1  0.000000  0.000000  0.500000  1
  Co  Co3  1  0.500000  0.000000  0.000000  1
  Co  Co4  1  0.000000  0.500000  0.000000  1
  Co  Co5  1  0.703536  0.201917  0.703536  1
  Co  Co6  1  0.703536  0.703536  0.201917  1
  Co  Co7  1  0.201917  0.703536  0.703536  1
  Co  Co8  1  0.296464  0.798083  0.296464  1
  Co  Co9  1  0.296464  0.296464  0.798083  1
  Co  Co10  1  0.798083  0.296464  0.296464  1
  B  B11  1  0.615018  0.384982  0.000000  1
  B  B12  1  0.000000  0.615018  0.384982  1
  B  B13  1  0.384982  0.000000  0.615018  1
  B  B14  1  0.000000  0.384982  0.615018  1
  B  B15  1  0.615018  0.000000  0.384982  1
  B  B16  1  0.384982  0.615018  0.000000  1
  Ir  Ir17  1  0.000000  0.000000  0.000000  1
