# generated using pymatgen
data_Th4Pd3Pb2Au
_symmetry_space_group_name_H-M   'P 1'
_cell_length_a   8.06343500
_cell_length_b   8.06343485
_cell_length_c   3.83964500
_cell_angle_alpha   90.00000000
_cell_angle_beta   90.00000000
_cell_angle_gamma   90.06903121
_symmetry_Int_Tables_number   1
_chemical_formula_structural   Th4Pd3Pb2Au
_chemical_formula_sum   'Th4 Pd3 Pb2 Au1'
_cell_volume   249.64963105
_cell_formula_units_Z   1
loop_
 _symmetry_equiv_pos_site_id
 _symmetry_equiv_pos_as_xyz
  1  'x, y, z'
loop_
 _atom_site_type_symbol
 _atom_site_label
 _atom_site_symmetry_multiplicity
 _atom_site_fract_x
 _atom_site_fract_y
 _atom_site_fract_z
 _atom_site_occupancy
  Th  Th0  1  0.331035  0.831035  0.000000  1
  Th  Th1  1  0.675828  0.175828  0.000000  1
  Th  Th2  1  0.818539  0.676418  0.000000  1
  Th  Th3  1  0.176418  0.318539  0.000000  1
  Pd  Pd4  1  0.376438  0.123940  0.500000  1
  Pd  Pd5  1  0.623940  0.876438  0.500000  1
  Pd  Pd6  1  0.874543  0.374543  0.500000  1
  Pb  Pb7  1  0.998440  0.002716  0.500000  1
  Pb  Pb8  1  0.502716  0.498440  0.500000  1
  Au  Au9  1  0.122101  0.622101  0.500000  1
