# generated using pymatgen
data_Tm2Re3Si4Tc5
_symmetry_space_group_name_H-M   'P 1'
_cell_length_a   7.57683328
_cell_length_b   7.13233274
_cell_length_c   4.14106700
_cell_angle_alpha   90.00000000
_cell_angle_beta   90.00000000
_cell_angle_gamma   89.95841354
_symmetry_Int_Tables_number   1
_chemical_formula_structural   Tm2Re3Si4Tc5
_chemical_formula_sum   'Tm2 Re3 Si4 Tc5'
_cell_volume   223.78525589
_cell_formula_units_Z   1
loop_
 _symmetry_equiv_pos_site_id
 _symmetry_equiv_pos_as_xyz
  1  'x, y, z'
loop_
 _atom_site_type_symbol
 _atom_site_label
 _atom_site_symmetry_multiplicity
 _atom_site_fract_x
 _atom_site_fract_y
 _atom_site_fract_z
 _atom_site_occupancy
  Tm  Tm0  1  0.499383  0.500701  0.500000  1
  Tm  Tm1  1  0.999992  0.000317  0.000000  1
  Re  Re2  1  0.659264  0.919604  0.500000  1
  Re  Re3  1  0.341543  0.081036  0.500000  1
  Re  Re4  1  0.157667  0.580527  0.000000  1
  Si  Si5  1  0.806119  0.225359  0.500000  1
  Si  Si6  1  0.193694  0.777574  0.500000  1
  Si  Si7  1  0.306031  0.276749  0.000000  1
  Si  Si8  1  0.695009  0.722249  0.000000  1
  Tc  Tc9  1  0.840412  0.418299  0.000000  1
  Tc  Tc10  1  0.893884  0.653937  0.500000  1
  Tc  Tc11  1  0.107310  0.346545  0.500000  1
  Tc  Tc12  1  0.606583  0.152417  0.000000  1
  Tc  Tc13  1  0.393110  0.844686  0.000000  1
