# generated using pymatgen
data_Y12InSi4Au
_symmetry_space_group_name_H-M   'P 1'
_cell_length_a   8.52224847
_cell_length_b   8.52224947
_cell_length_c   8.52224900
_cell_angle_alpha   111.98174410
_cell_angle_beta   111.29317207
_cell_angle_gamma   105.22134261
_symmetry_Int_Tables_number   1
_chemical_formula_structural   Y12InSi4Au
_chemical_formula_sum   'Y12 In1 Si4 Au1'
_cell_volume   474.51011304
_cell_formula_units_Z   1
loop_
 _symmetry_equiv_pos_site_id
 _symmetry_equiv_pos_as_xyz
  1  'x, y, z'
loop_
 _atom_site_type_symbol
 _atom_site_label
 _atom_site_symmetry_multiplicity
 _atom_site_fract_x
 _atom_site_fract_y
 _atom_site_fract_z
 _atom_site_occupancy
  Y  Y0  1  0.434918  0.236138  0.198779  1
  Y  Y1  1  0.565082  0.763862  0.801221  1
  Y  Y2  1  0.037359  0.236138  0.801221  1
  Y  Y3  1  0.962641  0.763862  0.198779  1
  Y  Y4  1  0.181554  0.271392  0.452945  1
  Y  Y5  1  0.818446  0.728608  0.547055  1
  Y  Y6  1  0.181554  0.728608  0.910164  1
  Y  Y7  1  0.818446  0.271392  0.089836  1
  Y  Y8  1  0.321493  0.619977  0.298485  1
  Y  Y9  1  0.678507  0.380023  0.701515  1
  Y  Y10  1  0.321493  0.023008  0.701515  1
  Y  Y11  1  0.678507  0.976992  0.298485  1
  In  In12  1  0.500000  0.500000  0.000000  1
  Si  Si13  1  0.364370  0.000000  0.364370  1
  Si  Si14  1  0.635630  0.000000  0.635630  1
  Si  Si15  1  0.116370  0.616370  0.500000  1
  Si  Si16  1  0.883630  0.383630  0.500000  1
  Au  Au17  1  0.000000  0.000000  0.000000  1
