# generated using pymatgen
data_Tc6Te7Br4
_symmetry_space_group_name_H-M   'P 1'
_cell_length_a   12.65350100
_cell_length_b   12.65350022
_cell_length_c   12.65350038
_cell_angle_alpha   49.77948649
_cell_angle_beta   49.77948086
_cell_angle_gamma   49.77948624
_symmetry_Int_Tables_number   1
_chemical_formula_structural   Tc6Te7Br4
_chemical_formula_sum   'Tc12 Te14 Br8'
_cell_volume   1086.47917516
_cell_formula_units_Z   2
loop_
 _symmetry_equiv_pos_site_id
 _symmetry_equiv_pos_as_xyz
  1  'x, y, z'
loop_
 _atom_site_type_symbol
 _atom_site_label
 _atom_site_symmetry_multiplicity
 _atom_site_fract_x
 _atom_site_fract_y
 _atom_site_fract_z
 _atom_site_occupancy
  Tc  Tc0  1  0.535868  0.387388  0.677920  1
  Tc  Tc1  1  0.387388  0.677920  0.535868  1
  Tc  Tc2  1  0.677920  0.535868  0.387388  1
  Tc  Tc3  1  0.177920  0.887388  0.035868  1
  Tc  Tc4  1  0.887388  0.035868  0.177920  1
  Tc  Tc5  1  0.035868  0.177920  0.887388  1
  Tc  Tc6  1  0.465094  0.611996  0.322820  1
  Tc  Tc7  1  0.611996  0.322820  0.465094  1
  Tc  Tc8  1  0.322820  0.465094  0.611996  1
  Tc  Tc9  1  0.822820  0.111996  0.965094  1
  Tc  Tc10  1  0.111996  0.965094  0.822820  1
  Tc  Tc11  1  0.965094  0.822820  0.111996  1
  Te  Te12  1  0.825203  0.240859  0.527290  1
  Te  Te13  1  0.240859  0.527290  0.825203  1
  Te  Te14  1  0.527290  0.825203  0.240859  1
  Te  Te15  1  0.027290  0.740859  0.325203  1
  Te  Te16  1  0.740859  0.325203  0.027290  1
  Te  Te17  1  0.325203  0.027290  0.740859  1
  Te  Te18  1  0.174284  0.761060  0.470446  1
  Te  Te19  1  0.761060  0.470446  0.174284  1
  Te  Te20  1  0.470446  0.174284  0.761060  1
  Te  Te21  1  0.970446  0.261060  0.674284  1
  Te  Te22  1  0.261060  0.674284  0.970446  1
  Te  Te23  1  0.674284  0.970446  0.261060  1
  Te  Te24  1  0.600097  0.600097  0.600097  1
  Te  Te25  1  0.100097  0.100097  0.100097  1
  Br  Br26  1  0.938029  0.566464  0.242683  1
  Br  Br27  1  0.566464  0.242683  0.938029  1
  Br  Br28  1  0.242683  0.938029  0.566464  1
  Br  Br29  1  0.742683  0.066464  0.438029  1
  Br  Br30  1  0.066464  0.438029  0.742683  1
  Br  Br31  1  0.438029  0.742683  0.066464  1
  Br  Br32  1  0.402463  0.402463  0.402463  1
  Br  Br33  1  0.902463  0.902463  0.902463  1
