# generated using pymatgen
data_BaZnPb2Au
_symmetry_space_group_name_H-M   'P 1'
_cell_length_a   7.09753620
_cell_length_b   7.09753370
_cell_length_c   7.09753600
_cell_angle_alpha   140.14243625
_cell_angle_beta   140.14242464
_cell_angle_gamma   57.63711329
_symmetry_Int_Tables_number   1
_chemical_formula_structural   BaZnPb2Au
_chemical_formula_sum   'Ba1 Zn1 Pb2 Au1'
_cell_volume   145.57703632
_cell_formula_units_Z   1
loop_
 _symmetry_equiv_pos_site_id
 _symmetry_equiv_pos_as_xyz
  1  'x, y, z'
loop_
 _atom_site_type_symbol
 _atom_site_label
 _atom_site_symmetry_multiplicity
 _atom_site_fract_x
 _atom_site_fract_y
 _atom_site_fract_z
 _atom_site_occupancy
  Ba  Ba0  1  0.988782  0.988782  0.000000  1
  Zn  Zn1  1  0.597432  0.597432  0.000000  1
  Pb  Pb2  1  0.740587  0.240587  0.500000  1
  Pb  Pb3  1  0.240587  0.740587  0.500000  1
  Au  Au4  1  0.390502  0.390502  0.000000  1
