# generated using pymatgen
data_LaSmZn2(InCu4)2
_symmetry_space_group_name_H-M   'P 1'
_cell_length_a   5.14297900
_cell_length_b   8.40065762
_cell_length_c   10.72428915
_cell_angle_alpha   89.86538277
_cell_angle_beta   90.00000000
_cell_angle_gamma   90.00000000
_symmetry_Int_Tables_number   1
_chemical_formula_structural   LaSmZn2(InCu4)2
_chemical_formula_sum   'La2 Sm2 Zn4 In4 Cu16'
_cell_volume   463.33526086
_cell_formula_units_Z   2
loop_
 _symmetry_equiv_pos_site_id
 _symmetry_equiv_pos_as_xyz
  1  'x, y, z'
loop_
 _atom_site_type_symbol
 _atom_site_label
 _atom_site_symmetry_multiplicity
 _atom_site_fract_x
 _atom_site_fract_y
 _atom_site_fract_z
 _atom_site_occupancy
  La  La0  1  0.750000  0.744398  0.557507  1
  La  La1  1  0.250000  0.255602  0.442493  1
  Sm  Sm2  1  0.250000  0.753524  0.057252  1
  Sm  Sm3  1  0.750000  0.246476  0.942748  1
  Zn  Zn4  1  0.250000  0.814579  0.742207  1
  Zn  Zn5  1  0.750000  0.185421  0.257793  1
  Zn  Zn6  1  0.750000  0.686202  0.239052  1
  Zn  Zn7  1  0.250000  0.313798  0.760948  1
  In  In8  1  0.250000  0.638944  0.361850  1
  In  In9  1  0.750000  0.361056  0.638150  1
  In  In10  1  0.750000  0.862706  0.864019  1
  In  In11  1  0.250000  0.137294  0.135981  1
  Cu  Cu12  1  0.502291  0.565546  0.812842  1
  Cu  Cu13  1  0.497709  0.434454  0.187158  1
  Cu  Cu14  1  0.497029  0.933843  0.310672  1
  Cu  Cu15  1  0.002291  0.434454  0.187158  1
  Cu  Cu16  1  0.502971  0.066157  0.689328  1
  Cu  Cu17  1  0.997709  0.565546  0.812842  1
  Cu  Cu18  1  0.997029  0.066157  0.689328  1
  Cu  Cu19  1  0.002971  0.933843  0.310672  1
  Cu  Cu20  1  0.250000  0.556951  0.605775  1
  Cu  Cu21  1  0.750000  0.443049  0.394225  1
  Cu  Cu22  1  0.750000  0.943013  0.103881  1
  Cu  Cu23  1  0.250000  0.056987  0.896119  1
  Cu  Cu24  1  0.250000  0.918230  0.514428  1
  Cu  Cu25  1  0.750000  0.081770  0.485572  1
  Cu  Cu26  1  0.750000  0.582339  0.014028  1
  Cu  Cu27  1  0.250000  0.417661  0.985972  1
