# generated using pymatgen
data_KBe3VF9
_symmetry_space_group_name_H-M   'P 1'
_cell_length_a   6.74525200
_cell_length_b   6.74525099
_cell_length_c   9.90194000
_cell_angle_alpha   90.00000000
_cell_angle_beta   90.00000000
_cell_angle_gamma   119.99999514
_symmetry_Int_Tables_number   1
_chemical_formula_structural   KBe3VF9
_chemical_formula_sum   'K2 Be6 V2 F18'
_cell_volume   390.16403793
_cell_formula_units_Z   2
loop_
 _symmetry_equiv_pos_site_id
 _symmetry_equiv_pos_as_xyz
  1  'x, y, z'
loop_
 _atom_site_type_symbol
 _atom_site_label
 _atom_site_symmetry_multiplicity
 _atom_site_fract_x
 _atom_site_fract_y
 _atom_site_fract_z
 _atom_site_occupancy
  K  K0  1  0.666667  0.333333  0.000000  1
  K  K1  1  0.666667  0.333333  0.500000  1
  Be  Be2  1  0.217974  0.945763  0.250000  1
  Be  Be3  1  0.217974  0.272212  0.750000  1
  Be  Be4  1  0.727788  0.945763  0.750000  1
  Be  Be5  1  0.054237  0.782026  0.750000  1
  Be  Be6  1  0.054237  0.272212  0.250000  1
  Be  Be7  1  0.727788  0.782026  0.250000  1
  V  V8  1  0.333333  0.666667  0.000000  1
  V  V9  1  0.333333  0.666667  0.500000  1
  F  F10  1  0.071269  0.663531  0.620567  1
  F  F11  1  0.592262  0.928731  0.620567  1
  F  F12  1  0.336469  0.407738  0.620567  1
  F  F13  1  0.336469  0.928731  0.379433  1
  F  F14  1  0.237904  0.191480  0.250000  1
  F  F15  1  0.953576  0.762096  0.250000  1
  F  F16  1  0.808520  0.046424  0.250000  1
  F  F17  1  0.808520  0.762096  0.750000  1
  F  F18  1  0.953576  0.191480  0.750000  1
  F  F19  1  0.237904  0.046424  0.750000  1
  F  F20  1  0.336469  0.928731  0.120566  1
  F  F21  1  0.592262  0.663531  0.379433  1
  F  F22  1  0.071269  0.407738  0.379433  1
  F  F23  1  0.071269  0.407738  0.120566  1
  F  F24  1  0.592262  0.663531  0.120566  1
  F  F25  1  0.071269  0.663531  0.879433  1
  F  F26  1  0.592262  0.928731  0.879433  1
  F  F27  1  0.336469  0.407738  0.879433  1
