# generated using pymatgen
data_Hf2Sc(TcAs)3
_symmetry_space_group_name_H-M   'P 1'
_cell_length_a   7.78453454
_cell_length_b   7.78453523
_cell_length_c   7.78453458
_cell_angle_alpha   127.26846536
_cell_angle_beta   124.28168156
_cell_angle_gamma   80.28122174
_symmetry_Int_Tables_number   1
_chemical_formula_structural   Hf2Sc(TcAs)3
_chemical_formula_sum   'Hf4 Sc2 Tc6 As6'
_cell_volume   299.35853626
_cell_formula_units_Z   2
loop_
 _symmetry_equiv_pos_site_id
 _symmetry_equiv_pos_as_xyz
  1  'x, y, z'
loop_
 _atom_site_type_symbol
 _atom_site_label
 _atom_site_symmetry_multiplicity
 _atom_site_fract_x
 _atom_site_fract_y
 _atom_site_fract_z
 _atom_site_occupancy
  Hf  Hf0  1  0.750139  0.843781  0.593641  1
  Hf  Hf1  1  0.249861  0.843503  0.093641  1
  Hf  Hf2  1  0.053852  0.258078  0.704226  1
  Hf  Hf3  1  0.946148  0.650374  0.204226  1
  Sc  Sc4  1  0.460944  0.677078  0.716133  1
  Sc  Sc5  1  0.539056  0.255188  0.216133  1
  Tc  Tc6  1  0.500000  0.502841  0.002841  1
  Tc  Tc7  1  0.000000  0.502841  0.502841  1
  Tc  Tc8  1  0.094682  0.251629  0.098844  1
  Tc  Tc9  1  0.905318  0.004161  0.156947  1
  Tc  Tc10  1  0.347215  0.004161  0.598844  1
  Tc  Tc11  1  0.652785  0.251629  0.656947  1
  As  As12  1  0.271671  0.269754  0.498084  1
  As  As13  1  0.728329  0.226412  0.998084  1
  As  As14  1  0.330821  0.586034  0.253871  1
  As  As15  1  0.669179  0.923049  0.255214  1
  As  As16  1  0.167835  0.923049  0.753871  1
  As  As17  1  0.832165  0.586034  0.755214  1
