# generated using pymatgen
data_Ta9B4P2W
_symmetry_space_group_name_H-M   'P 1'
_cell_length_a   7.23841306
_cell_length_b   7.23841386
_cell_length_c   7.23841416
_cell_angle_alpha   129.60217236
_cell_angle_beta   129.60218023
_cell_angle_gamma   74.04355741
_symmetry_Int_Tables_number   1
_chemical_formula_structural   Ta9B4P2W
_chemical_formula_sum   'Ta9 B4 P2 W1'
_cell_volume   219.55755036
_cell_formula_units_Z   1
loop_
 _symmetry_equiv_pos_site_id
 _symmetry_equiv_pos_as_xyz
  1  'x, y, z'
loop_
 _atom_site_type_symbol
 _atom_site_label
 _atom_site_symmetry_multiplicity
 _atom_site_fract_x
 _atom_site_fract_y
 _atom_site_fract_z
 _atom_site_occupancy
  Ta  Ta0  1  0.524469  0.690557  0.496741  1
  Ta  Ta1  1  0.193814  0.027728  0.503259  1
  Ta  Ta2  1  0.027728  0.524469  0.833913  1
  Ta  Ta3  1  0.690557  0.193814  0.166087  1
  Ta  Ta4  1  0.475531  0.309443  0.503259  1
  Ta  Ta5  1  0.806186  0.972272  0.496741  1
  Ta  Ta6  1  0.972272  0.475531  0.166087  1
  Ta  Ta7  1  0.309443  0.806186  0.833913  1
  Ta  Ta8  1  0.000000  0.000000  0.000000  1
  B  B9  1  0.881135  0.617379  0.498513  1
  B  B10  1  0.118865  0.382621  0.501487  1
  B  B11  1  0.382621  0.881135  0.263755  1
  B  B12  1  0.617379  0.118865  0.736245  1
  P  P13  1  0.246266  0.246266  0.000000  1
  P  P14  1  0.753734  0.753734  0.000000  1
  W  W15  1  0.500000  0.500000  0.000000  1
