# generated using pymatgen
data_Hf5Sc(AlAu)6
_symmetry_space_group_name_H-M   'P 1'
_cell_length_a   6.83854607
_cell_length_b   6.83737825
_cell_length_c   8.25970000
_cell_angle_alpha   90.00000000
_cell_angle_beta   90.00000000
_cell_angle_gamma   120.02256659
_symmetry_Int_Tables_number   1
_chemical_formula_structural   Hf5Sc(AlAu)6
_chemical_formula_sum   'Hf5 Sc1 Al6 Au6'
_cell_volume   334.38707832
_cell_formula_units_Z   1
loop_
 _symmetry_equiv_pos_site_id
 _symmetry_equiv_pos_as_xyz
  1  'x, y, z'
loop_
 _atom_site_type_symbol
 _atom_site_label
 _atom_site_symmetry_multiplicity
 _atom_site_fract_x
 _atom_site_fract_y
 _atom_site_fract_z
 _atom_site_occupancy
  Hf  Hf0  1  0.580378  0.001204  0.750000  1
  Hf  Hf1  1  0.002124  0.580958  0.750000  1
  Hf  Hf2  1  0.420966  0.421316  0.750000  1
  Hf  Hf3  1  0.003547  0.581220  0.250000  1
  Hf  Hf4  1  0.581650  0.004108  0.250000  1
  Sc  Sc5  1  0.420472  0.419939  0.250000  1
  Al  Al6  1  0.751212  0.751130  0.999102  1
  Al  Al7  1  0.248278  0.998529  0.000904  1
  Al  Al8  1  0.998374  0.248123  0.000914  1
  Al  Al9  1  0.751212  0.751130  0.500898  1
  Al  Al10  1  0.248278  0.998529  0.499096  1
  Al  Al11  1  0.998374  0.248123  0.499086  1
  Au  Au12  1  0.002625  0.002512  0.750000  1
  Au  Au13  1  0.997158  0.996778  0.250000  1
  Au  Au14  1  0.665326  0.332732  0.998075  1
  Au  Au15  1  0.665326  0.332732  0.501925  1
  Au  Au16  1  0.332351  0.665467  0.500459  1
  Au  Au17  1  0.332351  0.665467  0.999541  1
