# generated using pymatgen
data_HoErPa(InIr)3
_symmetry_space_group_name_H-M   'P 1'
_cell_length_a   7.54523769
_cell_length_b   7.54351804
_cell_length_c   3.83572900
_cell_angle_alpha   90.00000000
_cell_angle_beta   90.00000000
_cell_angle_gamma   117.68269519
_symmetry_Int_Tables_number   1
_chemical_formula_structural   HoErPa(InIr)3
_chemical_formula_sum   'Ho1 Er1 Pa1 In3 Ir3'
_cell_volume   193.33033589
_cell_formula_units_Z   1
loop_
 _symmetry_equiv_pos_site_id
 _symmetry_equiv_pos_as_xyz
  1  'x, y, z'
loop_
 _atom_site_type_symbol
 _atom_site_label
 _atom_site_symmetry_multiplicity
 _atom_site_fract_x
 _atom_site_fract_y
 _atom_site_fract_z
 _atom_site_occupancy
  Ho  Ho0  1  0.000411  0.403842  0.000000  1
  Er  Er1  1  0.403683  0.000413  0.000000  1
  Pa  Pa2  1  0.583290  0.583281  0.000000  1
  In  In3  1  0.010888  0.740882  0.500000  1
  In  In4  1  0.244978  0.244708  0.500000  1
  In  In5  1  0.740578  0.010790  0.500000  1
  Ir  Ir6  1  0.990904  0.990601  0.000000  1
  Ir  Ir7  1  0.663894  0.361115  0.500000  1
  Ir  Ir8  1  0.361372  0.664368  0.500000  1
