# generated using pymatgen
data_NaLa6RhBr12
_symmetry_space_group_name_H-M   'P 1'
_cell_length_a   9.79451649
_cell_length_b   9.80108096
_cell_length_c   9.62069415
_cell_angle_alpha   107.09806434
_cell_angle_beta   107.32817674
_cell_angle_gamma   107.34045777
_symmetry_Int_Tables_number   1
_chemical_formula_structural   NaLa6RhBr12
_chemical_formula_sum   'Na1 La6 Rh1 Br12'
_cell_volume   763.71760666
_cell_formula_units_Z   1
loop_
 _symmetry_equiv_pos_site_id
 _symmetry_equiv_pos_as_xyz
  1  'x, y, z'
loop_
 _atom_site_type_symbol
 _atom_site_label
 _atom_site_symmetry_multiplicity
 _atom_site_fract_x
 _atom_site_fract_y
 _atom_site_fract_z
 _atom_site_occupancy
  Na  Na0  1  0.500000  0.500000  0.500000  1
  La  La1  1  0.330208  0.118797  0.030728  1
  La  La2  1  0.031482  0.329528  0.118825  1
  La  La3  1  0.107163  0.028174  0.305052  1
  La  La4  1  0.892836  0.971826  0.694948  1
  La  La5  1  0.968518  0.670472  0.881174  1
  La  La6  1  0.669792  0.881203  0.969271  1
  Rh  Rh7  1  0.000000  0.000000  0.000000  1
  Br  Br8  1  0.684897  0.214647  0.070893  1
  Br  Br9  1  0.369990  0.453847  0.157634  1
  Br  Br10  1  0.072256  0.684828  0.216531  1
  Br  Br11  1  0.785199  0.928952  0.317891  1
  Br  Br12  1  0.453489  0.159107  0.371815  1
  Br  Br13  1  0.160041  0.371147  0.456262  1
  Br  Br14  1  0.839960  0.628853  0.543739  1
  Br  Br15  1  0.546511  0.840894  0.628185  1
  Br  Br16  1  0.214800  0.071048  0.682109  1
  Br  Br17  1  0.927744  0.315172  0.783468  1
  Br  Br18  1  0.630011  0.546154  0.842366  1
  Br  Br19  1  0.315103  0.785352  0.929107  1
