# generated using pymatgen
data_TbHo5NiBr10
_symmetry_space_group_name_H-M   'P 1'
_cell_length_a   7.31265483
_cell_length_b   9.13170932
_cell_length_c   9.18777305
_cell_angle_alpha   107.77106856
_cell_angle_beta   97.04359351
_cell_angle_gamma   105.14031910
_symmetry_Int_Tables_number   1
_chemical_formula_structural   TbHo5NiBr10
_chemical_formula_sum   'Tb1 Ho5 Ni1 Br10'
_cell_volume   550.14375677
_cell_formula_units_Z   1
loop_
 _symmetry_equiv_pos_site_id
 _symmetry_equiv_pos_as_xyz
  1  'x, y, z'
loop_
 _atom_site_type_symbol
 _atom_site_label
 _atom_site_symmetry_multiplicity
 _atom_site_fract_x
 _atom_site_fract_y
 _atom_site_fract_z
 _atom_site_occupancy
  Tb  Tb0  1  0.646027  0.869107  0.824421  1
  Ho  Ho1  1  0.122562  0.045473  0.758995  1
  Ho  Ho2  1  0.878680  0.955184  0.241617  1
  Ho  Ho3  1  0.970379  0.292332  0.091368  1
  Ho  Ho4  1  0.030316  0.707893  0.909171  1
  Ho  Ho5  1  0.351618  0.130085  0.174328  1
  Ni  Ni6  1  0.000062  0.000098  0.000061  1
  Br  Br7  1  0.546078  0.179863  0.915239  1
  Br  Br8  1  0.453655  0.821640  0.086613  1
  Br  Br9  1  0.352006  0.451905  0.271202  1
  Br  Br10  1  0.649345  0.546190  0.728871  1
  Br  Br11  1  0.251285  0.083870  0.458535  1
  Br  Br12  1  0.751010  0.917035  0.540631  1
  Br  Br13  1  0.781060  0.254993  0.343927  1
  Br  Br14  1  0.215209  0.743995  0.654500  1
  Br  Br15  1  0.085152  0.370880  0.827250  1
  Br  Br16  1  0.915558  0.629459  0.173271  1
