# generated using pymatgen
data_Ca3U5(ReB6)4
_symmetry_space_group_name_H-M   'P 1'
_cell_length_a   3.64747900
_cell_length_b   9.29343445
_cell_length_c   11.40934432
_cell_angle_alpha   89.99556529
_cell_angle_beta   90.00000000
_cell_angle_gamma   90.00000000
_symmetry_Int_Tables_number   1
_chemical_formula_structural   Ca3U5(ReB6)4
_chemical_formula_sum   'Ca3 U5 Re4 B24'
_cell_volume   386.74946875
_cell_formula_units_Z   1
loop_
 _symmetry_equiv_pos_site_id
 _symmetry_equiv_pos_as_xyz
  1  'x, y, z'
loop_
 _atom_site_type_symbol
 _atom_site_label
 _atom_site_symmetry_multiplicity
 _atom_site_fract_x
 _atom_site_fract_y
 _atom_site_fract_z
 _atom_site_occupancy
  Ca  Ca0  1  0.000000  0.338229  0.408269  1
  Ca  Ca1  1  0.000000  0.661577  0.590039  1
  Ca  Ca2  1  0.000000  0.835870  0.092895  1
  U  U3  1  0.000000  0.163301  0.908540  1
  U  U4  1  0.000000  0.955100  0.395543  1
  U  U5  1  0.000000  0.043035  0.602799  1
  U  U6  1  0.000000  0.458430  0.105464  1
  U  U7  1  0.000000  0.544481  0.896337  1
  Re  Re8  1  0.000000  0.647026  0.317283  1
  Re  Re9  1  0.000000  0.349671  0.687107  1
  Re  Re10  1  0.000000  0.146624  0.176660  1
  Re  Re11  1  0.000000  0.858981  0.819301  1
  B  B12  1  0.500000  0.552383  0.431295  1
  B  B13  1  0.500000  0.446389  0.570765  1
  B  B14  1  0.500000  0.053543  0.067720  1
  B  B15  1  0.500000  0.950021  0.930136  1
  B  B16  1  0.500000  0.743423  0.422199  1
  B  B17  1  0.500000  0.255950  0.578304  1
  B  B18  1  0.500000  0.243239  0.076166  1
  B  B19  1  0.500000  0.756469  0.921706  1
  B  B20  1  0.500000  0.801911  0.274701  1
  B  B21  1  0.500000  0.196352  0.727325  1
  B  B22  1  0.500000  0.302081  0.225123  1
  B  B23  1  0.500000  0.699186  0.774890  1
  B  B24  1  0.500000  0.642855  0.188922  1
  B  B25  1  0.500000  0.354739  0.812842  1
  B  B26  1  0.500000  0.143284  0.310187  1
  B  B27  1  0.500000  0.857191  0.688590  1
  B  B28  1  0.500000  0.990076  0.219041  1
  B  B29  1  0.500000  0.013400  0.781546  1
  B  B30  1  0.500000  0.489650  0.280960  1
  B  B31  1  0.500000  0.510050  0.719545  1
  B  B32  1  0.500000  0.638012  0.037811  1
  B  B33  1  0.500000  0.357698  0.960935  1
  B  B34  1  0.500000  0.136691  0.461198  1
  B  B35  1  0.500000  0.863083  0.537859  1
