# generated using pymatgen
data_ErTmCr2F14
_symmetry_space_group_name_H-M   'P 1'
_cell_length_a   5.52543611
_cell_length_b   5.79172337
_cell_length_c   8.05683294
_cell_angle_alpha   103.36411884
_cell_angle_beta   90.01470224
_cell_angle_gamma   89.97977373
_symmetry_Int_Tables_number   1
_chemical_formula_structural   ErTmCr2F14
_chemical_formula_sum   'Er1 Tm1 Cr2 F14'
_cell_volume   250.85120584
_cell_formula_units_Z   1
loop_
 _symmetry_equiv_pos_site_id
 _symmetry_equiv_pos_as_xyz
  1  'x, y, z'
loop_
 _atom_site_type_symbol
 _atom_site_label
 _atom_site_symmetry_multiplicity
 _atom_site_fract_x
 _atom_site_fract_y
 _atom_site_fract_z
 _atom_site_occupancy
  Er  Er0  1  0.700050  0.652334  0.692046  1
  Tm  Tm1  1  0.199612  0.346879  0.305714  1
  Cr  Cr2  1  0.708462  0.816033  0.224220  1
  Cr  Cr3  1  0.208413  0.184461  0.776103  1
  F  F4  1  0.906190  0.454355  0.483532  1
  F  F5  1  0.403584  0.542301  0.513633  1
  F  F6  1  0.421361  0.935865  0.769595  1
  F  F7  1  0.924399  0.062941  0.231441  1
  F  F8  1  0.948743  0.962666  0.760036  1
  F  F9  1  0.450405  0.040937  0.241387  1
  F  F10  1  0.998469  0.436943  0.794521  1
  F  F11  1  0.496662  0.565294  0.205870  1
  F  F12  1  0.702929  0.768777  0.990206  1
  F  F13  1  0.203164  0.232536  0.010830  1
  F  F14  1  0.709060  0.869805  0.456197  1
  F  F15  1  0.209161  0.129357  0.544458  1
  F  F16  1  0.481350  0.387797  0.791265  1
  F  F17  1  0.980707  0.610719  0.208947  1
