# generated using pymatgen
data_Ba3Sr2Ru3ClO15
_symmetry_space_group_name_H-M   'P 1'
_cell_length_a   10.73791000
_cell_length_b   10.73791014
_cell_length_c   7.71568400
_cell_angle_alpha   90.00000000
_cell_angle_beta   90.00000000
_cell_angle_gamma   119.99999958
_symmetry_Int_Tables_number   1
_chemical_formula_structural   Ba3Sr2Ru3ClO15
_chemical_formula_sum   'Ba6 Sr4 Ru6 Cl2 O30'
_cell_volume   770.45023286
_cell_formula_units_Z   2
loop_
 _symmetry_equiv_pos_site_id
 _symmetry_equiv_pos_as_xyz
  1  'x, y, z'
loop_
 _atom_site_type_symbol
 _atom_site_label
 _atom_site_symmetry_multiplicity
 _atom_site_fract_x
 _atom_site_fract_y
 _atom_site_fract_z
 _atom_site_occupancy
  Ba  Ba0  1  0.740120  0.000000  0.225628  1
  Ba  Ba1  1  0.000000  0.740120  0.225628  1
  Ba  Ba2  1  0.259880  0.000000  0.725628  1
  Ba  Ba3  1  0.000000  0.259880  0.725628  1
  Ba  Ba4  1  0.259880  0.259880  0.225628  1
  Ba  Ba5  1  0.740120  0.740120  0.725628  1
  Sr  Sr6  1  0.333333  0.666667  0.473904  1
  Sr  Sr7  1  0.666667  0.333333  0.973904  1
  Sr  Sr8  1  0.333333  0.666667  0.973904  1
  Sr  Sr9  1  0.666667  0.333333  0.473904  1
  Ru  Ru10  1  0.389639  0.000000  0.175775  1
  Ru  Ru11  1  0.000000  0.389639  0.175775  1
  Ru  Ru12  1  0.610361  0.000000  0.675775  1
  Ru  Ru13  1  0.000000  0.610361  0.675775  1
  Ru  Ru14  1  0.610361  0.610361  0.175775  1
  Ru  Ru15  1  0.389639  0.389639  0.675775  1
  Cl  Cl16  1  0.000000  0.000000  0.994515  1
  Cl  Cl17  1  0.000000  0.000000  0.494515  1
  O  O18  1  0.136068  0.582142  0.214213  1
  O  O19  1  0.417858  0.553925  0.214213  1
  O  O20  1  0.863932  0.417858  0.714213  1
  O  O21  1  0.417858  0.863932  0.714213  1
  O  O22  1  0.446075  0.863932  0.214213  1
  O  O23  1  0.582142  0.446075  0.714213  1
  O  O24  1  0.446075  0.582142  0.714213  1
  O  O25  1  0.582142  0.136068  0.214213  1
  O  O26  1  0.553925  0.136068  0.714213  1
  O  O27  1  0.553925  0.417858  0.214213  1
  O  O28  1  0.136068  0.553925  0.714213  1
  O  O29  1  0.863932  0.446075  0.214213  1
  O  O30  1  0.136011  0.394463  0.023033  1
  O  O31  1  0.605537  0.741550  0.023033  1
  O  O32  1  0.863989  0.605537  0.523033  1
  O  O33  1  0.605537  0.863989  0.523033  1
  O  O34  1  0.258450  0.863989  0.023033  1
  O  O35  1  0.394463  0.258450  0.523033  1
  O  O36  1  0.258450  0.394463  0.523033  1
  O  O37  1  0.394463  0.136011  0.023033  1
  O  O38  1  0.741550  0.136011  0.523033  1
  O  O39  1  0.741550  0.605537  0.023033  1
  O  O40  1  0.136011  0.741550  0.523033  1
  O  O41  1  0.863989  0.258450  0.023033  1
  O  O42  1  0.286360  0.000000  0.349531  1
  O  O43  1  0.000000  0.286360  0.349531  1
  O  O44  1  0.713640  0.000000  0.849531  1
  O  O45  1  0.000000  0.713640  0.849531  1
  O  O46  1  0.713640  0.713640  0.349531  1
  O  O47  1  0.286360  0.286360  0.849531  1
