# generated using pymatgen
data_Ho6Er3TmBi6
_symmetry_space_group_name_H-M   'P 1'
_cell_length_a   8.21828300
_cell_length_b   9.47361900
_cell_length_c   11.98838400
_cell_angle_alpha   89.99816309
_cell_angle_beta   90.00000000
_cell_angle_gamma   90.00000000
_symmetry_Int_Tables_number   1
_chemical_formula_structural   Ho6Er3TmBi6
_chemical_formula_sum   'Ho12 Er6 Tm2 Bi12'
_cell_volume   933.37819793
_cell_formula_units_Z   2
loop_
 _symmetry_equiv_pos_site_id
 _symmetry_equiv_pos_as_xyz
  1  'x, y, z'
loop_
 _atom_site_type_symbol
 _atom_site_label
 _atom_site_symmetry_multiplicity
 _atom_site_fract_x
 _atom_site_fract_y
 _atom_site_fract_z
 _atom_site_occupancy
  Ho  Ho0  1  0.353465  0.749990  0.216448  1
  Ho  Ho1  1  0.853465  0.750010  0.283552  1
  Ho  Ho2  1  0.646517  0.250007  0.783554  1
  Ho  Ho3  1  0.146517  0.249993  0.716446  1
  Ho  Ho4  1  0.476757  0.250017  0.488942  1
  Ho  Ho5  1  0.976757  0.249983  0.011058  1
  Ho  Ho6  1  0.523171  0.749973  0.511044  1
  Ho  Ho7  1  0.023171  0.750027  0.988956  1
  Ho  Ho8  1  0.314346  0.249999  0.218056  1
  Ho  Ho9  1  0.814346  0.250001  0.281944  1
  Ho  Ho10  1  0.685642  0.750013  0.781957  1
  Ho  Ho11  1  0.185642  0.749987  0.718043  1
  Er  Er12  1  0.691925  0.564808  0.058992  1
  Er  Er13  1  0.191925  0.935192  0.441008  1
  Er  Er14  1  0.308102  0.064759  0.941001  1
  Er  Er15  1  0.808102  0.435241  0.558999  1
  Er  Er16  1  0.308089  0.435238  0.941006  1
  Er  Er17  1  0.808089  0.064762  0.558994  1
  Tm  Tm18  1  0.691929  0.935170  0.058992  1
  Tm  Tm19  1  0.191929  0.564830  0.441008  1
  Bi  Bi20  1  0.405471  0.750035  0.957496  1
  Bi  Bi21  1  0.905471  0.749965  0.542504  1
  Bi  Bi22  1  0.594585  0.249892  0.042530  1
  Bi  Bi23  1  0.094585  0.250108  0.457470  1
  Bi  Bi24  1  0.566177  0.996122  0.325660  1
  Bi  Bi25  1  0.066177  0.503878  0.174340  1
  Bi  Bi26  1  0.433838  0.496120  0.674320  1
  Bi  Bi27  1  0.933838  0.003880  0.825680  1
  Bi  Bi28  1  0.433834  0.003875  0.674332  1
  Bi  Bi29  1  0.933834  0.496125  0.825668  1
  Bi  Bi30  1  0.566155  0.503877  0.325674  1
  Bi  Bi31  1  0.066155  0.996123  0.174326  1
