# generated using pymatgen
data_Y10Ho6MgHg3Pt4
_symmetry_space_group_name_H-M   'P 1'
_cell_length_a   9.67267630
_cell_length_b   9.69326180
_cell_length_c   9.69326109
_cell_angle_alpha   59.88302621
_cell_angle_beta   60.05380913
_cell_angle_gamma   60.05380220
_symmetry_Int_Tables_number   1
_chemical_formula_structural   Y10Ho6MgHg3Pt4
_chemical_formula_sum   'Y10 Ho6 Mg1 Hg3 Pt4'
_cell_volume   642.59628357
_cell_formula_units_Z   1
loop_
 _symmetry_equiv_pos_site_id
 _symmetry_equiv_pos_as_xyz
  1  'x, y, z'
loop_
 _atom_site_type_symbol
 _atom_site_label
 _atom_site_symmetry_multiplicity
 _atom_site_fract_x
 _atom_site_fract_y
 _atom_site_fract_z
 _atom_site_occupancy
  Y  Y0  1  0.437458  0.061525  0.439457  1
  Y  Y1  1  0.057631  0.441731  0.058833  1
  Y  Y2  1  0.437458  0.439457  0.061525  1
  Y  Y3  1  0.057631  0.058833  0.441731  1
  Y  Y4  1  0.185415  0.813868  0.813868  1
  Y  Y5  1  0.813007  0.186472  0.186472  1
  Y  Y6  1  0.812555  0.186922  0.813532  1
  Y  Y7  1  0.185769  0.813327  0.187603  1
  Y  Y8  1  0.812555  0.813532  0.186922  1
  Y  Y9  1  0.185769  0.187603  0.813327  1
  Ho  Ho10  1  0.602781  0.601473  0.601473  1
  Ho  Ho11  1  0.603033  0.601171  0.194488  1
  Ho  Ho12  1  0.603033  0.194488  0.601171  1
  Ho  Ho13  1  0.183874  0.605450  0.605450  1
  Ho  Ho14  1  0.057654  0.441763  0.441763  1
  Ho  Ho15  1  0.437485  0.061396  0.061396  1
  Mg  Mg16  1  0.535006  0.821589  0.821589  1
  Hg  Hg17  1  0.832829  0.838110  0.838110  1
  Hg  Hg18  1  0.832780  0.838053  0.491068  1
  Hg  Hg19  1  0.832780  0.491068  0.838053  1
  Pt  Pt20  1  0.389470  0.396592  0.396592  1
  Pt  Pt21  1  0.392854  0.393224  0.817407  1
  Pt  Pt22  1  0.392854  0.817407  0.393224  1
  Pt  Pt23  1  0.818325  0.394949  0.394949  1
