# generated using pymatgen
data_Zr3NpH15
_symmetry_space_group_name_H-M   'P 1'
_cell_length_a   7.11419015
_cell_length_b   7.14788830
_cell_length_c   7.17592913
_cell_angle_alpha   109.58570807
_cell_angle_beta   109.39611449
_cell_angle_gamma   109.17689564
_symmetry_Int_Tables_number   1
_chemical_formula_structural   Zr3NpH15
_chemical_formula_sum   'Zr6 Np2 H30'
_cell_volume   281.78266709
_cell_formula_units_Z   2
loop_
 _symmetry_equiv_pos_site_id
 _symmetry_equiv_pos_as_xyz
  1  'x, y, z'
loop_
 _atom_site_type_symbol
 _atom_site_label
 _atom_site_symmetry_multiplicity
 _atom_site_fract_x
 _atom_site_fract_y
 _atom_site_fract_z
 _atom_site_occupancy
  Zr  Zr0  1  0.004729  0.102890  0.504766  1
  Zr  Zr1  1  0.097892  0.496555  0.000948  1
  Zr  Zr2  1  0.999964  0.598124  0.495234  1
  Zr  Zr3  1  0.596944  0.495606  0.999052  1
  Zr  Zr4  1  0.495873  0.000288  0.591152  1
  Zr  Zr5  1  0.404721  0.409137  0.408848  1
  Np  Np6  1  0.907761  0.907358  0.906783  1
  Np  Np7  1  0.500977  0.000575  0.093217  1
  H  H8  1  0.663011  0.973446  0.393598  1
  H  H9  1  0.226123  0.310514  0.845193  1
  H  H10  1  0.189835  0.417767  0.536534  1
  H  H11  1  0.092167  0.286763  0.129736  1
  H  H12  1  0.281755  0.141639  0.103180  1
  H  H13  1  0.127096  0.098325  0.288834  1
  H  H14  1  0.462430  0.157027  0.870264  1
  H  H15  1  0.725887  0.341369  0.812138  1
  H  H16  1  0.626379  0.377273  0.250718  1
  H  H17  1  0.247460  0.625058  0.372793  1
  H  H18  1  0.754695  0.871739  0.132735  1
  H  H19  1  0.121959  0.739004  0.867265  1
  H  H20  1  0.374668  0.252266  0.627207  1
  H  H21  1  0.875661  0.126555  0.749282  1
  H  H22  1  0.769413  0.579848  0.606402  1
  H  H23  1  0.305986  0.836645  0.228372  1
  H  H24  1  0.376119  0.640680  0.969229  1
  H  H25  1  0.974681  0.382552  0.660166  1
  H  H26  1  0.531699  0.193479  0.424300  1
  H  H27  1  0.413749  0.529230  0.187862  1
  H  H28  1  0.859987  0.234795  0.327094  1
  H  H29  1  0.906889  0.671448  0.030771  1
  H  H30  1  0.814517  0.722386  0.339834  1
  H  H31  1  0.153302  0.881234  0.463466  1
  H  H32  1  0.678574  0.038460  0.896820  1
  H  H33  1  0.338262  0.809491  0.711166  1
  H  H34  1  0.880930  0.465321  0.154807  1
  H  H35  1  0.607398  0.769178  0.575700  1
  H  H36  1  0.577614  0.608274  0.771628  1
  H  H37  1  0.032894  0.907701  0.672906  1
