# generated using pymatgen
data_Zr2ScTi2Sn3
_symmetry_space_group_name_H-M   'P 1'
_cell_length_a   8.35895244
_cell_length_b   8.32391848
_cell_length_c   5.63233600
_cell_angle_alpha   90.00000000
_cell_angle_beta   90.00000000
_cell_angle_gamma   119.86144955
_symmetry_Int_Tables_number   1
_chemical_formula_structural   Zr2ScTi2Sn3
_chemical_formula_sum   'Zr4 Sc2 Ti4 Sn6'
_cell_volume   339.86269551
_cell_formula_units_Z   2
loop_
 _symmetry_equiv_pos_site_id
 _symmetry_equiv_pos_as_xyz
  1  'x, y, z'
loop_
 _atom_site_type_symbol
 _atom_site_label
 _atom_site_symmetry_multiplicity
 _atom_site_fract_x
 _atom_site_fract_y
 _atom_site_fract_z
 _atom_site_occupancy
  Zr  Zr0  1  0.996543  0.758580  0.750000  1
  Zr  Zr1  1  0.996543  0.237963  0.250000  1
  Zr  Zr2  1  0.757547  0.758905  0.250000  1
  Zr  Zr3  1  0.757547  0.998642  0.750000  1
  Sc  Sc4  1  0.239141  0.999123  0.250000  1
  Sc  Sc5  1  0.239141  0.240018  0.750000  1
  Ti  Ti6  1  0.334736  0.667369  0.000000  1
  Ti  Ti7  1  0.672738  0.336369  0.500000  1
  Ti  Ti8  1  0.672738  0.336369  0.000000  1
  Ti  Ti9  1  0.334736  0.667369  0.500000  1
  Sn  Sn10  1  0.597200  0.999911  0.250000  1
  Sn  Sn11  1  0.597200  0.597289  0.750000  1
  Sn  Sn12  1  0.003126  0.400225  0.750000  1
  Sn  Sn13  1  0.003126  0.602901  0.250000  1
  Sn  Sn14  1  0.398968  0.397377  0.250000  1
  Sn  Sn15  1  0.398968  0.001591  0.750000  1
