# generated using pymatgen
data_SmY3(Al8Ni3)3
_symmetry_space_group_name_H-M   'P 1'
_cell_length_a   7.30468411
_cell_length_b   7.31493146
_cell_length_c   12.81768200
_cell_angle_alpha   84.59982583
_cell_angle_beta   100.93988201
_cell_angle_gamma   119.74380887
_symmetry_Int_Tables_number   1
_chemical_formula_structural   SmY3(Al8Ni3)3
_chemical_formula_sum   'Sm1 Y3 Al24 Ni9'
_cell_volume   583.85110327
_cell_formula_units_Z   1
loop_
 _symmetry_equiv_pos_site_id
 _symmetry_equiv_pos_as_xyz
  1  'x, y, z'
loop_
 _atom_site_type_symbol
 _atom_site_label
 _atom_site_symmetry_multiplicity
 _atom_site_fract_x
 _atom_site_fract_y
 _atom_site_fract_z
 _atom_site_occupancy
  Sm  Sm0  1  0.232950  0.497360  0.194803  1
  Y  Y1  1  0.436452  0.831168  0.804952  1
  Y  Y2  1  0.563100  0.168810  0.195119  1
  Y  Y3  1  0.767465  0.502826  0.805106  1
  Al  Al4  1  0.485412  0.166572  0.947818  1
  Al  Al5  1  0.514847  0.834237  0.051066  1
  Al  Al6  1  0.020861  0.166888  0.559706  1
  Al  Al7  1  0.979321  0.832779  0.441217  1
  Al  Al8  1  0.352713  0.833824  0.557500  1
  Al  Al9  1  0.647859  0.166455  0.442976  1
  Al  Al10  1  0.621334  0.835097  0.337925  1
  Al  Al11  1  0.380330  0.165814  0.663106  1
  Al  Al12  1  0.053726  0.493423  0.662581  1
  Al  Al13  1  0.945967  0.506902  0.338067  1
  Al  Al14  1  0.728734  0.840971  0.661416  1
  Al  Al15  1  0.271246  0.157792  0.339842  1
  Al  Al16  1  0.148931  0.502268  0.948075  1
  Al  Al17  1  0.849912  0.497242  0.050919  1
  Al  Al18  1  0.817363  0.830831  0.960551  1
  Al  Al19  1  0.181610  0.167969  0.037682  1
  Al  Al20  1  0.314473  0.500448  0.443367  1
  Al  Al21  1  0.685847  0.499429  0.557617  1
  Al  Al22  1  0.107509  0.838027  0.184738  1
  Al  Al23  1  0.892398  0.164175  0.814570  1
  Al  Al24  1  0.310871  0.373437  0.813556  1
  Al  Al25  1  0.691245  0.627017  0.186160  1
  Al  Al26  1  0.102089  0.955069  0.814684  1
  Al  Al27  1  0.895580  0.043723  0.184780  1
  Ni  Ni28  1  0.386644  0.506875  0.637389  1
  Ni  Ni29  1  0.614500  0.493787  0.363167  1
  Ni  Ni30  1  0.170085  0.829617  0.999289  1
  Ni  Ni31  1  0.829082  0.169911  0.999569  1
  Ni  Ni32  1  0.294611  0.832770  0.363522  1
  Ni  Ni33  1  0.705166  0.166778  0.636871  1
  Ni  Ni34  1  0.047041  0.826341  0.637387  1
  Ni  Ni35  1  0.952654  0.173192  0.363193  1
  Ni  Ni36  1  0.500065  0.500178  0.999717  1
