# generated using pymatgen
data_Sc4Co2Hg5
_symmetry_space_group_name_H-M   'P 1'
_cell_length_a   7.40704196
_cell_length_b   3.31281700
_cell_length_c   9.13057847
_cell_angle_alpha   90.00000000
_cell_angle_beta   95.37235770
_cell_angle_gamma   90.00000000
_symmetry_Int_Tables_number   1
_chemical_formula_structural   Sc4Co2Hg5
_chemical_formula_sum   'Sc4 Co2 Hg5'
_cell_volume   223.06354278
_cell_formula_units_Z   1
loop_
 _symmetry_equiv_pos_site_id
 _symmetry_equiv_pos_as_xyz
  1  'x, y, z'
loop_
 _atom_site_type_symbol
 _atom_site_label
 _atom_site_symmetry_multiplicity
 _atom_site_fract_x
 _atom_site_fract_y
 _atom_site_fract_z
 _atom_site_occupancy
  Sc  Sc0  1  0.796245  0.500001  0.059623  1
  Sc  Sc1  1  0.178770  0.500001  0.331229  1
  Sc  Sc2  1  0.821231  0.500001  0.668771  1
  Sc  Sc3  1  0.203755  0.500001  0.940376  1
  Co  Co4  1  0.071699  0.000000  0.132142  1
  Co  Co5  1  0.928302  0.000000  0.867858  1
  Hg  Hg6  1  0.454626  0.000000  0.162607  1
  Hg  Hg7  1  0.841110  0.000000  0.358003  1
  Hg  Hg8  1  0.500000  0.000000  0.500000  1
  Hg  Hg9  1  0.158889  0.000000  0.641998  1
  Hg  Hg10  1  0.545373  0.000000  0.837392  1
