# generated using pymatgen
data_DyHo4(Hg2Pt)2
_symmetry_space_group_name_H-M   'P 1'
_cell_length_a   3.63206900
_cell_length_b   7.92605300
_cell_length_c   18.21957800
_cell_angle_alpha   90.00000000
_cell_angle_beta   90.00000000
_cell_angle_gamma   90.00000000
_symmetry_Int_Tables_number   1
_chemical_formula_structural   DyHo4(Hg2Pt)2
_chemical_formula_sum   'Dy2 Ho8 Hg8 Pt4'
_cell_volume   524.50469027
_cell_formula_units_Z   2
loop_
 _symmetry_equiv_pos_site_id
 _symmetry_equiv_pos_as_xyz
  1  'x, y, z'
loop_
 _atom_site_type_symbol
 _atom_site_label
 _atom_site_symmetry_multiplicity
 _atom_site_fract_x
 _atom_site_fract_y
 _atom_site_fract_z
 _atom_site_occupancy
  Dy  Dy0  1  0.000000  0.000000  0.000000  1
  Dy  Dy1  1  0.000000  0.500000  0.500000  1
  Ho  Ho2  1  0.000000  0.114576  0.414329  1
  Ho  Ho3  1  0.000000  0.885424  0.585671  1
  Ho  Ho4  1  0.000000  0.385424  0.914329  1
  Ho  Ho5  1  0.000000  0.614576  0.085671  1
  Ho  Ho6  1  0.000000  0.240373  0.218138  1
  Ho  Ho7  1  0.000000  0.759627  0.781862  1
  Ho  Ho8  1  0.000000  0.259627  0.718138  1
  Ho  Ho9  1  0.000000  0.740373  0.281862  1
  Hg  Hg10  1  0.500000  0.424731  0.353808  1
  Hg  Hg11  1  0.500000  0.575269  0.646192  1
  Hg  Hg12  1  0.500000  0.075269  0.853808  1
  Hg  Hg13  1  0.500000  0.924731  0.146192  1
  Hg  Hg14  1  0.500000  0.289330  0.064288  1
  Hg  Hg15  1  0.500000  0.710670  0.935712  1
  Hg  Hg16  1  0.500000  0.210670  0.564288  1
  Hg  Hg17  1  0.500000  0.789330  0.435712  1
  Pt  Pt18  1  0.500000  0.027404  0.303880  1
  Pt  Pt19  1  0.500000  0.972596  0.696120  1
  Pt  Pt20  1  0.500000  0.472596  0.803880  1
  Pt  Pt21  1  0.500000  0.527404  0.196120  1
