# generated using pymatgen
data_NdPuAsBr2
_symmetry_space_group_name_H-M   'P 1'
_cell_length_a   4.19663200
_cell_length_b   4.19663170
_cell_length_c   11.02426900
_cell_angle_alpha   90.00000000
_cell_angle_beta   90.00000000
_cell_angle_gamma   120.00001812
_symmetry_Int_Tables_number   1
_chemical_formula_structural   NdPuAsBr2
_chemical_formula_sum   'Nd1 Pu1 As1 Br2'
_cell_volume   168.14428043
_cell_formula_units_Z   1
loop_
 _symmetry_equiv_pos_site_id
 _symmetry_equiv_pos_as_xyz
  1  'x, y, z'
loop_
 _atom_site_type_symbol
 _atom_site_label
 _atom_site_symmetry_multiplicity
 _atom_site_fract_x
 _atom_site_fract_y
 _atom_site_fract_z
 _atom_site_occupancy
  Nd  Nd0  1  0.333333  0.666667  0.149437  1
  Pu  Pu1  1  0.666667  0.333333  0.848533  1
  As  As2  1  0.000000  0.000000  0.997108  1
  Br  Br3  1  0.333333  0.666667  0.689053  1
  Br  Br4  1  0.666667  0.333333  0.315869  1
