# generated using pymatgen
data_Tb2Er4Al24Os5Pt3
_symmetry_space_group_name_H-M   'P 1'
_cell_length_a   8.82917821
_cell_length_b   8.84564467
_cell_length_c   9.52465111
_cell_angle_alpha   89.99094107
_cell_angle_beta   89.66835507
_cell_angle_gamma   119.66198413
_symmetry_Int_Tables_number   1
_chemical_formula_structural   Tb2Er4Al24Os5Pt3
_chemical_formula_sum   'Tb2 Er4 Al24 Os5 Pt3'
_cell_volume   646.38126768
_cell_formula_units_Z   1
loop_
 _symmetry_equiv_pos_site_id
 _symmetry_equiv_pos_as_xyz
  1  'x, y, z'
loop_
 _atom_site_type_symbol
 _atom_site_label
 _atom_site_symmetry_multiplicity
 _atom_site_fract_x
 _atom_site_fract_y
 _atom_site_fract_z
 _atom_site_occupancy
  Tb  Tb0  1  0.187854  0.382510  0.251373  1
  Tb  Tb1  1  0.812146  0.617490  0.748627  1
  Er  Er2  1  0.613380  0.813952  0.252132  1
  Er  Er3  1  0.386620  0.186048  0.747868  1
  Er  Er4  1  0.196247  0.809623  0.251396  1
  Er  Er5  1  0.803753  0.190377  0.748604  1
  Al  Al6  1  0.335910  0.671140  0.029362  1
  Al  Al7  1  0.664090  0.328860  0.970638  1
  Al  Al8  1  0.668849  0.331338  0.526487  1
  Al  Al9  1  0.331151  0.668662  0.473513  1
  Al  Al10  1  0.158287  0.324878  0.576999  1
  Al  Al11  1  0.841713  0.675122  0.423001  1
  Al  Al12  1  0.674040  0.840950  0.575800  1
  Al  Al13  1  0.837078  0.676842  0.079532  1
  Al  Al14  1  0.325960  0.159050  0.424200  1
  Al  Al15  1  0.162922  0.323158  0.920468  1
  Al  Al16  1  0.164637  0.836143  0.575430  1
  Al  Al17  1  0.325794  0.158864  0.075977  1
  Al  Al18  1  0.835363  0.163857  0.424570  1
  Al  Al19  1  0.674206  0.841136  0.924023  1
  Al  Al20  1  0.831775  0.158817  0.076372  1
  Al  Al21  1  0.168225  0.841183  0.923628  1
  Al  Al22  1  0.560622  0.123722  0.249383  1
  Al  Al23  1  0.439378  0.876278  0.750617  1
  Al  Al24  1  0.874295  0.438941  0.252795  1
  Al  Al25  1  0.125705  0.561059  0.747205  1
  Al  Al26  1  0.563279  0.438270  0.249360  1
  Al  Al27  1  0.436721  0.561730  0.750640  1
  Al  Al28  1  0.998201  0.000503  0.250211  1
  Al  Al29  1  0.001799  0.999497  0.749789  1
  Os  Os30  1  0.500000  0.000000  0.000000  1
  Os  Os31  1  0.500000  0.000000  0.500000  1
  Os  Os32  1  0.000000  0.500000  0.500000  1
  Os  Os33  1  0.000000  0.000000  0.000000  1
  Os  Os34  1  0.000000  0.000000  0.500000  1
  Pt  Pt35  1  0.000000  0.500000  0.000000  1
  Pt  Pt36  1  0.500000  0.500000  0.000000  1
  Pt  Pt37  1  0.500000  0.500000  0.500000  1
