# generated using pymatgen
data_Sb14Mo5Pt
_symmetry_space_group_name_H-M   'P 1'
_cell_length_a   8.36370305
_cell_length_b   8.36370358
_cell_length_c   8.36370394
_cell_angle_alpha   109.80008665
_cell_angle_beta   109.80008190
_cell_angle_gamma   108.81547222
_symmetry_Int_Tables_number   1
_chemical_formula_structural   Sb14Mo5Pt
_chemical_formula_sum   'Sb14 Mo5 Pt1'
_cell_volume   450.33055321
_cell_formula_units_Z   1
loop_
 _symmetry_equiv_pos_site_id
 _symmetry_equiv_pos_as_xyz
  1  'x, y, z'
loop_
 _atom_site_type_symbol
 _atom_site_label
 _atom_site_symmetry_multiplicity
 _atom_site_fract_x
 _atom_site_fract_y
 _atom_site_fract_z
 _atom_site_occupancy
  Sb  Sb0  1  0.748258  0.248258  0.500000  1
  Sb  Sb1  1  0.508723  0.254146  0.745423  1
  Sb  Sb2  1  0.508723  0.763300  0.254577  1
  Sb  Sb3  1  0.254146  0.508723  0.745423  1
  Sb  Sb4  1  0.763300  0.508723  0.254577  1
  Sb  Sb5  1  0.248258  0.748258  0.500000  1
  Sb  Sb6  1  0.325237  0.325237  0.332490  1
  Sb  Sb7  1  0.999100  0.999100  0.324440  1
  Sb  Sb8  1  0.325237  0.992747  0.000000  1
  Sb  Sb9  1  0.992747  0.325237  0.000000  1
  Sb  Sb10  1  0.674660  0.999100  0.000000  1
  Sb  Sb11  1  0.999100  0.674660  0.000000  1
  Sb  Sb12  1  0.992747  0.992747  0.667510  1
  Sb  Sb13  1  0.674660  0.674660  0.675560  1
  Mo  Mo14  1  0.998948  0.339694  0.340747  1
  Mo  Mo15  1  0.998948  0.658201  0.659253  1
  Mo  Mo16  1  0.658201  0.998948  0.659253  1
  Mo  Mo17  1  0.339694  0.998948  0.340747  1
  Mo  Mo18  1  0.651150  0.651150  0.000000  1
  Pt  Pt19  1  0.338165  0.338165  0.000000  1
