# generated using pymatgen
data_TcTeS
_symmetry_space_group_name_H-M   'P 1'
_cell_length_a   7.19868604
_cell_length_b   7.19868650
_cell_length_c   7.19868600
_cell_angle_alpha   60.00000232
_cell_angle_beta   60.00000020
_cell_angle_gamma   59.99999960
_symmetry_Int_Tables_number   1
_chemical_formula_structural   TcTeS
_chemical_formula_sum   'Tc4 Te4 S4'
_cell_volume   263.78174293
_cell_formula_units_Z   4
loop_
 _symmetry_equiv_pos_site_id
 _symmetry_equiv_pos_as_xyz
  1  'x, y, z'
loop_
 _atom_site_type_symbol
 _atom_site_label
 _atom_site_symmetry_multiplicity
 _atom_site_fract_x
 _atom_site_fract_y
 _atom_site_fract_z
 _atom_site_occupancy
  Tc  Tc0  1  0.152731  0.152731  0.152731  1
  Tc  Tc1  1  0.541806  0.152731  0.152731  1
  Tc  Tc2  1  0.152731  0.152731  0.541806  1
  Tc  Tc3  1  0.152731  0.541806  0.152731  1
  Te  Te4  1  0.878769  0.363692  0.878769  1
  Te  Te5  1  0.878769  0.878769  0.363692  1
  Te  Te6  1  0.363692  0.878769  0.878769  1
  Te  Te7  1  0.878769  0.878769  0.878769  1
  S  S8  1  0.377703  0.377703  0.377703  1
  S  S9  1  0.866893  0.377703  0.377703  1
  S  S10  1  0.377703  0.377703  0.866893  1
  S  S11  1  0.377703  0.866893  0.377703  1
