# generated using pymatgen
data_Ca3Mg(H6Pt)2
_symmetry_space_group_name_H-M   'P 1'
_cell_length_a   7.00230322
_cell_length_b   7.00230360
_cell_length_c   5.26346400
_cell_angle_alpha   89.98559894
_cell_angle_beta   89.98559894
_cell_angle_gamma   135.82171323
_symmetry_Int_Tables_number   1
_chemical_formula_structural   Ca3Mg(H6Pt)2
_chemical_formula_sum   'Ca3 Mg1 H12 Pt2'
_cell_volume   179.85385081
_cell_formula_units_Z   1
loop_
 _symmetry_equiv_pos_site_id
 _symmetry_equiv_pos_as_xyz
  1  'x, y, z'
loop_
 _atom_site_type_symbol
 _atom_site_label
 _atom_site_symmetry_multiplicity
 _atom_site_fract_x
 _atom_site_fract_y
 _atom_site_fract_z
 _atom_site_occupancy
  Ca  Ca0  1  0.645753  0.354247  0.000000  1
  Ca  Ca1  1  0.348157  0.651843  0.000000  1
  Ca  Ca2  1  0.850511  0.149489  0.500000  1
  Mg  Mg3  1  0.171958  0.828042  0.500000  1
  H  H4  1  0.870052  0.129948  0.000000  1
  H  H5  1  0.127881  0.872119  0.000000  1
  H  H6  1  0.628611  0.371389  0.500000  1
  H  H7  1  0.371775  0.628225  0.500000  1
  H  H8  1  0.006249  0.515211  0.259880  1
  H  H9  1  0.003996  0.512734  0.739901  1
  H  H10  1  0.484789  0.993751  0.740120  1
  H  H11  1  0.487266  0.996004  0.260099  1
  H  H12  1  0.237279  0.235638  0.240071  1
  H  H13  1  0.764362  0.762721  0.759929  1
  H  H14  1  0.268120  0.267317  0.743184  1
  H  H15  1  0.732683  0.731880  0.256816  1
  Pt  Pt16  1  0.999891  0.000109  0.000000  1
  Pt  Pt17  1  0.500664  0.499336  0.500000  1
