# generated using pymatgen
data_Er4Al4IrPd2Ru
_symmetry_space_group_name_H-M   'P 1'
_cell_length_a   4.23686500
_cell_length_b   6.88941510
_cell_length_c   7.93311942
_cell_angle_alpha   89.91055527
_cell_angle_beta   90.00000000
_cell_angle_gamma   90.00000000
_symmetry_Int_Tables_number   1
_chemical_formula_structural   Er4Al4IrPd2Ru
_chemical_formula_sum   'Er4 Al4 Ir1 Pd2 Ru1'
_cell_volume   231.56367921
_cell_formula_units_Z   1
loop_
 _symmetry_equiv_pos_site_id
 _symmetry_equiv_pos_as_xyz
  1  'x, y, z'
loop_
 _atom_site_type_symbol
 _atom_site_label
 _atom_site_symmetry_multiplicity
 _atom_site_fract_x
 _atom_site_fract_y
 _atom_site_fract_z
 _atom_site_occupancy
  Er  Er0  1  0.250000  0.035642  0.323299  1
  Er  Er1  1  0.250000  0.535579  0.175273  1
  Er  Er2  1  0.750000  0.971203  0.684916  1
  Er  Er3  1  0.750000  0.474426  0.817548  1
  Al  Al4  1  0.250000  0.137475  0.935813  1
  Al  Al5  1  0.250000  0.637263  0.563728  1
  Al  Al6  1  0.750000  0.857461  0.056212  1
  Al  Al7  1  0.750000  0.357764  0.442110  1
  Ir  Ir8  1  0.250000  0.266499  0.619771  1
  Pd  Pd9  1  0.750000  0.731142  0.377463  1
  Pd  Pd10  1  0.750000  0.231235  0.123369  1
  Ru  Ru11  1  0.250000  0.764312  0.880498  1
