# generated using pymatgen
data_LiMgB2AsRh5
_symmetry_space_group_name_H-M   'P 1'
_cell_length_a   9.39791900
_cell_length_b   9.38110700
_cell_length_c   2.92355800
_cell_angle_alpha   90.00000000
_cell_angle_beta   90.00000000
_cell_angle_gamma   90.00000000
_symmetry_Int_Tables_number   1
_chemical_formula_structural   LiMgB2AsRh5
_chemical_formula_sum   'Li2 Mg2 B4 As2 Rh10'
_cell_volume   257.74930399
_cell_formula_units_Z   2
loop_
 _symmetry_equiv_pos_site_id
 _symmetry_equiv_pos_as_xyz
  1  'x, y, z'
loop_
 _atom_site_type_symbol
 _atom_site_label
 _atom_site_symmetry_multiplicity
 _atom_site_fract_x
 _atom_site_fract_y
 _atom_site_fract_z
 _atom_site_occupancy
  Li  Li0  1  0.673954  0.174326  0.000000  1
  Li  Li1  1  0.173954  0.325674  0.000000  1
  Mg  Mg2  1  0.826511  0.672710  0.000000  1
  Mg  Mg3  1  0.326511  0.827290  0.000000  1
  B  B4  1  0.375604  0.126295  0.000000  1
  B  B5  1  0.875604  0.373705  0.000000  1
  B  B6  1  0.123996  0.621799  0.000000  1
  B  B7  1  0.623996  0.878201  0.000000  1
  As  As8  1  0.999319  0.003711  0.000000  1
  As  As9  1  0.499319  0.496289  0.000000  1
  Rh  Rh10  1  0.500531  0.000938  0.500000  1
  Rh  Rh11  1  0.213760  0.072317  0.500000  1
  Rh  Rh12  1  0.926226  0.213434  0.500000  1
  Rh  Rh13  1  0.426227  0.286566  0.500000  1
  Rh  Rh14  1  0.713760  0.427684  0.500000  1
  Rh  Rh15  1  0.000531  0.499062  0.500000  1
  Rh  Rh16  1  0.286952  0.574785  0.500000  1
  Rh  Rh17  1  0.573146  0.712981  0.500000  1
  Rh  Rh18  1  0.073147  0.787019  0.500000  1
  Rh  Rh19  1  0.786952  0.925214  0.500000  1
