# generated using pymatgen
data_Ac5La3(Si3Pt)4
_symmetry_space_group_name_H-M   'P 1'
_cell_length_a   8.46223200
_cell_length_b   8.46223210
_cell_length_c   8.80809100
_cell_angle_alpha   90.00000000
_cell_angle_beta   90.00000000
_cell_angle_gamma   119.99999961
_symmetry_Int_Tables_number   1
_chemical_formula_structural   Ac5La3(Si3Pt)4
_chemical_formula_sum   'Ac5 La3 Si12 Pt4'
_cell_volume   546.23847490
_cell_formula_units_Z   1
loop_
 _symmetry_equiv_pos_site_id
 _symmetry_equiv_pos_as_xyz
  1  'x, y, z'
loop_
 _atom_site_type_symbol
 _atom_site_label
 _atom_site_symmetry_multiplicity
 _atom_site_fract_x
 _atom_site_fract_y
 _atom_site_fract_z
 _atom_site_occupancy
  Ac  Ac0  1  0.000000  0.000000  0.250000  1
  Ac  Ac1  1  0.000000  0.000000  0.750000  1
  Ac  Ac2  1  0.499835  0.500165  0.250000  1
  Ac  Ac3  1  0.499835  0.999671  0.250000  1
  Ac  Ac4  1  0.000329  0.500165  0.250000  1
  La  La5  1  0.500121  0.499879  0.750000  1
  La  La6  1  0.500121  0.000238  0.750000  1
  La  La7  1  0.999762  0.499879  0.750000  1
  Si  Si8  1  0.166650  0.833350  0.504906  1
  Si  Si9  1  0.166650  0.333301  0.504906  1
  Si  Si10  1  0.666699  0.833350  0.504906  1
  Si  Si11  1  0.833316  0.166684  0.504758  1
  Si  Si12  1  0.833316  0.666633  0.504758  1
  Si  Si13  1  0.333367  0.166684  0.504758  1
  Si  Si14  1  0.833316  0.166684  0.995242  1
  Si  Si15  1  0.833316  0.666633  0.995242  1
  Si  Si16  1  0.333367  0.166684  0.995242  1
  Si  Si17  1  0.166650  0.833350  0.995094  1
  Si  Si18  1  0.166650  0.333301  0.995094  1
  Si  Si19  1  0.666699  0.833350  0.995094  1
  Pt  Pt20  1  0.333333  0.666667  0.506255  1
  Pt  Pt21  1  0.666667  0.333333  0.506762  1
  Pt  Pt22  1  0.666667  0.333333  0.993238  1
  Pt  Pt23  1  0.333333  0.666667  0.993745  1
