# generated using pymatgen
data_Dy9Y6Th(CdPt)4
_symmetry_space_group_name_H-M   'P 1'
_cell_length_a   9.72281602
_cell_length_b   9.72281656
_cell_length_c   9.72281800
_cell_angle_alpha   60.10696940
_cell_angle_beta   60.10697232
_cell_angle_gamma   60.10697245
_symmetry_Int_Tables_number   1
_chemical_formula_structural   Dy9Y6Th(CdPt)4
_chemical_formula_sum   'Dy9 Y6 Th1 Cd4 Pt4'
_cell_volume   651.49731608
_cell_formula_units_Z   1
loop_
 _symmetry_equiv_pos_site_id
 _symmetry_equiv_pos_as_xyz
  1  'x, y, z'
loop_
 _atom_site_type_symbol
 _atom_site_label
 _atom_site_symmetry_multiplicity
 _atom_site_fract_x
 _atom_site_fract_y
 _atom_site_fract_z
 _atom_site_occupancy
  Dy  Dy0  1  0.353594  0.353594  0.939739  1
  Dy  Dy1  1  0.353594  0.939739  0.353594  1
  Dy  Dy2  1  0.939739  0.353594  0.353594  1
  Dy  Dy3  1  0.812728  0.189107  0.189107  1
  Dy  Dy4  1  0.190314  0.810830  0.810830  1
  Dy  Dy5  1  0.189107  0.812728  0.189107  1
  Dy  Dy6  1  0.810830  0.190314  0.810830  1
  Dy  Dy7  1  0.189107  0.189107  0.812728  1
  Dy  Dy8  1  0.810830  0.810830  0.190314  1
  Y  Y9  1  0.936526  0.565847  0.565847  1
  Y  Y10  1  0.563634  0.936924  0.936924  1
  Y  Y11  1  0.565847  0.936526  0.565847  1
  Y  Y12  1  0.936924  0.563634  0.936924  1
  Y  Y13  1  0.565847  0.565847  0.936526  1
  Y  Y14  1  0.936924  0.936924  0.563634  1
  Th  Th15  1  0.349073  0.349073  0.349073  1
  Cd  Cd16  1  0.581659  0.581659  0.581659  1
  Cd  Cd17  1  0.582507  0.582507  0.252753  1
  Cd  Cd18  1  0.582507  0.252753  0.582507  1
  Cd  Cd19  1  0.252753  0.582507  0.582507  1
  Pt  Pt20  1  0.144154  0.144154  0.144154  1
  Pt  Pt21  1  0.140884  0.140884  0.570034  1
  Pt  Pt22  1  0.140884  0.570034  0.140884  1
  Pt  Pt23  1  0.570034  0.140884  0.140884  1
