# generated using pymatgen
data_LaCeTh2(ZnRh)4
_symmetry_space_group_name_H-M   'P 1'
_cell_length_a   3.95300600
_cell_length_b   7.50334200
_cell_length_c   16.56973600
_cell_angle_alpha   90.00000000
_cell_angle_beta   90.00000000
_cell_angle_gamma   90.00000000
_symmetry_Int_Tables_number   1
_chemical_formula_structural   LaCeTh2(ZnRh)4
_chemical_formula_sum   'La2 Ce2 Th4 Zn8 Rh8'
_cell_volume   491.47089559
_cell_formula_units_Z   2
loop_
 _symmetry_equiv_pos_site_id
 _symmetry_equiv_pos_as_xyz
  1  'x, y, z'
loop_
 _atom_site_type_symbol
 _atom_site_label
 _atom_site_symmetry_multiplicity
 _atom_site_fract_x
 _atom_site_fract_y
 _atom_site_fract_z
 _atom_site_occupancy
  La  La0  1  0.750000  0.446411  0.215347  1
  La  La1  1  0.750000  0.946411  0.284653  1
  Ce  Ce2  1  0.250000  0.055927  0.715897  1
  Ce  Ce3  1  0.250000  0.555927  0.784103  1
  Th  Th4  1  0.750000  0.326276  0.441656  1
  Th  Th5  1  0.250000  0.673764  0.563106  1
  Th  Th6  1  0.750000  0.826276  0.058344  1
  Th  Th7  1  0.250000  0.173764  0.936894  1
  Zn  Zn8  1  0.250000  0.118432  0.150793  1
  Zn  Zn9  1  0.250000  0.993651  0.441573  1
  Zn  Zn10  1  0.750000  0.881585  0.845185  1
  Zn  Zn11  1  0.750000  0.004064  0.562430  1
  Zn  Zn12  1  0.250000  0.493651  0.058427  1
  Zn  Zn13  1  0.750000  0.381585  0.654815  1
  Zn  Zn14  1  0.750000  0.504064  0.937570  1
  Zn  Zn15  1  0.250000  0.618432  0.349207  1
  Rh  Rh16  1  0.750000  0.254179  0.814070  1
  Rh  Rh17  1  0.250000  0.251410  0.321720  1
  Rh  Rh18  1  0.250000  0.754483  0.937498  1
  Rh  Rh19  1  0.250000  0.254483  0.562502  1
  Rh  Rh20  1  0.250000  0.751410  0.178280  1
  Rh  Rh21  1  0.750000  0.739816  0.442080  1
  Rh  Rh22  1  0.750000  0.239816  0.057920  1
  Rh  Rh23  1  0.750000  0.754179  0.685930  1
