# generated using pymatgen
data_CsHS6
_symmetry_space_group_name_H-M   'P 1'
_cell_length_a   7.15976269
_cell_length_b   11.80936335
_cell_length_c   11.03801274
_cell_angle_alpha   75.70976419
_cell_angle_beta   87.70343591
_cell_angle_gamma   82.68839755
_symmetry_Int_Tables_number   1
_chemical_formula_structural   CsHS6
_chemical_formula_sum   'Cs4 H4 S24'
_cell_volume   897.02025702
_cell_formula_units_Z   4
loop_
 _symmetry_equiv_pos_site_id
 _symmetry_equiv_pos_as_xyz
  1  'x, y, z'
loop_
 _atom_site_type_symbol
 _atom_site_label
 _atom_site_symmetry_multiplicity
 _atom_site_fract_x
 _atom_site_fract_y
 _atom_site_fract_z
 _atom_site_occupancy
  Cs  Cs0  1  0.827486  0.696876  0.594262  1
  Cs  Cs1  1  0.172514  0.303124  0.405738  1
  Cs  Cs2  1  0.682811  0.343723  0.934469  1
  Cs  Cs3  1  0.317189  0.656277  0.065531  1
  H  H4  1  0.663475  0.398783  0.427728  1
  H  H5  1  0.336525  0.601217  0.572272  1
  H  H6  1  0.173974  0.406543  0.868632  1
  H  H7  1  0.826026  0.593457  0.131368  1
  S  S8  1  0.388953  0.620908  0.739376  1
  S  S9  1  0.611047  0.379092  0.260624  1
  S  S10  1  0.227888  0.779126  0.730951  1
  S  S11  1  0.772112  0.220874  0.269049  1
  S  S12  1  0.335029  0.907539  0.594251  1
  S  S13  1  0.664971  0.092461  0.405749  1
  S  S14  1  0.218041  0.902420  0.423735  1
  S  S15  1  0.781959  0.097580  0.576265  1
  S  S16  1  0.381798  0.769603  0.364562  1
  S  S17  1  0.618202  0.230397  0.635438  1
  S  S18  1  0.725289  0.385770  0.554872  1
  S  S19  1  0.274711  0.614230  0.445128  1
  S  S20  1  0.212837  0.395217  0.742827  1
  S  S21  1  0.787163  0.604783  0.257173  1
  S  S22  1  0.100801  0.236896  0.760219  1
  S  S23  1  0.899199  0.763104  0.239781  1
  S  S24  1  0.269574  0.102809  0.875030  1
  S  S25  1  0.730426  0.897191  0.124970  1
  S  S26  1  0.171788  0.097328  0.058458  1
  S  S27  1  0.828212  0.902672  0.941542  1
  S  S28  1  0.702878  0.779247  0.882045  1
  S  S29  1  0.297122  0.220753  0.117955  1
  S  S30  1  0.856579  0.617164  0.942878  1
  S  S31  1  0.143421  0.382836  0.057122  1
