# generated using pymatgen
data_Y4LuPb4
_symmetry_space_group_name_H-M   'P 1'
_cell_length_a   8.16894300
_cell_length_b   8.25673900
_cell_length_c   15.63915200
_cell_angle_alpha   90.00000000
_cell_angle_beta   90.00000000
_cell_angle_gamma   90.00000000
_symmetry_Int_Tables_number   1
_chemical_formula_structural   Y4LuPb4
_chemical_formula_sum   'Y16 Lu4 Pb16'
_cell_volume   1054.84250861
_cell_formula_units_Z   4
loop_
 _symmetry_equiv_pos_site_id
 _symmetry_equiv_pos_as_xyz
  1  'x, y, z'
loop_
 _atom_site_type_symbol
 _atom_site_label
 _atom_site_symmetry_multiplicity
 _atom_site_fract_x
 _atom_site_fract_y
 _atom_site_fract_z
 _atom_site_occupancy
  Y  Y0  1  0.467568  0.823055  0.400962  1
  Y  Y1  1  0.032432  0.323055  0.900962  1
  Y  Y2  1  0.032432  0.323055  0.599038  1
  Y  Y3  1  0.875402  0.841412  0.878930  1
  Y  Y4  1  0.467568  0.823055  0.099038  1
  Y  Y5  1  0.375402  0.658588  0.878930  1
  Y  Y6  1  0.624598  0.341412  0.121070  1
  Y  Y7  1  0.624598  0.341412  0.378930  1
  Y  Y8  1  0.532432  0.176945  0.599038  1
  Y  Y9  1  0.375402  0.658588  0.621070  1
  Y  Y10  1  0.532432  0.176945  0.900962  1
  Y  Y11  1  0.967568  0.676945  0.400962  1
  Y  Y12  1  0.967568  0.676945  0.099038  1
  Y  Y13  1  0.124598  0.158588  0.121070  1
  Y  Y14  1  0.875402  0.841412  0.621070  1
  Y  Y15  1  0.124598  0.158588  0.378930  1
  Lu  Lu16  1  0.792237  0.003996  0.250000  1
  Lu  Lu17  1  0.707763  0.503996  0.750000  1
  Lu  Lu18  1  0.292237  0.496004  0.250000  1
  Lu  Lu19  1  0.207763  0.996004  0.750000  1
  Pb  Pb20  1  0.844116  0.153514  0.750000  1
  Pb  Pb21  1  0.717718  0.532562  0.543813  1
  Pb  Pb22  1  0.929556  0.374656  0.250000  1
  Pb  Pb23  1  0.217718  0.967438  0.956187  1
  Pb  Pb24  1  0.282282  0.467438  0.043813  1
  Pb  Pb25  1  0.570444  0.874656  0.750000  1
  Pb  Pb26  1  0.344116  0.346486  0.750000  1
  Pb  Pb27  1  0.070444  0.625344  0.750000  1
  Pb  Pb28  1  0.782282  0.032562  0.456187  1
  Pb  Pb29  1  0.282282  0.467438  0.456187  1
  Pb  Pb30  1  0.155884  0.846486  0.250000  1
  Pb  Pb31  1  0.217718  0.967438  0.543813  1
  Pb  Pb32  1  0.782282  0.032562  0.043813  1
  Pb  Pb33  1  0.655884  0.653514  0.250000  1
  Pb  Pb34  1  0.717718  0.532562  0.956187  1
  Pb  Pb35  1  0.429556  0.125344  0.250000  1
