# generated using pymatgen
data_Dy9Mg(BiAu2)2
_symmetry_space_group_name_H-M   'P 1'
_cell_length_a   8.76104741
_cell_length_b   8.76104822
_cell_length_c   8.76104781
_cell_angle_alpha   125.53523188
_cell_angle_beta   125.53523336
_cell_angle_gamma   80.65336961
_symmetry_Int_Tables_number   1
_chemical_formula_structural   Dy9Mg(BiAu2)2
_chemical_formula_sum   'Dy9 Mg1 Bi2 Au4'
_cell_volume   429.40324456
_cell_formula_units_Z   1
loop_
 _symmetry_equiv_pos_site_id
 _symmetry_equiv_pos_as_xyz
  1  'x, y, z'
loop_
 _atom_site_type_symbol
 _atom_site_label
 _atom_site_symmetry_multiplicity
 _atom_site_fract_x
 _atom_site_fract_y
 _atom_site_fract_z
 _atom_site_occupancy
  Dy  Dy0  1  0.000000  0.000000  0.000000  1
  Dy  Dy1  1  0.508332  0.024509  0.813082  1
  Dy  Dy2  1  0.211428  0.695251  0.186918  1
  Dy  Dy3  1  0.024509  0.211428  0.516177  1
  Dy  Dy4  1  0.695251  0.508332  0.483823  1
  Dy  Dy5  1  0.491668  0.975491  0.186918  1
  Dy  Dy6  1  0.788572  0.304749  0.813082  1
  Dy  Dy7  1  0.975491  0.788572  0.483823  1
  Dy  Dy8  1  0.304749  0.491668  0.516177  1
  Mg  Mg9  1  0.500000  0.500000  0.000000  1
  Bi  Bi10  1  0.244465  0.244465  0.000000  1
  Bi  Bi11  1  0.755535  0.755535  0.000000  1
  Au  Au12  1  0.134229  0.640905  0.775135  1
  Au  Au13  1  0.865771  0.359095  0.224865  1
  Au  Au14  1  0.640905  0.865771  0.506676  1
  Au  Au15  1  0.359095  0.134229  0.493324  1
