# generated using pymatgen
data_Ho2ErTm5(WO6)4
_symmetry_space_group_name_H-M   'P 1'
_cell_length_a   5.34775800
_cell_length_b   7.63724286
_cell_length_c   11.37388911
_cell_angle_alpha   75.30120517
_cell_angle_beta   90.00000000
_cell_angle_gamma   90.00000000
_symmetry_Int_Tables_number   1
_chemical_formula_structural   Ho2ErTm5(WO6)4
_chemical_formula_sum   'Ho2 Er1 Tm5 W4 O24'
_cell_volume   449.33106253
_cell_formula_units_Z   1
loop_
 _symmetry_equiv_pos_site_id
 _symmetry_equiv_pos_as_xyz
  1  'x, y, z'
loop_
 _atom_site_type_symbol
 _atom_site_label
 _atom_site_symmetry_multiplicity
 _atom_site_fract_x
 _atom_site_fract_y
 _atom_site_fract_z
 _atom_site_occupancy
  Ho  Ho0  1  0.684396  0.500000  0.750000  1
  Ho  Ho1  1  0.315429  0.500000  0.250000  1
  Er  Er2  1  0.739691  0.000000  0.750000  1
  Tm  Tm3  1  0.260580  0.000000  0.250000  1
  Tm  Tm4  1  0.185646  0.796102  0.578210  1
  Tm  Tm5  1  0.814495  0.796199  0.078496  1
  Tm  Tm6  1  0.185646  0.203898  0.921790  1
  Tm  Tm7  1  0.814495  0.203801  0.421504  1
  W  W8  1  0.254875  0.722934  0.885980  1
  W  W9  1  0.745051  0.723344  0.385794  1
  W  W10  1  0.254875  0.277066  0.614020  1
  W  W11  1  0.745051  0.276656  0.114206  1
  O  O12  1  0.040970  0.940828  0.896040  1
  O  O13  1  0.533880  0.848837  0.931337  1
  O  O14  1  0.960076  0.941001  0.395462  1
  O  O15  1  0.460031  0.790629  0.726402  1
  O  O16  1  0.465863  0.849309  0.430888  1
  O  O17  1  0.981584  0.711470  0.770067  1
  O  O18  1  0.539120  0.791387  0.226387  1
  O  O19  1  0.853300  0.634754  0.549566  1
  O  O20  1  0.361196  0.487358  0.887046  1
  O  O21  1  0.018435  0.711803  0.270009  1
  O  O22  1  0.361196  0.512642  0.612954  1
  O  O23  1  0.853300  0.365246  0.950434  1
  O  O24  1  0.146456  0.634441  0.049696  1
  O  O25  1  0.638971  0.487623  0.386880  1
  O  O26  1  0.981584  0.288530  0.729933  1
  O  O27  1  0.638971  0.512377  0.113120  1
  O  O28  1  0.146456  0.365559  0.450304  1
  O  O29  1  0.460031  0.209371  0.773598  1
  O  O30  1  0.018435  0.288197  0.229991  1
  O  O31  1  0.533880  0.151163  0.568663  1
  O  O32  1  0.539120  0.208613  0.273613  1
  O  O33  1  0.040970  0.059172  0.603960  1
  O  O34  1  0.465863  0.150691  0.069112  1
  O  O35  1  0.960076  0.058999  0.104538  1
