# generated using pymatgen
data_Tm5SiSn3
_symmetry_space_group_name_H-M   'P 1'
_cell_length_a   9.09207600
_cell_length_b   9.09207755
_cell_length_c   6.36450900
_cell_angle_alpha   90.00000000
_cell_angle_beta   90.00000000
_cell_angle_gamma   120.00000164
_symmetry_Int_Tables_number   1
_chemical_formula_structural   Tm5SiSn3
_chemical_formula_sum   'Tm10 Si2 Sn6'
_cell_volume   455.63986871
_cell_formula_units_Z   2
loop_
 _symmetry_equiv_pos_site_id
 _symmetry_equiv_pos_as_xyz
  1  'x, y, z'
loop_
 _atom_site_type_symbol
 _atom_site_label
 _atom_site_symmetry_multiplicity
 _atom_site_fract_x
 _atom_site_fract_y
 _atom_site_fract_z
 _atom_site_occupancy
  Tm  Tm0  1  0.666667  0.333333  0.000000  1
  Tm  Tm1  1  0.333333  0.666667  0.000000  1
  Tm  Tm2  1  0.333333  0.666667  0.500000  1
  Tm  Tm3  1  0.666667  0.333333  0.500000  1
  Tm  Tm4  1  0.747140  0.747140  0.750000  1
  Tm  Tm5  1  0.252860  0.000000  0.750000  1
  Tm  Tm6  1  0.000000  0.252860  0.750000  1
  Tm  Tm7  1  0.252860  0.252860  0.250000  1
  Tm  Tm8  1  0.747140  0.000000  0.250000  1
  Tm  Tm9  1  0.000000  0.747140  0.250000  1
  Si  Si10  1  0.000000  0.000000  0.000000  1
  Si  Si11  1  0.000000  0.000000  0.500000  1
  Sn  Sn12  1  0.392814  0.392814  0.750000  1
  Sn  Sn13  1  0.607186  0.000000  0.750000  1
  Sn  Sn14  1  0.000000  0.607186  0.750000  1
  Sn  Sn15  1  0.607186  0.607186  0.250000  1
  Sn  Sn16  1  0.392814  0.000000  0.250000  1
  Sn  Sn17  1  0.000000  0.392814  0.250000  1
