# generated using pymatgen
data_Sc3BeGe2Pd3
_symmetry_space_group_name_H-M   'P 1'
_cell_length_a   6.85652800
_cell_length_b   6.85652849
_cell_length_c   3.62734200
_cell_angle_alpha   90.00000000
_cell_angle_beta   90.00000000
_cell_angle_gamma   119.99999762
_symmetry_Int_Tables_number   1
_chemical_formula_structural   Sc3BeGe2Pd3
_chemical_formula_sum   'Sc3 Be1 Ge2 Pd3'
_cell_volume   147.68204096
_cell_formula_units_Z   1
loop_
 _symmetry_equiv_pos_site_id
 _symmetry_equiv_pos_as_xyz
  1  'x, y, z'
loop_
 _atom_site_type_symbol
 _atom_site_label
 _atom_site_symmetry_multiplicity
 _atom_site_fract_x
 _atom_site_fract_y
 _atom_site_fract_z
 _atom_site_occupancy
  Sc  Sc0  1  0.000000  0.594851  0.000000  1
  Sc  Sc1  1  0.405149  0.405149  0.000000  1
  Sc  Sc2  1  0.594851  0.000000  0.000000  1
  Be  Be3  1  0.000000  0.000000  0.000000  1
  Ge  Ge4  1  0.333333  0.666667  0.500000  1
  Ge  Ge5  1  0.666667  0.333333  0.500000  1
  Pd  Pd6  1  0.000000  0.240233  0.500000  1
  Pd  Pd7  1  0.759767  0.759767  0.500000  1
  Pd  Pd8  1  0.240233  0.000000  0.500000  1
