# generated using pymatgen
data_TbSm3Te7Pd
_symmetry_space_group_name_H-M   'P 1'
_cell_length_a   4.25059569
_cell_length_b   8.68118000
_cell_length_c   9.17547500
_cell_angle_alpha   90.00000000
_cell_angle_beta   90.03255292
_cell_angle_gamma   90.00000000
_symmetry_Int_Tables_number   1
_chemical_formula_structural   TbSm3Te7Pd
_chemical_formula_sum   'Tb1 Sm3 Te7 Pd1'
_cell_volume   338.57668186
_cell_formula_units_Z   1
loop_
 _symmetry_equiv_pos_site_id
 _symmetry_equiv_pos_as_xyz
  1  'x, y, z'
loop_
 _atom_site_type_symbol
 _atom_site_label
 _atom_site_symmetry_multiplicity
 _atom_site_fract_x
 _atom_site_fract_y
 _atom_site_fract_z
 _atom_site_occupancy
  Tb  Tb0  1  0.000672  0.750000  0.712797  1
  Sm  Sm1  1  0.001900  0.250000  0.741892  1
  Sm  Sm2  1  0.499398  0.002392  0.268331  1
  Sm  Sm3  1  0.499398  0.497608  0.268331  1
  Te  Te4  1  0.998736  0.945720  0.998602  1
  Te  Te5  1  0.998736  0.554280  0.998602  1
  Te  Te6  1  0.501620  0.250000  0.001410  1
  Te  Te7  1  0.999682  0.750000  0.370676  1
  Te  Te8  1  0.999902  0.250000  0.376952  1
  Te  Te9  1  0.501011  0.999289  0.629733  1
  Te  Te10  1  0.501011  0.500711  0.629733  1
  Pd  Pd11  1  0.497933  0.750000  0.003870  1
