# generated using pymatgen
data_Hf10CuSn6Ge
_symmetry_space_group_name_H-M   'P 1'
_cell_length_a   8.63072200
_cell_length_b   8.63072329
_cell_length_c   5.82554400
_cell_angle_alpha   90.00000000
_cell_angle_beta   90.00000000
_cell_angle_gamma   119.99999504
_symmetry_Int_Tables_number   1
_chemical_formula_structural   Hf10CuSn6Ge
_chemical_formula_sum   'Hf10 Cu1 Sn6 Ge1'
_cell_volume   375.80405451
_cell_formula_units_Z   1
loop_
 _symmetry_equiv_pos_site_id
 _symmetry_equiv_pos_as_xyz
  1  'x, y, z'
loop_
 _atom_site_type_symbol
 _atom_site_label
 _atom_site_symmetry_multiplicity
 _atom_site_fract_x
 _atom_site_fract_y
 _atom_site_fract_z
 _atom_site_occupancy
  Hf  Hf0  1  0.333333  0.666667  0.000000  1
  Hf  Hf1  1  0.666667  0.333333  0.500000  1
  Hf  Hf2  1  0.666667  0.333333  0.000000  1
  Hf  Hf3  1  0.333333  0.666667  0.500000  1
  Hf  Hf4  1  0.264262  0.000000  0.250331  1
  Hf  Hf5  1  0.264262  0.264262  0.749669  1
  Hf  Hf6  1  0.000000  0.735738  0.749669  1
  Hf  Hf7  1  0.000000  0.264262  0.250331  1
  Hf  Hf8  1  0.735738  0.735738  0.250331  1
  Hf  Hf9  1  0.735738  0.000000  0.749669  1
  Cu  Cu10  1  0.000000  0.000000  0.500000  1
  Sn  Sn11  1  0.611202  0.000000  0.250333  1
  Sn  Sn12  1  0.611202  0.611202  0.749667  1
  Sn  Sn13  1  0.000000  0.388798  0.749667  1
  Sn  Sn14  1  0.000000  0.611202  0.250333  1
  Sn  Sn15  1  0.388798  0.388798  0.250333  1
  Sn  Sn16  1  0.388798  0.000000  0.749667  1
  Ge  Ge17  1  0.000000  0.000000  0.000000  1
