# generated using pymatgen
data_Pr7Th(ZnRh)8
_symmetry_space_group_name_H-M   'P 1'
_cell_length_a   4.01884600
_cell_length_b   7.41154806
_cell_length_c   16.67610267
_cell_angle_alpha   89.68810073
_cell_angle_beta   90.00000000
_cell_angle_gamma   90.00000000
_symmetry_Int_Tables_number   1
_chemical_formula_structural   Pr7Th(ZnRh)8
_chemical_formula_sum   'Pr7 Th1 Zn8 Rh8'
_cell_volume   496.70487098
_cell_formula_units_Z   1
loop_
 _symmetry_equiv_pos_site_id
 _symmetry_equiv_pos_as_xyz
  1  'x, y, z'
loop_
 _atom_site_type_symbol
 _atom_site_label
 _atom_site_symmetry_multiplicity
 _atom_site_fract_x
 _atom_site_fract_y
 _atom_site_fract_z
 _atom_site_occupancy
  Pr  Pr0  1  0.750000  0.949948  0.283148  1
  Pr  Pr1  1  0.750000  0.827917  0.059416  1
  Pr  Pr2  1  0.250000  0.048073  0.716307  1
  Pr  Pr3  1  0.250000  0.169865  0.939240  1
  Pr  Pr4  1  0.250000  0.547911  0.783762  1
  Pr  Pr5  1  0.750000  0.333154  0.440785  1
  Pr  Pr6  1  0.250000  0.671508  0.561084  1
  Th  Th7  1  0.750000  0.449275  0.216770  1
  Zn  Zn8  1  0.250000  0.001659  0.439995  1
  Zn  Zn9  1  0.750000  0.501300  0.939994  1
  Zn  Zn10  1  0.750000  0.002906  0.560284  1
  Zn  Zn11  1  0.250000  0.626545  0.351698  1
  Zn  Zn12  1  0.750000  0.375885  0.650954  1
  Zn  Zn13  1  0.750000  0.876668  0.849214  1
  Zn  Zn14  1  0.250000  0.497779  0.057627  1
  Zn  Zn15  1  0.250000  0.119812  0.150736  1
  Rh  Rh16  1  0.250000  0.246223  0.565641  1
  Rh  Rh17  1  0.750000  0.259252  0.069785  1
  Rh  Rh18  1  0.250000  0.255210  0.305869  1
  Rh  Rh19  1  0.750000  0.254979  0.814238  1
  Rh  Rh20  1  0.250000  0.746270  0.934042  1
  Rh  Rh21  1  0.750000  0.755475  0.686926  1
  Rh  Rh22  1  0.750000  0.761256  0.434617  1
  Rh  Rh23  1  0.250000  0.721132  0.187870  1
