# generated using pymatgen
data_Yb2Al20IrOs3
_symmetry_space_group_name_H-M   'P 1'
_cell_length_a   6.87528308
_cell_length_b   6.87524350
_cell_length_c   9.14310476
_cell_angle_alpha   90.25292847
_cell_angle_beta   90.05644600
_cell_angle_gamma   96.48623539
_symmetry_Int_Tables_number   1
_chemical_formula_structural   Yb2Al20IrOs3
_chemical_formula_sum   'Yb2 Al20 Ir1 Os3'
_cell_volume   429.41657586
_cell_formula_units_Z   1
loop_
 _symmetry_equiv_pos_site_id
 _symmetry_equiv_pos_as_xyz
  1  'x, y, z'
loop_
 _atom_site_type_symbol
 _atom_site_label
 _atom_site_symmetry_multiplicity
 _atom_site_fract_x
 _atom_site_fract_y
 _atom_site_fract_z
 _atom_site_occupancy
  Yb  Yb0  1  0.627483  0.374818  0.749844  1
  Yb  Yb1  1  0.372517  0.625182  0.250156  1
  Al  Al2  1  0.280219  0.020450  0.747926  1
  Al  Al3  1  0.020493  0.281578  0.249335  1
  Al  Al4  1  0.719781  0.979550  0.252074  1
  Al  Al5  1  0.979507  0.718422  0.750665  1
  Al  Al6  1  0.878261  0.124774  0.953841  1
  Al  Al7  1  0.121739  0.875226  0.046159  1
  Al  Al8  1  0.876041  0.124395  0.545300  1
  Al  Al9  1  0.123959  0.875605  0.454700  1
  Al  Al10  1  0.645828  0.915831  0.748981  1
  Al  Al11  1  0.916718  0.645063  0.250329  1
  Al  Al12  1  0.354172  0.084169  0.251019  1
  Al  Al13  1  0.083282  0.354937  0.749671  1
  Al  Al14  1  0.342641  0.654855  0.898522  1
  Al  Al15  1  0.657359  0.345145  0.101478  1
  Al  Al16  1  0.343713  0.657458  0.600106  1
  Al  Al17  1  0.656287  0.342542  0.399894  1
  Al  Al18  1  0.724018  0.722131  0.999043  1
  Al  Al19  1  0.723747  0.723174  0.500043  1
  Al  Al20  1  0.275982  0.277869  0.000957  1
  Al  Al21  1  0.276253  0.276826  0.499957  1
  Ir  Ir22  1  0.500000  0.000000  0.000000  1
  Os  Os23  1  0.000000  0.500000  0.000000  1
  Os  Os24  1  0.500000  0.000000  0.500000  1
  Os  Os25  1  0.000000  0.500000  0.500000  1
