# generated using pymatgen
data_La5Dy5(InSb)4
_symmetry_space_group_name_H-M   'P 1'
_cell_length_a   9.23761868
_cell_length_b   8.60665022
_cell_length_c   8.26549200
_cell_angle_alpha   90.25261311
_cell_angle_beta   90.06888432
_cell_angle_gamma   125.19668816
_symmetry_Int_Tables_number   1
_chemical_formula_structural   La5Dy5(InSb)4
_chemical_formula_sum   'La5 Dy5 In4 Sb4'
_cell_volume   536.99580966
_cell_formula_units_Z   1
loop_
 _symmetry_equiv_pos_site_id
 _symmetry_equiv_pos_as_xyz
  1  'x, y, z'
loop_
 _atom_site_type_symbol
 _atom_site_label
 _atom_site_symmetry_multiplicity
 _atom_site_fract_x
 _atom_site_fract_y
 _atom_site_fract_z
 _atom_site_occupancy
  La  La0  1  0.051623  0.351729  0.320851  1
  La  La1  1  0.946945  0.647852  0.678697  1
  La  La2  1  0.448078  0.147198  0.817297  1
  La  La3  1  0.786098  0.515974  0.163693  1
  La  La4  1  0.553432  0.855423  0.182418  1
  Dy  Dy5  1  0.218554  0.485167  0.839404  1
  Dy  Dy6  1  0.717640  0.979071  0.660172  1
  Dy  Dy7  1  0.277903  0.015781  0.339023  1
  Dy  Dy8  1  0.003144  0.002080  0.997893  1
  Dy  Dy9  1  0.497449  0.498567  0.502191  1
  In  In10  1  0.369770  0.376120  0.127151  1
  In  In11  1  0.623597  0.625625  0.870794  1
  In  In12  1  0.127393  0.127001  0.628132  1
  In  In13  1  0.874933  0.879539  0.374714  1
  Sb  Sb14  1  0.825064  0.224937  0.961931  1
  Sb  Sb15  1  0.185983  0.776454  0.029294  1
  Sb  Sb16  1  0.671087  0.259878  0.472390  1
  Sb  Sb17  1  0.321307  0.731603  0.533957  1
