# generated using pymatgen
data_U5Cr(ReC4)2
_symmetry_space_group_name_H-M   'P 1'
_cell_length_a   11.26325900
_cell_length_b   11.26325900
_cell_length_c   3.25540400
_cell_angle_alpha   90.00000000
_cell_angle_beta   90.00000000
_cell_angle_gamma   90.00000000
_symmetry_Int_Tables_number   1
_chemical_formula_structural   U5Cr(ReC4)2
_chemical_formula_sum   'U10 Cr2 Re4 C16'
_cell_volume   412.98381759
_cell_formula_units_Z   2
loop_
 _symmetry_equiv_pos_site_id
 _symmetry_equiv_pos_as_xyz
  1  'x, y, z'
loop_
 _atom_site_type_symbol
 _atom_site_label
 _atom_site_symmetry_multiplicity
 _atom_site_fract_x
 _atom_site_fract_y
 _atom_site_fract_z
 _atom_site_occupancy
  U  U0  1  0.000000  0.500000  0.000000  1
  U  U1  1  0.274186  0.541059  0.500000  1
  U  U2  1  0.725814  0.458941  0.500000  1
  U  U3  1  0.541059  0.725814  0.500000  1
  U  U4  1  0.774186  0.958941  0.500000  1
  U  U5  1  0.225814  0.041059  0.500000  1
  U  U6  1  0.958941  0.225814  0.500000  1
  U  U7  1  0.458941  0.274186  0.500000  1
  U  U8  1  0.500000  0.000000  0.000000  1
  U  U9  1  0.041059  0.774186  0.500000  1
  Cr  Cr10  1  0.500000  0.500000  0.000000  1
  Cr  Cr11  1  0.000000  0.000000  0.000000  1
  Re  Re12  1  0.206012  0.293988  0.000000  1
  Re  Re13  1  0.706012  0.206012  0.000000  1
  Re  Re14  1  0.293988  0.793988  0.000000  1
  Re  Re15  1  0.793988  0.706012  0.000000  1
  C  C16  1  0.352839  0.405060  0.000000  1
  C  C17  1  0.617657  0.117657  0.500000  1
  C  C18  1  0.905060  0.852839  0.000000  1
  C  C19  1  0.653525  0.846475  0.000000  1
  C  C20  1  0.346475  0.153525  0.000000  1
  C  C21  1  0.117657  0.382343  0.500000  1
  C  C22  1  0.147161  0.905060  0.000000  1
  C  C23  1  0.846475  0.346475  0.000000  1
  C  C24  1  0.647161  0.594940  0.000000  1
  C  C25  1  0.594940  0.352839  0.000000  1
  C  C26  1  0.882343  0.617657  0.500000  1
  C  C27  1  0.852839  0.094940  0.000000  1
  C  C28  1  0.382343  0.882343  0.500000  1
  C  C29  1  0.153525  0.653525  0.000000  1
  C  C30  1  0.094940  0.147161  0.000000  1
  C  C31  1  0.405060  0.647161  0.000000  1
