# generated using pymatgen
data_Tb11YCo5Hg
_symmetry_space_group_name_H-M   'P 1'
_cell_length_a   8.29135464
_cell_length_b   8.29135643
_cell_length_c   8.28220107
_cell_angle_alpha   110.84737860
_cell_angle_beta   109.83495158
_cell_angle_gamma   107.79281696
_symmetry_Int_Tables_number   1
_chemical_formula_structural   Tb11YCo5Hg
_chemical_formula_sum   'Tb11 Y1 Co5 Hg1'
_cell_volume   437.72940157
_cell_formula_units_Z   1
loop_
 _symmetry_equiv_pos_site_id
 _symmetry_equiv_pos_as_xyz
  1  'x, y, z'
loop_
 _atom_site_type_symbol
 _atom_site_label
 _atom_site_symmetry_multiplicity
 _atom_site_fract_x
 _atom_site_fract_y
 _atom_site_fract_z
 _atom_site_occupancy
  Tb  Tb0  1  0.183566  0.291470  0.475036  1
  Tb  Tb1  1  0.182800  0.708104  0.890907  1
  Tb  Tb2  1  0.816833  0.292106  0.108937  1
  Tb  Tb3  1  0.682471  0.379097  0.696478  1
  Tb  Tb4  1  0.317274  0.620737  0.303188  1
  Tb  Tb5  1  0.682451  0.985915  0.303188  1
  Tb  Tb6  1  0.317380  0.014007  0.696478  1
  Tb  Tb7  1  0.598694  0.791338  0.807564  1
  Tb  Tb8  1  0.400881  0.208549  0.192338  1
  Tb  Tb9  1  0.983789  0.791458  0.192338  1
  Tb  Tb10  1  0.016225  0.208869  0.807564  1
  Y  Y11  1  0.815772  0.709138  0.524910  1
  Co  Co12  1  0.623884  0.999448  0.623332  1
  Co  Co13  1  0.376291  0.000183  0.376474  1
  Co  Co14  1  0.114644  0.613634  0.500463  1
  Co  Co15  1  0.886829  0.385819  0.500463  1
  Co  Co16  1  0.999852  0.000106  0.999958  1
  Hg  Hg17  1  0.500366  0.500021  0.000387  1
