# generated using pymatgen
data_La4HoIr2Ru
_symmetry_space_group_name_H-M   'P 1'
_cell_length_a   11.31639400
_cell_length_b   11.31639400
_cell_length_c   6.59667300
_cell_angle_alpha   90.00000000
_cell_angle_beta   90.00000000
_cell_angle_gamma   90.00000000
_symmetry_Int_Tables_number   1
_chemical_formula_structural   La4HoIr2Ru
_chemical_formula_sum   'La16 Ho4 Ir8 Ru4'
_cell_volume   844.77504469
_cell_formula_units_Z   4
loop_
 _symmetry_equiv_pos_site_id
 _symmetry_equiv_pos_as_xyz
  1  'x, y, z'
loop_
 _atom_site_type_symbol
 _atom_site_label
 _atom_site_symmetry_multiplicity
 _atom_site_fract_x
 _atom_site_fract_y
 _atom_site_fract_z
 _atom_site_occupancy
  La  La0  1  0.290441  0.086624  0.390923  1
  La  La1  1  0.290441  0.913376  0.890923  1
  La  La2  1  0.709559  0.086624  0.890923  1
  La  La3  1  0.709559  0.913376  0.390923  1
  La  La4  1  0.586624  0.790441  0.890923  1
  La  La5  1  0.586624  0.209559  0.390923  1
  La  La6  1  0.413376  0.790441  0.390923  1
  La  La7  1  0.413376  0.209559  0.890923  1
  La  La8  1  0.209559  0.413376  0.609077  1
  La  La9  1  0.209559  0.586624  0.109077  1
  La  La10  1  0.790441  0.413376  0.109077  1
  La  La11  1  0.790441  0.586624  0.609077  1
  La  La12  1  0.913376  0.709559  0.109077  1
  La  La13  1  0.913376  0.290441  0.609077  1
  La  La14  1  0.086624  0.709559  0.609077  1
  La  La15  1  0.086624  0.290441  0.109077  1
  Ho  Ho16  1  0.000000  0.000000  0.500000  1
  Ho  Ho17  1  0.000000  0.000000  0.000000  1
  Ho  Ho18  1  0.500000  0.500000  0.000000  1
  Ho  Ho19  1  0.500000  0.500000  0.500000  1
  Ir  Ir20  1  0.852729  0.147271  0.250000  1
  Ir  Ir21  1  0.852729  0.852729  0.750000  1
  Ir  Ir22  1  0.147271  0.147271  0.750000  1
  Ir  Ir23  1  0.147271  0.852729  0.250000  1
  Ir  Ir24  1  0.647271  0.352729  0.750000  1
  Ir  Ir25  1  0.647271  0.647271  0.250000  1
  Ir  Ir26  1  0.352729  0.352729  0.250000  1
  Ir  Ir27  1  0.352729  0.647271  0.750000  1
  Ru  Ru28  1  0.500000  0.000000  0.120516  1
  Ru  Ru29  1  0.500000  0.000000  0.620516  1
  Ru  Ru30  1  0.000000  0.500000  0.879484  1
  Ru  Ru31  1  0.000000  0.500000  0.379484  1
