# generated using pymatgen
data_CaCe(CuSe)6
_symmetry_space_group_name_H-M   'P 1'
_cell_length_a   7.85530273
_cell_length_b   7.85530184
_cell_length_c   7.85530009
_cell_angle_alpha   53.15636527
_cell_angle_beta   53.15636317
_cell_angle_gamma   53.15637397
_symmetry_Int_Tables_number   1
_chemical_formula_structural   CaCe(CuSe)6
_chemical_formula_sum   'Ca1 Ce1 Cu6 Se6'
_cell_volume   287.79653141
_cell_formula_units_Z   1
loop_
 _symmetry_equiv_pos_site_id
 _symmetry_equiv_pos_as_xyz
  1  'x, y, z'
loop_
 _atom_site_type_symbol
 _atom_site_label
 _atom_site_symmetry_multiplicity
 _atom_site_fract_x
 _atom_site_fract_y
 _atom_site_fract_z
 _atom_site_occupancy
  Ca  Ca0  1  0.333673  0.333673  0.333673  1
  Ce  Ce1  1  0.666597  0.666597  0.666597  1
  Cu  Cu2  1  0.870758  0.532337  0.222526  1
  Cu  Cu3  1  0.532337  0.222526  0.870758  1
  Cu  Cu4  1  0.222526  0.870758  0.532337  1
  Cu  Cu5  1  0.780795  0.123287  0.470016  1
  Cu  Cu6  1  0.470016  0.780795  0.123287  1
  Cu  Cu7  1  0.123287  0.470016  0.780795  1
  Se  Se8  1  0.081333  0.758984  0.412238  1
  Se  Se9  1  0.412238  0.081333  0.758984  1
  Se  Se10  1  0.758984  0.412238  0.081333  1
  Se  Se11  1  0.243245  0.589001  0.915211  1
  Se  Se12  1  0.589001  0.915211  0.243245  1
  Se  Se13  1  0.915211  0.243245  0.589001  1
