# generated using pymatgen
data_Cs4TiSe4
_symmetry_space_group_name_H-M   'P 1'
_cell_length_a   8.61573435
_cell_length_b   8.36009467
_cell_length_c   12.81640140
_cell_angle_alpha   79.30625944
_cell_angle_beta   72.04738684
_cell_angle_gamma   66.48919331
_symmetry_Int_Tables_number   1
_chemical_formula_structural   Cs4TiSe4
_chemical_formula_sum   'Cs8 Ti2 Se8'
_cell_volume   803.21816602
_cell_formula_units_Z   2
loop_
 _symmetry_equiv_pos_site_id
 _symmetry_equiv_pos_as_xyz
  1  'x, y, z'
loop_
 _atom_site_type_symbol
 _atom_site_label
 _atom_site_symmetry_multiplicity
 _atom_site_fract_x
 _atom_site_fract_y
 _atom_site_fract_z
 _atom_site_occupancy
  Cs  Cs0  1  0.766533  0.243903  0.036327  1
  Cs  Cs1  1  0.585370  0.751645  0.156691  1
  Cs  Cs2  1  0.030291  0.787795  0.379749  1
  Cs  Cs3  1  0.498627  0.291602  0.433363  1
  Cs  Cs4  1  0.501275  0.708431  0.566677  1
  Cs  Cs5  1  0.969691  0.212209  0.620265  1
  Cs  Cs6  1  0.414574  0.248402  0.843337  1
  Cs  Cs7  1  0.233459  0.756140  0.963710  1
  Ti  Ti8  1  0.161753  0.265890  0.252421  1
  Ti  Ti9  1  0.838300  0.734221  0.747460  1
  Se  Se10  1  0.168189  0.118355  0.105313  1
  Se  Se11  1  0.331557  0.453566  0.189927  1
  Se  Se12  1  0.866835  0.439534  0.347548  1
  Se  Se13  1  0.303087  0.035393  0.375673  1
  Se  Se14  1  0.696978  0.964492  0.624404  1
  Se  Se15  1  0.133258  0.560346  0.652422  1
  Se  Se16  1  0.668401  0.546431  0.810088  1
  Se  Se17  1  0.831824  0.881646  0.894622  1
