# generated using pymatgen
data_HfZr5(Al3Fe)8
_symmetry_space_group_name_H-M   'P 1'
_cell_length_a   8.49736013
_cell_length_b   8.49735942
_cell_length_c   9.07261900
_cell_angle_alpha   90.00000000
_cell_angle_beta   90.00000000
_cell_angle_gamma   120.01979025
_symmetry_Int_Tables_number   1
_chemical_formula_structural   HfZr5(Al3Fe)8
_chemical_formula_sum   'Hf1 Zr5 Al24 Fe8'
_cell_volume   567.21104174
_cell_formula_units_Z   1
loop_
 _symmetry_equiv_pos_site_id
 _symmetry_equiv_pos_as_xyz
  1  'x, y, z'
loop_
 _atom_site_type_symbol
 _atom_site_label
 _atom_site_symmetry_multiplicity
 _atom_site_fract_x
 _atom_site_fract_y
 _atom_site_fract_z
 _atom_site_occupancy
  Hf  Hf0  1  0.803157  0.196843  0.750000  1
  Zr  Zr1  1  0.195018  0.804982  0.250000  1
  Zr  Zr2  1  0.390573  0.195013  0.750000  1
  Zr  Zr3  1  0.610125  0.805032  0.250000  1
  Zr  Zr4  1  0.804987  0.609427  0.750000  1
  Zr  Zr5  1  0.194968  0.389875  0.250000  1
  Al  Al6  1  0.666723  0.333277  0.974562  1
  Al  Al7  1  0.333345  0.666655  0.025144  1
  Al  Al8  1  0.333345  0.666655  0.474856  1
  Al  Al9  1  0.666723  0.333277  0.525438  1
  Al  Al10  1  0.838317  0.161683  0.426404  1
  Al  Al11  1  0.161740  0.838260  0.574112  1
  Al  Al12  1  0.323469  0.161728  0.426075  1
  Al  Al13  1  0.161740  0.838260  0.925888  1
  Al  Al14  1  0.676865  0.838641  0.574324  1
  Al  Al15  1  0.838317  0.161683  0.073596  1
  Al  Al16  1  0.838272  0.676531  0.426075  1
  Al  Al17  1  0.676865  0.838641  0.925676  1
  Al  Al18  1  0.161359  0.323135  0.574324  1
  Al  Al19  1  0.323469  0.161728  0.073925  1
  Al  Al20  1  0.161359  0.323135  0.925676  1
  Al  Al21  1  0.838272  0.676531  0.073925  1
  Al  Al22  1  0.444302  0.555698  0.750000  1
  Al  Al23  1  0.555731  0.444269  0.250000  1
  Al  Al24  1  0.111312  0.555334  0.750000  1
  Al  Al25  1  0.888676  0.444283  0.250000  1
  Al  Al26  1  0.444666  0.888688  0.750000  1
  Al  Al27  1  0.555717  0.111324  0.250000  1
  Al  Al28  1  0.999396  0.000604  0.750000  1
  Al  Al29  1  0.000022  0.999978  0.250000  1
  Fe  Fe30  1  0.500068  0.499932  0.000010  1
  Fe  Fe31  1  0.999501  0.499101  0.999297  1
  Fe  Fe32  1  0.500068  0.499932  0.499990  1
  Fe  Fe33  1  0.500899  0.000499  0.999297  1
  Fe  Fe34  1  0.999501  0.499101  0.500703  1
  Fe  Fe35  1  0.500899  0.000499  0.500703  1
  Fe  Fe36  1  0.000118  0.999882  0.000103  1
  Fe  Fe37  1  0.000118  0.999882  0.499897  1
