# generated using pymatgen
data_Na3(Pr2Au5)2
_symmetry_space_group_name_H-M   'P 1'
_cell_length_a   8.90639507
_cell_length_b   8.90639453
_cell_length_c   10.42116900
_cell_angle_alpha   90.00000000
_cell_angle_beta   90.00000000
_cell_angle_gamma   108.80416643
_symmetry_Int_Tables_number   1
_chemical_formula_structural   Na3(Pr2Au5)2
_chemical_formula_sum   'Na6 Pr8 Au20'
_cell_volume   782.52581174
_cell_formula_units_Z   2
loop_
 _symmetry_equiv_pos_site_id
 _symmetry_equiv_pos_as_xyz
  1  'x, y, z'
loop_
 _atom_site_type_symbol
 _atom_site_label
 _atom_site_symmetry_multiplicity
 _atom_site_fract_x
 _atom_site_fract_y
 _atom_site_fract_z
 _atom_site_occupancy
  Na  Na0  1  0.014008  0.514008  0.250000  1
  Na  Na1  1  0.985992  0.485992  0.750000  1
  Na  Na2  1  0.485992  0.985992  0.750000  1
  Na  Na3  1  0.514008  0.014008  0.250000  1
  Na  Na4  1  0.000000  0.000000  0.000000  1
  Na  Na5  1  0.500000  0.500000  0.500000  1
  Pr  Pr6  1  0.700682  0.299318  0.000000  1
  Pr  Pr7  1  0.299318  0.700682  0.000000  1
  Pr  Pr8  1  0.799318  0.200682  0.500000  1
  Pr  Pr9  1  0.200682  0.799318  0.500000  1
  Pr  Pr10  1  0.301417  0.301417  0.199369  1
  Pr  Pr11  1  0.698583  0.698583  0.800631  1
  Pr  Pr12  1  0.198583  0.198583  0.699369  1
  Pr  Pr13  1  0.801417  0.801417  0.300631  1
  Au  Au14  1  0.096585  0.096585  0.404426  1
  Au  Au15  1  0.903415  0.903415  0.595574  1
  Au  Au16  1  0.403415  0.403415  0.904426  1
  Au  Au17  1  0.596585  0.596585  0.095574  1
  Au  Au18  1  0.880445  0.161883  0.209497  1
  Au  Au19  1  0.119555  0.838117  0.790503  1
  Au  Au20  1  0.619555  0.338117  0.709497  1
  Au  Au21  1  0.661883  0.380445  0.290503  1
  Au  Au22  1  0.380445  0.661883  0.290503  1
  Au  Au23  1  0.338117  0.619555  0.709497  1
  Au  Au24  1  0.838117  0.119555  0.790503  1
  Au  Au25  1  0.161883  0.880445  0.209497  1
  Au  Au26  1  0.929705  0.651604  0.013089  1
  Au  Au27  1  0.070295  0.348396  0.986911  1
  Au  Au28  1  0.570295  0.848396  0.513089  1
  Au  Au29  1  0.151604  0.429705  0.486911  1
  Au  Au30  1  0.429705  0.151604  0.486911  1
  Au  Au31  1  0.848396  0.570295  0.513089  1
  Au  Au32  1  0.348396  0.070295  0.986911  1
  Au  Au33  1  0.651604  0.929705  0.013089  1
