# generated using pymatgen
data_Li4Tm2Pb3
_symmetry_space_group_name_H-M   'P 1'
_cell_length_a   4.79208200
_cell_length_b   4.79208258
_cell_length_c   10.32693200
_cell_angle_alpha   90.00000000
_cell_angle_beta   90.00000000
_cell_angle_gamma   119.99998217
_symmetry_Int_Tables_number   1
_chemical_formula_structural   Li4Tm2Pb3
_chemical_formula_sum   'Li4 Tm2 Pb3'
_cell_volume   205.37641173
_cell_formula_units_Z   1
loop_
 _symmetry_equiv_pos_site_id
 _symmetry_equiv_pos_as_xyz
  1  'x, y, z'
loop_
 _atom_site_type_symbol
 _atom_site_label
 _atom_site_symmetry_multiplicity
 _atom_site_fract_x
 _atom_site_fract_y
 _atom_site_fract_z
 _atom_site_occupancy
  Li  Li0  1  0.000000  0.000000  0.774691  1
  Li  Li1  1  0.333333  0.666667  0.543541  1
  Li  Li2  1  0.000000  0.000000  0.190547  1
  Li  Li3  1  0.666667  0.333333  0.661604  1
  Tm  Tm4  1  0.666667  0.333333  0.345920  1
  Tm  Tm5  1  0.666667  0.333333  0.987350  1
  Pb  Pb6  1  0.333333  0.666667  0.162557  1
  Pb  Pb7  1  0.333333  0.666667  0.843489  1
  Pb  Pb8  1  0.000000  0.000000  0.490301  1
