# generated using pymatgen
data_Er9Lu3In2Fe2Ru
_symmetry_space_group_name_H-M   'P 1'
_cell_length_a   8.27176864
_cell_length_b   8.26555298
_cell_length_c   8.26550593
_cell_angle_alpha   108.62102598
_cell_angle_beta   108.56597898
_cell_angle_gamma   111.21002106
_symmetry_Int_Tables_number   1
_chemical_formula_structural   Er9Lu3In2Fe2Ru
_chemical_formula_sum   'Er9 Lu3 In2 Fe2 Ru1'
_cell_volume   434.88934620
_cell_formula_units_Z   1
loop_
 _symmetry_equiv_pos_site_id
 _symmetry_equiv_pos_as_xyz
  1  'x, y, z'
loop_
 _atom_site_type_symbol
 _atom_site_label
 _atom_site_symmetry_multiplicity
 _atom_site_fract_x
 _atom_site_fract_y
 _atom_site_fract_z
 _atom_site_occupancy
  Er  Er0  1  0.307472  0.307504  0.614011  1
  Er  Er1  1  0.693010  0.692043  0.385352  1
  Er  Er2  1  0.693010  0.307654  0.000964  1
  Er  Er3  1  0.307473  0.693463  0.999969  1
  Er  Er4  1  0.193813  0.432017  0.239039  1
  Er  Er5  1  0.806514  0.568960  0.761942  1
  Er  Er6  1  0.193812  0.954774  0.761793  1
  Er  Er7  1  0.953492  0.192286  0.761211  1
  Er  Er8  1  0.806515  0.044576  0.237557  1
  Lu  Lu9  1  0.045840  0.808213  0.237620  1
  Lu  Lu10  1  0.429779  0.191801  0.237980  1
  Lu  Lu11  1  0.569750  0.807653  0.762096  1
  In  In12  1  0.000025  0.499866  0.500160  1
  In  In13  1  0.498371  0.998977  0.499393  1
  Fe  Fe14  1  0.385529  0.385209  0.000322  1
  Fe  Fe15  1  0.615472  0.615494  0.999975  1
  Ru  Ru16  1  0.000123  0.999509  0.000615  1
