# generated using pymatgen
data_ZrNp3(NiAs)4
_symmetry_space_group_name_H-M   'P 1'
_cell_length_a   4.06839900
_cell_length_b   4.06839935
_cell_length_c   15.15414600
_cell_angle_alpha   90.00000000
_cell_angle_beta   90.00000000
_cell_angle_gamma   120.00000530
_symmetry_Int_Tables_number   1
_chemical_formula_structural   ZrNp3(NiAs)4
_chemical_formula_sum   'Zr1 Np3 Ni4 As4'
_cell_volume   217.22469220
_cell_formula_units_Z   1
loop_
 _symmetry_equiv_pos_site_id
 _symmetry_equiv_pos_as_xyz
  1  'x, y, z'
loop_
 _atom_site_type_symbol
 _atom_site_label
 _atom_site_symmetry_multiplicity
 _atom_site_fract_x
 _atom_site_fract_y
 _atom_site_fract_z
 _atom_site_occupancy
  Zr  Zr0  1  0.000000  0.000000  0.250000  1
  Np  Np1  1  0.000000  0.000000  0.750000  1
  Np  Np2  1  0.000000  0.000000  0.005560  1
  Np  Np3  1  0.000000  0.000000  0.494440  1
  Ni  Ni4  1  0.333333  0.666667  0.160854  1
  Ni  Ni5  1  0.666667  0.333333  0.874518  1
  Ni  Ni6  1  0.666667  0.333333  0.625482  1
  Ni  Ni7  1  0.333333  0.666667  0.339146  1
  As  As8  1  0.333333  0.666667  0.619695  1
  As  As9  1  0.666667  0.333333  0.375205  1
  As  As10  1  0.666667  0.333333  0.124795  1
  As  As11  1  0.333333  0.666667  0.880305  1
