# generated using pymatgen
data_Tm6Ti5Al11Os7
_symmetry_space_group_name_H-M   'P 1'
_cell_length_a   8.99247470
_cell_length_b   8.99247592
_cell_length_c   8.97151867
_cell_angle_alpha   59.92269774
_cell_angle_beta   59.92269612
_cell_angle_gamma   59.99999421
_symmetry_Int_Tables_number   1
_chemical_formula_structural   Tm6Ti5Al11Os7
_chemical_formula_sum   'Tm6 Ti5 Al11 Os7'
_cell_volume   512.39044465
_cell_formula_units_Z   1
loop_
 _symmetry_equiv_pos_site_id
 _symmetry_equiv_pos_as_xyz
  1  'x, y, z'
loop_
 _atom_site_type_symbol
 _atom_site_label
 _atom_site_symmetry_multiplicity
 _atom_site_fract_x
 _atom_site_fract_y
 _atom_site_fract_z
 _atom_site_occupancy
  Tm  Tm0  1  0.707780  0.707780  0.292674  1
  Tm  Tm1  1  0.291766  0.707780  0.292674  1
  Tm  Tm2  1  0.707780  0.291766  0.292674  1
  Tm  Tm3  1  0.291827  0.291827  0.712238  1
  Tm  Tm4  1  0.704106  0.291827  0.712238  1
  Tm  Tm5  1  0.291827  0.704106  0.712238  1
  Ti  Ti6  1  0.880414  0.880414  0.358757  1
  Ti  Ti7  1  0.878928  0.361708  0.880434  1
  Ti  Ti8  1  0.361708  0.878928  0.880434  1
  Ti  Ti9  1  0.878928  0.878928  0.880434  1
  Ti  Ti10  1  0.122871  0.122871  0.631388  1
  Al  Al11  1  0.117748  0.644295  0.120210  1
  Al  Al12  1  0.644295  0.117748  0.120210  1
  Al  Al13  1  0.117748  0.117748  0.120210  1
  Al  Al14  1  0.669186  0.669186  0.992443  1
  Al  Al15  1  0.669295  0.992471  0.668939  1
  Al  Al16  1  0.992471  0.669295  0.668939  1
  Al  Al17  1  0.669295  0.669295  0.668939  1
  Al  Al18  1  0.329336  0.329336  0.011992  1
  Al  Al19  1  0.332987  0.004653  0.329370  1
  Al  Al20  1  0.004653  0.332987  0.329370  1
  Al  Al21  1  0.332987  0.332987  0.329370  1
  Os  Os22  1  0.004729  0.004729  0.985812  1
  Os  Os23  1  0.999181  0.999181  0.504024  1
  Os  Os24  1  0.497614  0.999181  0.504024  1
  Os  Os25  1  0.999181  0.497614  0.504024  1
  Os  Os26  1  0.500733  0.500733  0.998646  1
  Os  Os27  1  0.999888  0.500733  0.998646  1
  Os  Os28  1  0.500733  0.999888  0.998646  1
