# generated using pymatgen
data_TbCePaCo2
_symmetry_space_group_name_H-M   'P 1'
_cell_length_a   5.96649556
_cell_length_b   5.96649485
_cell_length_c   5.96648901
_cell_angle_alpha   145.02042147
_cell_angle_beta   118.09129410
_cell_angle_gamma   73.12811195
_symmetry_Int_Tables_number   1
_chemical_formula_structural   TbCePaCo2
_chemical_formula_sum   'Tb1 Ce1 Pa1 Co2'
_cell_volume   105.48621024
_cell_formula_units_Z   1
loop_
 _symmetry_equiv_pos_site_id
 _symmetry_equiv_pos_as_xyz
  1  'x, y, z'
loop_
 _atom_site_type_symbol
 _atom_site_label
 _atom_site_symmetry_multiplicity
 _atom_site_fract_x
 _atom_site_fract_y
 _atom_site_fract_z
 _atom_site_occupancy
  Tb  Tb0  1  0.696074  0.196074  0.500000  1
  Ce  Ce1  1  0.309416  0.809416  0.500000  1
  Pa  Pa2  1  0.005896  0.005896  0.000000  1
  Co  Co3  1  0.277283  0.494305  0.782975  1
  Co  Co4  1  0.711331  0.494308  0.217025  1
