# generated using pymatgen
data_Ti4Si3TcN
_symmetry_space_group_name_H-M   'P 1'
_cell_length_a   7.37022000
_cell_length_b   7.37021885
_cell_length_c   5.12543600
_cell_angle_alpha   90.00000000
_cell_angle_beta   90.00000000
_cell_angle_gamma   119.99999619
_symmetry_Int_Tables_number   1
_chemical_formula_structural   Ti4Si3TcN
_chemical_formula_sum   'Ti8 Si6 Tc2 N2'
_cell_volume   241.11392837
_cell_formula_units_Z   2
loop_
 _symmetry_equiv_pos_site_id
 _symmetry_equiv_pos_as_xyz
  1  'x, y, z'
loop_
 _atom_site_type_symbol
 _atom_site_label
 _atom_site_symmetry_multiplicity
 _atom_site_fract_x
 _atom_site_fract_y
 _atom_site_fract_z
 _atom_site_occupancy
  Ti  Ti0  1  0.228263  0.000000  0.747902  1
  Ti  Ti1  1  0.771737  0.000000  0.252098  1
  Ti  Ti2  1  0.000000  0.228263  0.747902  1
  Ti  Ti3  1  0.000000  0.771737  0.252098  1
  Ti  Ti4  1  0.771737  0.771737  0.747902  1
  Ti  Ti5  1  0.228263  0.228263  0.252098  1
  Ti  Ti6  1  0.333333  0.666667  0.500000  1
  Ti  Ti7  1  0.666667  0.333333  0.500000  1
  Si  Si8  1  0.590014  0.000000  0.761412  1
  Si  Si9  1  0.409986  0.000000  0.238588  1
  Si  Si10  1  0.000000  0.590014  0.761412  1
  Si  Si11  1  0.000000  0.409986  0.238588  1
  Si  Si12  1  0.409986  0.409986  0.761412  1
  Si  Si13  1  0.590014  0.590014  0.238588  1
  Tc  Tc14  1  0.666667  0.333333  0.000000  1
  Tc  Tc15  1  0.333333  0.666667  0.000000  1
  N  N16  1  0.000000  0.000000  0.500000  1
  N  N17  1  0.000000  0.000000  0.000000  1
