# generated using pymatgen
data_ErLu2ScGa2Ir3
_symmetry_space_group_name_H-M   'P 1'
_cell_length_a   7.11046294
_cell_length_b   7.08737730
_cell_length_c   4.03600000
_cell_angle_alpha   90.00000000
_cell_angle_beta   90.00000000
_cell_angle_gamma   120.24511301
_symmetry_Int_Tables_number   1
_chemical_formula_structural   ErLu2ScGa2Ir3
_chemical_formula_sum   'Er1 Lu2 Sc1 Ga2 Ir3'
_cell_volume   175.70626175
_cell_formula_units_Z   1
loop_
 _symmetry_equiv_pos_site_id
 _symmetry_equiv_pos_as_xyz
  1  'x, y, z'
loop_
 _atom_site_type_symbol
 _atom_site_label
 _atom_site_symmetry_multiplicity
 _atom_site_fract_x
 _atom_site_fract_y
 _atom_site_fract_z
 _atom_site_occupancy
  Er  Er0  1  0.013144  0.581403  0.500000  1
  Lu  Lu1  1  0.392483  0.392258  0.500000  1
  Lu  Lu2  1  0.582359  0.012940  0.500000  1
  Sc  Sc3  1  0.764400  0.765183  0.000000  1
  Ga  Ga4  1  0.248609  0.995050  0.000000  1
  Ga  Ga5  1  0.994378  0.247932  0.000000  1
  Ir  Ir6  1  0.660500  0.333501  0.000000  1
  Ir  Ir7  1  0.337720  0.663892  0.000000  1
  Ir  Ir8  1  0.006410  0.007843  0.500000  1
