# generated using pymatgen
data_TbDy(SiRu)2
_symmetry_space_group_name_H-M   'P 1'
_cell_length_a   4.35483700
_cell_length_b   7.02423069
_cell_length_c   7.10295369
_cell_angle_alpha   90.05069688
_cell_angle_beta   90.00000000
_cell_angle_gamma   90.00000000
_symmetry_Int_Tables_number   1
_chemical_formula_structural   TbDy(SiRu)2
_chemical_formula_sum   'Tb2 Dy2 Si4 Ru4'
_cell_volume   217.27486248
_cell_formula_units_Z   2
loop_
 _symmetry_equiv_pos_site_id
 _symmetry_equiv_pos_as_xyz
  1  'x, y, z'
loop_
 _atom_site_type_symbol
 _atom_site_label
 _atom_site_symmetry_multiplicity
 _atom_site_fract_x
 _atom_site_fract_y
 _atom_site_fract_z
 _atom_site_occupancy
  Tb  Tb0  1  0.250000  0.483664  0.685644  1
  Tb  Tb1  1  0.750000  0.516336  0.314356  1
  Dy  Dy2  1  0.250000  0.983709  0.813809  1
  Dy  Dy3  1  0.750000  0.016291  0.186191  1
  Si  Si4  1  0.250000  0.305333  0.105573  1
  Si  Si5  1  0.750000  0.694667  0.894427  1
  Si  Si6  1  0.250000  0.806475  0.394147  1
  Si  Si7  1  0.750000  0.193525  0.605853  1
  Ru  Ru8  1  0.750000  0.848216  0.568035  1
  Ru  Ru9  1  0.250000  0.151784  0.431965  1
  Ru  Ru10  1  0.750000  0.346960  0.932118  1
  Ru  Ru11  1  0.250000  0.653040  0.067882  1
