# generated using pymatgen
data_Ag3Pb(NO3)8
_symmetry_space_group_name_H-M   'P 1'
_cell_length_a   8.07293587
_cell_length_b   8.07293587
_cell_length_c   8.07293587
_cell_angle_alpha   89.82469150
_cell_angle_beta   89.82469150
_cell_angle_gamma   89.82469150
_symmetry_Int_Tables_number   1
_chemical_formula_structural   Ag3Pb(NO3)8
_chemical_formula_sum   'Ag3 Pb1 N8 O24'
_cell_volume   526.12437226
_cell_formula_units_Z   1
loop_
 _symmetry_equiv_pos_site_id
 _symmetry_equiv_pos_as_xyz
  1  'x, y, z'
loop_
 _atom_site_type_symbol
 _atom_site_label
 _atom_site_symmetry_multiplicity
 _atom_site_fract_x
 _atom_site_fract_y
 _atom_site_fract_z
 _atom_site_occupancy
  Ag  Ag0  1  0.000000  0.500000  0.500000  1
  Ag  Ag1  1  0.500000  0.500000  0.000000  1
  Ag  Ag2  1  0.500000  0.000000  0.500000  1
  Pb  Pb3  1  0.000000  0.000000  0.000000  1
  N  N4  1  0.333672  0.333672  0.333672  1
  N  N5  1  0.344638  0.185632  0.849907  1
  N  N6  1  0.185632  0.849907  0.344638  1
  N  N7  1  0.849907  0.344638  0.185632  1
  N  N8  1  0.666328  0.666328  0.666328  1
  N  N9  1  0.150093  0.655362  0.814368  1
  N  N10  1  0.814368  0.150093  0.655362  1
  N  N11  1  0.655362  0.814368  0.150093  1
  O  O12  1  0.756209  0.327185  0.063186  1
  O  O13  1  0.215927  0.963965  0.242104  1
  O  O14  1  0.281378  0.829248  0.469421  1
  O  O15  1  0.242104  0.215927  0.963965  1
  O  O16  1  0.233440  0.314482  0.452893  1
  O  O17  1  0.452893  0.233440  0.314482  1
  O  O18  1  0.314482  0.452893  0.233440  1
  O  O19  1  0.170752  0.530579  0.718622  1
  O  O20  1  0.936814  0.243791  0.672815  1
  O  O21  1  0.672815  0.936814  0.243791  1
  O  O22  1  0.036035  0.757896  0.784073  1
  O  O23  1  0.530579  0.718622  0.170752  1
  O  O24  1  0.784073  0.036035  0.757896  1
  O  O25  1  0.718622  0.170752  0.530579  1
  O  O26  1  0.757896  0.784073  0.036035  1
  O  O27  1  0.243791  0.672815  0.936814  1
  O  O28  1  0.766560  0.685518  0.547107  1
  O  O29  1  0.547107  0.766560  0.685518  1
  O  O30  1  0.685518  0.547107  0.766560  1
  O  O31  1  0.829248  0.469421  0.281378  1
  O  O32  1  0.063186  0.756209  0.327185  1
  O  O33  1  0.327185  0.063186  0.756209  1
  O  O34  1  0.963965  0.242104  0.215927  1
  O  O35  1  0.469421  0.281378  0.829248  1
