# generated using pymatgen
data_Ac8Ho12Ga15Si
_symmetry_space_group_name_H-M   'P 1'
_cell_length_a   7.78661200
_cell_length_b   8.15982636
_cell_length_c   15.68551100
_cell_angle_alpha   90.00000000
_cell_angle_beta   90.00000000
_cell_angle_gamma   89.84630202
_symmetry_Int_Tables_number   1
_chemical_formula_structural   Ac8Ho12Ga15Si
_chemical_formula_sum   'Ac8 Ho12 Ga15 Si1'
_cell_volume   996.61302973
_cell_formula_units_Z   1
loop_
 _symmetry_equiv_pos_site_id
 _symmetry_equiv_pos_as_xyz
  1  'x, y, z'
loop_
 _atom_site_type_symbol
 _atom_site_label
 _atom_site_symmetry_multiplicity
 _atom_site_fract_x
 _atom_site_fract_y
 _atom_site_fract_z
 _atom_site_occupancy
  Ac  Ac0  1  0.980551  0.823323  0.095107  1
  Ac  Ac1  1  0.480322  0.675877  0.405308  1
  Ac  Ac2  1  0.518785  0.324496  0.906094  1
  Ac  Ac3  1  0.019117  0.174064  0.595325  1
  Ac  Ac4  1  0.019117  0.174064  0.904675  1
  Ac  Ac5  1  0.518785  0.324496  0.593906  1
  Ac  Ac6  1  0.480322  0.675877  0.094692  1
  Ac  Ac7  1  0.980551  0.823323  0.404893  1
  Ho  Ho8  1  0.655348  0.994756  0.250000  1
  Ho  Ho9  1  0.155840  0.505994  0.250000  1
  Ho  Ho10  1  0.845696  0.496316  0.750000  1
  Ho  Ho11  1  0.343536  0.005197  0.750000  1
  Ho  Ho12  1  0.680453  0.825016  0.875931  1
  Ho  Ho13  1  0.175265  0.678241  0.624457  1
  Ho  Ho14  1  0.821982  0.324877  0.123230  1
  Ho  Ho15  1  0.321459  0.175882  0.376369  1
  Ho  Ho16  1  0.321459  0.175882  0.123631  1
  Ho  Ho17  1  0.821982  0.324877  0.376770  1
  Ho  Ho18  1  0.175265  0.678241  0.875543  1
  Ho  Ho19  1  0.680453  0.825016  0.624069  1
  Ga  Ga20  1  0.770875  0.615173  0.250000  1
  Ga  Ga21  1  0.271345  0.885348  0.250000  1
  Ga  Ga22  1  0.730004  0.112426  0.750000  1
  Ga  Ga23  1  0.230108  0.385259  0.750000  1
  Ga  Ga24  1  0.025517  0.119209  0.250000  1
  Ga  Ga25  1  0.526236  0.380655  0.250000  1
  Ga  Ga26  1  0.473396  0.620440  0.750000  1
  Ga  Ga27  1  0.853467  0.536848  0.958195  1
  Ga  Ga28  1  0.353016  0.962752  0.541948  1
  Ga  Ga29  1  0.647525  0.035330  0.040412  1
  Ga  Ga30  1  0.147819  0.463381  0.459831  1
  Ga  Ga31  1  0.147819  0.463381  0.040169  1
  Ga  Ga32  1  0.647525  0.035330  0.459588  1
  Ga  Ga33  1  0.353016  0.962752  0.958052  1
  Ga  Ga34  1  0.853467  0.536848  0.541805  1
  Si  Si35  1  0.972577  0.879056  0.750000  1
