# generated using pymatgen
data_Sm6Tc16F
_symmetry_space_group_name_H-M   'P 1'
_cell_length_a   8.15803862
_cell_length_b   8.15803885
_cell_length_c   8.15803900
_cell_angle_alpha   109.47121108
_cell_angle_beta   109.47121164
_cell_angle_gamma   109.47123257
_symmetry_Int_Tables_number   1
_chemical_formula_structural   Sm6Tc16F
_chemical_formula_sum   'Sm6 Tc16 F1'
_cell_volume   417.96069999
_cell_formula_units_Z   1
loop_
 _symmetry_equiv_pos_site_id
 _symmetry_equiv_pos_as_xyz
  1  'x, y, z'
loop_
 _atom_site_type_symbol
 _atom_site_label
 _atom_site_symmetry_multiplicity
 _atom_site_fract_x
 _atom_site_fract_y
 _atom_site_fract_z
 _atom_site_occupancy
  Sm  Sm0  1  0.273664  0.000000  0.273664  1
  Sm  Sm1  1  0.000000  0.273664  0.273664  1
  Sm  Sm2  1  0.000000  0.726336  0.726336  1
  Sm  Sm3  1  0.273664  0.273664  0.000000  1
  Sm  Sm4  1  0.726336  0.726336  0.000000  1
  Sm  Sm5  1  0.726336  0.000000  0.726336  1
  Tc  Tc6  1  0.000000  0.000000  0.500000  1
  Tc  Tc7  1  0.500000  0.000000  0.000000  1
  Tc  Tc8  1  0.000000  0.500000  0.000000  1
  Tc  Tc9  1  0.500000  0.500000  0.500000  1
  Tc  Tc10  1  0.339451  0.000000  0.660549  1
  Tc  Tc11  1  0.678903  0.339451  0.339451  1
  Tc  Tc12  1  0.000000  0.339451  0.660549  1
  Tc  Tc13  1  0.660549  0.660549  0.321097  1
  Tc  Tc14  1  0.339451  0.660549  0.000000  1
  Tc  Tc15  1  0.339451  0.678903  0.339451  1
  Tc  Tc16  1  0.660549  0.321097  0.660549  1
  Tc  Tc17  1  0.339451  0.339451  0.678903  1
  Tc  Tc18  1  0.321097  0.660549  0.660549  1
  Tc  Tc19  1  0.660549  0.339451  0.000000  1
  Tc  Tc20  1  0.000000  0.660549  0.339451  1
  Tc  Tc21  1  0.660549  0.000000  0.339451  1
  F  F22  1  0.000000  0.000000  0.000000  1
