# generated using pymatgen
data_Cs2ErPa(AgSe3)2
_symmetry_space_group_name_H-M   'P 1'
_cell_length_a   8.32813341
_cell_length_b   8.32813369
_cell_length_c   10.89724546
_cell_angle_alpha   88.98328251
_cell_angle_beta   88.98328319
_cell_angle_gamma   29.92012578
_symmetry_Int_Tables_number   1
_chemical_formula_structural   Cs2ErPa(AgSe3)2
_chemical_formula_sum   'Cs2 Er1 Pa1 Ag2 Se6'
_cell_volume   376.92808599
_cell_formula_units_Z   1
loop_
 _symmetry_equiv_pos_site_id
 _symmetry_equiv_pos_as_xyz
  1  'x, y, z'
loop_
 _atom_site_type_symbol
 _atom_site_label
 _atom_site_symmetry_multiplicity
 _atom_site_fract_x
 _atom_site_fract_y
 _atom_site_fract_z
 _atom_site_occupancy
  Cs  Cs0  1  0.746023  0.746023  0.230803  1
  Cs  Cs1  1  0.253977  0.253977  0.769196  1
  Er  Er2  1  0.000000  0.000000  0.000000  1
  Pa  Pa3  1  0.000000  0.000000  0.500000  1
  Ag  Ag4  1  0.460850  0.460850  0.248970  1
  Ag  Ag5  1  0.539149  0.539149  0.751029  1
  Se  Se6  1  0.383705  0.383705  0.042195  1
  Se  Se7  1  0.614153  0.614153  0.534982  1
  Se  Se8  1  0.616295  0.616295  0.957805  1
  Se  Se9  1  0.385847  0.385847  0.465017  1
  Se  Se10  1  0.060213  0.060213  0.259690  1
  Se  Se11  1  0.939786  0.939786  0.740309  1
