# generated using pymatgen
data_Ti10Ga2Si4O
_symmetry_space_group_name_H-M   'P 1'
_cell_length_a   7.51111406
_cell_length_b   7.49430076
_cell_length_c   5.16497417
_cell_angle_alpha   90.10511054
_cell_angle_beta   89.94756130
_cell_angle_gamma   119.92598108
_symmetry_Int_Tables_number   1
_chemical_formula_structural   Ti10Ga2Si4O
_chemical_formula_sum   'Ti10 Ga2 Si4 O1'
_cell_volume   251.97472020
_cell_formula_units_Z   1
loop_
 _symmetry_equiv_pos_site_id
 _symmetry_equiv_pos_as_xyz
  1  'x, y, z'
loop_
 _atom_site_type_symbol
 _atom_site_label
 _atom_site_symmetry_multiplicity
 _atom_site_fract_x
 _atom_site_fract_y
 _atom_site_fract_z
 _atom_site_occupancy
  Ti  Ti0  1  0.000000  0.758160  0.254707  1
  Ti  Ti1  1  0.238450  0.238677  0.254988  1
  Ti  Ti2  1  0.761550  0.000227  0.254988  1
  Ti  Ti3  1  0.000000  0.241938  0.744369  1
  Ti  Ti4  1  0.765641  0.760483  0.745814  1
  Ti  Ti5  1  0.234359  0.994843  0.745814  1
  Ti  Ti6  1  0.330041  0.666259  0.496935  1
  Ti  Ti7  1  0.669959  0.336217  0.496935  1
  Ti  Ti8  1  0.669579  0.336015  0.002709  1
  Ti  Ti9  1  0.330421  0.666438  0.002709  1
  Ga  Ga10  1  0.399590  0.398804  0.754145  1
  Ga  Ga11  1  0.600410  0.999214  0.754145  1
  Si  Si12  1  0.000000  0.397690  0.244568  1
  Si  Si13  1  0.600869  0.602707  0.245279  1
  Si  Si14  1  0.399131  0.001839  0.245279  1
  Si  Si15  1  0.000000  0.599708  0.756127  1
  O  O16  1  0.000000  0.000782  0.500490  1
