# generated using pymatgen
data_K3Zn5F15
_symmetry_space_group_name_H-M   'P 1'
_cell_length_a   3.92205500
_cell_length_b   12.65213000
_cell_length_c   12.70204700
_cell_angle_alpha   90.00000000
_cell_angle_beta   90.00000000
_cell_angle_gamma   90.00000000
_symmetry_Int_Tables_number   1
_chemical_formula_structural   K3Zn5F15
_chemical_formula_sum   'K6 Zn10 F30'
_cell_volume   630.30541848
_cell_formula_units_Z   2
loop_
 _symmetry_equiv_pos_site_id
 _symmetry_equiv_pos_as_xyz
  1  'x, y, z'
loop_
 _atom_site_type_symbol
 _atom_site_label
 _atom_site_symmetry_multiplicity
 _atom_site_fract_x
 _atom_site_fract_y
 _atom_site_fract_z
 _atom_site_occupancy
  K  K0  1  0.963458  0.500000  0.500000  1
  K  K1  1  0.963458  0.000000  0.000000  1
  K  K2  1  0.960385  0.171578  0.328914  1
  K  K3  1  0.960385  0.828422  0.671086  1
  K  K4  1  0.960385  0.671578  0.171086  1
  K  K5  1  0.960385  0.328422  0.828914  1
  Zn  Zn6  1  0.454407  0.000000  0.500000  1
  Zn  Zn7  1  0.454407  0.500000  0.000000  1
  Zn  Zn8  1  0.461864  0.714033  0.424577  1
  Zn  Zn9  1  0.461864  0.285967  0.575423  1
  Zn  Zn10  1  0.461864  0.214033  0.075423  1
  Zn  Zn11  1  0.461864  0.785967  0.924577  1
  Zn  Zn12  1  0.461920  0.575407  0.714016  1
  Zn  Zn13  1  0.461920  0.424593  0.285984  1
  Zn  Zn14  1  0.461920  0.075407  0.785984  1
  Zn  Zn15  1  0.461920  0.924593  0.214016  1
  F  F16  1  0.954487  0.000000  0.500000  1
  F  F17  1  0.954487  0.500000  0.000000  1
  F  F18  1  0.961839  0.706959  0.424411  1
  F  F19  1  0.961839  0.293041  0.575589  1
  F  F20  1  0.961839  0.206959  0.075589  1
  F  F21  1  0.961839  0.793041  0.924411  1
  F  F22  1  0.462828  0.279652  0.220200  1
  F  F23  1  0.462828  0.720348  0.779800  1
  F  F24  1  0.462828  0.779652  0.279800  1
  F  F25  1  0.462828  0.220348  0.720200  1
  F  F26  1  0.961900  0.575898  0.706545  1
  F  F27  1  0.961900  0.424102  0.293455  1
  F  F28  1  0.961900  0.075898  0.793455  1
  F  F29  1  0.961900  0.924102  0.206545  1
  F  F30  1  0.455951  0.510426  0.156741  1
  F  F31  1  0.455951  0.489574  0.843259  1
  F  F32  1  0.455951  0.010426  0.343259  1
  F  F33  1  0.455951  0.989574  0.656741  1
  F  F34  1  0.455958  0.843902  0.509665  1
  F  F35  1  0.455958  0.156098  0.490335  1
  F  F36  1  0.455958  0.343902  0.990335  1
  F  F37  1  0.455958  0.656098  0.009665  1
  F  F38  1  0.463353  0.569413  0.359497  1
  F  F39  1  0.463353  0.430587  0.640503  1
  F  F40  1  0.463353  0.069413  0.140503  1
  F  F41  1  0.463353  0.930587  0.859497  1
  F  F42  1  0.463325  0.641498  0.569859  1
  F  F43  1  0.463325  0.358502  0.430141  1
  F  F44  1  0.463325  0.141498  0.930141  1
  F  F45  1  0.463325  0.858502  0.069859  1
