# generated using pymatgen
data_Y2Pa(AlPt)3
_symmetry_space_group_name_H-M   'P 1'
_cell_length_a   7.20322985
_cell_length_b   7.20323031
_cell_length_c   4.00658900
_cell_angle_alpha   90.00000000
_cell_angle_beta   90.00000000
_cell_angle_gamma   119.81818557
_symmetry_Int_Tables_number   1
_chemical_formula_structural   Y2Pa(AlPt)3
_chemical_formula_sum   'Y2 Pa1 Al3 Pt3'
_cell_volume   180.36520166
_cell_formula_units_Z   1
loop_
 _symmetry_equiv_pos_site_id
 _symmetry_equiv_pos_as_xyz
  1  'x, y, z'
loop_
 _atom_site_type_symbol
 _atom_site_label
 _atom_site_symmetry_multiplicity
 _atom_site_fract_x
 _atom_site_fract_y
 _atom_site_fract_z
 _atom_site_occupancy
  Y  Y0  1  0.583864  0.999159  0.500000  1
  Y  Y1  1  0.999159  0.583864  0.500000  1
  Pa  Pa2  1  0.421266  0.421266  0.500000  1
  Al  Al3  1  0.993291  0.240181  0.000000  1
  Al  Al4  1  0.768223  0.768223  0.000000  1
  Al  Al5  1  0.240181  0.993291  0.000000  1
  Pt  Pt6  1  0.649185  0.334594  0.000000  1
  Pt  Pt7  1  0.010237  0.010237  0.500000  1
  Pt  Pt8  1  0.334594  0.649185  0.000000  1
