# generated using pymatgen
data_LiSc2UAs6Ru7
_symmetry_space_group_name_H-M   'P 1'
_cell_length_a   7.04673210
_cell_length_b   7.14318143
_cell_length_c   7.04011930
_cell_angle_alpha   109.56031694
_cell_angle_beta   109.25907542
_cell_angle_gamma   109.85257640
_symmetry_Int_Tables_number   1
_chemical_formula_structural   LiSc2UAs6Ru7
_chemical_formula_sum   'Li1 Sc2 U1 As6 Ru7'
_cell_volume   271.91715718
_cell_formula_units_Z   1
loop_
 _symmetry_equiv_pos_site_id
 _symmetry_equiv_pos_as_xyz
  1  'x, y, z'
loop_
 _atom_site_type_symbol
 _atom_site_label
 _atom_site_symmetry_multiplicity
 _atom_site_fract_x
 _atom_site_fract_y
 _atom_site_fract_z
 _atom_site_occupancy
  Li  Li0  1  0.000000  0.500000  0.000000  1
  Sc  Sc1  1  0.500000  0.000000  0.000000  1
  Sc  Sc2  1  0.500000  0.500000  0.500000  1
  U  U3  1  0.000000  0.000000  0.500000  1
  As  As4  1  0.310192  0.990365  0.301898  1
  As  As5  1  0.000000  0.320397  0.302027  1
  As  As6  1  0.000000  0.679603  0.697973  1
  As  As7  1  0.310192  0.319827  0.008294  1
  As  As8  1  0.689808  0.680173  0.991706  1
  As  As9  1  0.689808  0.009635  0.698102  1
  Ru  Ru10  1  0.751558  0.504793  0.251929  1
  Ru  Ru11  1  0.508108  0.754054  0.254054  1
  Ru  Ru12  1  0.491892  0.245946  0.745946  1
  Ru  Ru13  1  0.751558  0.246765  0.499629  1
  Ru  Ru14  1  0.248442  0.753235  0.500371  1
  Ru  Ru15  1  0.248442  0.495207  0.748071  1
  Ru  Ru16  1  0.000000  0.000000  0.000000  1
