# generated using pymatgen
data_Er12Fe3CoSnAu
_symmetry_space_group_name_H-M   'P 1'
_cell_length_a   8.26968321
_cell_length_b   8.26968447
_cell_length_c   8.26968345
_cell_angle_alpha   110.96497713
_cell_angle_beta   110.38358135
_cell_angle_gamma   107.09154195
_symmetry_Int_Tables_number   1
_chemical_formula_structural   Er12Fe3CoSnAu
_chemical_formula_sum   'Er12 Fe3 Co1 Sn1 Au1'
_cell_volume   434.78429026
_cell_formula_units_Z   1
loop_
 _symmetry_equiv_pos_site_id
 _symmetry_equiv_pos_as_xyz
  1  'x, y, z'
loop_
 _atom_site_type_symbol
 _atom_site_label
 _atom_site_symmetry_multiplicity
 _atom_site_fract_x
 _atom_site_fract_y
 _atom_site_fract_z
 _atom_site_occupancy
  Er  Er0  1  0.311334  0.614536  0.299967  1
  Er  Er1  1  0.685432  0.385465  0.696798  1
  Er  Er2  1  0.311334  0.011368  0.696798  1
  Er  Er3  1  0.685432  0.988632  0.299967  1
  Er  Er4  1  0.423966  0.216289  0.207678  1
  Er  Er5  1  0.571682  0.780299  0.791383  1
  Er  Er6  1  0.011084  0.219701  0.791383  1
  Er  Er7  1  0.991389  0.783711  0.207678  1
  Er  Er8  1  0.186804  0.291725  0.478529  1
  Er  Er9  1  0.811786  0.707328  0.519114  1
  Er  Er10  1  0.186804  0.708275  0.895081  1
  Er  Er11  1  0.811786  0.292672  0.104458  1
  Fe  Fe12  1  0.108571  0.608691  0.499880  1
  Fe  Fe13  1  0.891189  0.391310  0.499880  1
  Fe  Fe14  1  0.391291  0.000000  0.391291  1
  Co  Co15  1  0.623588  0.000000  0.623588  1
  Sn  Sn16  1  0.499278  0.500000  0.999278  1
  Au  Au17  1  0.997248  0.000000  0.997248  1
