# generated using pymatgen
data_Tb9HoIn8Ni3Ag
_symmetry_space_group_name_H-M   'P 1'
_cell_length_a   8.13071874
_cell_length_b   18.21075968
_cell_length_c   3.59350500
_cell_angle_alpha   90.00000000
_cell_angle_beta   90.00000000
_cell_angle_gamma   89.94432889
_symmetry_Int_Tables_number   1
_chemical_formula_structural   Tb9HoIn8Ni3Ag
_chemical_formula_sum   'Tb9 Ho1 In8 Ni3 Ag1'
_cell_volume   532.07769048
_cell_formula_units_Z   1
loop_
 _symmetry_equiv_pos_site_id
 _symmetry_equiv_pos_as_xyz
  1  'x, y, z'
loop_
 _atom_site_type_symbol
 _atom_site_label
 _atom_site_symmetry_multiplicity
 _atom_site_fract_x
 _atom_site_fract_y
 _atom_site_fract_z
 _atom_site_occupancy
  Tb  Tb0  1  0.499392  0.501796  0.000000  1
  Tb  Tb1  1  0.001036  0.997940  0.000000  1
  Tb  Tb2  1  0.763607  0.288132  0.000000  1
  Tb  Tb3  1  0.253124  0.719784  0.000000  1
  Tb  Tb4  1  0.754920  0.777339  0.000000  1
  Tb  Tb5  1  0.219683  0.222605  0.000000  1
  Tb  Tb6  1  0.623969  0.075245  0.000000  1
  Tb  Tb7  1  0.382912  0.908675  0.000000  1
  Tb  Tb8  1  0.882960  0.589831  0.000000  1
  Ho  Ho9  1  0.120336  0.415002  0.000000  1
  In  In10  1  0.707438  0.926132  0.500000  1
  In  In11  1  0.293507  0.066741  0.500000  1
  In  In12  1  0.799669  0.437212  0.500000  1
  In  In13  1  0.203979  0.569293  0.500000  1
  In  In14  1  0.571619  0.652311  0.500000  1
  In  In15  1  0.422774  0.351252  0.500000  1
  In  In16  1  0.916687  0.151117  0.500000  1
  In  In17  1  0.072358  0.846170  0.500000  1
  Ni  Ni18  1  0.476341  0.801557  0.500000  1
  Ni  Ni19  1  0.976673  0.696448  0.500000  1
  Ni  Ni20  1  0.028095  0.306659  0.500000  1
  Ag  Ag21  1  0.528920  0.198759  0.500000  1
