# generated using pymatgen
data_DyHo15(In3Rh)2
_symmetry_space_group_name_H-M   'P 1'
_cell_length_a   10.39281500
_cell_length_b   10.39369481
_cell_length_c   7.00458400
_cell_angle_alpha   90.00077004
_cell_angle_beta   90.00000000
_cell_angle_gamma   119.99719670
_symmetry_Int_Tables_number   1
_chemical_formula_structural   DyHo15(In3Rh)2
_chemical_formula_sum   'Dy1 Ho15 In6 Rh2'
_cell_volume   655.28224947
_cell_formula_units_Z   1
loop_
 _symmetry_equiv_pos_site_id
 _symmetry_equiv_pos_as_xyz
  1  'x, y, z'
loop_
 _atom_site_type_symbol
 _atom_site_label
 _atom_site_symmetry_multiplicity
 _atom_site_fract_x
 _atom_site_fract_y
 _atom_site_fract_z
 _atom_site_occupancy
  Dy  Dy0  1  0.532999  0.066000  0.507277  1
  Ho  Ho1  1  0.933812  0.466928  0.507583  1
  Ho  Ho2  1  0.533116  0.466928  0.507583  1
  Ho  Ho3  1  0.466731  0.933462  0.007474  1
  Ho  Ho4  1  0.066285  0.533136  0.007623  1
  Ho  Ho5  1  0.466851  0.533136  0.007623  1
  Ho  Ho6  1  0.176352  0.352703  0.712491  1
  Ho  Ho7  1  0.647462  0.823549  0.712670  1
  Ho  Ho8  1  0.176088  0.823549  0.712670  1
  Ho  Ho9  1  0.823688  0.647377  0.212450  1
  Ho  Ho10  1  0.352578  0.176406  0.212287  1
  Ho  Ho11  1  0.823827  0.176406  0.212287  1
  Ho  Ho12  1  0.666768  0.333536  0.887826  1
  Ho  Ho13  1  0.333228  0.666456  0.387653  1
  Ho  Ho14  1  0.999986  0.999972  0.492864  1
  Ho  Ho15  1  0.000026  0.000052  0.992978  1
  In  In16  1  0.837265  0.674530  0.752317  1
  In  In17  1  0.325274  0.162686  0.752348  1
  In  In18  1  0.837412  0.162686  0.752348  1
  In  In19  1  0.162709  0.325419  0.252291  1
  In  In20  1  0.674569  0.837304  0.252202  1
  In  In21  1  0.162734  0.837304  0.252202  1
  Rh  Rh22  1  0.666922  0.333844  0.281425  1
  Rh  Rh23  1  0.333317  0.666634  0.781572  1
