# generated using pymatgen
data_Zr4Si3Ge(RhAu)2
_symmetry_space_group_name_H-M   'P 1'
_cell_length_a   3.97349100
_cell_length_b   6.72620310
_cell_length_c   7.71447501
_cell_angle_alpha   89.06128268
_cell_angle_beta   90.00000000
_cell_angle_gamma   90.00000000
_symmetry_Int_Tables_number   1
_chemical_formula_structural   Zr4Si3Ge(RhAu)2
_chemical_formula_sum   'Zr4 Si3 Ge1 Rh2 Au2'
_cell_volume   206.15330265
_cell_formula_units_Z   1
loop_
 _symmetry_equiv_pos_site_id
 _symmetry_equiv_pos_as_xyz
  1  'x, y, z'
loop_
 _atom_site_type_symbol
 _atom_site_label
 _atom_site_symmetry_multiplicity
 _atom_site_fract_x
 _atom_site_fract_y
 _atom_site_fract_z
 _atom_site_occupancy
  Zr  Zr0  1  0.250000  0.523740  0.685116  1
  Zr  Zr1  1  0.750000  0.477985  0.314633  1
  Zr  Zr2  1  0.250000  0.022736  0.825691  1
  Zr  Zr3  1  0.750000  0.972588  0.174820  1
  Si  Si4  1  0.750000  0.727658  0.893284  1
  Si  Si5  1  0.250000  0.752162  0.362239  1
  Si  Si6  1  0.750000  0.248410  0.635836  1
  Ge  Ge7  1  0.250000  0.268115  0.110213  1
  Rh  Rh8  1  0.750000  0.363698  0.932350  1
  Rh  Rh9  1  0.250000  0.647253  0.058244  1
  Au  Au10  1  0.750000  0.846125  0.565863  1
  Au  Au11  1  0.250000  0.149530  0.441711  1
