# generated using pymatgen
data_Tm7Lu(V3Si4)4
_symmetry_space_group_name_H-M   'P 1'
_cell_length_a   6.62579200
_cell_length_b   6.82090323
_cell_length_c   12.81565800
_cell_angle_alpha   89.98714639
_cell_angle_beta   89.99837712
_cell_angle_gamma   89.99254134
_symmetry_Int_Tables_number   1
_chemical_formula_structural   Tm7Lu(V3Si4)4
_chemical_formula_sum   'Tm7 Lu1 V12 Si16'
_cell_volume   579.18936773
_cell_formula_units_Z   1
loop_
 _symmetry_equiv_pos_site_id
 _symmetry_equiv_pos_as_xyz
  1  'x, y, z'
loop_
 _atom_site_type_symbol
 _atom_site_label
 _atom_site_symmetry_multiplicity
 _atom_site_fract_x
 _atom_site_fract_y
 _atom_site_fract_z
 _atom_site_occupancy
  Tm  Tm0  1  0.499659  0.330766  0.095318  1
  Tm  Tm1  1  0.999636  0.169088  0.404665  1
  Tm  Tm2  1  0.500425  0.669028  0.595364  1
  Tm  Tm3  1  0.000256  0.830816  0.904905  1
  Tm  Tm4  1  0.500312  0.669152  0.904889  1
  Tm  Tm5  1  0.000321  0.830891  0.595372  1
  Tm  Tm6  1  0.499697  0.330775  0.404425  1
  Lu  Lu7  1  0.999137  0.169356  0.095361  1
  V  V8  1  0.836036  0.328377  0.626839  1
  V  V9  1  0.335921  0.171606  0.873347  1
  V  V10  1  0.164055  0.671688  0.126684  1
  V  V11  1  0.664270  0.828656  0.373035  1
  V  V12  1  0.163919  0.671472  0.373059  1
  V  V13  1  0.664218  0.828690  0.126586  1
  V  V14  1  0.836273  0.328082  0.873428  1
  V  V15  1  0.336109  0.171622  0.626810  1
  V  V16  1  0.662668  0.012865  0.750133  1
  V  V17  1  0.162556  0.486976  0.750119  1
  V  V18  1  0.337335  0.987458  0.249788  1
  V  V19  1  0.837551  0.512930  0.249896  1
  Si  Si20  1  0.660715  0.043038  0.544063  1
  Si  Si21  1  0.160576  0.456598  0.956227  1
  Si  Si22  1  0.338442  0.957779  0.044203  1
  Si  Si23  1  0.839106  0.542968  0.455882  1
  Si  Si24  1  0.339507  0.957054  0.455818  1
  Si  Si25  1  0.839411  0.542193  0.044270  1
  Si  Si26  1  0.660966  0.043011  0.956210  1
  Si  Si27  1  0.160625  0.457022  0.544089  1
  Si  Si28  1  0.537481  0.367958  0.750144  1
  Si  Si29  1  0.037179  0.131973  0.750051  1
  Si  Si30  1  0.462906  0.632180  0.249831  1
  Si  Si31  1  0.962694  0.868576  0.249665  1
  Si  Si32  1  0.802294  0.620785  0.750162  1
  Si  Si33  1  0.302225  0.878986  0.750112  1
  Si  Si34  1  0.197327  0.378366  0.249611  1
  Si  Si35  1  0.698194  0.121219  0.249638  1
