# generated using pymatgen
data_TbY6(LuSi2)3
_symmetry_space_group_name_H-M   'P 1'
_cell_length_a   8.40868500
_cell_length_b   8.40868577
_cell_length_c   6.28871000
_cell_angle_alpha   90.00000000
_cell_angle_beta   90.00000000
_cell_angle_gamma   119.99999304
_symmetry_Int_Tables_number   1
_chemical_formula_structural   TbY6(LuSi2)3
_chemical_formula_sum   'Tb1 Y6 Lu3 Si6'
_cell_volume   385.07776014
_cell_formula_units_Z   1
loop_
 _symmetry_equiv_pos_site_id
 _symmetry_equiv_pos_as_xyz
  1  'x, y, z'
loop_
 _atom_site_type_symbol
 _atom_site_label
 _atom_site_symmetry_multiplicity
 _atom_site_fract_x
 _atom_site_fract_y
 _atom_site_fract_z
 _atom_site_occupancy
  Tb  Tb0  1  0.333333  0.666667  0.500000  1
  Y  Y1  1  0.999591  0.755355  0.751266  1
  Y  Y2  1  0.999591  0.244236  0.248734  1
  Y  Y3  1  0.755764  0.755355  0.248734  1
  Y  Y4  1  0.755764  0.000409  0.751266  1
  Y  Y5  1  0.244645  0.244236  0.751266  1
  Y  Y6  1  0.244645  0.000409  0.248734  1
  Lu  Lu7  1  0.666667  0.333333  0.000000  1
  Lu  Lu8  1  0.666667  0.333333  0.500000  1
  Lu  Lu9  1  0.333333  0.666667  0.000000  1
  Si  Si10  1  0.396495  0.002634  0.753670  1
  Si  Si11  1  0.396495  0.393861  0.246330  1
  Si  Si12  1  0.997366  0.603505  0.246330  1
  Si  Si13  1  0.997366  0.393861  0.753670  1
  Si  Si14  1  0.606139  0.603505  0.753670  1
  Si  Si15  1  0.606139  0.002634  0.246330  1
