# generated using pymatgen
data_Tm4B8Ru9W
_symmetry_space_group_name_H-M   'P 1'
_cell_length_a   3.07578500
_cell_length_b   8.74795689
_cell_length_c   10.17657824
_cell_angle_alpha   90.31481398
_cell_angle_beta   90.00000000
_cell_angle_gamma   90.00000000
_symmetry_Int_Tables_number   1
_chemical_formula_structural   Tm4B8Ru9W
_chemical_formula_sum   'Tm4 B8 Ru9 W1'
_cell_volume   273.81537406
_cell_formula_units_Z   1
loop_
 _symmetry_equiv_pos_site_id
 _symmetry_equiv_pos_as_xyz
  1  'x, y, z'
loop_
 _atom_site_type_symbol
 _atom_site_label
 _atom_site_symmetry_multiplicity
 _atom_site_fract_x
 _atom_site_fract_y
 _atom_site_fract_z
 _atom_site_occupancy
  Tm  Tm0  1  0.500000  0.840921  0.180998  1
  Tm  Tm1  1  0.500000  0.160559  0.819231  1
  Tm  Tm2  1  0.500000  0.662055  0.681770  1
  Tm  Tm3  1  0.500000  0.340625  0.316219  1
  B  B4  1  0.500000  0.967879  0.588604  1
  B  B5  1  0.500000  0.033663  0.410514  1
  B  B6  1  0.500000  0.849211  0.902056  1
  B  B7  1  0.500000  0.148240  0.098048  1
  B  B8  1  0.500000  0.644885  0.399540  1
  B  B9  1  0.500000  0.352007  0.600909  1
  B  B10  1  0.500000  0.465683  0.913794  1
  B  B11  1  0.500000  0.533783  0.087387  1
  Ru  Ru12  1  0.000000  0.335772  0.048643  1
  Ru  Ru13  1  0.000000  0.842576  0.453336  1
  Ru  Ru14  1  0.000000  0.158482  0.544663  1
  Ru  Ru15  1  0.000000  0.000931  0.999895  1
  Ru  Ru16  1  0.000000  0.408015  0.760923  1
  Ru  Ru17  1  0.000000  0.593819  0.239942  1
  Ru  Ru18  1  0.000000  0.499288  0.500656  1
  Ru  Ru19  1  0.000000  0.910316  0.737278  1
  Ru  Ru20  1  0.000000  0.092620  0.260891  1
  W  W21  1  0.000000  0.658667  0.954703  1
