# generated using pymatgen
data_HfZrCo12SiP6
_symmetry_space_group_name_H-M   'P 1'
_cell_length_a   8.93119300
_cell_length_b   8.93119150
_cell_length_c   3.55444800
_cell_angle_alpha   90.00000000
_cell_angle_beta   90.00000000
_cell_angle_gamma   120.00000927
_symmetry_Int_Tables_number   1
_chemical_formula_structural   HfZrCo12SiP6
_chemical_formula_sum   'Hf1 Zr1 Co12 Si1 P6'
_cell_volume   245.53964972
_cell_formula_units_Z   1
loop_
 _symmetry_equiv_pos_site_id
 _symmetry_equiv_pos_as_xyz
  1  'x, y, z'
loop_
 _atom_site_type_symbol
 _atom_site_label
 _atom_site_symmetry_multiplicity
 _atom_site_fract_x
 _atom_site_fract_y
 _atom_site_fract_z
 _atom_site_occupancy
  Hf  Hf0  1  0.666667  0.333333  0.500000  1
  Zr  Zr1  1  0.333333  0.666667  0.000000  1
  Co  Co2  1  0.438644  0.065451  0.000000  1
  Co  Co3  1  0.934549  0.373194  0.000000  1
  Co  Co4  1  0.626806  0.561356  0.000000  1
  Co  Co5  1  0.387918  0.439211  0.500000  1
  Co  Co6  1  0.560789  0.948705  0.500000  1
  Co  Co7  1  0.051295  0.612082  0.500000  1
  Co  Co8  1  0.162195  0.285083  0.000000  1
  Co  Co9  1  0.714917  0.877112  0.000000  1
  Co  Co10  1  0.122888  0.837805  0.000000  1
  Co  Co11  1  0.234137  0.101224  0.500000  1
  Co  Co12  1  0.898776  0.132912  0.500000  1
  Co  Co13  1  0.867088  0.765863  0.500000  1
  Si  Si14  1  0.000000  0.000000  0.000000  1
  P  P15  1  0.116691  0.405659  0.500000  1
  P  P16  1  0.594341  0.711032  0.500000  1
  P  P17  1  0.288968  0.883309  0.500000  1
  P  P18  1  0.409876  0.292838  0.000000  1
  P  P19  1  0.707162  0.117040  0.000000  1
  P  P20  1  0.882960  0.590124  0.000000  1
