# generated using pymatgen
data_Tm3Tl3Ag2Ir
_symmetry_space_group_name_H-M   'P 1'
_cell_length_a   7.99830000
_cell_length_b   7.99830088
_cell_length_c   3.63423400
_cell_angle_alpha   90.00000000
_cell_angle_beta   90.00000000
_cell_angle_gamma   119.99999637
_symmetry_Int_Tables_number   1
_chemical_formula_structural   Tm3Tl3Ag2Ir
_chemical_formula_sum   'Tm3 Tl3 Ag2 Ir1'
_cell_volume   201.34412483
_cell_formula_units_Z   1
loop_
 _symmetry_equiv_pos_site_id
 _symmetry_equiv_pos_as_xyz
  1  'x, y, z'
loop_
 _atom_site_type_symbol
 _atom_site_label
 _atom_site_symmetry_multiplicity
 _atom_site_fract_x
 _atom_site_fract_y
 _atom_site_fract_z
 _atom_site_occupancy
  Tm  Tm0  1  0.963397  0.381023  0.500000  1
  Tm  Tm1  1  0.618977  0.582376  0.500000  1
  Tm  Tm2  1  0.417624  0.036603  0.500000  1
  Tl  Tl3  1  0.269729  0.283751  0.000000  1
  Tl  Tl4  1  0.014024  0.730271  0.000000  1
  Tl  Tl5  1  0.716249  0.985976  0.000000  1
  Ag  Ag6  1  0.333333  0.666667  0.000000  1
  Ag  Ag7  1  0.000000  0.000000  0.500000  1
  Ir  Ir8  1  0.666667  0.333333  0.000000  1
