# generated using pymatgen
data_VNi3(SeS)2
_symmetry_space_group_name_H-M   'P 1'
_cell_length_a   5.34087044
_cell_length_b   5.34087043
_cell_length_c   5.34386800
_cell_angle_alpha   90.00000000
_cell_angle_beta   90.00000000
_cell_angle_gamma   90.53380099
_symmetry_Int_Tables_number   1
_chemical_formula_structural   VNi3(SeS)2
_chemical_formula_sum   'V1 Ni3 Se2 S2'
_cell_volume   152.42666877
_cell_formula_units_Z   1
loop_
 _symmetry_equiv_pos_site_id
 _symmetry_equiv_pos_as_xyz
  1  'x, y, z'
loop_
 _atom_site_type_symbol
 _atom_site_label
 _atom_site_symmetry_multiplicity
 _atom_site_fract_x
 _atom_site_fract_y
 _atom_site_fract_z
 _atom_site_occupancy
  V  V0  1  0.000000  0.000000  0.995652  1
  Ni  Ni1  1  0.500000  0.000000  0.017921  1
  Ni  Ni2  1  0.000000  0.500000  0.017921  1
  Ni  Ni3  1  0.000000  0.000000  0.491086  1
  Se  Se4  1  0.741882  0.741882  0.748422  1
  Se  Se5  1  0.258118  0.258118  0.748422  1
  S  S6  1  0.234827  0.765173  0.240288  1
  S  S7  1  0.765173  0.234827  0.240288  1
