# generated using pymatgen
data_CaY(FeO3)2
_symmetry_space_group_name_H-M   'P 1'
_cell_length_a   5.36756975
_cell_length_b   5.57734115
_cell_length_c   7.64563128
_cell_angle_alpha   90.00347835
_cell_angle_beta   89.97926384
_cell_angle_gamma   89.79584557
_symmetry_Int_Tables_number   1
_chemical_formula_structural   CaY(FeO3)2
_chemical_formula_sum   'Ca2 Y2 Fe4 O12'
_cell_volume   228.88401881
_cell_formula_units_Z   2
loop_
 _symmetry_equiv_pos_site_id
 _symmetry_equiv_pos_as_xyz
  1  'x, y, z'
loop_
 _atom_site_type_symbol
 _atom_site_label
 _atom_site_symmetry_multiplicity
 _atom_site_fract_x
 _atom_site_fract_y
 _atom_site_fract_z
 _atom_site_occupancy
  Ca  Ca0  1  0.986555  0.056309  0.750092  1
  Ca  Ca1  1  0.013395  0.943648  0.249931  1
  Y  Y2  1  0.515317  0.563609  0.750025  1
  Y  Y3  1  0.484720  0.436459  0.249933  1
  Fe  Fe4  1  0.000026  0.499974  0.000030  1
  Fe  Fe5  1  0.000012  0.499993  0.499981  1
  Fe  Fe6  1  0.500002  0.000001  0.500005  1
  Fe  Fe7  1  0.499969  0.000014  0.999977  1
  O  O8  1  0.409166  0.967545  0.749957  1
  O  O9  1  0.901038  0.526445  0.249887  1
  O  O10  1  0.098990  0.473543  0.750105  1
  O  O11  1  0.590827  0.032467  0.250036  1
  O  O12  1  0.209582  0.208839  0.052174  1
  O  O13  1  0.209389  0.209208  0.447795  1
  O  O14  1  0.696024  0.304644  0.953248  1
  O  O15  1  0.790557  0.790775  0.552210  1
  O  O16  1  0.303516  0.695208  0.453291  1
  O  O17  1  0.790461  0.791150  0.947833  1
  O  O18  1  0.696474  0.304798  0.546721  1
  O  O19  1  0.303980  0.695371  0.046765  1
