# generated using pymatgen
data_Nd7As12Pd15Pt2
_symmetry_space_group_name_H-M   'P 1'
_cell_length_a   12.76622857
_cell_length_b   12.76622866
_cell_length_c   13.98560483
_cell_angle_alpha   68.72343405
_cell_angle_beta   68.72343405
_cell_angle_gamma   18.90059392
_symmetry_Int_Tables_number   1
_chemical_formula_structural   Nd7As12Pd15Pt2
_chemical_formula_sum   'Nd7 As12 Pd15 Pt2'
_cell_volume   686.56382322
_cell_formula_units_Z   1
loop_
 _symmetry_equiv_pos_site_id
 _symmetry_equiv_pos_as_xyz
  1  'x, y, z'
loop_
 _atom_site_type_symbol
 _atom_site_label
 _atom_site_symmetry_multiplicity
 _atom_site_fract_x
 _atom_site_fract_y
 _atom_site_fract_z
 _atom_site_occupancy
  Nd  Nd0  1  0.500000  0.500000  0.500000  1
  Nd  Nd1  1  0.367319  0.367319  0.001658  1
  Nd  Nd2  1  0.632681  0.632681  0.998342  1
  Nd  Nd3  1  0.234017  0.234017  0.311887  1
  Nd  Nd4  1  0.765983  0.765983  0.688113  1
  Nd  Nd5  1  0.418031  0.418031  0.259252  1
  Nd  Nd6  1  0.581969  0.581969  0.740748  1
  As  As7  1  0.062021  0.062021  0.924572  1
  As  As8  1  0.937979  0.937979  0.075428  1
  As  As9  1  0.884835  0.884835  0.829234  1
  As  As10  1  0.115165  0.115165  0.170766  1
  As  As11  1  0.189442  0.189442  0.620100  1
  As  As12  1  0.810558  0.810558  0.379900  1
  As  As13  1  0.365806  0.365806  0.579440  1
  As  As14  1  0.634194  0.634194  0.420560  1
  As  As15  1  0.011843  0.011843  0.668642  1
  As  As16  1  0.988157  0.988157  0.331358  1
  As  As17  1  0.233843  0.233843  0.882848  1
  As  As18  1  0.766157  0.766157  0.117152  1
  Pd  Pd19  1  0.024876  0.024876  0.127805  1
  Pd  Pd20  1  0.975124  0.975124  0.872195  1
  Pd  Pd21  1  0.887770  0.887770  0.458976  1
  Pd  Pd22  1  0.112230  0.112230  0.541024  1
  Pd  Pd23  1  0.500000  0.500000  0.000000  1
  Pd  Pd24  1  0.547995  0.547995  0.253778  1
  Pd  Pd25  1  0.452005  0.452005  0.746222  1
  Pd  Pd26  1  0.295246  0.295246  0.489776  1
  Pd  Pd27  1  0.704754  0.704754  0.510224  1
  Pd  Pd28  1  0.663735  0.663735  0.225314  1
  Pd  Pd29  1  0.336265  0.336265  0.774686  1
  Pd  Pd30  1  0.909839  0.909839  0.638032  1
  Pd  Pd31  1  0.090161  0.090161  0.361968  1
  Pd  Pd32  1  0.220159  0.220159  0.071556  1
  Pd  Pd33  1  0.779841  0.779841  0.928444  1
  Pt  Pt34  1  0.838347  0.838347  0.193525  1
  Pt  Pt35  1  0.161653  0.161653  0.806475  1
