# generated using pymatgen
data_Ba2FeP4Rh3
_symmetry_space_group_name_H-M   'P 1'
_cell_length_a   5.57364500
_cell_length_b   6.91964963
_cell_length_c   5.58172449
_cell_angle_alpha   66.17115529
_cell_angle_beta   89.99990748
_cell_angle_gamma   89.99995425
_symmetry_Int_Tables_number   1
_chemical_formula_structural   Ba2FeP4Rh3
_chemical_formula_sum   'Ba2 Fe1 P4 Rh3'
_cell_volume   196.92336956
_cell_formula_units_Z   1
loop_
 _symmetry_equiv_pos_site_id
 _symmetry_equiv_pos_as_xyz
  1  'x, y, z'
loop_
 _atom_site_type_symbol
 _atom_site_label
 _atom_site_symmetry_multiplicity
 _atom_site_fract_x
 _atom_site_fract_y
 _atom_site_fract_z
 _atom_site_occupancy
  Ba  Ba0  1  0.996431  0.000001  0.999999  1
  Ba  Ba1  1  0.503750  0.999999  0.500001  1
  Fe  Fe2  1  0.249738  0.499999  0.499999  1
  P  P3  1  0.486080  0.693828  0.166517  1
  P  P4  1  0.013975  0.695238  0.638222  1
  P  P5  1  0.013978  0.304762  0.361777  1
  P  P6  1  0.486083  0.306174  0.833482  1
  Rh  Rh7  1  0.249549  0.500001  0.000001  1
  Rh  Rh8  1  0.750105  0.500001  0.000000  1
  Rh  Rh9  1  0.750312  0.499997  0.500000  1
