# generated using pymatgen
data_CaMnSb4F24
_symmetry_space_group_name_H-M   'P 1'
_cell_length_a   9.95744143
_cell_length_b   9.95744069
_cell_length_c   9.95744125
_cell_angle_alpha   131.97475395
_cell_angle_beta   131.97475017
_cell_angle_gamma   70.26890856
_symmetry_Int_Tables_number   1
_chemical_formula_structural   CaMnSb4F24
_chemical_formula_sum   'Ca1 Mn1 Sb4 F24'
_cell_volume   534.82126235
_cell_formula_units_Z   1
loop_
 _symmetry_equiv_pos_site_id
 _symmetry_equiv_pos_as_xyz
  1  'x, y, z'
loop_
 _atom_site_type_symbol
 _atom_site_label
 _atom_site_symmetry_multiplicity
 _atom_site_fract_x
 _atom_site_fract_y
 _atom_site_fract_z
 _atom_site_occupancy
  Ca  Ca0  1  0.750000  0.250000  0.500000  1
  Mn  Mn1  1  0.000000  0.000000  0.000000  1
  Sb  Sb2  1  0.783114  0.783114  0.000000  1
  Sb  Sb3  1  0.216886  0.216886  0.000000  1
  Sb  Sb4  1  0.973769  0.473769  0.500000  1
  Sb  Sb5  1  0.526231  0.026231  0.500000  1
  F  F6  1  0.873975  0.752444  0.213532  1
  F  F7  1  0.538911  0.660443  0.786468  1
  F  F8  1  0.414935  0.779746  0.296371  1
  F  F9  1  0.339557  0.126025  0.878469  1
  F  F10  1  0.247556  0.461089  0.121531  1
  F  F11  1  0.220254  0.516624  0.635188  1
  F  F12  1  0.647932  0.268960  0.682957  1
  F  F13  1  0.731040  0.413997  0.378973  1
  F  F14  1  0.035025  0.352068  0.621027  1
  F  F15  1  0.087782  0.274981  0.111508  1
  F  F16  1  0.163473  0.976274  0.888492  1
  F  F17  1  0.586003  0.964975  0.317043  1
  F  F18  1  0.725019  0.836527  0.812802  1
  F  F19  1  0.023726  0.912218  0.187198  1
  F  F20  1  0.291679  0.075672  0.308077  1
  F  F21  1  0.924328  0.232405  0.216008  1
  F  F22  1  0.016397  0.708321  0.783992  1
  F  F23  1  0.447526  0.275497  0.293080  1
  F  F24  1  0.982417  0.154444  0.706920  1
  F  F25  1  0.767595  0.983603  0.691923  1
  F  F26  1  0.724503  0.017583  0.172028  1
  F  F27  1  0.845556  0.552474  0.827972  1
  F  F28  1  0.483376  0.118563  0.703629  1
  F  F29  1  0.881437  0.585065  0.364812  1
