# generated using pymatgen
data_YThSc2(Al3Rh)6
_symmetry_space_group_name_H-M   'P 1'
_cell_length_a   7.53950094
_cell_length_b   7.55015215
_cell_length_c   9.40929100
_cell_angle_alpha   90.00000000
_cell_angle_beta   90.00000000
_cell_angle_gamma   119.44526194
_symmetry_Int_Tables_number   1
_chemical_formula_structural   YThSc2(Al3Rh)6
_chemical_formula_sum   'Y1 Th1 Sc2 Al18 Rh6'
_cell_volume   466.42998425
_cell_formula_units_Z   1
loop_
 _symmetry_equiv_pos_site_id
 _symmetry_equiv_pos_as_xyz
  1  'x, y, z'
loop_
 _atom_site_type_symbol
 _atom_site_label
 _atom_site_symmetry_multiplicity
 _atom_site_fract_x
 _atom_site_fract_y
 _atom_site_fract_z
 _atom_site_occupancy
  Y  Y0  1  0.672005  0.993996  0.250000  1
  Th  Th1  1  0.993656  0.671609  0.250000  1
  Sc  Sc2  1  0.003012  0.327223  0.750000  1
  Sc  Sc3  1  0.326588  0.003684  0.750000  1
  Al  Al4  1  0.132549  0.134779  0.250000  1
  Al  Al5  1  0.879148  0.880972  0.750000  1
  Al  Al6  1  0.002337  0.331539  0.067343  1
  Al  Al7  1  0.003654  0.663887  0.911873  1
  Al  Al8  1  0.003654  0.663887  0.588127  1
  Al  Al9  1  0.339751  0.005692  0.432490  1
  Al  Al10  1  0.002337  0.331539  0.432657  1
  Al  Al11  1  0.664295  0.004678  0.583683  1
  Al  Al12  1  0.664295  0.004678  0.916317  1
  Al  Al13  1  0.339751  0.005692  0.067510  1
  Al  Al14  1  0.328519  0.328654  0.564404  1
  Al  Al15  1  0.662497  0.665869  0.461552  1
  Al  Al16  1  0.662497  0.665869  0.038448  1
  Al  Al17  1  0.328519  0.328654  0.935596  1
  Al  Al18  1  0.343899  0.548179  0.250000  1
  Al  Al19  1  0.658008  0.441652  0.750000  1
  Al  Al20  1  0.544072  0.335884  0.250000  1
  Al  Al21  1  0.442578  0.660229  0.750000  1
  Rh  Rh22  1  0.673610  0.329155  0.998648  1
  Rh  Rh23  1  0.326411  0.672017  0.998667  1
  Rh  Rh24  1  0.326411  0.672017  0.501333  1
  Rh  Rh25  1  0.673610  0.329155  0.501352  1
  Rh  Rh26  1  0.001169  0.999406  0.998674  1
  Rh  Rh27  1  0.001169  0.999406  0.501326  1
