# generated using pymatgen
data_EuYHoTaO7
_symmetry_space_group_name_H-M   'P 1'
_cell_length_a   6.50036703
_cell_length_b   6.48242080
_cell_length_c   7.55962451
_cell_angle_alpha   90.03343485
_cell_angle_beta   89.96508891
_cell_angle_gamma   108.85993428
_symmetry_Int_Tables_number   1
_chemical_formula_structural   EuYHoTaO7
_chemical_formula_sum   'Eu2 Y2 Ho2 Ta2 O14'
_cell_volume   301.44590348
_cell_formula_units_Z   2
loop_
 _symmetry_equiv_pos_site_id
 _symmetry_equiv_pos_as_xyz
  1  'x, y, z'
loop_
 _atom_site_type_symbol
 _atom_site_label
 _atom_site_symmetry_multiplicity
 _atom_site_fract_x
 _atom_site_fract_y
 _atom_site_fract_z
 _atom_site_occupancy
  Eu  Eu0  1  0.504164  0.503985  0.500035  1
  Eu  Eu1  1  0.495868  0.496043  0.000038  1
  Y  Y2  1  0.533769  0.999580  0.751392  1
  Y  Y3  1  0.466210  0.000409  0.251601  1
  Ho  Ho4  1  0.999705  0.466169  0.748457  1
  Ho  Ho5  1  0.000283  0.533836  0.248647  1
  Ta  Ta6  1  0.999920  0.999913  0.499980  1
  Ta  Ta7  1  0.000100  0.000080  0.000008  1
  O  O8  1  0.641627  0.361063  0.750717  1
  O  O9  1  0.358351  0.638904  0.249401  1
  O  O10  1  0.936070  0.066969  0.750116  1
  O  O11  1  0.063921  0.933039  0.249858  1
  O  O12  1  0.932913  0.678925  0.531971  1
  O  O13  1  0.067060  0.320932  0.032286  1
  O  O14  1  0.320960  0.070752  0.969156  1
  O  O15  1  0.678904  0.929235  0.469516  1
  O  O16  1  0.364575  0.631924  0.749388  1
  O  O17  1  0.635450  0.368098  0.250493  1
  O  O18  1  0.937963  0.682679  0.964176  1
  O  O19  1  0.062063  0.317448  0.464499  1
  O  O20  1  0.317609  0.065970  0.533965  1
  O  O21  1  0.682517  0.934047  0.034298  1
