# generated using pymatgen
data_Hf18Nb2CuRe6Ir
_symmetry_space_group_name_H-M   'P 1'
_cell_length_a   8.72638700
_cell_length_b   8.72638604
_cell_length_c   8.50259000
_cell_angle_alpha   90.00000000
_cell_angle_beta   90.00000000
_cell_angle_gamma   119.99999987
_symmetry_Int_Tables_number   1
_chemical_formula_structural   Hf18Nb2CuRe6Ir
_chemical_formula_sum   'Hf18 Nb2 Cu1 Re6 Ir1'
_cell_volume   560.72608565
_cell_formula_units_Z   1
loop_
 _symmetry_equiv_pos_site_id
 _symmetry_equiv_pos_as_xyz
  1  'x, y, z'
loop_
 _atom_site_type_symbol
 _atom_site_label
 _atom_site_symmetry_multiplicity
 _atom_site_fract_x
 _atom_site_fract_y
 _atom_site_fract_z
 _atom_site_occupancy
  Hf  Hf0  1  0.196970  0.803030  0.445192  1
  Hf  Hf1  1  0.196970  0.393940  0.445192  1
  Hf  Hf2  1  0.606060  0.803030  0.445192  1
  Hf  Hf3  1  0.801721  0.198279  0.554700  1
  Hf  Hf4  1  0.801721  0.603441  0.554700  1
  Hf  Hf5  1  0.396559  0.198279  0.554700  1
  Hf  Hf6  1  0.801721  0.198279  0.945300  1
  Hf  Hf7  1  0.801721  0.603441  0.945300  1
  Hf  Hf8  1  0.396559  0.198279  0.945300  1
  Hf  Hf9  1  0.196970  0.803030  0.054808  1
  Hf  Hf10  1  0.196970  0.393940  0.054808  1
  Hf  Hf11  1  0.606060  0.803030  0.054808  1
  Hf  Hf12  1  0.541845  0.458155  0.250000  1
  Hf  Hf13  1  0.541845  0.083691  0.250000  1
  Hf  Hf14  1  0.916309  0.458155  0.250000  1
  Hf  Hf15  1  0.457900  0.542100  0.750000  1
  Hf  Hf16  1  0.457900  0.915800  0.750000  1
  Hf  Hf17  1  0.084200  0.542100  0.750000  1
  Nb  Nb18  1  0.000000  0.000000  0.500664  1
  Nb  Nb19  1  0.000000  0.000000  0.999336  1
  Cu  Cu20  1  0.333333  0.666667  0.250000  1
  Re  Re21  1  0.887551  0.112449  0.250000  1
  Re  Re22  1  0.887551  0.775102  0.250000  1
  Re  Re23  1  0.224898  0.112449  0.250000  1
  Re  Re24  1  0.113026  0.886974  0.750000  1
  Re  Re25  1  0.113026  0.226053  0.750000  1
  Re  Re26  1  0.773947  0.886974  0.750000  1
  Ir  Ir27  1  0.666667  0.333333  0.750000  1
