# generated using pymatgen
data_Li3Tb8Y8Si16Ag
_symmetry_space_group_name_H-M   'P 1'
_cell_length_a   7.06931000
_cell_length_b   7.60744333
_cell_length_c   14.46535500
_cell_angle_alpha   90.00000000
_cell_angle_beta   90.00000000
_cell_angle_gamma   89.92608543
_symmetry_Int_Tables_number   1
_chemical_formula_structural   Li3Tb8Y8Si16Ag
_chemical_formula_sum   'Li3 Tb8 Y8 Si16 Ag1'
_cell_volume   777.93710674
_cell_formula_units_Z   1
loop_
 _symmetry_equiv_pos_site_id
 _symmetry_equiv_pos_as_xyz
  1  'x, y, z'
loop_
 _atom_site_type_symbol
 _atom_site_label
 _atom_site_symmetry_multiplicity
 _atom_site_fract_x
 _atom_site_fract_y
 _atom_site_fract_z
 _atom_site_occupancy
  Li  Li0  1  0.841750  0.472810  0.250000  1
  Li  Li1  1  0.341594  0.027795  0.250000  1
  Li  Li2  1  0.657504  0.971473  0.750000  1
  Tb  Tb3  1  0.020024  0.186382  0.098700  1
  Tb  Tb4  1  0.980547  0.812655  0.901988  1
  Tb  Tb5  1  0.480884  0.685200  0.902043  1
  Tb  Tb6  1  0.980547  0.812655  0.598012  1
  Tb  Tb7  1  0.519697  0.313601  0.097742  1
  Tb  Tb8  1  0.020024  0.186382  0.401300  1
  Tb  Tb9  1  0.519697  0.313601  0.402258  1
  Tb  Tb10  1  0.480884  0.685200  0.597957  1
  Y  Y11  1  0.325057  0.181501  0.629258  1
  Y  Y12  1  0.672362  0.819608  0.371557  1
  Y  Y13  1  0.173095  0.681706  0.371364  1
  Y  Y14  1  0.672362  0.819608  0.128443  1
  Y  Y15  1  0.829035  0.320025  0.628821  1
  Y  Y16  1  0.325057  0.181501  0.870742  1
  Y  Y17  1  0.829035  0.320025  0.871179  1
  Y  Y18  1  0.173095  0.681706  0.128636  1
  Si  Si19  1  0.017657  0.072580  0.750000  1
  Si  Si20  1  0.977418  0.920937  0.250000  1
  Si  Si21  1  0.478635  0.578621  0.250000  1
  Si  Si22  1  0.522413  0.418873  0.750000  1
  Si  Si23  1  0.276006  0.871847  0.750000  1
  Si  Si24  1  0.725648  0.130262  0.250000  1
  Si  Si25  1  0.227007  0.370455  0.250000  1
  Si  Si26  1  0.771808  0.631966  0.750000  1
  Si  Si27  1  0.158219  0.466077  0.532560  1
  Si  Si28  1  0.844250  0.531778  0.465086  1
  Si  Si29  1  0.343331  0.968084  0.465733  1
  Si  Si30  1  0.844250  0.531778  0.034914  1
  Si  Si31  1  0.655640  0.031520  0.535747  1
  Si  Si32  1  0.158219  0.466077  0.967440  1
  Si  Si33  1  0.655640  0.031520  0.964253  1
  Si  Si34  1  0.343331  0.968084  0.034267  1
  Ag  Ag35  1  0.158279  0.536105  0.750000  1
