# generated using pymatgen
data_Th2Sc(B2C)3
_symmetry_space_group_name_H-M   'P 1'
_cell_length_a   6.61020900
_cell_length_b   6.61072566
_cell_length_c   3.60874400
_cell_angle_alpha   90.00000000
_cell_angle_beta   90.00000000
_cell_angle_gamma   119.99796934
_symmetry_Int_Tables_number   1
_chemical_formula_structural   Th2Sc(B2C)3
_chemical_formula_sum   'Th2 Sc1 B6 C3'
_cell_volume   136.57144935
_cell_formula_units_Z   1
loop_
 _symmetry_equiv_pos_site_id
 _symmetry_equiv_pos_as_xyz
  1  'x, y, z'
loop_
 _atom_site_type_symbol
 _atom_site_label
 _atom_site_symmetry_multiplicity
 _atom_site_fract_x
 _atom_site_fract_y
 _atom_site_fract_z
 _atom_site_occupancy
  Th  Th0  1  0.666728  0.333444  0.000000  1
  Th  Th1  1  0.333292  0.666576  0.000000  1
  Sc  Sc2  1  0.999999  0.999997  0.000000  1
  B  B3  1  0.271607  0.000015  0.500001  1
  B  B4  1  0.728385  0.999977  0.500001  1
  B  B5  1  0.271441  0.271556  0.500001  1
  B  B6  1  0.000139  0.271578  0.500001  1
  B  B7  1  0.728558  0.728459  0.500001  1
  B  B8  1  0.999886  0.728436  0.500001  1
  C  C9  1  0.500014  0.000002  0.500001  1
  C  C10  1  0.500005  0.500010  0.500001  1
  C  C11  1  0.000012  0.500016  0.500001  1
