# generated using pymatgen
data_CaLa16Yb3Sn16
_symmetry_space_group_name_H-M   'P 1'
_cell_length_a   8.25056506
_cell_length_b   8.62364506
_cell_length_c   16.47905200
_cell_angle_alpha   90.00000000
_cell_angle_beta   90.00000000
_cell_angle_gamma   90.01384672
_symmetry_Int_Tables_number   1
_chemical_formula_structural   CaLa16Yb3Sn16
_chemical_formula_sum   'Ca1 La16 Yb3 Sn16'
_cell_volume   1172.48360342
_cell_formula_units_Z   1
loop_
 _symmetry_equiv_pos_site_id
 _symmetry_equiv_pos_as_xyz
  1  'x, y, z'
loop_
 _atom_site_type_symbol
 _atom_site_label
 _atom_site_symmetry_multiplicity
 _atom_site_fract_x
 _atom_site_fract_y
 _atom_site_fract_z
 _atom_site_occupancy
  Ca  Ca0  1  0.817510  0.505478  0.750000  1
  La  La1  1  0.649690  0.173725  0.623463  1
  La  La2  1  0.149927  0.325894  0.876491  1
  La  La3  1  0.350127  0.826093  0.123523  1
  La  La4  1  0.850252  0.674060  0.376392  1
  La  La5  1  0.350127  0.826093  0.376477  1
  La  La6  1  0.850252  0.674060  0.123608  1
  La  La7  1  0.649690  0.173725  0.876537  1
  La  La8  1  0.149927  0.325894  0.623509  1
  La  La9  1  0.494738  0.682901  0.597333  1
  La  La10  1  0.994803  0.817334  0.902672  1
  La  La11  1  0.505124  0.317068  0.097405  1
  La  La12  1  0.005321  0.182768  0.402566  1
  La  La13  1  0.505124  0.317068  0.402595  1
  La  La14  1  0.005321  0.182768  0.097434  1
  La  La15  1  0.494738  0.682901  0.902667  1
  La  La16  1  0.994803  0.817334  0.597328  1
  Yb  Yb17  1  0.317410  0.994832  0.750000  1
  Yb  Yb18  1  0.182589  0.494865  0.250000  1
  Yb  Yb19  1  0.682615  0.005139  0.250000  1
  Sn  Sn20  1  0.685056  0.966510  0.462513  1
  Sn  Sn21  1  0.184832  0.533451  0.037466  1
  Sn  Sn22  1  0.314984  0.033432  0.962539  1
  Sn  Sn23  1  0.815153  0.466550  0.537398  1
  Sn  Sn24  1  0.314984  0.033432  0.537461  1
  Sn  Sn25  1  0.815153  0.466550  0.962602  1
  Sn  Sn26  1  0.685056  0.966510  0.037487  1
  Sn  Sn27  1  0.184832  0.533451  0.462534  1
  Sn  Sn28  1  0.448623  0.396232  0.750000  1
  Sn  Sn29  1  0.948714  0.103652  0.750000  1
  Sn  Sn30  1  0.551280  0.603605  0.250000  1
  Sn  Sn31  1  0.051330  0.896332  0.250000  1
  Sn  Sn32  1  0.690652  0.859917  0.750000  1
  Sn  Sn33  1  0.190872  0.640373  0.750000  1
  Sn  Sn34  1  0.309182  0.140211  0.250000  1
  Sn  Sn35  1  0.809210  0.359792  0.250000  1
