# generated using pymatgen
data_Mn4Co3NiP4
_symmetry_space_group_name_H-M   'P 1'
_cell_length_a   3.44511500
_cell_length_b   5.88337671
_cell_length_c   6.69520289
_cell_angle_alpha   89.73576693
_cell_angle_beta   90.00000000
_cell_angle_gamma   90.00000000
_symmetry_Int_Tables_number   1
_chemical_formula_structural   Mn4Co3NiP4
_chemical_formula_sum   'Mn4 Co3 Ni1 P4'
_cell_volume   135.70301742
_cell_formula_units_Z   1
loop_
 _symmetry_equiv_pos_site_id
 _symmetry_equiv_pos_as_xyz
  1  'x, y, z'
loop_
 _atom_site_type_symbol
 _atom_site_label
 _atom_site_symmetry_multiplicity
 _atom_site_fract_x
 _atom_site_fract_y
 _atom_site_fract_z
 _atom_site_occupancy
  Mn  Mn0  1  0.750000  0.031377  0.665881  1
  Mn  Mn1  1  0.250000  0.971078  0.332342  1
  Mn  Mn2  1  0.750000  0.528868  0.834971  1
  Mn  Mn3  1  0.250000  0.471091  0.165106  1
  Co  Co4  1  0.750000  0.639892  0.436460  1
  Co  Co5  1  0.250000  0.857983  0.934357  1
  Co  Co6  1  0.750000  0.139176  0.064545  1
  Ni  Ni7  1  0.250000  0.357863  0.566554  1
  P  P8  1  0.250000  0.740429  0.626523  1
  P  P9  1  0.750000  0.264238  0.368317  1
  P  P10  1  0.250000  0.234641  0.878556  1
  P  P11  1  0.750000  0.763364  0.126386  1
