# generated using pymatgen
data_TbSmFe4(CoB2)4
_symmetry_space_group_name_H-M   'P 1'
_cell_length_a   6.98544010
_cell_length_b   6.99220710
_cell_length_c   3.81052800
_cell_angle_alpha   90.00000000
_cell_angle_beta   90.00000000
_cell_angle_gamma   89.98066044
_symmetry_Int_Tables_number   1
_chemical_formula_structural   TbSmFe4(CoB2)4
_chemical_formula_sum   'Tb1 Sm1 Fe4 Co4 B8'
_cell_volume   186.12006194
_cell_formula_units_Z   1
loop_
 _symmetry_equiv_pos_site_id
 _symmetry_equiv_pos_as_xyz
  1  'x, y, z'
loop_
 _atom_site_type_symbol
 _atom_site_label
 _atom_site_symmetry_multiplicity
 _atom_site_fract_x
 _atom_site_fract_y
 _atom_site_fract_z
 _atom_site_occupancy
  Tb  Tb0  1  0.000000  0.000000  0.999320  1
  Sm  Sm1  1  0.500000  0.500000  0.499700  1
  Fe  Fe2  1  0.384934  0.132382  0.893271  1
  Fe  Fe3  1  0.615066  0.867618  0.893271  1
  Fe  Fe4  1  0.366089  0.885656  0.393705  1
  Fe  Fe5  1  0.633911  0.114344  0.393705  1
  Co  Co6  1  0.115550  0.360316  0.608873  1
  Co  Co7  1  0.884450  0.639684  0.608873  1
  Co  Co8  1  0.137527  0.616527  0.109065  1
  Co  Co9  1  0.862473  0.383473  0.109065  1
  B  B10  1  0.798461  0.664596  0.103479  1
  B  B11  1  0.201539  0.335404  0.103479  1
  B  B12  1  0.837175  0.295392  0.604487  1
  B  B13  1  0.162825  0.704608  0.604487  1
  B  B14  1  0.701101  0.836015  0.393279  1
  B  B15  1  0.298899  0.163985  0.393279  1
  B  B16  1  0.665676  0.198157  0.894330  1
  B  B17  1  0.334324  0.801843  0.894330  1
