# generated using pymatgen
data_Pa4MnNiO12
_symmetry_space_group_name_H-M   'P 1'
_cell_length_a   5.36656700
_cell_length_b   5.39577800
_cell_length_c   15.86965200
_cell_angle_alpha   90.00000000
_cell_angle_beta   90.00000000
_cell_angle_gamma   90.00000000
_symmetry_Int_Tables_number   1
_chemical_formula_structural   Pa4MnNiO12
_chemical_formula_sum   'Pa8 Mn2 Ni2 O24'
_cell_volume   459.53440496
_cell_formula_units_Z   2
loop_
 _symmetry_equiv_pos_site_id
 _symmetry_equiv_pos_as_xyz
  1  'x, y, z'
loop_
 _atom_site_type_symbol
 _atom_site_label
 _atom_site_symmetry_multiplicity
 _atom_site_fract_x
 _atom_site_fract_y
 _atom_site_fract_z
 _atom_site_occupancy
  Pa  Pa0  1  0.960921  0.492798  0.658170  1
  Pa  Pa1  1  0.460921  0.507202  0.841830  1
  Pa  Pa2  1  0.539079  0.507202  0.158170  1
  Pa  Pa3  1  0.039079  0.492798  0.341830  1
  Pa  Pa4  1  0.543026  0.006789  0.341952  1
  Pa  Pa5  1  0.043026  0.993211  0.158048  1
  Pa  Pa6  1  0.956974  0.993211  0.841952  1
  Pa  Pa7  1  0.456974  0.006789  0.658048  1
  Mn  Mn8  1  0.000000  0.457077  0.000000  1
  Mn  Mn9  1  0.500000  0.542923  0.500000  1
  Ni  Ni10  1  0.500000  0.060202  0.000000  1
  Ni  Ni11  1  0.000000  0.939798  0.500000  1
  O  O12  1  0.230180  0.705200  0.584296  1
  O  O13  1  0.730180  0.294800  0.915704  1
  O  O14  1  0.269820  0.294800  0.084296  1
  O  O15  1  0.769820  0.705200  0.415704  1
  O  O16  1  0.262505  0.804927  0.413229  1
  O  O17  1  0.762505  0.195073  0.086771  1
  O  O18  1  0.237495  0.195073  0.913229  1
  O  O19  1  0.737495  0.804927  0.586771  1
  O  O20  1  0.280536  0.726784  0.248960  1
  O  O21  1  0.780536  0.273216  0.251040  1
  O  O22  1  0.219464  0.273216  0.748960  1
  O  O23  1  0.719464  0.726784  0.751040  1
  O  O24  1  0.219597  0.772368  0.748280  1
  O  O25  1  0.719597  0.227632  0.751720  1
  O  O26  1  0.280403  0.227632  0.248280  1
  O  O27  1  0.780403  0.772368  0.251720  1
  O  O28  1  0.150021  0.689727  0.906122  1
  O  O29  1  0.650021  0.310273  0.593878  1
  O  O30  1  0.349979  0.310273  0.406122  1
  O  O31  1  0.849979  0.689727  0.093878  1
  O  O32  1  0.350742  0.808787  0.088193  1
  O  O33  1  0.850742  0.191213  0.411807  1
  O  O34  1  0.149258  0.191213  0.588193  1
  O  O35  1  0.649258  0.808787  0.911807  1
