# generated using pymatgen
data_Cs8Zr6BeCl20
_symmetry_space_group_name_H-M   'P 1'
_cell_length_a   11.95549132
_cell_length_b   11.95549246
_cell_length_c   11.95549200
_cell_angle_alpha   60.00000128
_cell_angle_beta   59.99999811
_cell_angle_gamma   60.00000191
_symmetry_Int_Tables_number   1
_chemical_formula_structural   Cs8Zr6BeCl20
_chemical_formula_sum   'Cs8 Zr6 Be1 Cl20'
_cell_volume   1208.33500780
_cell_formula_units_Z   1
loop_
 _symmetry_equiv_pos_site_id
 _symmetry_equiv_pos_as_xyz
  1  'x, y, z'
loop_
 _atom_site_type_symbol
 _atom_site_label
 _atom_site_symmetry_multiplicity
 _atom_site_fract_x
 _atom_site_fract_y
 _atom_site_fract_z
 _atom_site_occupancy
  Cs  Cs0  1  0.360257  0.360257  0.360257  1
  Cs  Cs1  1  0.639743  0.639743  0.639743  1
  Cs  Cs2  1  0.360257  0.360257  0.919228  1
  Cs  Cs3  1  0.360257  0.919228  0.360257  1
  Cs  Cs4  1  0.639743  0.639743  0.080772  1
  Cs  Cs5  1  0.639743  0.080772  0.639743  1
  Cs  Cs6  1  0.919228  0.360257  0.360257  1
  Cs  Cs7  1  0.080772  0.639743  0.639743  1
  Zr  Zr8  1  0.860215  0.139785  0.139785  1
  Zr  Zr9  1  0.139785  0.860215  0.860215  1
  Zr  Zr10  1  0.139785  0.860215  0.139785  1
  Zr  Zr11  1  0.860215  0.139785  0.860215  1
  Zr  Zr12  1  0.139785  0.139785  0.860215  1
  Zr  Zr13  1  0.860215  0.860215  0.139785  1
  Be  Be14  1  0.000000  0.000000  0.000000  1
  Cl  Cl15  1  0.307882  0.000000  0.000000  1
  Cl  Cl16  1  0.692118  0.000000  0.000000  1
  Cl  Cl17  1  0.000000  0.307882  0.692118  1
  Cl  Cl18  1  0.000000  0.692118  0.307882  1
  Cl  Cl19  1  0.000000  0.307882  0.000000  1
  Cl  Cl20  1  0.692118  0.000000  0.307882  1
  Cl  Cl21  1  0.000000  0.692118  0.000000  1
  Cl  Cl22  1  0.307882  0.000000  0.692118  1
  Cl  Cl23  1  0.000000  0.000000  0.307882  1
  Cl  Cl24  1  0.000000  0.000000  0.692118  1
  Cl  Cl25  1  0.692118  0.307882  0.000000  1
  Cl  Cl26  1  0.307882  0.692118  0.000000  1
  Cl  Cl27  1  0.698333  0.301667  0.301667  1
  Cl  Cl28  1  0.301667  0.698333  0.698333  1
  Cl  Cl29  1  0.301667  0.698333  0.301667  1
  Cl  Cl30  1  0.698333  0.301667  0.698333  1
  Cl  Cl31  1  0.301667  0.301667  0.698333  1
  Cl  Cl32  1  0.698333  0.698333  0.301667  1
  Cl  Cl33  1  0.250000  0.250000  0.250000  1
  Cl  Cl34  1  0.750000  0.750000  0.750000  1
