# generated using pymatgen
data_Hf9ZrSn3Ge2Sb3
_symmetry_space_group_name_H-M   'P 1'
_cell_length_a   8.63545201
_cell_length_b   8.64487417
_cell_length_c   5.83687400
_cell_angle_alpha   90.00000000
_cell_angle_beta   90.00000000
_cell_angle_gamma   120.03609002
_symmetry_Int_Tables_number   1
_chemical_formula_structural   Hf9ZrSn3Ge2Sb3
_chemical_formula_sum   'Hf9 Zr1 Sn3 Ge2 Sb3'
_cell_volume   377.22168271
_cell_formula_units_Z   1
loop_
 _symmetry_equiv_pos_site_id
 _symmetry_equiv_pos_as_xyz
  1  'x, y, z'
loop_
 _atom_site_type_symbol
 _atom_site_label
 _atom_site_symmetry_multiplicity
 _atom_site_fract_x
 _atom_site_fract_y
 _atom_site_fract_z
 _atom_site_occupancy
  Hf  Hf0  1  0.666312  0.332784  0.997585  1
  Hf  Hf1  1  0.333688  0.666473  0.997585  1
  Hf  Hf2  1  0.333688  0.666473  0.502415  1
  Hf  Hf3  1  0.666312  0.332784  0.502415  1
  Hf  Hf4  1  0.730617  0.731342  0.750000  1
  Hf  Hf5  1  0.269383  0.000726  0.750000  1
  Hf  Hf6  1  0.000000  0.269811  0.750000  1
  Hf  Hf7  1  0.262011  0.261634  0.250000  1
  Hf  Hf8  1  0.737989  0.999623  0.250000  1
  Zr  Zr9  1  0.000000  0.737661  0.250000  1
  Sn  Sn10  1  0.389365  0.389344  0.750000  1
  Sn  Sn11  1  0.610635  0.999980  0.750000  1
  Sn  Sn12  1  0.000000  0.610876  0.750000  1
  Ge  Ge13  1  0.000000  0.000839  0.993745  1
  Ge  Ge14  1  0.000000  0.000839  0.506255  1
  Sb  Sb15  1  0.602850  0.603134  0.250000  1
  Sb  Sb16  1  0.397150  0.000283  0.250000  1
  Sb  Sb17  1  0.000000  0.395397  0.250000  1
