# generated using pymatgen
data_NdFe(BO2)5
_symmetry_space_group_name_H-M   'P 1'
_cell_length_a   7.65157800
_cell_length_b   8.71285141
_cell_length_c   9.56929300
_cell_angle_alpha   93.24597010
_cell_angle_beta   90.00000000
_cell_angle_gamma   90.00000000
_symmetry_Int_Tables_number   1
_chemical_formula_structural   NdFe(BO2)5
_chemical_formula_sum   'Nd4 Fe4 B20 O40'
_cell_volume   636.93314945
_cell_formula_units_Z   4
loop_
 _symmetry_equiv_pos_site_id
 _symmetry_equiv_pos_as_xyz
  1  'x, y, z'
loop_
 _atom_site_type_symbol
 _atom_site_label
 _atom_site_symmetry_multiplicity
 _atom_site_fract_x
 _atom_site_fract_y
 _atom_site_fract_z
 _atom_site_occupancy
  Nd  Nd0  1  0.681882  0.318641  0.263614  1
  Nd  Nd1  1  0.181888  0.181446  0.236413  1
  Nd  Nd2  1  0.318126  0.681344  0.736398  1
  Nd  Nd3  1  0.818121  0.818561  0.763579  1
  Fe  Fe4  1  0.907033  0.898726  0.374257  1
  Fe  Fe5  1  0.407194  0.601626  0.125665  1
  Fe  Fe6  1  0.092952  0.101355  0.625741  1
  Fe  Fe7  1  0.592823  0.398290  0.874359  1
  B  B8  1  0.815695  0.569468  0.087680  1
  B  B9  1  0.315631  0.930491  0.412294  1
  B  B10  1  0.184310  0.430540  0.912316  1
  B  B11  1  0.684370  0.069503  0.587708  1
  B  B12  1  0.099576  0.656035  0.500183  1
  B  B13  1  0.599597  0.843977  0.999803  1
  B  B14  1  0.900413  0.343966  0.499821  1
  B  B15  1  0.400389  0.156022  0.000192  1
  B  B16  1  0.033160  0.779956  0.054099  1
  B  B17  1  0.533159  0.720039  0.445904  1
  B  B18  1  0.966857  0.220048  0.945905  1
  B  B19  1  0.466852  0.279959  0.554093  1
  B  B20  1  0.825662  0.017184  0.106100  1
  B  B21  1  0.325662  0.482829  0.393877  1
  B  B22  1  0.174340  0.982813  0.893893  1
  B  B23  1  0.674337  0.517171  0.606130  1
  B  B24  1  0.078186  0.587530  0.240874  1
  B  B25  1  0.578166  0.912497  0.259164  1
  B  B26  1  0.921801  0.412484  0.759137  1
  B  B27  1  0.421819  0.087488  0.740822  1
  O  O28  1  0.950770  0.262033  0.382903  1
  O  O29  1  0.450829  0.237963  0.117060  1
  O  O30  1  0.049243  0.737955  0.617112  1
  O  O31  1  0.549185  0.762052  0.882921  1
  O  O32  1  0.155573  0.001026  0.430141  1
  O  O33  1  0.655664  0.498923  0.069805  1
  O  O34  1  0.844425  0.998971  0.569879  1
  O  O35  1  0.344338  0.501082  0.930171  1
  O  O36  1  0.876396  0.684772  0.009195  1
  O  O37  1  0.376379  0.815230  0.490793  1
  O  O38  1  0.123616  0.315232  0.990808  1
  O  O39  1  0.623630  0.184767  0.509202  1
  O  O40  1  0.725040  0.958034  0.984946  1
  O  O41  1  0.225050  0.541975  0.515037  1
  O  O42  1  0.274955  0.041968  0.015056  1
  O  O43  1  0.774946  0.458022  0.484961  1
  O  O44  1  0.891281  0.173970  0.082424  1
  O  O45  1  0.391296  0.326026  0.417569  1
  O  O46  1  0.108724  0.826033  0.917577  1
  O  O47  1  0.608709  0.673972  0.582428  1
  O  O48  1  0.973938  0.915621  0.144494  1
  O  O49  1  0.473974  0.584383  0.355497  1
  O  O50  1  0.026070  0.084386  0.855504  1
  O  O51  1  0.526032  0.415611  0.644505  1
  O  O52  1  0.149790  0.685488  0.134415  1
  O  O53  1  0.649786  0.814533  0.365598  1
  O  O54  1  0.850221  0.314517  0.865596  1
  O  O55  1  0.350219  0.185462  0.634389  1
  O  O56  1  0.912882  0.514359  0.195498  1
  O  O57  1  0.412839  0.985629  0.304495  1
  O  O58  1  0.087111  0.485640  0.804500  1
  O  O59  1  0.587155  0.014374  0.695504  1
  O  O60  1  0.038112  0.685074  0.369413  1
  O  O61  1  0.538185  0.814943  0.130609  1
  O  O62  1  0.961856  0.314926  0.630596  1
  O  O63  1  0.461781  0.185057  0.869380  1
  O  O64  1  0.212114  0.469049  0.267025  1
  O  O65  1  0.712101  0.030945  0.232985  1
  O  O66  1  0.787888  0.530961  0.732975  1
  O  O67  1  0.287899  0.969043  0.767013  1
