# generated using pymatgen
data_MnGaAg6F14
_symmetry_space_group_name_H-M   'P 1'
_cell_length_a   7.78978260
_cell_length_b   7.71103986
_cell_length_c   7.77417800
_cell_angle_alpha   119.17200532
_cell_angle_beta   121.12353634
_cell_angle_gamma   89.96023555
_symmetry_Int_Tables_number   1
_chemical_formula_structural   MnGaAg6F14
_chemical_formula_sum   'Mn1 Ga1 Ag6 F14'
_cell_volume   328.74048508
_cell_formula_units_Z   1
loop_
 _symmetry_equiv_pos_site_id
 _symmetry_equiv_pos_as_xyz
  1  'x, y, z'
loop_
 _atom_site_type_symbol
 _atom_site_label
 _atom_site_symmetry_multiplicity
 _atom_site_fract_x
 _atom_site_fract_y
 _atom_site_fract_z
 _atom_site_occupancy
  Mn  Mn0  1  0.500000  0.500000  0.500000  1
  Ga  Ga1  1  0.500000  0.000000  0.000000  1
  Ag  Ag2  1  0.000000  0.500000  0.500000  1
  Ag  Ag3  1  0.500000  0.000000  0.500000  1
  Ag  Ag4  1  0.500000  0.500000  0.000000  1
  Ag  Ag5  1  0.000000  0.000000  0.000000  1
  Ag  Ag6  1  0.000000  0.500000  0.000000  1
  Ag  Ag7  1  0.000000  0.000000  0.500000  1
  F  F8  1  0.853057  0.606448  0.251787  1
  F  F9  1  0.145951  0.899177  0.252136  1
  F  F10  1  0.193725  0.875906  0.817184  1
  F  F11  1  0.442879  0.620566  0.321511  1
  F  F12  1  0.442936  0.129892  0.823363  1
  F  F13  1  0.199804  0.375980  0.316283  1
  F  F14  1  0.800196  0.624020  0.683717  1
  F  F15  1  0.557064  0.870108  0.176637  1
  F  F16  1  0.557121  0.379434  0.678489  1
  F  F17  1  0.806275  0.124094  0.182816  1
  F  F18  1  0.505202  0.237214  0.244388  1
  F  F19  1  0.146943  0.393552  0.748213  1
  F  F20  1  0.854049  0.100823  0.747864  1
  F  F21  1  0.494798  0.762786  0.755612  1
