# generated using pymatgen
data_ErSc2Al8(SiOs)4
_symmetry_space_group_name_H-M   'P 1'
_cell_length_a   8.61852801
_cell_length_b   8.61852932
_cell_length_c   9.34654700
_cell_angle_alpha   90.00000000
_cell_angle_beta   90.00000000
_cell_angle_gamma   120.07382136
_symmetry_Int_Tables_number   1
_chemical_formula_structural   ErSc2Al8(SiOs)4
_chemical_formula_sum   'Er2 Sc4 Al16 Si8 Os8'
_cell_volume   600.79256015
_cell_formula_units_Z   2
loop_
 _symmetry_equiv_pos_site_id
 _symmetry_equiv_pos_as_xyz
  1  'x, y, z'
loop_
 _atom_site_type_symbol
 _atom_site_label
 _atom_site_symmetry_multiplicity
 _atom_site_fract_x
 _atom_site_fract_y
 _atom_site_fract_z
 _atom_site_occupancy
  Er  Er0  1  0.193568  0.806432  0.250000  1
  Er  Er1  1  0.806432  0.193568  0.750000  1
  Sc  Sc2  1  0.194323  0.392222  0.250000  1
  Sc  Sc3  1  0.805677  0.607778  0.750000  1
  Sc  Sc4  1  0.607778  0.805677  0.250000  1
  Sc  Sc5  1  0.392222  0.194323  0.750000  1
  Al  Al6  1  0.166554  0.329234  0.577969  1
  Al  Al7  1  0.833446  0.670766  0.422031  1
  Al  Al8  1  0.670766  0.833446  0.577969  1
  Al  Al9  1  0.833446  0.670766  0.077969  1
  Al  Al10  1  0.329234  0.166554  0.422031  1
  Al  Al11  1  0.166554  0.329234  0.922031  1
  Al  Al12  1  0.164251  0.835749  0.580540  1
  Al  Al13  1  0.329234  0.166554  0.077969  1
  Al  Al14  1  0.835749  0.164251  0.419460  1
  Al  Al15  1  0.670766  0.833446  0.922031  1
  Al  Al16  1  0.835749  0.164251  0.080540  1
  Al  Al17  1  0.164251  0.835749  0.919460  1
  Al  Al18  1  0.562481  0.437519  0.250000  1
  Al  Al19  1  0.437519  0.562481  0.750000  1
  Al  Al20  1  0.995989  0.004011  0.250000  1
  Al  Al21  1  0.004011  0.995989  0.750000  1
  Si  Si22  1  0.335938  0.664062  0.046437  1
  Si  Si23  1  0.664062  0.335938  0.953563  1
  Si  Si24  1  0.664062  0.335938  0.546437  1
  Si  Si25  1  0.335938  0.664062  0.453563  1
  Si  Si26  1  0.564861  0.123804  0.250000  1
  Si  Si27  1  0.435139  0.876196  0.750000  1
  Si  Si28  1  0.876196  0.435139  0.250000  1
  Si  Si29  1  0.123804  0.564861  0.750000  1
  Os  Os30  1  0.500000  0.000000  0.000000  1
  Os  Os31  1  0.000000  0.500000  0.000000  1
  Os  Os32  1  0.500000  0.000000  0.500000  1
  Os  Os33  1  0.500000  0.500000  0.000000  1
  Os  Os34  1  0.000000  0.500000  0.500000  1
  Os  Os35  1  0.500000  0.500000  0.500000  1
  Os  Os36  1  0.000000  0.000000  0.000000  1
  Os  Os37  1  0.000000  0.000000  0.500000  1
