# generated using pymatgen
data_Yb4ScZn3Pt4
_symmetry_space_group_name_H-M   'P 1'
_cell_length_a   4.27481900
_cell_length_b   7.13115904
_cell_length_c   8.04236832
_cell_angle_alpha   91.34994625
_cell_angle_beta   90.00000000
_cell_angle_gamma   90.00000000
_symmetry_Int_Tables_number   1
_chemical_formula_structural   Yb4ScZn3Pt4
_chemical_formula_sum   'Yb4 Sc1 Zn3 Pt4'
_cell_volume   245.09884124
_cell_formula_units_Z   1
loop_
 _symmetry_equiv_pos_site_id
 _symmetry_equiv_pos_as_xyz
  1  'x, y, z'
loop_
 _atom_site_type_symbol
 _atom_site_label
 _atom_site_symmetry_multiplicity
 _atom_site_fract_x
 _atom_site_fract_y
 _atom_site_fract_z
 _atom_site_occupancy
  Yb  Yb0  1  0.750000  0.465166  0.832705  1
  Yb  Yb1  1  0.250000  0.034443  0.307630  1
  Yb  Yb2  1  0.750000  0.986336  0.695328  1
  Yb  Yb3  1  0.250000  0.519569  0.174940  1
  Sc  Sc4  1  0.250000  0.637112  0.567711  1
  Zn  Zn5  1  0.250000  0.150143  0.932124  1
  Zn  Zn6  1  0.750000  0.355266  0.427487  1
  Zn  Zn7  1  0.750000  0.848544  0.065503  1
  Pt  Pt8  1  0.250000  0.774237  0.882074  1
  Pt  Pt9  1  0.250000  0.272093  0.618037  1
  Pt  Pt10  1  0.750000  0.734352  0.381668  1
  Pt  Pt11  1  0.750000  0.222738  0.114791  1
