# generated using pymatgen
data_Li8Ni61B18
_symmetry_space_group_name_H-M   'P 1'
_cell_length_a   7.33244500
_cell_length_b   7.33244419
_cell_length_c   18.06922500
_cell_angle_alpha   90.00000000
_cell_angle_beta   90.00000000
_cell_angle_gamma   119.99999912
_symmetry_Int_Tables_number   1
_chemical_formula_structural   Li8Ni61B18
_chemical_formula_sum   'Li8 Ni61 B18'
_cell_volume   841.33264731
_cell_formula_units_Z   1
loop_
 _symmetry_equiv_pos_site_id
 _symmetry_equiv_pos_as_xyz
  1  'x, y, z'
loop_
 _atom_site_type_symbol
 _atom_site_label
 _atom_site_symmetry_multiplicity
 _atom_site_fract_x
 _atom_site_fract_y
 _atom_site_fract_z
 _atom_site_occupancy
  Li  Li0  1  0.000000  0.000000  0.249893  1
  Li  Li1  1  0.333333  0.666667  0.917228  1
  Li  Li2  1  0.666667  0.333333  0.583939  1
  Li  Li3  1  0.666667  0.333333  0.082772  1
  Li  Li4  1  0.000000  0.000000  0.750107  1
  Li  Li5  1  0.333333  0.666667  0.416061  1
  Li  Li6  1  0.333333  0.666667  0.667319  1
  Li  Li7  1  0.666667  0.333333  0.332681  1
  Ni  Ni8  1  0.004444  0.671387  0.333070  1
  Ni  Ni9  1  0.338205  0.338205  0.000000  1
  Ni  Ni10  1  0.671387  0.004444  0.666930  1
  Ni  Ni11  1  0.779897  0.559793  0.220050  1
  Ni  Ni12  1  0.112602  0.225203  0.887777  1
  Ni  Ni13  1  0.446342  0.892684  0.554294  1
  Ni  Ni14  1  0.000000  0.338205  0.000000  1
  Ni  Ni15  1  0.333057  0.004444  0.666930  1
  Ni  Ni16  1  0.666943  0.671387  0.333070  1
  Ni  Ni17  1  0.779897  0.220103  0.220050  1
  Ni  Ni18  1  0.112602  0.887398  0.887777  1
  Ni  Ni19  1  0.446342  0.553658  0.554294  1
  Ni  Ni20  1  0.004444  0.333057  0.333070  1
  Ni  Ni21  1  0.338205  0.000000  0.000000  1
  Ni  Ni22  1  0.671387  0.666943  0.666930  1
  Ni  Ni23  1  0.666943  0.995556  0.333070  1
  Ni  Ni24  1  0.000000  0.661795  0.000000  1
  Ni  Ni25  1  0.333057  0.328613  0.666930  1
  Ni  Ni26  1  0.887398  0.112602  0.112223  1
  Ni  Ni27  1  0.220103  0.779897  0.779950  1
  Ni  Ni28  1  0.553658  0.446342  0.445706  1
  Ni  Ni29  1  0.887398  0.774797  0.112223  1
  Ni  Ni30  1  0.220103  0.440207  0.779950  1
  Ni  Ni31  1  0.553658  0.107316  0.445706  1
  Ni  Ni32  1  0.225203  0.112602  0.112223  1
  Ni  Ni33  1  0.559793  0.779897  0.779950  1
  Ni  Ni34  1  0.892684  0.446342  0.445706  1
  Ni  Ni35  1  0.661795  0.661795  0.000000  1
  Ni  Ni36  1  0.995556  0.328613  0.666930  1
  Ni  Ni37  1  0.328613  0.995556  0.333070  1
  Ni  Ni38  1  0.328613  0.333057  0.333070  1
  Ni  Ni39  1  0.661795  0.000000  0.000000  1
  Ni  Ni40  1  0.995556  0.666943  0.666930  1
  Ni  Ni41  1  0.440207  0.220103  0.220050  1
  Ni  Ni42  1  0.774797  0.887398  0.887777  1
  Ni  Ni43  1  0.107316  0.553658  0.554294  1
  Ni  Ni44  1  0.176701  0.353403  0.205633  1
  Ni  Ni45  1  0.509361  0.018722  0.872699  1
  Ni  Ni46  1  0.843099  0.686197  0.539176  1
  Ni  Ni47  1  0.176701  0.823299  0.205633  1
  Ni  Ni48  1  0.509361  0.490639  0.872699  1
  Ni  Ni49  1  0.843099  0.156901  0.539176  1
  Ni  Ni50  1  0.333333  0.666667  0.048785  1
  Ni  Ni51  1  0.666667  0.333333  0.715821  1
  Ni  Ni52  1  0.000000  0.000000  0.382005  1
  Ni  Ni53  1  0.646597  0.823299  0.205633  1
  Ni  Ni54  1  0.981278  0.490639  0.872699  1
  Ni  Ni55  1  0.313803  0.156901  0.539176  1
  Ni  Ni56  1  0.490639  0.981278  0.127301  1
  Ni  Ni57  1  0.823299  0.646597  0.794367  1
  Ni  Ni58  1  0.156901  0.313803  0.460824  1
  Ni  Ni59  1  0.490639  0.509361  0.127301  1
  Ni  Ni60  1  0.823299  0.176701  0.794367  1
  Ni  Ni61  1  0.156901  0.843099  0.460824  1
  Ni  Ni62  1  0.333333  0.666667  0.284179  1
  Ni  Ni63  1  0.666667  0.333333  0.951215  1
  Ni  Ni64  1  0.000000  0.000000  0.617995  1
  Ni  Ni65  1  0.018722  0.509361  0.127301  1
  Ni  Ni66  1  0.353403  0.176701  0.794367  1
  Ni  Ni67  1  0.686197  0.843099  0.460824  1
  Ni  Ni68  1  0.000000  0.000000  0.000000  1
  B  B69  1  0.485486  0.514514  0.242505  1
  B  B70  1  0.817298  0.182702  0.908662  1
  B  B71  1  0.152010  0.847990  0.576039  1
  B  B72  1  0.182702  0.365405  0.091338  1
  B  B73  1  0.514514  0.029027  0.757495  1
  B  B74  1  0.847990  0.695981  0.423961  1
  B  B75  1  0.029027  0.514514  0.242505  1
  B  B76  1  0.365405  0.182702  0.908662  1
  B  B77  1  0.695981  0.847990  0.576039  1
  B  B78  1  0.182702  0.817298  0.091338  1
  B  B79  1  0.514514  0.485486  0.757495  1
  B  B80  1  0.847990  0.152010  0.423961  1
  B  B81  1  0.485486  0.970973  0.242505  1
  B  B82  1  0.817298  0.634595  0.908662  1
  B  B83  1  0.152010  0.304019  0.576039  1
  B  B84  1  0.634595  0.817298  0.091338  1
  B  B85  1  0.970973  0.485486  0.757495  1
  B  B86  1  0.304019  0.152010  0.423961  1
