# generated using pymatgen
data_Dy2Er2Ga12Ru
_symmetry_space_group_name_H-M   'P 1'
_cell_length_a   7.46588287
_cell_length_b   7.47710355
_cell_length_c   7.47710436
_cell_angle_alpha   109.50680796
_cell_angle_beta   109.48385531
_cell_angle_gamma   109.48385327
_symmetry_Int_Tables_number   1
_chemical_formula_structural   Dy2Er2Ga12Ru
_chemical_formula_sum   'Dy2 Er2 Ga12 Ru1'
_cell_volume   321.06983518
_cell_formula_units_Z   1
loop_
 _symmetry_equiv_pos_site_id
 _symmetry_equiv_pos_as_xyz
  1  'x, y, z'
loop_
 _atom_site_type_symbol
 _atom_site_label
 _atom_site_symmetry_multiplicity
 _atom_site_fract_x
 _atom_site_fract_y
 _atom_site_fract_z
 _atom_site_occupancy
  Dy  Dy0  1  0.500000  0.000000  0.000000  1
  Dy  Dy1  1  0.500000  0.500000  0.500000  1
  Er  Er2  1  0.000000  0.000000  0.500000  1
  Er  Er3  1  0.000000  0.500000  0.000000  1
  Ga  Ga4  1  0.750509  0.249962  0.500547  1
  Ga  Ga5  1  0.750509  0.500547  0.249962  1
  Ga  Ga6  1  0.500000  0.250000  0.750000  1
  Ga  Ga7  1  0.249491  0.499453  0.750038  1
  Ga  Ga8  1  0.249491  0.750038  0.499453  1
  Ga  Ga9  1  0.500000  0.750000  0.250000  1
  Ga  Ga10  1  0.710502  0.710057  0.000445  1
  Ga  Ga11  1  0.289498  0.999555  0.289943  1
  Ga  Ga12  1  0.000000  0.289833  0.289833  1
  Ga  Ga13  1  0.289498  0.289943  0.999555  1
  Ga  Ga14  1  0.710502  0.000445  0.710057  1
  Ga  Ga15  1  0.000000  0.710167  0.710167  1
  Ru  Ru16  1  0.000000  0.000000  0.000000  1
