# generated using pymatgen
data_HoEr3Ga18(Co2Pd)2
_symmetry_space_group_name_H-M   'P 1'
_cell_length_a   7.45352127
_cell_length_b   7.45379603
_cell_length_c   9.38756300
_cell_angle_alpha   90.00000000
_cell_angle_beta   90.00000000
_cell_angle_gamma   119.64331902
_symmetry_Int_Tables_number   1
_chemical_formula_structural   HoEr3Ga18(Co2Pd)2
_chemical_formula_sum   'Ho1 Er3 Ga18 Co4 Pd2'
_cell_volume   453.28591408
_cell_formula_units_Z   1
loop_
 _symmetry_equiv_pos_site_id
 _symmetry_equiv_pos_as_xyz
  1  'x, y, z'
loop_
 _atom_site_type_symbol
 _atom_site_label
 _atom_site_symmetry_multiplicity
 _atom_site_fract_x
 _atom_site_fract_y
 _atom_site_fract_z
 _atom_site_occupancy
  Ho  Ho0  1  0.503542  0.824919  0.750000  1
  Er  Er1  1  0.496480  0.175120  0.250000  1
  Er  Er2  1  0.175089  0.496416  0.250000  1
  Er  Er3  1  0.824931  0.503538  0.750000  1
  Ga  Ga4  1  0.165672  0.944207  0.750000  1
  Ga  Ga5  1  0.834205  0.055851  0.250000  1
  Ga  Ga6  1  0.055859  0.834188  0.250000  1
  Ga  Ga7  1  0.944375  0.165950  0.750000  1
  Ga  Ga8  1  0.639011  0.638989  0.250000  1
  Ga  Ga9  1  0.360931  0.360802  0.750000  1
  Ga  Ga10  1  0.157441  0.157418  0.064162  1
  Ga  Ga11  1  0.842743  0.842560  0.564046  1
  Ga  Ga12  1  0.842743  0.842560  0.935954  1
  Ga  Ga13  1  0.157441  0.157418  0.435838  1
  Ga  Ga14  1  0.497935  0.844629  0.075724  1
  Ga  Ga15  1  0.502025  0.155565  0.575465  1
  Ga  Ga16  1  0.155190  0.501894  0.924522  1
  Ga  Ga17  1  0.844633  0.497972  0.424415  1
  Ga  Ga18  1  0.502025  0.155565  0.924535  1
  Ga  Ga19  1  0.497935  0.844629  0.424276  1
  Ga  Ga20  1  0.844633  0.497972  0.075585  1
  Ga  Ga21  1  0.155190  0.501894  0.575478  1
  Co  Co22  1  0.170695  0.829281  0.000067  1
  Co  Co23  1  0.829305  0.170745  0.499935  1
  Co  Co24  1  0.829305  0.170745  0.000065  1
  Co  Co25  1  0.170695  0.829281  0.499933  1
  Pd  Pd26  1  0.499986  0.499945  0.499951  1
  Pd  Pd27  1  0.499986  0.499945  0.000049  1
