# generated using pymatgen
data_Nd2Er18Si15Pd
_symmetry_space_group_name_H-M   'P 1'
_cell_length_a   7.35251898
_cell_length_b   7.70614780
_cell_length_c   14.51895507
_cell_angle_alpha   89.69246628
_cell_angle_beta   89.98059257
_cell_angle_gamma   89.97711987
_symmetry_Int_Tables_number   1
_chemical_formula_structural   Nd2Er18Si15Pd
_chemical_formula_sum   'Nd2 Er18 Si15 Pd1'
_cell_volume   822.62619413
_cell_formula_units_Z   1
loop_
 _symmetry_equiv_pos_site_id
 _symmetry_equiv_pos_as_xyz
  1  'x, y, z'
loop_
 _atom_site_type_symbol
 _atom_site_label
 _atom_site_symmetry_multiplicity
 _atom_site_fract_x
 _atom_site_fract_y
 _atom_site_fract_z
 _atom_site_occupancy
  Nd  Nd0  1  0.520428  0.570126  0.342282  1
  Nd  Nd1  1  0.021689  0.428394  0.656849  1
  Er  Er2  1  0.811577  0.576763  0.875602  1
  Er  Er3  1  0.318877  0.425176  0.125071  1
  Er  Er4  1  0.180891  0.927063  0.373851  1
  Er  Er5  1  0.680576  0.069690  0.626578  1
  Er  Er6  1  0.181218  0.926256  0.627327  1
  Er  Er7  1  0.680567  0.071208  0.372112  1
  Er  Er8  1  0.815566  0.573031  0.125849  1
  Er  Er9  1  0.321459  0.428921  0.873853  1
  Er  Er10  1  0.647296  0.230465  0.999238  1
  Er  Er11  1  0.157089  0.761586  0.001053  1
  Er  Er12  1  0.349367  0.262513  0.499853  1
  Er  Er13  1  0.848048  0.735986  0.499656  1
  Er  Er14  1  0.478000  0.931275  0.844352  1
  Er  Er15  1  0.977263  0.068521  0.154267  1
  Er  Er16  1  0.476611  0.933252  0.155236  1
  Er  Er17  1  0.975412  0.067823  0.846479  1
  Er  Er18  1  0.525835  0.565524  0.652450  1
  Er  Er19  1  0.025692  0.433321  0.347201  1
  Si  Si20  1  0.019773  0.352889  0.000091  1
  Si  Si21  1  0.476644  0.858156  0.500795  1
  Si  Si22  1  0.977300  0.140418  0.499421  1
  Si  Si23  1  0.652415  0.278110  0.790036  1
  Si  Si24  1  0.153186  0.720501  0.209717  1
  Si  Si25  1  0.347388  0.216116  0.287709  1
  Si  Si26  1  0.848373  0.782540  0.712323  1
  Si  Si27  1  0.356329  0.217925  0.710866  1
  Si  Si28  1  0.856684  0.781349  0.288910  1
  Si  Si29  1  0.648884  0.272162  0.207212  1
  Si  Si30  1  0.147943  0.725820  0.792871  1
  Si  Si31  1  0.778442  0.883024  0.001044  1
  Si  Si32  1  0.263048  0.124398  0.999439  1
  Si  Si33  1  0.229674  0.623577  0.501063  1
  Si  Si34  1  0.730051  0.375366  0.499007  1
  Pd  Pd35  1  0.520403  0.660753  0.000339  1
