# generated using pymatgen
data_Nd16Lu4(IrPt3)3
_symmetry_space_group_name_H-M   'P 1'
_cell_length_a   11.31316400
_cell_length_b   11.31316400
_cell_length_c   6.55503700
_cell_angle_alpha   90.00000000
_cell_angle_beta   90.00000000
_cell_angle_gamma   90.00000000
_symmetry_Int_Tables_number   1
_chemical_formula_structural   Nd16Lu4(IrPt3)3
_chemical_formula_sum   'Nd16 Lu4 Ir3 Pt9'
_cell_volume   838.96397592
_cell_formula_units_Z   1
loop_
 _symmetry_equiv_pos_site_id
 _symmetry_equiv_pos_as_xyz
  1  'x, y, z'
loop_
 _atom_site_type_symbol
 _atom_site_label
 _atom_site_symmetry_multiplicity
 _atom_site_fract_x
 _atom_site_fract_y
 _atom_site_fract_z
 _atom_site_occupancy
  Nd  Nd0  1  0.087237  0.291165  0.117039  1
  Nd  Nd1  1  0.791165  0.412763  0.117039  1
  Nd  Nd2  1  0.208835  0.587237  0.117039  1
  Nd  Nd3  1  0.912763  0.708835  0.117039  1
  Nd  Nd4  1  0.412727  0.791420  0.380188  1
  Nd  Nd5  1  0.587273  0.208580  0.380188  1
  Nd  Nd6  1  0.291420  0.087273  0.380188  1
  Nd  Nd7  1  0.708580  0.912727  0.380188  1
  Nd  Nd8  1  0.412870  0.208487  0.880283  1
  Nd  Nd9  1  0.708487  0.087130  0.880283  1
  Nd  Nd10  1  0.291513  0.912870  0.880283  1
  Nd  Nd11  1  0.587130  0.791513  0.880283  1
  Nd  Nd12  1  0.087406  0.709304  0.622606  1
  Nd  Nd13  1  0.912594  0.290696  0.622606  1
  Nd  Nd14  1  0.209304  0.412594  0.622606  1
  Nd  Nd15  1  0.790696  0.587406  0.622606  1
  Lu  Lu16  1  0.000000  0.000000  0.999829  1
  Lu  Lu17  1  0.500000  0.500000  0.999829  1
  Lu  Lu18  1  0.500000  0.500000  0.499907  1
  Lu  Lu19  1  0.000000  0.000000  0.499907  1
  Ir  Ir20  1  0.500000  0.000000  0.121011  1
  Ir  Ir21  1  0.500000  0.000000  0.621082  1
  Ir  Ir22  1  0.000000  0.500000  0.878722  1
  Pt  Pt23  1  0.145242  0.854027  0.250294  1
  Pt  Pt24  1  0.354027  0.354758  0.250294  1
  Pt  Pt25  1  0.645973  0.645242  0.250294  1
  Pt  Pt26  1  0.854758  0.145973  0.250294  1
  Pt  Pt27  1  0.354281  0.645503  0.749711  1
  Pt  Pt28  1  0.145503  0.145719  0.749711  1
  Pt  Pt29  1  0.854497  0.854281  0.749711  1
  Pt  Pt30  1  0.645719  0.354497  0.749711  1
  Pt  Pt31  1  0.000000  0.500000  0.379227  1
