# generated using pymatgen
data_CsPr2(PN2)6
_symmetry_space_group_name_H-M   'P 1'
_cell_length_a   10.01648600
_cell_length_b   10.01648600
_cell_length_c   10.01648600
_cell_angle_alpha   90.00000000
_cell_angle_beta   90.00000000
_cell_angle_gamma   90.00000000
_symmetry_Int_Tables_number   1
_chemical_formula_structural   CsPr2(PN2)6
_chemical_formula_sum   'Cs4 Pr8 P24 N48'
_cell_volume   1004.95395813
_cell_formula_units_Z   4
loop_
 _symmetry_equiv_pos_site_id
 _symmetry_equiv_pos_as_xyz
  1  'x, y, z'
loop_
 _atom_site_type_symbol
 _atom_site_label
 _atom_site_symmetry_multiplicity
 _atom_site_fract_x
 _atom_site_fract_y
 _atom_site_fract_z
 _atom_site_occupancy
  Cs  Cs0  1  0.000000  0.500000  0.500000  1
  Cs  Cs1  1  0.500000  0.500000  0.000000  1
  Cs  Cs2  1  0.500000  0.000000  0.500000  1
  Cs  Cs3  1  0.000000  0.000000  0.000000  1
  Pr  Pr4  1  0.374453  0.125547  0.874453  1
  Pr  Pr5  1  0.125547  0.874453  0.374453  1
  Pr  Pr6  1  0.874453  0.374453  0.125547  1
  Pr  Pr7  1  0.625547  0.625547  0.625547  1
  Pr  Pr8  1  0.625547  0.874453  0.125547  1
  Pr  Pr9  1  0.874453  0.125547  0.625547  1
  Pr  Pr10  1  0.125547  0.625547  0.874453  1
  Pr  Pr11  1  0.374453  0.374453  0.374453  1
  P  P12  1  0.688662  0.342375  0.386525  1
  P  P13  1  0.188662  0.157625  0.613475  1
  P  P14  1  0.311338  0.842375  0.113475  1
  P  P15  1  0.157625  0.613475  0.188662  1
  P  P16  1  0.113475  0.311338  0.842375  1
  P  P17  1  0.613475  0.188662  0.157625  1
  P  P18  1  0.342375  0.386525  0.688662  1
  P  P19  1  0.386525  0.688662  0.342375  1
  P  P20  1  0.842375  0.113475  0.311338  1
  P  P21  1  0.657625  0.886525  0.811338  1
  P  P22  1  0.886525  0.811338  0.657625  1
  P  P23  1  0.811338  0.657625  0.886525  1
  P  P24  1  0.311338  0.657625  0.613475  1
  P  P25  1  0.811338  0.842375  0.386525  1
  P  P26  1  0.688662  0.157625  0.886525  1
  P  P27  1  0.842375  0.386525  0.811338  1
  P  P28  1  0.886525  0.688662  0.157625  1
  P  P29  1  0.386525  0.811338  0.842375  1
  P  P30  1  0.657625  0.613475  0.311338  1
  P  P31  1  0.613475  0.311338  0.657625  1
  P  P32  1  0.157625  0.886525  0.688662  1
  P  P33  1  0.342375  0.113475  0.188662  1
  P  P34  1  0.113475  0.188662  0.342375  1
  P  P35  1  0.188662  0.342375  0.113475  1
  N  N36  1  0.714274  0.501616  0.413784  1
  N  N37  1  0.214274  0.998384  0.586216  1
  N  N38  1  0.285726  0.001616  0.086216  1
  N  N39  1  0.998384  0.586216  0.214274  1
  N  N40  1  0.086216  0.285726  0.001616  1
  N  N41  1  0.586216  0.214274  0.998384  1
  N  N42  1  0.501616  0.413784  0.714274  1
  N  N43  1  0.413784  0.714274  0.501616  1
  N  N44  1  0.001616  0.086216  0.285726  1
  N  N45  1  0.498384  0.913784  0.785726  1
  N  N46  1  0.913784  0.785726  0.498384  1
  N  N47  1  0.785726  0.498384  0.913784  1
  N  N48  1  0.285726  0.498384  0.586216  1
  N  N49  1  0.785726  0.001616  0.413784  1
  N  N50  1  0.714274  0.998384  0.913784  1
  N  N51  1  0.001616  0.413784  0.785726  1
  N  N52  1  0.913784  0.714274  0.998384  1
  N  N53  1  0.413784  0.785726  0.001616  1
  N  N54  1  0.498384  0.586216  0.285726  1
  N  N55  1  0.586216  0.285726  0.498384  1
  N  N56  1  0.169757  0.739485  0.615740  1
  N  N57  1  0.998384  0.913784  0.714274  1
  N  N58  1  0.086216  0.214274  0.501616  1
  N  N59  1  0.214274  0.501616  0.086216  1
  N  N60  1  0.830243  0.260515  0.384260  1
  N  N61  1  0.330243  0.239485  0.615740  1
  N  N62  1  0.169757  0.760515  0.115740  1
  N  N63  1  0.239485  0.615740  0.330243  1
  N  N64  1  0.115740  0.169757  0.760515  1
  N  N65  1  0.615740  0.330243  0.239485  1
  N  N66  1  0.260515  0.384260  0.830243  1
  N  N67  1  0.384260  0.830243  0.260515  1
  N  N68  1  0.760515  0.115740  0.169757  1
  N  N69  1  0.739485  0.884260  0.669757  1
  N  N70  1  0.884260  0.669757  0.739485  1
  N  N71  1  0.669757  0.739485  0.884260  1
  N  N72  1  0.330243  0.260515  0.115740  1
  N  N73  1  0.115740  0.330243  0.260515  1
  N  N74  1  0.260515  0.115740  0.330243  1
  N  N75  1  0.239485  0.884260  0.830243  1
  N  N76  1  0.615740  0.169757  0.739485  1
  N  N77  1  0.739485  0.615740  0.169757  1
  N  N78  1  0.384260  0.669757  0.760515  1
  N  N79  1  0.884260  0.830243  0.239485  1
  N  N80  1  0.760515  0.384260  0.669757  1
  N  N81  1  0.830243  0.239485  0.884260  1
  N  N82  1  0.669757  0.760515  0.384260  1
  N  N83  1  0.501616  0.086216  0.214274  1
