# generated using pymatgen
data_Y2Ho2Al4Pd3Ru
_symmetry_space_group_name_H-M   'P 1'
_cell_length_a   4.34632600
_cell_length_b   6.90523949
_cell_length_c   7.87860203
_cell_angle_alpha   89.91527300
_cell_angle_beta   90.00000000
_cell_angle_gamma   90.00000000
_symmetry_Int_Tables_number   1
_chemical_formula_structural   Y2Ho2Al4Pd3Ru
_chemical_formula_sum   'Y2 Ho2 Al4 Pd3 Ru1'
_cell_volume   236.45566996
_cell_formula_units_Z   1
loop_
 _symmetry_equiv_pos_site_id
 _symmetry_equiv_pos_as_xyz
  1  'x, y, z'
loop_
 _atom_site_type_symbol
 _atom_site_label
 _atom_site_symmetry_multiplicity
 _atom_site_fract_x
 _atom_site_fract_y
 _atom_site_fract_z
 _atom_site_occupancy
  Y  Y0  1  0.250000  0.034944  0.678209  1
  Y  Y1  1  0.250000  0.530709  0.819016  1
  Ho  Ho2  1  0.750000  0.979183  0.320493  1
  Ho  Ho3  1  0.750000  0.464721  0.185808  1
  Al  Al4  1  0.250000  0.146224  0.064420  1
  Al  Al5  1  0.250000  0.636664  0.436547  1
  Al  Al6  1  0.750000  0.856296  0.938142  1
  Al  Al7  1  0.750000  0.354681  0.558973  1
  Pd  Pd8  1  0.250000  0.774088  0.118256  1
  Pd  Pd9  1  0.750000  0.728675  0.618606  1
  Pd  Pd10  1  0.750000  0.228823  0.880971  1
  Ru  Ru11  1  0.250000  0.264994  0.380559  1
