# generated using pymatgen
data_Dy12ZnInSi4
_symmetry_space_group_name_H-M   'P 1'
_cell_length_a   8.48252244
_cell_length_b   8.48253089
_cell_length_c   8.48252239
_cell_angle_alpha   111.84134495
_cell_angle_beta   111.78561577
_cell_angle_gamma   104.88187869
_symmetry_Int_Tables_number   1
_chemical_formula_structural   Dy12ZnInSi4
_chemical_formula_sum   'Dy12 Zn1 In1 Si4'
_cell_volume   467.60697418
_cell_formula_units_Z   1
loop_
 _symmetry_equiv_pos_site_id
 _symmetry_equiv_pos_as_xyz
  1  'x, y, z'
loop_
 _atom_site_type_symbol
 _atom_site_label
 _atom_site_symmetry_multiplicity
 _atom_site_fract_x
 _atom_site_fract_y
 _atom_site_fract_z
 _atom_site_occupancy
  Dy  Dy0  1  0.432433  0.234868  0.197566  1
  Dy  Dy1  1  0.567567  0.765132  0.802434  1
  Dy  Dy2  1  0.037303  0.234868  0.802435  1
  Dy  Dy3  1  0.962697  0.765132  0.197565  1
  Dy  Dy4  1  0.180986  0.271978  0.452965  1
  Dy  Dy5  1  0.819014  0.728022  0.547035  1
  Dy  Dy6  1  0.180987  0.728022  0.909006  1
  Dy  Dy7  1  0.819013  0.271978  0.090994  1
  Dy  Dy8  1  0.319441  0.617685  0.298243  1
  Dy  Dy9  1  0.680559  0.382315  0.701757  1
  Dy  Dy10  1  0.319441  0.021198  0.701757  1
  Dy  Dy11  1  0.680559  0.978802  0.298243  1
  Zn  Zn12  1  0.000000  0.000000  0.000000  1
  In  In13  1  0.500000  0.500000  0.000000  1
  Si  Si14  1  0.365392  0.000000  0.365392  1
  Si  Si15  1  0.634608  0.000000  0.634608  1
  Si  Si16  1  0.116159  0.616159  0.500000  1
  Si  Si17  1  0.883841  0.383841  0.500000  1
