# generated using pymatgen
data_Cs5Rb(DySb2)2
_symmetry_space_group_name_H-M   'P 1'
_cell_length_a   10.50558723
_cell_length_b   10.50558744
_cell_length_c   10.50558700
_cell_angle_alpha   128.67502560
_cell_angle_beta   70.15080753
_cell_angle_gamma   135.61395534
_symmetry_Int_Tables_number   1
_chemical_formula_structural   Cs5Rb(DySb2)2
_chemical_formula_sum   'Cs5 Rb1 Dy2 Sb4'
_cell_volume   620.89918554
_cell_formula_units_Z   1
loop_
 _symmetry_equiv_pos_site_id
 _symmetry_equiv_pos_as_xyz
  1  'x, y, z'
loop_
 _atom_site_type_symbol
 _atom_site_label
 _atom_site_symmetry_multiplicity
 _atom_site_fract_x
 _atom_site_fract_y
 _atom_site_fract_z
 _atom_site_occupancy
  Cs  Cs0  1  0.750000  0.750000  0.000000  1
  Cs  Cs1  1  0.816916  0.288140  0.101868  1
  Cs  Cs2  1  0.683077  0.784948  0.471218  1
  Cs  Cs3  1  0.313728  0.211860  0.528776  1
  Cs  Cs4  1  0.186269  0.715053  0.898129  1
  Rb  Rb5  1  0.250013  0.250000  0.000013  1
  Dy  Dy6  1  0.749999  0.250000  0.499999  1
  Dy  Dy7  1  0.249997  0.750000  0.499997  1
  Sb  Sb8  1  0.404768  0.810456  0.218545  1
  Sb  Sb9  1  0.095227  0.313774  0.405689  1
  Sb  Sb10  1  0.908089  0.689544  0.594313  1
  Sb  Sb11  1  0.591914  0.186226  0.781453  1
