# generated using pymatgen
data_Er4Zr2Pb5
_symmetry_space_group_name_H-M   'P 1'
_cell_length_a   6.31023577
_cell_length_b   9.37061851
_cell_length_c   11.53458709
_cell_angle_alpha   113.96612701
_cell_angle_beta   105.87476505
_cell_angle_gamma   89.99999818
_symmetry_Int_Tables_number   1
_chemical_formula_structural   Er4Zr2Pb5
_chemical_formula_sum   'Er8 Zr4 Pb10'
_cell_volume   594.66843111
_cell_formula_units_Z   2
loop_
 _symmetry_equiv_pos_site_id
 _symmetry_equiv_pos_as_xyz
  1  'x, y, z'
loop_
 _atom_site_type_symbol
 _atom_site_label
 _atom_site_symmetry_multiplicity
 _atom_site_fract_x
 _atom_site_fract_y
 _atom_site_fract_z
 _atom_site_occupancy
  Er  Er0  1  0.439960  0.671375  0.879919  1
  Er  Er1  1  0.560040  0.328625  0.120081  1
  Er  Er2  1  0.939960  0.208544  0.879919  1
  Er  Er3  1  0.060040  0.791456  0.120081  1
  Er  Er4  1  0.145733  0.257240  0.291465  1
  Er  Er5  1  0.854267  0.742760  0.708535  1
  Er  Er6  1  0.645733  0.034226  0.291465  1
  Er  Er7  1  0.354267  0.965774  0.708535  1
  Zr  Zr8  1  0.554830  0.304830  0.609659  1
  Zr  Zr9  1  0.445170  0.695170  0.390341  1
  Zr  Zr10  1  0.945170  0.695170  0.390341  1
  Zr  Zr11  1  0.054830  0.304830  0.609659  1
  Pb  Pb12  1  0.291156  0.591487  0.582311  1
  Pb  Pb13  1  0.708844  0.408513  0.417689  1
  Pb  Pb14  1  0.791156  0.990824  0.582311  1
  Pb  Pb15  1  0.208844  0.009176  0.417689  1
  Pb  Pb16  1  0.250000  0.000000  0.000000  1
  Pb  Pb17  1  0.750000  0.000000  0.000000  1
  Pb  Pb18  1  0.077210  0.474819  0.154421  1
  Pb  Pb19  1  0.922790  0.525181  0.845579  1
  Pb  Pb20  1  0.577210  0.679601  0.154421  1
  Pb  Pb21  1  0.422790  0.320399  0.845579  1
