# generated using pymatgen
data_GdRe2AgH18
_symmetry_space_group_name_H-M   'P 1'
_cell_length_a   5.18498331
_cell_length_b   5.18858280
_cell_length_c   7.86884200
_cell_angle_alpha   86.90200606
_cell_angle_beta   93.20765247
_cell_angle_gamma   127.29434815
_symmetry_Int_Tables_number   1
_chemical_formula_structural   GdRe2AgH18
_chemical_formula_sum   'Gd1 Re2 Ag1 H18'
_cell_volume   168.09108328
_cell_formula_units_Z   1
loop_
 _symmetry_equiv_pos_site_id
 _symmetry_equiv_pos_as_xyz
  1  'x, y, z'
loop_
 _atom_site_type_symbol
 _atom_site_label
 _atom_site_symmetry_multiplicity
 _atom_site_fract_x
 _atom_site_fract_y
 _atom_site_fract_z
 _atom_site_occupancy
  Gd  Gd0  1  0.000000  0.000000  0.500000  1
  Re  Re1  1  0.353228  0.647697  0.740416  1
  Re  Re2  1  0.646772  0.352303  0.259584  1
  Ag  Ag3  1  0.000000  0.000000  0.000000  1
  H  H4  1  0.403157  0.596249  0.533697  1
  H  H5  1  0.596843  0.403751  0.466303  1
  H  H6  1  0.428619  0.572562  0.935671  1
  H  H7  1  0.571381  0.427438  0.064329  1
  H  H8  1  0.506886  0.948274  0.879001  1
  H  H9  1  0.946384  0.504911  0.120897  1
  H  H10  1  0.600752  0.016669  0.647622  1
  H  H11  1  0.016482  0.600603  0.352751  1
  H  H12  1  0.493114  0.051726  0.120999  1
  H  H13  1  0.053616  0.495089  0.879103  1
  H  H14  1  0.399248  0.983331  0.352378  1
  H  H15  1  0.983518  0.399397  0.647249  1
  H  H16  1  0.734835  0.733992  0.753340  1
  H  H17  1  0.731826  0.732906  0.246984  1
  H  H18  1  0.265165  0.266008  0.246660  1
  H  H19  1  0.268174  0.267094  0.753016  1
  H  H20  1  0.171393  0.829119  0.721489  1
  H  H21  1  0.828607  0.170881  0.278511  1
