# generated using pymatgen
data_Tm3TiGa2Ir3
_symmetry_space_group_name_H-M   'P 1'
_cell_length_a   6.96989306
_cell_length_b   6.86068132
_cell_length_c   4.13762000
_cell_angle_alpha   90.00000000
_cell_angle_beta   90.00000000
_cell_angle_gamma   119.48301870
_symmetry_Int_Tables_number   1
_chemical_formula_structural   Tm3TiGa2Ir3
_chemical_formula_sum   'Tm3 Ti1 Ga2 Ir3'
_cell_volume   172.23187858
_cell_formula_units_Z   1
loop_
 _symmetry_equiv_pos_site_id
 _symmetry_equiv_pos_as_xyz
  1  'x, y, z'
loop_
 _atom_site_type_symbol
 _atom_site_label
 _atom_site_symmetry_multiplicity
 _atom_site_fract_x
 _atom_site_fract_y
 _atom_site_fract_z
 _atom_site_occupancy
  Tm  Tm0  1  0.000000  0.398345  0.500000  1
  Tm  Tm1  1  0.574998  0.582794  0.500000  1
  Tm  Tm2  1  0.425002  0.007796  0.500000  1
  Ti  Ti3  1  0.000000  0.769435  0.000000  1
  Ga  Ga4  1  0.248656  0.245617  0.000000  1
  Ga  Ga5  1  0.751344  0.996961  0.000000  1
  Ir  Ir6  1  0.317582  0.665613  0.000000  1
  Ir  Ir7  1  0.682418  0.348030  0.000000  1
  Ir  Ir8  1  0.000000  0.985410  0.500000  1
