# generated using pymatgen
data_Pr4GeAsPd28
_symmetry_space_group_name_H-M   'P 1'
_cell_length_a   9.01483900
_cell_length_b   9.01483900
_cell_length_c   7.23261000
_cell_angle_alpha   90.00000000
_cell_angle_beta   90.00000000
_cell_angle_gamma   90.00000000
_symmetry_Int_Tables_number   1
_chemical_formula_structural   Pr4GeAsPd28
_chemical_formula_sum   'Pr4 Ge1 As1 Pd28'
_cell_volume   587.77484719
_cell_formula_units_Z   1
loop_
 _symmetry_equiv_pos_site_id
 _symmetry_equiv_pos_as_xyz
  1  'x, y, z'
loop_
 _atom_site_type_symbol
 _atom_site_label
 _atom_site_symmetry_multiplicity
 _atom_site_fract_x
 _atom_site_fract_y
 _atom_site_fract_z
 _atom_site_occupancy
  Pr  Pr0  1  0.500000  0.000000  0.935775  1
  Pr  Pr1  1  0.000000  0.500000  0.064884  1
  Pr  Pr2  1  0.000000  0.000000  0.499774  1
  Pr  Pr3  1  0.500000  0.500000  0.499774  1
  Ge  Ge4  1  0.000000  0.500000  0.549531  1
  As  As5  1  0.500000  0.000000  0.449737  1
  Pd  Pd6  1  0.331061  0.831061  0.621436  1
  Pd  Pd7  1  0.331061  0.168939  0.621436  1
  Pd  Pd8  1  0.668939  0.831061  0.621436  1
  Pd  Pd9  1  0.668939  0.168939  0.621436  1
  Pd  Pd10  1  0.169210  0.669210  0.378677  1
  Pd  Pd11  1  0.169210  0.330790  0.378677  1
  Pd  Pd12  1  0.830790  0.669210  0.378677  1
  Pd  Pd13  1  0.830790  0.330790  0.378677  1
  Pd  Pd14  1  0.500000  0.766699  0.253092  1
  Pd  Pd15  1  0.500000  0.233301  0.253092  1
  Pd  Pd16  1  0.266699  0.000000  0.253092  1
  Pd  Pd17  1  0.733301  0.000000  0.253092  1
  Pd  Pd18  1  0.000000  0.733363  0.746755  1
  Pd  Pd19  1  0.000000  0.266637  0.746755  1
  Pd  Pd20  1  0.233363  0.500000  0.746755  1
  Pd  Pd21  1  0.766637  0.500000  0.746755  1
  Pd  Pd22  1  0.500000  0.348494  0.857472  1
  Pd  Pd23  1  0.500000  0.651506  0.857472  1
  Pd  Pd24  1  0.848494  0.000000  0.857472  1
  Pd  Pd25  1  0.151506  0.000000  0.857472  1
  Pd  Pd26  1  0.000000  0.150800  0.142865  1
  Pd  Pd27  1  0.000000  0.849200  0.142865  1
  Pd  Pd28  1  0.650800  0.500000  0.142865  1
  Pd  Pd29  1  0.349200  0.500000  0.142865  1
  Pd  Pd30  1  0.249562  0.749562  0.999834  1
  Pd  Pd31  1  0.249562  0.250438  0.999834  1
  Pd  Pd32  1  0.750438  0.749562  0.999834  1
  Pd  Pd33  1  0.750438  0.250438  0.999834  1
