# generated using pymatgen
data_Ta6TiMn5Ru12
_symmetry_space_group_name_H-M   'P 1'
_cell_length_a   4.39001300
_cell_length_b   6.24331700
_cell_length_c   13.19344200
_cell_angle_alpha   90.00000000
_cell_angle_beta   89.99880034
_cell_angle_gamma   90.00000000
_symmetry_Int_Tables_number   1
_chemical_formula_structural   Ta6TiMn5Ru12
_chemical_formula_sum   'Ta6 Ti1 Mn5 Ru12'
_cell_volume   361.60906157
_cell_formula_units_Z   1
loop_
 _symmetry_equiv_pos_site_id
 _symmetry_equiv_pos_as_xyz
  1  'x, y, z'
loop_
 _atom_site_type_symbol
 _atom_site_label
 _atom_site_symmetry_multiplicity
 _atom_site_fract_x
 _atom_site_fract_y
 _atom_site_fract_z
 _atom_site_occupancy
  Ta  Ta0  1  0.000000  0.500000  0.000000  1
  Ta  Ta1  1  0.499933  0.000000  0.172475  1
  Ta  Ta2  1  0.999892  0.500000  0.333255  1
  Ta  Ta3  1  0.500000  0.000000  0.500000  1
  Ta  Ta4  1  0.000108  0.500000  0.666745  1
  Ta  Ta5  1  0.500066  0.000000  0.827525  1
  Ti  Ti6  1  0.000000  0.000000  0.000000  1
  Mn  Mn7  1  0.499922  0.500000  0.167031  1
  Mn  Mn8  1  0.999880  0.000000  0.333960  1
  Mn  Mn9  1  0.500000  0.500000  0.500000  1
  Mn  Mn10  1  0.000120  0.000000  0.666040  1
  Mn  Mn11  1  0.500078  0.500000  0.832970  1
  Ru  Ru12  1  0.500000  0.244840  0.000000  1
  Ru  Ru13  1  0.500000  0.755160  0.000000  1
  Ru  Ru14  1  0.999931  0.247617  0.164116  1
  Ru  Ru15  1  0.999931  0.752384  0.164116  1
  Ru  Ru16  1  0.499896  0.251055  0.333615  1
  Ru  Ru17  1  0.499896  0.748945  0.333615  1
  Ru  Ru18  1  0.000000  0.251956  0.500000  1
  Ru  Ru19  1  0.000000  0.748044  0.500000  1
  Ru  Ru20  1  0.500104  0.251055  0.666385  1
  Ru  Ru21  1  0.500104  0.748945  0.666385  1
  Ru  Ru22  1  0.000069  0.247617  0.835884  1
  Ru  Ru23  1  0.000069  0.752384  0.835884  1
