# generated using pymatgen
data_Zr3NbAl3WN
_symmetry_space_group_name_H-M   'P 1'
_cell_length_a   8.03537000
_cell_length_b   8.03537126
_cell_length_c   5.44113400
_cell_angle_alpha   90.00000000
_cell_angle_beta   90.00000000
_cell_angle_gamma   119.99999483
_symmetry_Int_Tables_number   1
_chemical_formula_structural   Zr3NbAl3WN
_chemical_formula_sum   'Zr6 Nb2 Al6 W2 N2'
_cell_volume   304.25092152
_cell_formula_units_Z   2
loop_
 _symmetry_equiv_pos_site_id
 _symmetry_equiv_pos_as_xyz
  1  'x, y, z'
loop_
 _atom_site_type_symbol
 _atom_site_label
 _atom_site_symmetry_multiplicity
 _atom_site_fract_x
 _atom_site_fract_y
 _atom_site_fract_z
 _atom_site_occupancy
  Zr  Zr0  1  0.230669  0.000000  0.250565  1
  Zr  Zr1  1  0.769331  0.000000  0.749435  1
  Zr  Zr2  1  0.000000  0.230669  0.250565  1
  Zr  Zr3  1  0.000000  0.769331  0.749435  1
  Zr  Zr4  1  0.769331  0.769331  0.250565  1
  Zr  Zr5  1  0.230669  0.230669  0.749435  1
  Nb  Nb6  1  0.666667  0.333333  0.500000  1
  Nb  Nb7  1  0.333333  0.666667  0.500000  1
  Al  Al8  1  0.585090  0.000000  0.237925  1
  Al  Al9  1  0.414910  0.000000  0.762075  1
  Al  Al10  1  0.000000  0.585090  0.237925  1
  Al  Al11  1  0.000000  0.414910  0.762075  1
  Al  Al12  1  0.414910  0.414910  0.237925  1
  Al  Al13  1  0.585090  0.585090  0.762075  1
  W  W14  1  0.333333  0.666667  0.000000  1
  W  W15  1  0.666667  0.333333  0.000000  1
  N  N16  1  0.000000  0.000000  0.000000  1
  N  N17  1  0.000000  0.000000  0.500000  1
