# generated using pymatgen
data_Dy4ZrPd14Pt
_symmetry_space_group_name_H-M   'P 1'
_cell_length_a   4.11254100
_cell_length_b   4.11254100
_cell_length_c   20.62594000
_cell_angle_alpha   90.00000000
_cell_angle_beta   90.00000000
_cell_angle_gamma   90.00000000
_symmetry_Int_Tables_number   1
_chemical_formula_structural   Dy4ZrPd14Pt
_chemical_formula_sum   'Dy4 Zr1 Pd14 Pt1'
_cell_volume   348.84638867
_cell_formula_units_Z   1
loop_
 _symmetry_equiv_pos_site_id
 _symmetry_equiv_pos_as_xyz
  1  'x, y, z'
loop_
 _atom_site_type_symbol
 _atom_site_label
 _atom_site_symmetry_multiplicity
 _atom_site_fract_x
 _atom_site_fract_y
 _atom_site_fract_z
 _atom_site_occupancy
  Dy  Dy0  1  0.000000  0.000000  0.198275  1
  Dy  Dy1  1  0.000000  0.000000  0.398851  1
  Dy  Dy2  1  0.000000  0.000000  0.601149  1
  Dy  Dy3  1  0.000000  0.000000  0.801725  1
  Zr  Zr4  1  0.000000  0.000000  0.000000  1
  Pd  Pd5  1  0.500000  0.500000  0.196784  1
  Pd  Pd6  1  0.500000  0.500000  0.399431  1
  Pd  Pd7  1  0.500000  0.500000  0.600569  1
  Pd  Pd8  1  0.500000  0.500000  0.803216  1
  Pd  Pd9  1  0.500000  0.000000  0.095176  1
  Pd  Pd10  1  0.500000  0.000000  0.298094  1
  Pd  Pd11  1  0.500000  0.000000  0.500000  1
  Pd  Pd12  1  0.500000  0.000000  0.701906  1
  Pd  Pd13  1  0.500000  0.000000  0.904824  1
  Pd  Pd14  1  0.000000  0.500000  0.095176  1
  Pd  Pd15  1  0.000000  0.500000  0.298094  1
  Pd  Pd16  1  0.000000  0.500000  0.500000  1
  Pd  Pd17  1  0.000000  0.500000  0.701906  1
  Pd  Pd18  1  0.000000  0.500000  0.904824  1
  Pt  Pt19  1  0.500000  0.500000  0.000000  1
