# generated using pymatgen
data_Ca2NiRuO6
_symmetry_space_group_name_H-M   'P 1'
_cell_length_a   5.41602946
_cell_length_b   5.58669206
_cell_length_c   7.70748302
_cell_angle_alpha   90.00907269
_cell_angle_beta   89.82924107
_cell_angle_gamma   90.01338091
_symmetry_Int_Tables_number   1
_chemical_formula_structural   Ca2NiRuO6
_chemical_formula_sum   'Ca4 Ni2 Ru2 O12'
_cell_volume   233.20957747
_cell_formula_units_Z   2
loop_
 _symmetry_equiv_pos_site_id
 _symmetry_equiv_pos_as_xyz
  1  'x, y, z'
loop_
 _atom_site_type_symbol
 _atom_site_label
 _atom_site_symmetry_multiplicity
 _atom_site_fract_x
 _atom_site_fract_y
 _atom_site_fract_z
 _atom_site_occupancy
  Ca  Ca0  1  0.486107  0.557136  0.247942  1
  Ca  Ca1  1  0.013789  0.057191  0.251774  1
  Ca  Ca2  1  0.986057  0.942758  0.748233  1
  Ca  Ca3  1  0.513839  0.442804  0.752032  1
  Ni  Ni4  1  0.500407  0.000334  0.000342  1
  Ni  Ni5  1  0.000405  0.500225  0.499696  1
  Ru  Ru6  1  0.999990  0.500022  0.999952  1
  Ru  Ru7  1  0.500025  0.999952  0.500060  1
  O  O8  1  0.291325  0.304472  0.046949  1
  O  O9  1  0.190382  0.787229  0.050136  1
  O  O10  1  0.906842  0.473696  0.242536  1
  O  O11  1  0.593035  0.973731  0.257491  1
  O  O12  1  0.309529  0.287190  0.449771  1
  O  O13  1  0.208591  0.804549  0.453042  1
  O  O14  1  0.791345  0.195493  0.546920  1
  O  O15  1  0.690395  0.712650  0.550165  1
  O  O16  1  0.406920  0.026124  0.742659  1
  O  O17  1  0.092959  0.526153  0.757385  1
  O  O18  1  0.809545  0.212778  0.949845  1
  O  O19  1  0.708505  0.695514  0.953071  1
