# generated using pymatgen
data_Pr20Ir3Pd5Ru4
_symmetry_space_group_name_H-M   'P 1'
_cell_length_a   11.40364780
_cell_length_b   11.40364780
_cell_length_c   6.68045016
_cell_angle_alpha   89.98218413
_cell_angle_beta   89.98218413
_cell_angle_gamma   89.77662646
_symmetry_Int_Tables_number   1
_chemical_formula_structural   Pr20Ir3Pd5Ru4
_chemical_formula_sum   'Pr20 Ir3 Pd5 Ru4'
_cell_volume   868.74031851
_cell_formula_units_Z   1
loop_
 _symmetry_equiv_pos_site_id
 _symmetry_equiv_pos_as_xyz
  1  'x, y, z'
loop_
 _atom_site_type_symbol
 _atom_site_label
 _atom_site_symmetry_multiplicity
 _atom_site_fract_x
 _atom_site_fract_y
 _atom_site_fract_z
 _atom_site_occupancy
  Pr  Pr0  1  0.297985  0.091252  0.373140  1
  Pr  Pr1  1  0.299178  0.907627  0.871321  1
  Pr  Pr2  1  0.700902  0.085270  0.871611  1
  Pr  Pr3  1  0.700938  0.907331  0.371850  1
  Pr  Pr4  1  0.584636  0.790069  0.882868  1
  Pr  Pr5  1  0.581981  0.204983  0.373960  1
  Pr  Pr6  1  0.414965  0.792435  0.382404  1
  Pr  Pr7  1  0.410447  0.206461  0.883735  1
  Pr  Pr8  1  0.209931  0.415364  0.617132  1
  Pr  Pr9  1  0.207565  0.585035  0.117596  1
  Pr  Pr10  1  0.795017  0.418019  0.126040  1
  Pr  Pr11  1  0.793539  0.589553  0.616265  1
  Pr  Pr12  1  0.908748  0.702015  0.126860  1
  Pr  Pr13  1  0.914730  0.299098  0.628389  1
  Pr  Pr14  1  0.092373  0.700822  0.628679  1
  Pr  Pr15  1  0.092669  0.299062  0.128150  1
  Pr  Pr16  1  0.999674  0.999422  0.499444  1
  Pr  Pr17  1  0.000578  0.000326  0.000556  1
  Pr  Pr18  1  0.498148  0.501565  0.000404  1
  Pr  Pr19  1  0.498435  0.501852  0.499596  1
  Ir  Ir20  1  0.652626  0.652519  0.250860  1
  Ir  Ir21  1  0.347481  0.347374  0.249140  1
  Ir  Ir22  1  0.345760  0.654240  0.750000  1
  Pd  Pd23  1  0.846300  0.153700  0.250000  1
  Pd  Pd24  1  0.846843  0.847513  0.749920  1
  Pd  Pd25  1  0.152487  0.153157  0.750080  1
  Pd  Pd26  1  0.153110  0.846890  0.250000  1
  Pd  Pd27  1  0.654753  0.345247  0.750000  1
  Ru  Ru28  1  0.500915  0.001061  0.118166  1
  Ru  Ru29  1  0.500628  0.002282  0.619509  1
  Ru  Ru30  1  0.997718  0.499372  0.880491  1
  Ru  Ru31  1  0.998939  0.499085  0.381834  1
