# generated using pymatgen
data_LaEuMgTaO6
_symmetry_space_group_name_H-M   'P 1'
_cell_length_a   5.73676500
_cell_length_b   5.64086291
_cell_length_c   9.78852002
_cell_angle_alpha   54.89414291
_cell_angle_beta   90.00000000
_cell_angle_gamma   90.00000000
_symmetry_Int_Tables_number   1
_chemical_formula_structural   LaEuMgTaO6
_chemical_formula_sum   'La2 Eu2 Mg2 Ta2 O12'
_cell_volume   259.13806892
_cell_formula_units_Z   2
loop_
 _symmetry_equiv_pos_site_id
 _symmetry_equiv_pos_as_xyz
  1  'x, y, z'
loop_
 _atom_site_type_symbol
 _atom_site_label
 _atom_site_symmetry_multiplicity
 _atom_site_fract_x
 _atom_site_fract_y
 _atom_site_fract_z
 _atom_site_occupancy
  La  La0  1  0.294735  0.238048  0.752106  1
  La  La1  1  0.705265  0.238048  0.252106  1
  Eu  Eu2  1  0.790562  0.759681  0.749691  1
  Eu  Eu3  1  0.209438  0.759681  0.249691  1
  Mg  Mg4  1  0.248201  0.999890  0.499658  1
  Mg  Mg5  1  0.751799  0.999890  0.999658  1
  Ta  Ta6  1  0.753142  0.499009  0.500675  1
  Ta  Ta7  1  0.246858  0.499009  0.000675  1
  O  O8  1  0.771760  0.655126  0.256028  1
  O  O9  1  0.038586  0.253721  0.547115  1
  O  O10  1  0.047112  0.831126  0.955528  1
  O  O11  1  0.543835  0.179395  0.539443  1
  O  O12  1  0.526939  0.751615  0.955575  1
  O  O13  1  0.274286  0.332389  0.244181  1
  O  O14  1  0.228240  0.655126  0.756028  1
  O  O15  1  0.961414  0.253721  0.047115  1
  O  O16  1  0.952888  0.831126  0.455528  1
  O  O17  1  0.456165  0.179395  0.039443  1
  O  O18  1  0.473061  0.751615  0.455575  1
  O  O19  1  0.725714  0.332389  0.744181  1
