# generated using pymatgen
data_CuB2Ir2Pd
_symmetry_space_group_name_H-M   'P 1'
_cell_length_a   6.69819766
_cell_length_b   6.04176169
_cell_length_c   5.49022366
_cell_angle_alpha   70.83460945
_cell_angle_beta   58.43038339
_cell_angle_gamma   51.22069617
_symmetry_Int_Tables_number   1
_chemical_formula_structural   CuB2Ir2Pd
_chemical_formula_sum   'Cu2 B4 Ir4 Pd2'
_cell_volume   147.57249040
_cell_formula_units_Z   2
loop_
 _symmetry_equiv_pos_site_id
 _symmetry_equiv_pos_as_xyz
  1  'x, y, z'
loop_
 _atom_site_type_symbol
 _atom_site_label
 _atom_site_symmetry_multiplicity
 _atom_site_fract_x
 _atom_site_fract_y
 _atom_site_fract_z
 _atom_site_occupancy
  Cu  Cu0  1  0.939540  0.794765  0.384630  1
  Cu  Cu1  1  0.455235  0.310460  0.368936  1
  B  B2  1  0.051587  0.984522  0.570438  1
  B  B3  1  0.689240  0.839293  0.193848  1
  B  B4  1  0.410707  0.560760  0.972380  1
  B  B5  1  0.265478  0.198413  0.856547  1
  Ir  Ir6  1  0.103702  0.635749  0.868561  1
  Ir  Ir7  1  0.376710  0.844621  0.157844  1
  Ir  Ir8  1  0.614251  0.146298  0.858012  1
  Ir  Ir9  1  0.405379  0.873290  0.629175  1
  Pd  Pd10  1  0.855818  0.362447  0.308082  1
  Pd  Pd11  1  0.887553  0.394182  0.776345  1
