# generated using pymatgen
data_Y2Lu2Ti(ReN4)3
_symmetry_space_group_name_H-M   'P 1'
_cell_length_a   7.23670498
_cell_length_b   7.33603319
_cell_length_c   6.20689833
_cell_angle_alpha   72.97828644
_cell_angle_beta   74.62939884
_cell_angle_gamma   82.36420762
_symmetry_Int_Tables_number   1
_chemical_formula_structural   Y2Lu2Ti(ReN4)3
_chemical_formula_sum   'Y2 Lu2 Ti1 Re3 N12'
_cell_volume   303.26477919
_cell_formula_units_Z   1
loop_
 _symmetry_equiv_pos_site_id
 _symmetry_equiv_pos_as_xyz
  1  'x, y, z'
loop_
 _atom_site_type_symbol
 _atom_site_label
 _atom_site_symmetry_multiplicity
 _atom_site_fract_x
 _atom_site_fract_y
 _atom_site_fract_z
 _atom_site_occupancy
  Y  Y0  1  0.703061  0.276599  0.242039  1
  Y  Y1  1  0.307854  0.722009  0.738327  1
  Lu  Lu2  1  0.910331  0.082410  0.766497  1
  Lu  Lu3  1  0.088105  0.907348  0.263881  1
  Ti  Ti4  1  0.616906  0.802377  0.260882  1
  Re  Re5  1  0.196802  0.380671  0.225020  1
  Re  Re6  1  0.380251  0.205147  0.730861  1
  Re  Re7  1  0.796671  0.615562  0.772378  1
  N  N8  1  0.647490  0.623008  0.057258  1
  N  N9  1  0.368000  0.886146  0.350426  1
  N  N10  1  0.358817  0.337781  0.431873  1
  N  N11  1  0.117614  0.625723  0.170331  1
  N  N12  1  0.001910  0.220276  0.342661  1
  N  N13  1  0.795175  0.998079  0.143002  1
  N  N14  1  0.221572  0.008658  0.851554  1
  N  N15  1  0.628196  0.124289  0.667735  1
  N  N16  1  0.340615  0.368998  0.926572  1
  N  N17  1  0.891661  0.373343  0.825086  1
  N  N18  1  0.639039  0.655155  0.571759  1
  N  N19  1  0.989929  0.786422  0.661860  1
