# generated using pymatgen
data_Ho16In6IrOs
_symmetry_space_group_name_H-M   'P 1'
_cell_length_a   10.36927800
_cell_length_b   10.36927922
_cell_length_c   7.03477200
_cell_angle_alpha   90.00000000
_cell_angle_beta   90.00000000
_cell_angle_gamma   120.00000248
_symmetry_Int_Tables_number   1
_chemical_formula_structural   Ho16In6IrOs
_chemical_formula_sum   'Ho16 In6 Ir1 Os1'
_cell_volume   655.05495247
_cell_formula_units_Z   1
loop_
 _symmetry_equiv_pos_site_id
 _symmetry_equiv_pos_as_xyz
  1  'x, y, z'
loop_
 _atom_site_type_symbol
 _atom_site_label
 _atom_site_symmetry_multiplicity
 _atom_site_fract_x
 _atom_site_fract_y
 _atom_site_fract_z
 _atom_site_occupancy
  Ho  Ho0  1  0.533018  0.066035  0.507513  1
  Ho  Ho1  1  0.933965  0.466982  0.507513  1
  Ho  Ho2  1  0.533018  0.466982  0.507513  1
  Ho  Ho3  1  0.466489  0.932979  0.006810  1
  Ho  Ho4  1  0.067021  0.533511  0.006810  1
  Ho  Ho5  1  0.466489  0.533511  0.006810  1
  Ho  Ho6  1  0.177171  0.354341  0.712822  1
  Ho  Ho7  1  0.645659  0.822829  0.712822  1
  Ho  Ho8  1  0.177171  0.822829  0.712822  1
  Ho  Ho9  1  0.823173  0.646346  0.212550  1
  Ho  Ho10  1  0.353654  0.176827  0.212550  1
  Ho  Ho11  1  0.823173  0.176827  0.212550  1
  Ho  Ho12  1  0.666667  0.333333  0.885426  1
  Ho  Ho13  1  0.333333  0.666667  0.384931  1
  Ho  Ho14  1  0.000000  0.000000  0.492671  1
  Ho  Ho15  1  0.000000  0.000000  0.992977  1
  In  In16  1  0.837147  0.674295  0.752833  1
  In  In17  1  0.325705  0.162853  0.752833  1
  In  In18  1  0.837147  0.162853  0.752833  1
  In  In19  1  0.162665  0.325330  0.252689  1
  In  In20  1  0.674670  0.837335  0.252689  1
  In  In21  1  0.162665  0.837335  0.252689  1
  Ir  Ir22  1  0.666667  0.333333  0.282832  1
  Os  Os23  1  0.333333  0.666667  0.783560  1
