# generated using pymatgen
data_La5P12Ir15Ru4
_symmetry_space_group_name_H-M   'P 1'
_cell_length_a   12.79986039
_cell_length_b   12.82205631
_cell_length_c   4.06014400
_cell_angle_alpha   90.00000000
_cell_angle_beta   90.00000000
_cell_angle_gamma   120.36125444
_symmetry_Int_Tables_number   1
_chemical_formula_structural   La5P12Ir15Ru4
_chemical_formula_sum   'La5 P12 Ir15 Ru4'
_cell_volume   574.96645444
_cell_formula_units_Z   1
loop_
 _symmetry_equiv_pos_site_id
 _symmetry_equiv_pos_as_xyz
  1  'x, y, z'
loop_
 _atom_site_type_symbol
 _atom_site_label
 _atom_site_symmetry_multiplicity
 _atom_site_fract_x
 _atom_site_fract_y
 _atom_site_fract_z
 _atom_site_occupancy
  La  La0  1  0.999610  0.813696  0.500000  1
  La  La1  1  0.184194  0.186035  0.500000  1
  La  La2  1  0.815050  0.999090  0.500000  1
  La  La3  1  0.333853  0.669233  0.000000  1
  La  La4  1  0.666778  0.331987  0.000000  1
  P  P5  1  0.999607  0.185167  0.000000  1
  P  P6  1  0.815859  0.813526  0.000000  1
  P  P7  1  0.184371  0.000569  0.000000  1
  P  P8  1  0.520666  0.695052  0.500000  1
  P  P9  1  0.314910  0.835517  0.500000  1
  P  P10  1  0.170794  0.479692  0.500000  1
  P  P11  1  0.476754  0.169605  0.500000  1
  P  P12  1  0.693106  0.519993  0.500000  1
  P  P13  1  0.828934  0.307012  0.500000  1
  P  P14  1  0.001095  0.637020  0.000000  1
  P  P15  1  0.362831  0.364427  0.000000  1
  P  P16  1  0.632379  0.993943  0.000000  1
  Ir  Ir17  1  0.620290  0.797542  0.000000  1
  Ir  Ir18  1  0.197306  0.818791  0.000000  1
  Ir  Ir19  1  0.181100  0.381487  0.000000  1
  Ir  Ir20  1  0.378838  0.182907  0.000000  1
  Ir  Ir21  1  0.801442  0.618971  0.000000  1
  Ir  Ir22  1  0.816651  0.195607  0.000000  1
  Ir  Ir23  1  0.130075  0.637594  0.500000  1
  Ir  Ir24  1  0.365391  0.493045  0.500000  1
  Ir  Ir25  1  0.493393  0.364511  0.500000  1
  Ir  Ir26  1  0.873817  0.507943  0.500000  1
  Ir  Ir27  1  0.633636  0.128693  0.500000  1
  Ir  Ir28  1  0.998948  0.000042  0.000000  1
  Ir  Ir29  1  0.001342  0.459145  0.000000  1
  Ir  Ir30  1  0.543740  0.542835  0.000000  1
  Ir  Ir31  1  0.455859  0.997394  0.000000  1
  Ru  Ru32  1  0.999448  0.287484  0.500000  1
  Ru  Ru33  1  0.709667  0.708585  0.500000  1
  Ru  Ru34  1  0.284575  0.999346  0.500000  1
  Ru  Ru35  1  0.513697  0.876513  0.500000  1
