# generated using pymatgen
data_Tb2Ta3P7Ir5Rh4
_symmetry_space_group_name_H-M   'P 1'
_cell_length_a   3.96300400
_cell_length_b   9.64384423
_cell_length_c   9.65201436
_cell_angle_alpha   119.99945833
_cell_angle_beta   89.99962526
_cell_angle_gamma   90.00059678
_symmetry_Int_Tables_number   1
_chemical_formula_structural   Tb2Ta3P7Ir5Rh4
_chemical_formula_sum   'Tb2 Ta3 P7 Ir5 Rh4'
_cell_volume   319.46674653
_cell_formula_units_Z   1
loop_
 _symmetry_equiv_pos_site_id
 _symmetry_equiv_pos_as_xyz
  1  'x, y, z'
loop_
 _atom_site_type_symbol
 _atom_site_label
 _atom_site_symmetry_multiplicity
 _atom_site_fract_x
 _atom_site_fract_y
 _atom_site_fract_z
 _atom_site_occupancy
  Tb  Tb0  1  0.261647  0.666395  0.333357  1
  Tb  Tb1  1  0.762038  0.333255  0.666742  1
  Ta  Ta2  1  0.761924  0.095393  0.872096  1
  Ta  Ta3  1  0.761959  0.129918  0.223462  1
  Ta  Ta4  1  0.761975  0.776557  0.906165  1
  P  P5  1  0.262086  0.999834  0.999374  1
  P  P6  1  0.761803  0.876617  0.588479  1
  P  P7  1  0.761771  0.412027  0.288458  1
  P  P8  1  0.761782  0.712801  0.124300  1
  P  P9  1  0.261941  0.117636  0.417819  1
  P  P10  1  0.262001  0.582241  0.700650  1
  P  P11  1  0.261967  0.298047  0.880468  1
  Ir  Ir12  1  0.261905  0.888342  0.160972  1
  Ir  Ir13  1  0.261876  0.838240  0.726531  1
  Ir  Ir14  1  0.261865  0.273559  0.111634  1
  Ir  Ir15  1  0.261934  0.365971  0.439528  1
  Ir  Ir16  1  0.261968  0.560342  0.926583  1
  Rh  Rh17  1  0.761885  0.611545  0.555645  1
  Rh  Rh18  1  0.761882  0.445328  0.057167  1
  Rh  Rh19  1  0.761879  0.945433  0.388527  1
  Rh  Rh20  1  0.261914  0.070521  0.632041  1
