# generated using pymatgen
data_Tb4YSn4
_symmetry_space_group_name_H-M   'P 1'
_cell_length_a   8.06214200
_cell_length_b   8.21411400
_cell_length_c   15.53527100
_cell_angle_alpha   90.00000000
_cell_angle_beta   90.00000000
_cell_angle_gamma   90.00000000
_symmetry_Int_Tables_number   1
_chemical_formula_structural   Tb4YSn4
_chemical_formula_sum   'Tb16 Y4 Sn16'
_cell_volume   1028.79774272
_cell_formula_units_Z   4
loop_
 _symmetry_equiv_pos_site_id
 _symmetry_equiv_pos_as_xyz
  1  'x, y, z'
loop_
 _atom_site_type_symbol
 _atom_site_label
 _atom_site_symmetry_multiplicity
 _atom_site_fract_x
 _atom_site_fract_y
 _atom_site_fract_z
 _atom_site_occupancy
  Tb  Tb0  1  0.367615  0.835653  0.878615  1
  Tb  Tb1  1  0.867615  0.664347  0.621385  1
  Tb  Tb2  1  0.632385  0.164347  0.378615  1
  Tb  Tb3  1  0.132385  0.335653  0.121385  1
  Tb  Tb4  1  0.632385  0.164347  0.121385  1
  Tb  Tb5  1  0.132385  0.335653  0.378615  1
  Tb  Tb6  1  0.367615  0.835653  0.621385  1
  Tb  Tb7  1  0.867615  0.664347  0.878615  1
  Tb  Tb8  1  0.520193  0.319684  0.902239  1
  Tb  Tb9  1  0.020193  0.180316  0.597761  1
  Tb  Tb10  1  0.479807  0.680316  0.402239  1
  Tb  Tb11  1  0.979807  0.819684  0.097761  1
  Tb  Tb12  1  0.479807  0.680316  0.097761  1
  Tb  Tb13  1  0.979807  0.819684  0.402239  1
  Tb  Tb14  1  0.520193  0.319684  0.597761  1
  Tb  Tb15  1  0.020193  0.180316  0.902239  1
  Y  Y16  1  0.198363  0.502021  0.750000  1
  Y  Y17  1  0.698363  0.997979  0.750000  1
  Y  Y18  1  0.801637  0.497979  0.250000  1
  Y  Y19  1  0.301637  0.002021  0.250000  1
  Sn  Sn20  1  0.291940  0.033948  0.042150  1
  Sn  Sn21  1  0.791940  0.466052  0.457850  1
  Sn  Sn22  1  0.708060  0.966052  0.542150  1
  Sn  Sn23  1  0.208060  0.533948  0.957850  1
  Sn  Sn24  1  0.708060  0.966052  0.957850  1
  Sn  Sn25  1  0.208060  0.533948  0.542150  1
  Sn  Sn26  1  0.291940  0.033948  0.457850  1
  Sn  Sn27  1  0.791940  0.466052  0.042150  1
  Sn  Sn28  1  0.565289  0.618740  0.750000  1
  Sn  Sn29  1  0.065289  0.881260  0.750000  1
  Sn  Sn30  1  0.434711  0.381260  0.250000  1
  Sn  Sn31  1  0.934711  0.118740  0.250000  1
  Sn  Sn32  1  0.327903  0.145531  0.750000  1
  Sn  Sn33  1  0.827903  0.354469  0.750000  1
  Sn  Sn34  1  0.672097  0.854469  0.250000  1
  Sn  Sn35  1  0.172097  0.645531  0.250000  1
