# generated using pymatgen
data_BaLiCd10
_symmetry_space_group_name_H-M   'P 1'
_cell_length_a   9.44937291
_cell_length_b   9.44937265
_cell_length_c   9.45261891
_cell_angle_alpha   99.89857170
_cell_angle_beta   99.89857271
_cell_angle_gamma   131.31267772
_symmetry_Int_Tables_number   1
_chemical_formula_structural   BaLiCd10
_chemical_formula_sum   'Ba2 Li2 Cd20'
_cell_volume   576.20676302
_cell_formula_units_Z   2
loop_
 _symmetry_equiv_pos_site_id
 _symmetry_equiv_pos_as_xyz
  1  'x, y, z'
loop_
 _atom_site_type_symbol
 _atom_site_label
 _atom_site_symmetry_multiplicity
 _atom_site_fract_x
 _atom_site_fract_y
 _atom_site_fract_z
 _atom_site_occupancy
  Ba  Ba0  1  0.750779  0.249221  0.500000  1
  Ba  Ba1  1  0.499221  0.500779  0.000000  1
  Li  Li2  1  0.125000  0.375000  0.250000  1
  Li  Li3  1  0.625000  0.875000  0.750000  1
  Cd  Cd4  1  0.927342  0.017592  0.326998  1
  Cd  Cd5  1  0.680256  0.605577  0.677268  1
  Cd  Cd6  1  0.255004  0.744996  0.500000  1
  Cd  Cd7  1  0.994996  0.005004  0.000000  1
  Cd  Cd8  1  0.125000  0.875000  0.250000  1
  Cd  Cd9  1  0.125000  0.875000  0.750000  1
  Cd  Cd10  1  0.922094  0.595312  0.914648  1
  Cd  Cd11  1  0.855577  0.430256  0.177268  1
  Cd  Cd12  1  0.267592  0.677342  0.826998  1
  Cd  Cd13  1  0.688793  0.012270  0.080092  1
  Cd  Cd14  1  0.404688  0.077906  0.085352  1
  Cd  Cd15  1  0.987730  0.311207  0.919908  1
  Cd  Cd16  1  0.569744  0.144423  0.822732  1
  Cd  Cd17  1  0.322658  0.732408  0.173002  1
  Cd  Cd18  1  0.327906  0.154688  0.585352  1
  Cd  Cd19  1  0.394423  0.319744  0.322732  1
  Cd  Cd20  1  0.982408  0.072658  0.673002  1
  Cd  Cd21  1  0.561207  0.737730  0.419908  1
  Cd  Cd22  1  0.845312  0.672094  0.414648  1
  Cd  Cd23  1  0.262270  0.438793  0.580092  1
