# generated using pymatgen
data_LuPa3Ga6Os7
_symmetry_space_group_name_H-M   'P 1'
_cell_length_a   7.26591960
_cell_length_b   7.25188622
_cell_length_c   7.26591801
_cell_angle_alpha   109.43211039
_cell_angle_beta   109.51030010
_cell_angle_gamma   109.43211176
_symmetry_Int_Tables_number   1
_chemical_formula_structural   LuPa3Ga6Os7
_chemical_formula_sum   'Lu1 Pa3 Ga6 Os7'
_cell_volume   294.86251943
_cell_formula_units_Z   1
loop_
 _symmetry_equiv_pos_site_id
 _symmetry_equiv_pos_as_xyz
  1  'x, y, z'
loop_
 _atom_site_type_symbol
 _atom_site_label
 _atom_site_symmetry_multiplicity
 _atom_site_fract_x
 _atom_site_fract_y
 _atom_site_fract_z
 _atom_site_occupancy
  Lu  Lu0  1  0.000000  0.500000  0.000000  1
  Pa  Pa1  1  0.000000  0.000000  0.500000  1
  Pa  Pa2  1  0.500000  0.000000  0.000000  1
  Pa  Pa3  1  0.500000  0.500000  0.500000  1
  Ga  Ga4  1  0.696066  0.689218  0.000000  1
  Ga  Ga5  1  0.303934  0.993152  0.303934  1
  Ga  Ga6  1  0.000000  0.310782  0.303934  1
  Ga  Ga7  1  0.303934  0.310782  0.000000  1
  Ga  Ga8  1  0.696066  0.006848  0.696066  1
  Ga  Ga9  1  0.000000  0.689218  0.696066  1
  Os  Os10  1  0.747497  0.247497  0.494995  1
  Os  Os11  1  0.747497  0.500000  0.252503  1
  Os  Os12  1  0.494995  0.247497  0.747497  1
  Os  Os13  1  0.252503  0.500000  0.747497  1
  Os  Os14  1  0.252503  0.752503  0.505005  1
  Os  Os15  1  0.505005  0.752503  0.252503  1
  Os  Os16  1  0.000000  0.000000  0.000000  1
