# generated using pymatgen
data_LiHfP7Ru12
_symmetry_space_group_name_H-M   'P 1'
_cell_length_a   9.36451300
_cell_length_b   9.36451162
_cell_length_c   3.91443800
_cell_angle_alpha   90.00000000
_cell_angle_beta   90.00000000
_cell_angle_gamma   119.99999946
_symmetry_Int_Tables_number   1
_chemical_formula_structural   LiHfP7Ru12
_chemical_formula_sum   'Li1 Hf1 P7 Ru12'
_cell_volume   297.28321052
_cell_formula_units_Z   1
loop_
 _symmetry_equiv_pos_site_id
 _symmetry_equiv_pos_as_xyz
  1  'x, y, z'
loop_
 _atom_site_type_symbol
 _atom_site_label
 _atom_site_symmetry_multiplicity
 _atom_site_fract_x
 _atom_site_fract_y
 _atom_site_fract_z
 _atom_site_occupancy
  Li  Li0  1  0.333333  0.666667  0.000000  1
  Hf  Hf1  1  0.666667  0.333333  0.500000  1
  P  P2  1  0.600039  0.721448  0.500000  1
  P  P3  1  0.000000  0.000000  0.000000  1
  P  P4  1  0.278552  0.878592  0.500000  1
  P  P5  1  0.121408  0.399961  0.500000  1
  P  P6  1  0.888034  0.572177  0.000000  1
  P  P7  1  0.427823  0.315857  0.000000  1
  P  P8  1  0.684143  0.111966  0.000000  1
  Ru  Ru9  1  0.554606  0.954315  0.500000  1
  Ru  Ru10  1  0.399710  0.445394  0.500000  1
  Ru  Ru11  1  0.914820  0.121504  0.500000  1
  Ru  Ru12  1  0.206684  0.085180  0.500000  1
  Ru  Ru13  1  0.878496  0.793316  0.500000  1
  Ru  Ru14  1  0.725182  0.888242  0.000000  1
  Ru  Ru15  1  0.111758  0.836938  0.000000  1
  Ru  Ru16  1  0.163062  0.274818  0.000000  1
  Ru  Ru17  1  0.426326  0.075637  0.000000  1
  Ru  Ru18  1  0.924363  0.350689  0.000000  1
  Ru  Ru19  1  0.649311  0.573674  0.000000  1
  Ru  Ru20  1  0.045685  0.600290  0.500000  1
