# generated using pymatgen
data_La11LuIn20
_symmetry_space_group_name_H-M   'P 1'
_cell_length_a   6.84711417
_cell_length_b   10.82330000
_cell_length_c   12.77725000
_cell_angle_alpha   90.00000000
_cell_angle_beta   89.96643646
_cell_angle_gamma   90.00000000
_symmetry_Int_Tables_number   1
_chemical_formula_structural   La11LuIn20
_chemical_formula_sum   'La11 Lu1 In20'
_cell_volume   946.90101895
_cell_formula_units_Z   1
loop_
 _symmetry_equiv_pos_site_id
 _symmetry_equiv_pos_as_xyz
  1  'x, y, z'
loop_
 _atom_site_type_symbol
 _atom_site_label
 _atom_site_symmetry_multiplicity
 _atom_site_fract_x
 _atom_site_fract_y
 _atom_site_fract_z
 _atom_site_occupancy
  La  La0  1  0.345605  0.750000  0.060234  1
  La  La1  1  0.886954  0.489349  0.143520  1
  La  La2  1  0.612731  0.009662  0.645562  1
  La  La3  1  0.108641  0.990682  0.854681  1
  La  La4  1  0.390046  0.508601  0.353867  1
  La  La5  1  0.108641  0.509318  0.854681  1
  La  La6  1  0.390046  0.991399  0.353867  1
  La  La7  1  0.886954  0.010651  0.143520  1
  La  La8  1  0.612731  0.490338  0.645562  1
  La  La9  1  0.151775  0.750000  0.560526  1
  La  La10  1  0.851265  0.250000  0.438919  1
  Lu  Lu11  1  0.653698  0.250000  0.940598  1
  In  In12  1  0.626312  0.750000  0.503108  1
  In  In13  1  0.868083  0.750000  0.000287  1
  In  In14  1  0.376182  0.250000  0.500712  1
  In  In15  1  0.114219  0.250000  0.994894  1
  In  In16  1  0.661864  0.750000  0.244583  1
  In  In17  1  0.839273  0.750000  0.744954  1
  In  In18  1  0.350573  0.250000  0.760267  1
  In  In19  1  0.162856  0.250000  0.253364  1
  In  In20  1  0.107400  0.750000  0.287597  1
  In  In21  1  0.396203  0.750000  0.788395  1
  In  In22  1  0.891847  0.250000  0.719280  1
  In  In23  1  0.608804  0.250000  0.208720  1
  In  In24  1  0.874647  0.548666  0.403101  1
  In  In25  1  0.623687  0.959241  0.904685  1
  In  In26  1  0.126340  0.048788  0.597569  1
  In  In27  1  0.373974  0.449072  0.093797  1
  In  In28  1  0.126340  0.451212  0.597569  1
  In  In29  1  0.373974  0.050928  0.093797  1
  In  In30  1  0.874647  0.951334  0.403101  1
  In  In31  1  0.623687  0.540759  0.904685  1
