# generated using pymatgen
data_PrNd3(Ga12Pd)2
_symmetry_space_group_name_H-M   'P 1'
_cell_length_a   6.19926425
_cell_length_b   6.19926425
_cell_length_c   15.47365400
_cell_angle_alpha   90.00000000
_cell_angle_beta   90.00000000
_cell_angle_gamma   89.96774419
_symmetry_Int_Tables_number   1
_chemical_formula_structural   PrNd3(Ga12Pd)2
_chemical_formula_sum   'Pr1 Nd3 Ga24 Pd2'
_cell_volume   594.66600227
_cell_formula_units_Z   1
loop_
 _symmetry_equiv_pos_site_id
 _symmetry_equiv_pos_as_xyz
  1  'x, y, z'
loop_
 _atom_site_type_symbol
 _atom_site_label
 _atom_site_symmetry_multiplicity
 _atom_site_fract_x
 _atom_site_fract_y
 _atom_site_fract_z
 _atom_site_occupancy
  Pr  Pr0  1  0.750000  0.250000  0.245736  1
  Nd  Nd1  1  0.250000  0.750000  0.245332  1
  Nd  Nd2  1  0.250000  0.750000  0.754639  1
  Nd  Nd3  1  0.750000  0.250000  0.754684  1
  Ga  Ga4  1  0.250000  0.250000  0.184946  1
  Ga  Ga5  1  0.750000  0.750000  0.184946  1
  Ga  Ga6  1  0.750000  0.750000  0.814818  1
  Ga  Ga7  1  0.250000  0.250000  0.814818  1
  Ga  Ga8  1  0.250000  0.250000  0.345084  1
  Ga  Ga9  1  0.750000  0.750000  0.345084  1
  Ga  Ga10  1  0.750000  0.750000  0.655043  1
  Ga  Ga11  1  0.250000  0.250000  0.655043  1
  Ga  Ga12  1  0.500017  0.000017  0.911982  1
  Ga  Ga13  1  0.999905  0.000095  0.911971  1
  Ga  Ga14  1  0.500095  0.499905  0.911971  1
  Ga  Ga15  1  0.999983  0.499983  0.911982  1
  Ga  Ga16  1  0.499860  0.999860  0.087623  1
  Ga  Ga17  1  0.000226  0.999774  0.087673  1
  Ga  Ga18  1  0.499774  0.500226  0.087673  1
  Ga  Ga19  1  0.000140  0.500140  0.087623  1
  Ga  Ga20  1  0.579764  0.079764  0.431369  1
  Ga  Ga21  1  0.080314  0.919686  0.431041  1
  Ga  Ga22  1  0.419686  0.580314  0.431041  1
  Ga  Ga23  1  0.920236  0.420236  0.431369  1
  Ga  Ga24  1  0.419385  0.919385  0.569263  1
  Ga  Ga25  1  0.919536  0.080464  0.569129  1
  Ga  Ga26  1  0.580464  0.419536  0.569129  1
  Ga  Ga27  1  0.080615  0.580615  0.569263  1
  Pd  Pd28  1  0.750000  0.250000  0.999931  1
  Pd  Pd29  1  0.250000  0.750000  0.999796  1
