# generated using pymatgen
data_Dy6Sc2Ti2Al12Ir7
_symmetry_space_group_name_H-M   'P 1'
_cell_length_a   9.01671072
_cell_length_b   9.03395136
_cell_length_c   9.03395052
_cell_angle_alpha   60.17061036
_cell_angle_beta   60.06309748
_cell_angle_gamma   60.06310354
_symmetry_Int_Tables_number   1
_chemical_formula_structural   Dy6Sc2Ti2Al12Ir7
_chemical_formula_sum   'Dy6 Sc2 Ti2 Al12 Ir7'
_cell_volume   521.50690893
_cell_formula_units_Z   1
loop_
 _symmetry_equiv_pos_site_id
 _symmetry_equiv_pos_as_xyz
  1  'x, y, z'
loop_
 _atom_site_type_symbol
 _atom_site_label
 _atom_site_symmetry_multiplicity
 _atom_site_fract_x
 _atom_site_fract_y
 _atom_site_fract_z
 _atom_site_occupancy
  Dy  Dy0  1  0.705240  0.704303  0.294570  1
  Dy  Dy1  1  0.295886  0.704303  0.294570  1
  Dy  Dy2  1  0.703098  0.296902  0.296902  1
  Dy  Dy3  1  0.295886  0.294570  0.704303  1
  Dy  Dy4  1  0.705240  0.294570  0.704303  1
  Dy  Dy5  1  0.292904  0.707096  0.707096  1
  Sc  Sc6  1  0.881453  0.882720  0.354374  1
  Sc  Sc7  1  0.881453  0.354374  0.882720  1
  Ti  Ti8  1  0.358732  0.880730  0.880730  1
  Ti  Ti9  1  0.879807  0.880730  0.880730  1
  Al  Al10  1  0.120015  0.119305  0.640663  1
  Al  Al11  1  0.120015  0.640663  0.119305  1
  Al  Al12  1  0.642299  0.117854  0.117854  1
  Al  Al13  1  0.121993  0.117854  0.117854  1
  Al  Al14  1  0.668940  0.671588  0.990531  1
  Al  Al15  1  0.668940  0.990531  0.671588  1
  Al  Al16  1  0.990850  0.670527  0.670527  1
  Al  Al17  1  0.668094  0.670527  0.670527  1
  Al  Al18  1  0.328942  0.329617  0.012501  1
  Al  Al19  1  0.328942  0.012501  0.329617  1
  Al  Al20  1  0.013374  0.328769  0.328769  1
  Al  Al21  1  0.329089  0.328769  0.328769  1
  Ir  Ir22  1  0.009051  0.990949  0.990949  1
  Ir  Ir23  1  0.000066  0.000444  0.505456  1
  Ir  Ir24  1  0.494034  0.000444  0.505456  1
  Ir  Ir25  1  0.001208  0.498792  0.498792  1
  Ir  Ir26  1  0.494034  0.505456  0.000444  1
  Ir  Ir27  1  0.000066  0.505456  0.000444  1
  Ir  Ir28  1  0.500347  0.999653  0.999653  1
