# generated using pymatgen
data_Y(FeRe2)4
_symmetry_space_group_name_H-M   'P 1'
_cell_length_a   4.81293736
_cell_length_b   6.75063936
_cell_length_c   6.75064038
_cell_angle_alpha   82.69922201
_cell_angle_beta   69.11581456
_cell_angle_gamma   69.11581562
_symmetry_Int_Tables_number   1
_chemical_formula_structural   Y(FeRe2)4
_chemical_formula_sum   'Y1 Fe4 Re8'
_cell_volume   191.45886944
_cell_formula_units_Z   1
loop_
 _symmetry_equiv_pos_site_id
 _symmetry_equiv_pos_as_xyz
  1  'x, y, z'
loop_
 _atom_site_type_symbol
 _atom_site_label
 _atom_site_symmetry_multiplicity
 _atom_site_fract_x
 _atom_site_fract_y
 _atom_site_fract_z
 _atom_site_occupancy
  Y  Y0  1  0.000000  0.000000  0.000000  1
  Fe  Fe1  1  0.000000  0.000000  0.500000  1
  Fe  Fe2  1  0.500000  0.000000  0.500000  1
  Fe  Fe3  1  0.500000  0.500000  0.000000  1
  Fe  Fe4  1  0.000000  0.500000  0.000000  1
  Re  Re5  1  0.000000  0.357121  0.642879  1
  Re  Re6  1  0.000000  0.642879  0.357121  1
  Re  Re7  1  0.642879  0.357121  0.357121  1
  Re  Re8  1  0.357121  0.642879  0.642879  1
  Re  Re9  1  0.715098  0.784902  0.784902  1
  Re  Re10  1  0.284902  0.215098  0.215098  1
  Re  Re11  1  0.500000  0.215098  0.784902  1
  Re  Re12  1  0.500000  0.784902  0.215098  1
