# generated using pymatgen
data_LiAgSn4(PO4)6
_symmetry_space_group_name_H-M   'P 1'
_cell_length_a   8.52350151
_cell_length_b   8.51049609
_cell_length_c   9.18605428
_cell_angle_alpha   62.32754777
_cell_angle_beta   62.28631520
_cell_angle_gamma   60.22692328
_symmetry_Int_Tables_number   1
_chemical_formula_structural   LiAgSn4(PO4)6
_chemical_formula_sum   'Li1 Ag1 Sn4 P6 O24'
_cell_volume   487.82954291
_cell_formula_units_Z   1
loop_
 _symmetry_equiv_pos_site_id
 _symmetry_equiv_pos_as_xyz
  1  'x, y, z'
loop_
 _atom_site_type_symbol
 _atom_site_label
 _atom_site_symmetry_multiplicity
 _atom_site_fract_x
 _atom_site_fract_y
 _atom_site_fract_z
 _atom_site_occupancy
  Li  Li0  1  0.741874  0.576217  0.357416  1
  Ag  Ag1  1  0.066368  0.496491  0.510061  1
  Sn  Sn2  1  0.151509  0.650703  0.061855  1
  Sn  Sn3  1  0.655047  0.144681  0.557780  1
  Sn  Sn4  1  0.347714  0.851051  0.457865  1
  Sn  Sn5  1  0.859486  0.347735  0.942077  1
  P  P6  1  0.552120  0.456907  0.746425  1
  P  P7  1  0.752094  0.959873  0.258317  1
  P  P8  1  0.042251  0.251944  0.253560  1
  P  P9  1  0.968844  0.745768  0.752976  1
  P  P10  1  0.254745  0.035419  0.757777  1
  P  P11  1  0.468363  0.535105  0.254552  1
  O  O12  1  0.885046  0.753551  0.242850  1
  O  O13  1  0.554403  0.633856  0.579848  1
  O  O14  1  0.393414  0.510130  0.905407  1
  O  O15  1  0.749159  0.378190  0.768995  1
  O  O16  1  0.121957  0.393713  0.231804  1
  O  O17  1  0.798421  0.105198  0.081179  1
  O  O18  1  0.525453  0.307667  0.718265  1
  O  O19  1  0.218047  0.006719  0.623570  1
  O  O20  1  0.843355  0.297227  0.394978  1
  O  O21  1  0.545104  0.979685  0.308797  1
  O  O22  1  0.020164  0.289681  0.082875  1
  O  O23  1  0.173919  0.045926  0.309377  1
  O  O24  1  0.836204  0.952725  0.699958  1
  O  O25  1  0.986367  0.704908  0.927738  1
  O  O26  1  0.462562  0.011327  0.706391  1
  O  O27  1  0.165241  0.705495  0.611098  1
  O  O28  1  0.791772  0.978638  0.396270  1
  O  O29  1  0.496009  0.676627  0.295745  1
  O  O30  1  0.203536  0.895703  0.938844  1
  O  O31  1  0.887116  0.607020  0.772532  1
  O  O32  1  0.266228  0.618427  0.237210  1
  O  O33  1  0.617889  0.509304  0.082713  1
  O  O34  1  0.479266  0.346551  0.404377  1
  O  O35  1  0.118954  0.239837  0.768517  1
