# generated using pymatgen
data_CeDy3Mg3AlIr4
_symmetry_space_group_name_H-M   'P 1'
_cell_length_a   7.04246907
_cell_length_b   4.10123800
_cell_length_c   8.49371602
_cell_angle_alpha   90.00000000
_cell_angle_beta   89.73834172
_cell_angle_gamma   90.00000000
_symmetry_Int_Tables_number   1
_chemical_formula_structural   CeDy3Mg3AlIr4
_chemical_formula_sum   'Ce1 Dy3 Mg3 Al1 Ir4'
_cell_volume   245.32009773
_cell_formula_units_Z   1
loop_
 _symmetry_equiv_pos_site_id
 _symmetry_equiv_pos_as_xyz
  1  'x, y, z'
loop_
 _atom_site_type_symbol
 _atom_site_label
 _atom_site_symmetry_multiplicity
 _atom_site_fract_x
 _atom_site_fract_y
 _atom_site_fract_z
 _atom_site_occupancy
  Ce  Ce0  1  0.466315  0.250000  0.314793  1
  Dy  Dy1  1  0.958009  0.250000  0.173895  1
  Dy  Dy2  1  0.040591  0.750000  0.825942  1
  Dy  Dy3  1  0.535711  0.750000  0.681134  1
  Mg  Mg4  1  0.861620  0.250000  0.563501  1
  Mg  Mg5  1  0.365577  0.250000  0.939479  1
  Mg  Mg6  1  0.130734  0.750000  0.440665  1
  Al  Al7  1  0.639998  0.750000  0.053387  1
  Ir  Ir8  1  0.745248  0.250000  0.887299  1
  Ir  Ir9  1  0.249608  0.250000  0.627769  1
  Ir  Ir10  1  0.265529  0.750000  0.131324  1
  Ir  Ir11  1  0.741060  0.750000  0.360811  1
