# generated using pymatgen
data_Ba4DyPtO8
_symmetry_space_group_name_H-M   'P 1'
_cell_length_a   7.43346300
_cell_length_b   7.43346219
_cell_length_c   5.97363400
_cell_angle_alpha   90.00000000
_cell_angle_beta   90.00000000
_cell_angle_gamma   132.77102096
_symmetry_Int_Tables_number   1
_chemical_formula_structural   Ba4DyPtO8
_chemical_formula_sum   'Ba4 Dy1 Pt1 O8'
_cell_volume   242.30391377
_cell_formula_units_Z   1
loop_
 _symmetry_equiv_pos_site_id
 _symmetry_equiv_pos_as_xyz
  1  'x, y, z'
loop_
 _atom_site_type_symbol
 _atom_site_label
 _atom_site_symmetry_multiplicity
 _atom_site_fract_x
 _atom_site_fract_y
 _atom_site_fract_z
 _atom_site_occupancy
  Ba  Ba0  1  0.355061  0.644939  0.000000  1
  Ba  Ba1  1  0.853605  0.146395  0.500000  1
  Ba  Ba2  1  0.146395  0.853605  0.500000  1
  Ba  Ba3  1  0.644939  0.355061  0.000000  1
  Dy  Dy4  1  0.000000  0.000000  0.000000  1
  Pt  Pt5  1  0.500000  0.500000  0.500000  1
  O  O6  1  0.259395  0.259395  0.734441  1
  O  O7  1  0.740605  0.740605  0.265559  1
  O  O8  1  0.740605  0.740605  0.734441  1
  O  O9  1  0.259395  0.259395  0.265559  1
  O  O10  1  0.166167  0.833833  0.000000  1
  O  O11  1  0.652220  0.347780  0.500000  1
  O  O12  1  0.347780  0.652220  0.500000  1
  O  O13  1  0.833833  0.166167  0.000000  1
