# generated using pymatgen
data_Dy5Mg2Mn(Co4P3)4
_symmetry_space_group_name_H-M   'P 1'
_cell_length_a   12.10966417
_cell_length_b   12.10966348
_cell_length_c   3.70606800
_cell_angle_alpha   90.00000000
_cell_angle_beta   90.00000000
_cell_angle_gamma   119.95397492
_symmetry_Int_Tables_number   1
_chemical_formula_structural   Dy5Mg2Mn(Co4P3)4
_chemical_formula_sum   'Dy5 Mg2 Mn1 Co16 P12'
_cell_volume   470.87910448
_cell_formula_units_Z   1
loop_
 _symmetry_equiv_pos_site_id
 _symmetry_equiv_pos_as_xyz
  1  'x, y, z'
loop_
 _atom_site_type_symbol
 _atom_site_label
 _atom_site_symmetry_multiplicity
 _atom_site_fract_x
 _atom_site_fract_y
 _atom_site_fract_z
 _atom_site_occupancy
  Dy  Dy0  1  0.665960  0.335224  0.000000  1
  Dy  Dy1  1  0.335224  0.665960  0.000000  1
  Dy  Dy2  1  0.187913  0.187913  0.500000  1
  Dy  Dy3  1  0.813926  0.998492  0.500000  1
  Dy  Dy4  1  0.998492  0.813926  0.500000  1
  Mg  Mg5  1  0.440432  0.000022  0.000000  1
  Mg  Mg6  1  0.000022  0.440432  0.000000  1
  Mn  Mn7  1  0.557483  0.557483  0.000000  1
  Co  Co8  1  0.821827  0.197508  0.000000  1
  Co  Co9  1  0.799945  0.624394  0.000000  1
  Co  Co10  1  0.377228  0.180677  0.000000  1
  Co  Co11  1  0.197508  0.821827  0.000000  1
  Co  Co12  1  0.624394  0.799945  0.000000  1
  Co  Co13  1  0.180677  0.377228  0.000000  1
  Co  Co14  1  0.642139  0.123690  0.500000  1
  Co  Co15  1  0.871592  0.517136  0.500000  1
  Co  Co16  1  0.483791  0.360138  0.500000  1
  Co  Co17  1  0.123690  0.642139  0.500000  1
  Co  Co18  1  0.517136  0.871592  0.500000  1
  Co  Co19  1  0.360138  0.483791  0.500000  1
  Co  Co20  1  0.716311  0.716311  0.500000  1
  Co  Co21  1  0.281565  0.000992  0.500000  1
  Co  Co22  1  0.000992  0.281565  0.500000  1
  Co  Co23  1  0.000773  0.000773  0.000000  1
  P  P24  1  0.365713  0.365713  0.000000  1
  P  P25  1  0.639778  0.998049  0.000000  1
  P  P26  1  0.998049  0.639778  0.000000  1
  P  P27  1  0.826962  0.307199  0.500000  1
  P  P28  1  0.687114  0.521775  0.500000  1
  P  P29  1  0.480603  0.172630  0.500000  1
  P  P30  1  0.307199  0.826962  0.500000  1
  P  P31  1  0.521775  0.687114  0.500000  1
  P  P32  1  0.172630  0.480603  0.500000  1
  P  P33  1  0.819701  0.819701  0.000000  1
  P  P34  1  0.180441  0.000878  0.000000  1
  P  P35  1  0.000878  0.180441  0.000000  1
