# generated using pymatgen
data_TbYbCe2(B4Os)4
_symmetry_space_group_name_H-M   'P 1'
_cell_length_a   3.59306500
_cell_length_b   5.99084904
_cell_length_c   11.59671265
_cell_angle_alpha   90.17113752
_cell_angle_beta   90.00000000
_cell_angle_gamma   90.00000000
_symmetry_Int_Tables_number   1
_chemical_formula_structural   TbYbCe2(B4Os)4
_chemical_formula_sum   'Tb1 Yb1 Ce2 B16 Os4'
_cell_volume   249.62404041
_cell_formula_units_Z   1
loop_
 _symmetry_equiv_pos_site_id
 _symmetry_equiv_pos_as_xyz
  1  'x, y, z'
loop_
 _atom_site_type_symbol
 _atom_site_label
 _atom_site_symmetry_multiplicity
 _atom_site_fract_x
 _atom_site_fract_y
 _atom_site_fract_z
 _atom_site_occupancy
  Tb  Tb0  1  0.000000  0.626889  0.852211  1
  Yb  Yb1  1  0.000000  0.371524  0.148117  1
  Ce  Ce2  1  0.000000  0.128683  0.650726  1
  Ce  Ce3  1  0.000000  0.870860  0.347724  1
  B  B4  1  0.500000  0.473782  0.691475  1
  B  B5  1  0.500000  0.525481  0.308271  1
  B  B6  1  0.500000  0.973798  0.810354  1
  B  B7  1  0.500000  0.026198  0.189496  1
  B  B8  1  0.500000  0.287581  0.815726  1
  B  B9  1  0.500000  0.712368  0.184160  1
  B  B10  1  0.500000  0.786840  0.686522  1
  B  B11  1  0.500000  0.214882  0.313158  1
  B  B12  1  0.500000  0.362735  0.970463  1
  B  B13  1  0.500000  0.636922  0.030749  1
  B  B14  1  0.500000  0.862555  0.531080  1
  B  B15  1  0.500000  0.137126  0.468687  1
  B  B16  1  0.500000  0.388461  0.546396  1
  B  B17  1  0.500000  0.610459  0.453077  1
  B  B18  1  0.500000  0.887713  0.955058  1
  B  B19  1  0.500000  0.114736  0.046611  1
  Os  Os20  1  0.000000  0.138658  0.906962  1
  Os  Os21  1  0.000000  0.861697  0.091930  1
  Os  Os22  1  0.000000  0.640471  0.594345  1
  Os  Os23  1  0.000000  0.359578  0.406703  1
