# generated using pymatgen
data_Tb6Dy2Lu12Tl15Bi
_symmetry_space_group_name_H-M   'P 1'
_cell_length_a   7.84936385
_cell_length_b   8.25649799
_cell_length_c   15.57576953
_cell_angle_alpha   90.05030103
_cell_angle_beta   89.90456971
_cell_angle_gamma   89.98427310
_symmetry_Int_Tables_number   1
_chemical_formula_structural   Tb6Dy2Lu12Tl15Bi
_chemical_formula_sum   'Tb6 Dy2 Lu12 Tl15 Bi1'
_cell_volume   1009.43664531
_cell_formula_units_Z   1
loop_
 _symmetry_equiv_pos_site_id
 _symmetry_equiv_pos_as_xyz
  1  'x, y, z'
loop_
 _atom_site_type_symbol
 _atom_site_label
 _atom_site_symmetry_multiplicity
 _atom_site_fract_x
 _atom_site_fract_y
 _atom_site_fract_z
 _atom_site_occupancy
  Tb  Tb0  1  0.002553  0.186007  0.093648  1
  Tb  Tb1  1  0.999392  0.813588  0.906407  1
  Tb  Tb2  1  0.499188  0.683551  0.906888  1
  Tb  Tb3  1  0.998776  0.818583  0.592551  1
  Tb  Tb4  1  0.501796  0.314735  0.093034  1
  Tb  Tb5  1  0.996113  0.184107  0.404100  1
  Dy  Dy6  1  0.502332  0.304731  0.407191  1
  Dy  Dy7  1  0.505575  0.687593  0.594654  1
  Lu  Lu8  1  0.170624  0.501598  0.752762  1
  Lu  Lu9  1  0.831092  0.498971  0.247963  1
  Lu  Lu10  1  0.329834  0.002984  0.249756  1
  Lu  Lu11  1  0.673126  0.999484  0.751183  1
  Lu  Lu12  1  0.341813  0.157106  0.625806  1
  Lu  Lu13  1  0.664193  0.844257  0.376029  1
  Lu  Lu14  1  0.159072  0.665967  0.374284  1
  Lu  Lu15  1  0.664346  0.836409  0.123746  1
  Lu  Lu16  1  0.826335  0.338307  0.624032  1
  Lu  Lu17  1  0.335742  0.161946  0.876065  1
  Lu  Lu18  1  0.836339  0.336730  0.875754  1
  Lu  Lu19  1  0.167274  0.661698  0.124822  1
  Tl  Tl20  1  0.033017  0.121184  0.747770  1
  Tl  Tl21  1  0.968516  0.883795  0.247990  1
  Tl  Tl22  1  0.470111  0.618535  0.253673  1
  Tl  Tl23  1  0.530790  0.382745  0.752311  1
  Tl  Tl24  1  0.301320  0.854407  0.749509  1
  Tl  Tl25  1  0.699798  0.144550  0.248777  1
  Tl  Tl26  1  0.201228  0.356363  0.251947  1
  Tl  Tl27  1  0.802204  0.644700  0.748325  1
  Tl  Tl28  1  0.803944  0.538557  0.455272  1
  Tl  Tl29  1  0.313450  0.962871  0.459571  1
  Tl  Tl30  1  0.817638  0.536165  0.040937  1
  Tl  Tl31  1  0.683520  0.037563  0.542451  1
  Tl  Tl32  1  0.182358  0.462498  0.959242  1
  Tl  Tl33  1  0.682662  0.036799  0.958394  1
  Tl  Tl34  1  0.319346  0.960370  0.041847  1
  Bi  Bi35  1  0.184577  0.460550  0.541312  1
