# generated using pymatgen
data_Th3Hg5Ru
_symmetry_space_group_name_H-M   'P 1'
_cell_length_a   7.99372600
_cell_length_b   7.99372618
_cell_length_c   3.98965300
_cell_angle_alpha   90.00000000
_cell_angle_beta   90.00000000
_cell_angle_gamma   119.99999924
_symmetry_Int_Tables_number   1
_chemical_formula_structural   Th3Hg5Ru
_chemical_formula_sum   'Th3 Hg5 Ru1'
_cell_volume   220.78231636
_cell_formula_units_Z   1
loop_
 _symmetry_equiv_pos_site_id
 _symmetry_equiv_pos_as_xyz
  1  'x, y, z'
loop_
 _atom_site_type_symbol
 _atom_site_label
 _atom_site_symmetry_multiplicity
 _atom_site_fract_x
 _atom_site_fract_y
 _atom_site_fract_z
 _atom_site_occupancy
  Th  Th0  1  0.425116  0.032931  0.500000  1
  Th  Th1  1  0.967069  0.392185  0.500000  1
  Th  Th2  1  0.607815  0.574884  0.500000  1
  Hg  Hg3  1  0.333333  0.666667  0.000000  1
  Hg  Hg4  1  0.000000  0.000000  0.500000  1
  Hg  Hg5  1  0.729329  0.000963  0.000000  1
  Hg  Hg6  1  0.999037  0.728367  0.000000  1
  Hg  Hg7  1  0.271633  0.270671  0.000000  1
  Ru  Ru8  1  0.666667  0.333333  0.000000  1
