# generated using pymatgen
data_DyY3Al18PtRh5
_symmetry_space_group_name_H-M   'P 1'
_cell_length_a   7.57493504
_cell_length_b   7.57519792
_cell_length_c   9.47936900
_cell_angle_alpha   89.99338348
_cell_angle_beta   89.99406127
_cell_angle_gamma   119.52542262
_symmetry_Int_Tables_number   1
_chemical_formula_structural   DyY3Al18PtRh5
_chemical_formula_sum   'Dy1 Y3 Al18 Pt1 Rh5'
_cell_volume   473.30382112
_cell_formula_units_Z   1
loop_
 _symmetry_equiv_pos_site_id
 _symmetry_equiv_pos_as_xyz
  1  'x, y, z'
loop_
 _atom_site_type_symbol
 _atom_site_label
 _atom_site_symmetry_multiplicity
 _atom_site_fract_x
 _atom_site_fract_y
 _atom_site_fract_z
 _atom_site_occupancy
  Dy  Dy0  1  0.330598  0.005626  0.249988  1
  Y  Y1  1  0.994214  0.669423  0.750021  1
  Y  Y2  1  0.004238  0.329203  0.250249  1
  Y  Y3  1  0.670788  0.995740  0.749753  1
  Al  Al4  1  0.126857  0.126107  0.750275  1
  Al  Al5  1  0.873835  0.873061  0.249728  1
  Al  Al6  1  0.004589  0.335050  0.576364  1
  Al  Al7  1  0.002722  0.668768  0.423789  1
  Al  Al8  1  0.000357  0.665217  0.074517  1
  Al  Al9  1  0.334845  0.999738  0.925449  1
  Al  Al10  1  0.001022  0.334679  0.925059  1
  Al  Al11  1  0.665240  0.998983  0.074895  1
  Al  Al12  1  0.664871  0.995417  0.423684  1
  Al  Al13  1  0.331301  0.997375  0.576254  1
  Al  Al14  1  0.332615  0.332563  0.051085  1
  Al  Al15  1  0.667365  0.667376  0.948903  1
  Al  Al16  1  0.666403  0.669690  0.553401  1
  Al  Al17  1  0.330295  0.333525  0.446616  1
  Al  Al18  1  0.339961  0.550175  0.750287  1
  Al  Al19  1  0.660362  0.453960  0.246775  1
  Al  Al20  1  0.546111  0.339497  0.753214  1
  Al  Al21  1  0.449929  0.660156  0.249714  1
  Pt  Pt22  1  0.672320  0.327688  0.499867  1
  Rh  Rh23  1  0.328162  0.671849  0.499894  1
  Rh  Rh24  1  0.328399  0.671566  0.000098  1
  Rh  Rh25  1  0.672258  0.327757  0.000142  1
  Rh  Rh26  1  0.000083  0.000000  0.499869  1
  Rh  Rh27  1  0.000260  0.999812  0.000111  1
