# generated using pymatgen
data_YTm15MgHg3Rh4
_symmetry_space_group_name_H-M   'P 1'
_cell_length_a   9.51721816
_cell_length_b   9.47864372
_cell_length_c   9.51296900
_cell_angle_alpha   59.88013845
_cell_angle_beta   60.01477150
_cell_angle_gamma   59.84843194
_symmetry_Int_Tables_number   1
_chemical_formula_structural   YTm15MgHg3Rh4
_chemical_formula_sum   'Y1 Tm15 Mg1 Hg3 Rh4'
_cell_volume   605.63583931
_cell_formula_units_Z   1
loop_
 _symmetry_equiv_pos_site_id
 _symmetry_equiv_pos_as_xyz
  1  'x, y, z'
loop_
 _atom_site_type_symbol
 _atom_site_label
 _atom_site_symmetry_multiplicity
 _atom_site_fract_x
 _atom_site_fract_y
 _atom_site_fract_z
 _atom_site_occupancy
  Y  Y0  1  0.185740  0.185988  0.814136  1
  Tm  Tm1  1  0.601164  0.598658  0.596071  1
  Tm  Tm2  1  0.601164  0.598658  0.204108  1
  Tm  Tm3  1  0.602748  0.203493  0.596881  1
  Tm  Tm4  1  0.188733  0.604455  0.603407  1
  Tm  Tm5  1  0.058822  0.440229  0.440009  1
  Tm  Tm6  1  0.436338  0.062256  0.064124  1
  Tm  Tm7  1  0.436338  0.062256  0.437281  1
  Tm  Tm8  1  0.058822  0.440229  0.060941  1
  Tm  Tm9  1  0.436293  0.437892  0.062907  1
  Tm  Tm10  1  0.059203  0.060187  0.440305  1
  Tm  Tm11  1  0.185887  0.811577  0.813574  1
  Tm  Tm12  1  0.811423  0.187245  0.186160  1
  Tm  Tm13  1  0.811423  0.187245  0.815172  1
  Tm  Tm14  1  0.185887  0.811577  0.188962  1
  Tm  Tm15  1  0.813651  0.815470  0.185440  1
  Mg  Mg16  1  0.536085  0.819947  0.821983  1
  Hg  Hg17  1  0.832764  0.836609  0.837523  1
  Hg  Hg18  1  0.832764  0.836609  0.493103  1
  Hg  Hg19  1  0.831245  0.493268  0.837743  1
  Rh  Rh20  1  0.390034  0.396053  0.392915  1
  Rh  Rh21  1  0.390034  0.396053  0.820999  1
  Rh  Rh22  1  0.389676  0.820971  0.394677  1
  Rh  Rh23  1  0.823763  0.393076  0.391581  1
