# generated using pymatgen
data_Ac2Ni3Ge5
_symmetry_space_group_name_H-M   'P 1'
_cell_length_a   6.16099032
_cell_length_b   8.52386473
_cell_length_c   8.52386479
_cell_angle_alpha   71.85688689
_cell_angle_beta   68.81401608
_cell_angle_gamma   68.81401150
_symmetry_Int_Tables_number   1
_chemical_formula_structural   Ac2Ni3Ge5
_chemical_formula_sum   'Ac4 Ni6 Ge10'
_cell_volume   380.66327382
_cell_formula_units_Z   2
loop_
 _symmetry_equiv_pos_site_id
 _symmetry_equiv_pos_as_xyz
  1  'x, y, z'
loop_
 _atom_site_type_symbol
 _atom_site_label
 _atom_site_symmetry_multiplicity
 _atom_site_fract_x
 _atom_site_fract_y
 _atom_site_fract_z
 _atom_site_occupancy
  Ac  Ac0  1  0.871427  0.875048  0.382098  1
  Ac  Ac1  1  0.128573  0.124952  0.617902  1
  Ac  Ac2  1  0.371427  0.382098  0.875048  1
  Ac  Ac3  1  0.628573  0.617902  0.124952  1
  Ni  Ni4  1  0.250000  0.000000  0.000000  1
  Ni  Ni5  1  0.750000  0.000000  0.000000  1
  Ni  Ni6  1  0.629536  0.255749  0.485180  1
  Ni  Ni7  1  0.370464  0.744251  0.514820  1
  Ni  Ni8  1  0.129536  0.485180  0.255749  1
  Ni  Ni9  1  0.870464  0.514820  0.744251  1
  Ge  Ge10  1  0.250000  0.500000  0.500000  1
  Ge  Ge11  1  0.750000  0.500000  0.500000  1
  Ge  Ge12  1  0.999880  0.250120  0.250120  1
  Ge  Ge13  1  0.500120  0.749880  0.749880  1
  Ge  Ge14  1  0.000120  0.749880  0.749880  1
  Ge  Ge15  1  0.499880  0.250120  0.250120  1
  Ge  Ge16  1  0.608240  0.031742  0.751778  1
  Ge  Ge17  1  0.391760  0.968258  0.248222  1
  Ge  Ge18  1  0.108240  0.751778  0.031742  1
  Ge  Ge19  1  0.891760  0.248222  0.968258  1
