# generated using pymatgen
data_Dy3Y3(Ir7Rh2)2
_symmetry_space_group_name_H-M   'P 1'
_cell_length_a   5.30976800
_cell_length_b   5.30976889
_cell_length_c   17.47564300
_cell_angle_alpha   90.00000000
_cell_angle_beta   90.00000000
_cell_angle_gamma   119.99999448
_symmetry_Int_Tables_number   1
_chemical_formula_structural   Dy3Y3(Ir7Rh2)2
_chemical_formula_sum   'Dy3 Y3 Ir14 Rh4'
_cell_volume   426.69247538
_cell_formula_units_Z   1
loop_
 _symmetry_equiv_pos_site_id
 _symmetry_equiv_pos_as_xyz
  1  'x, y, z'
loop_
 _atom_site_type_symbol
 _atom_site_label
 _atom_site_symmetry_multiplicity
 _atom_site_fract_x
 _atom_site_fract_y
 _atom_site_fract_z
 _atom_site_occupancy
  Dy  Dy0  1  0.333333  0.666667  0.958822  1
  Dy  Dy1  1  0.666667  0.333333  0.040926  1
  Dy  Dy2  1  0.666667  0.333333  0.459056  1
  Y  Y3  1  0.333333  0.666667  0.541321  1
  Y  Y4  1  0.333333  0.666667  0.750053  1
  Y  Y5  1  0.666667  0.333333  0.249924  1
  Ir  Ir6  1  0.167464  0.832536  0.374181  1
  Ir  Ir7  1  0.167464  0.334929  0.374181  1
  Ir  Ir8  1  0.665071  0.832536  0.374181  1
  Ir  Ir9  1  0.832498  0.167502  0.625944  1
  Ir  Ir10  1  0.832498  0.664995  0.625944  1
  Ir  Ir11  1  0.335005  0.167502  0.625944  1
  Ir  Ir12  1  0.832496  0.167504  0.874237  1
  Ir  Ir13  1  0.832496  0.664991  0.874237  1
  Ir  Ir14  1  0.335009  0.167504  0.874237  1
  Ir  Ir15  1  0.167502  0.832498  0.125651  1
  Ir  Ir16  1  0.167502  0.335004  0.125651  1
  Ir  Ir17  1  0.664996  0.832498  0.125651  1
  Ir  Ir18  1  0.000000  0.000000  0.500100  1
  Ir  Ir19  1  0.000000  0.000000  0.999922  1
  Rh  Rh20  1  0.333333  0.666667  0.249934  1
  Rh  Rh21  1  0.666667  0.333333  0.749992  1
  Rh  Rh22  1  0.000000  0.000000  0.249933  1
  Rh  Rh23  1  0.000000  0.000000  0.749978  1
