# generated using pymatgen
data_Y15Th(InIr)4
_symmetry_space_group_name_H-M   'P 1'
_cell_length_a   9.73787642
_cell_length_b   9.73372860
_cell_length_c   9.73145911
_cell_angle_alpha   120.00809843
_cell_angle_beta   89.99705375
_cell_angle_gamma   119.98793477
_symmetry_Int_Tables_number   1
_chemical_formula_structural   Y15Th(InIr)4
_chemical_formula_sum   'Y15 Th1 In4 Ir4'
_cell_volume   652.29438768
_cell_formula_units_Z   1
loop_
 _symmetry_equiv_pos_site_id
 _symmetry_equiv_pos_as_xyz
  1  'x, y, z'
loop_
 _atom_site_type_symbol
 _atom_site_label
 _atom_site_symmetry_multiplicity
 _atom_site_fract_x
 _atom_site_fract_y
 _atom_site_fract_z
 _atom_site_occupancy
  Y  Y0  1  0.938675  0.500251  0.061863  1
  Y  Y1  1  0.561104  0.122226  0.061508  1
  Y  Y2  1  0.561100  0.500353  0.061509  1
  Y  Y3  1  0.811430  0.001651  0.191917  1
  Y  Y4  1  0.190045  0.001454  0.191466  1
  Y  Y5  1  0.190041  0.380009  0.191468  1
  Y  Y6  1  0.560603  0.500676  0.440775  1
  Y  Y7  1  0.940695  0.501193  0.441668  1
  Y  Y8  1  0.940682  0.881122  0.441667  1
  Y  Y9  1  0.350134  0.299290  0.649298  1
  Y  Y10  1  0.350138  0.700102  0.649298  1
  Y  Y11  1  0.949310  0.299522  0.649783  1
  Y  Y12  1  0.192053  0.000713  0.809430  1
  Y  Y13  1  0.808775  0.000101  0.809305  1
  Y  Y14  1  0.808787  0.617950  0.809315  1
  Th  Th15  1  0.346029  0.691910  0.037842  1
  In  In16  1  0.583790  0.167773  0.417004  1
  In  In17  1  0.249047  0.832651  0.416073  1
  In  In18  1  0.583657  0.832976  0.416688  1
  In  In19  1  0.584073  0.167517  0.750567  1
  Ir  Ir20  1  0.142020  0.283608  0.425253  1
  Ir  Ir21  1  0.142032  0.284625  0.858836  1
  Ir  Ir22  1  0.142046  0.716182  0.858848  1
  Ir  Ir23  1  0.573744  0.716151  0.858623  1
