# generated using pymatgen
data_TbNdZnSiI2
_symmetry_space_group_name_H-M   'P 1'
_cell_length_a   4.18760700
_cell_length_b   4.18760621
_cell_length_c   11.92475800
_cell_angle_alpha   90.00000000
_cell_angle_beta   90.00000000
_cell_angle_gamma   119.99998252
_symmetry_Int_Tables_number   1
_chemical_formula_structural   TbNdZnSiI2
_chemical_formula_sum   'Tb1 Nd1 Zn1 Si1 I2'
_cell_volume   181.09732485
_cell_formula_units_Z   1
loop_
 _symmetry_equiv_pos_site_id
 _symmetry_equiv_pos_as_xyz
  1  'x, y, z'
loop_
 _atom_site_type_symbol
 _atom_site_label
 _atom_site_symmetry_multiplicity
 _atom_site_fract_x
 _atom_site_fract_y
 _atom_site_fract_z
 _atom_site_occupancy
  Tb  Tb0  1  0.000000  0.000000  0.829625  1
  Nd  Nd1  1  0.000000  0.000000  0.168275  1
  Zn  Zn2  1  0.333333  0.666667  0.017317  1
  Si  Si3  1  0.666667  0.333333  0.976648  1
  I  I4  1  0.333333  0.666667  0.661739  1
  I  I5  1  0.666667  0.333333  0.346395  1
