# generated using pymatgen
data_NaTbPt4
_symmetry_space_group_name_H-M   'P 1'
_cell_length_a   5.40517897
_cell_length_b   5.40517917
_cell_length_c   5.40517800
_cell_angle_alpha   59.99999494
_cell_angle_beta   59.99999368
_cell_angle_gamma   59.99999352
_symmetry_Int_Tables_number   1
_chemical_formula_structural   NaTbPt4
_chemical_formula_sum   'Na1 Tb1 Pt4'
_cell_volume   111.66449777
_cell_formula_units_Z   1
loop_
 _symmetry_equiv_pos_site_id
 _symmetry_equiv_pos_as_xyz
  1  'x, y, z'
loop_
 _atom_site_type_symbol
 _atom_site_label
 _atom_site_symmetry_multiplicity
 _atom_site_fract_x
 _atom_site_fract_y
 _atom_site_fract_z
 _atom_site_occupancy
  Na  Na0  1  0.000000  0.000000  0.000000  1
  Tb  Tb1  1  0.250000  0.250000  0.250000  1
  Pt  Pt2  1  0.625267  0.625267  0.124199  1
  Pt  Pt3  1  0.625267  0.124199  0.625267  1
  Pt  Pt4  1  0.124199  0.625267  0.625267  1
  Pt  Pt5  1  0.625267  0.625267  0.625267  1
