# generated using pymatgen
data_ScU2Ga3Ir2Ru
_symmetry_space_group_name_H-M   'P 1'
_cell_length_a   6.90013238
_cell_length_b   7.04379807
_cell_length_c   3.87411400
_cell_angle_alpha   90.00000000
_cell_angle_beta   90.00000000
_cell_angle_gamma   118.92052058
_symmetry_Int_Tables_number   1
_chemical_formula_structural   ScU2Ga3Ir2Ru
_chemical_formula_sum   'Sc1 U2 Ga3 Ir2 Ru1'
_cell_volume   164.81220473
_cell_formula_units_Z   1
loop_
 _symmetry_equiv_pos_site_id
 _symmetry_equiv_pos_as_xyz
  1  'x, y, z'
loop_
 _atom_site_type_symbol
 _atom_site_label
 _atom_site_symmetry_multiplicity
 _atom_site_fract_x
 _atom_site_fract_y
 _atom_site_fract_z
 _atom_site_occupancy
  Sc  Sc0  1  0.405832  0.995917  0.500000  1
  U  U1  1  0.994011  0.414868  0.500000  1
  U  U2  1  0.585368  0.578514  0.500000  1
  Ga  Ga3  1  0.731791  0.999854  0.000000  1
  Ga  Ga4  1  0.018637  0.770779  0.000000  1
  Ga  Ga5  1  0.250391  0.229319  0.000000  1
  Ir  Ir6  1  0.330109  0.641019  0.000000  1
  Ir  Ir7  1  0.988574  0.002549  0.500000  1
  Ru  Ru8  1  0.695286  0.367181  0.000000  1
