# generated using pymatgen
data_DyHo3V2O10
_symmetry_space_group_name_H-M   'P 1'
_cell_length_a   3.71783400
_cell_length_b   10.36884509
_cell_length_c   11.23977010
_cell_angle_alpha   89.98489589
_cell_angle_beta   90.00000000
_cell_angle_gamma   90.00000000
_symmetry_Int_Tables_number   1
_chemical_formula_structural   DyHo3V2O10
_chemical_formula_sum   'Dy2 Ho6 V4 O20'
_cell_volume   433.28913003
_cell_formula_units_Z   2
loop_
 _symmetry_equiv_pos_site_id
 _symmetry_equiv_pos_as_xyz
  1  'x, y, z'
loop_
 _atom_site_type_symbol
 _atom_site_label
 _atom_site_symmetry_multiplicity
 _atom_site_fract_x
 _atom_site_fract_y
 _atom_site_fract_z
 _atom_site_occupancy
  Dy  Dy0  1  0.250000  0.118891  0.274166  1
  Dy  Dy1  1  0.250000  0.136505  0.944142  1
  Ho  Ho2  1  0.750000  0.363462  0.444924  1
  Ho  Ho3  1  0.750000  0.381158  0.773575  1
  Ho  Ho4  1  0.250000  0.619214  0.226279  1
  Ho  Ho5  1  0.250000  0.636730  0.555320  1
  Ho  Ho6  1  0.750000  0.862395  0.055129  1
  Ho  Ho7  1  0.750000  0.880401  0.725973  1
  V  V8  1  0.250000  0.171215  0.618328  1
  V  V9  1  0.750000  0.329433  0.118225  1
  V  V10  1  0.250000  0.670957  0.881647  1
  V  V11  1  0.750000  0.828440  0.381899  1
  O  O12  1  0.750000  0.004998  0.894247  1
  O  O13  1  0.250000  0.007980  0.654385  1
  O  O14  1  0.250000  0.227028  0.456872  1
  O  O15  1  0.750000  0.235952  0.615688  1
  O  O16  1  0.750000  0.242562  0.269657  1
  O  O17  1  0.250000  0.259410  0.768789  1
  O  O18  1  0.250000  0.264406  0.115586  1
  O  O19  1  0.750000  0.274758  0.956134  1
  O  O20  1  0.750000  0.492540  0.154015  1
  O  O21  1  0.250000  0.494361  0.394658  1
  O  O22  1  0.750000  0.506025  0.605425  1
  O  O23  1  0.250000  0.507885  0.845835  1
  O  O24  1  0.250000  0.725756  0.043608  1
  O  O25  1  0.750000  0.735720  0.884262  1
  O  O26  1  0.750000  0.741399  0.230620  1
  O  O27  1  0.250000  0.758384  0.730501  1
  O  O28  1  0.250000  0.763776  0.384435  1
  O  O29  1  0.750000  0.773405  0.543639  1
  O  O30  1  0.750000  0.991795  0.346741  1
  O  O31  1  0.250000  0.993060  0.105298  1
