# generated using pymatgen
data_Dy4AlGaTc6
_symmetry_space_group_name_H-M   'P 1'
_cell_length_a   5.34183000
_cell_length_b   5.34182995
_cell_length_c   9.03568300
_cell_angle_alpha   90.00000000
_cell_angle_beta   90.00000000
_cell_angle_gamma   119.99998794
_symmetry_Int_Tables_number   1
_chemical_formula_structural   Dy4AlGaTc6
_chemical_formula_sum   'Dy4 Al1 Ga1 Tc6'
_cell_volume   223.29129474
_cell_formula_units_Z   1
loop_
 _symmetry_equiv_pos_site_id
 _symmetry_equiv_pos_as_xyz
  1  'x, y, z'
loop_
 _atom_site_type_symbol
 _atom_site_label
 _atom_site_symmetry_multiplicity
 _atom_site_fract_x
 _atom_site_fract_y
 _atom_site_fract_z
 _atom_site_occupancy
  Dy  Dy0  1  0.333333  0.666667  0.432363  1
  Dy  Dy1  1  0.666667  0.333333  0.567637  1
  Dy  Dy2  1  0.666667  0.333333  0.931029  1
  Dy  Dy3  1  0.333333  0.666667  0.068971  1
  Al  Al4  1  0.000000  0.000000  0.000000  1
  Ga  Ga5  1  0.000000  0.000000  0.500000  1
  Tc  Tc6  1  0.829563  0.170437  0.249834  1
  Tc  Tc7  1  0.829563  0.659128  0.249834  1
  Tc  Tc8  1  0.340872  0.170437  0.249834  1
  Tc  Tc9  1  0.170437  0.829563  0.750166  1
  Tc  Tc10  1  0.170437  0.340872  0.750166  1
  Tc  Tc11  1  0.659128  0.829563  0.750166  1
