# generated using pymatgen
data_TbEr4TmFeBi2
_symmetry_space_group_name_H-M   'P 1'
_cell_length_a   8.27966300
_cell_length_b   8.27099839
_cell_length_c   4.16673900
_cell_angle_alpha   90.00000000
_cell_angle_beta   90.00000000
_cell_angle_gamma   120.03465605
_symmetry_Int_Tables_number   1
_chemical_formula_structural   TbEr4TmFeBi2
_chemical_formula_sum   'Tb1 Er4 Tm1 Fe1 Bi2'
_cell_volume   247.02775794
_cell_formula_units_Z   1
loop_
 _symmetry_equiv_pos_site_id
 _symmetry_equiv_pos_as_xyz
  1  'x, y, z'
loop_
 _atom_site_type_symbol
 _atom_site_label
 _atom_site_symmetry_multiplicity
 _atom_site_fract_x
 _atom_site_fract_y
 _atom_site_fract_z
 _atom_site_occupancy
  Tb  Tb0  1  0.608816  0.000000  0.000000  1
  Er  Er1  1  0.000557  0.229965  0.500000  1
  Er  Er2  1  0.770592  0.770035  0.500000  1
  Er  Er3  1  0.999996  0.610482  0.000000  1
  Er  Er4  1  0.389514  0.389518  0.000000  1
  Tm  Tm5  1  0.229985  0.000000  0.500000  1
  Fe  Fe6  1  0.002120  0.000000  0.000000  1
  Bi  Bi7  1  0.332039  0.665659  0.500000  1
  Bi  Bi8  1  0.666381  0.334341  0.500000  1
