# generated using pymatgen
data_Tm4ReB16Mo3
_symmetry_space_group_name_H-M   'P 1'
_cell_length_a   3.59635500
_cell_length_b   5.98183632
_cell_length_c   11.57023081
_cell_angle_alpha   90.05198836
_cell_angle_beta   90.00000000
_cell_angle_gamma   90.00000000
_symmetry_Int_Tables_number   1
_chemical_formula_structural   Tm4ReB16Mo3
_chemical_formula_sum   'Tm4 Re1 B16 Mo3'
_cell_volume   248.90803931
_cell_formula_units_Z   1
loop_
 _symmetry_equiv_pos_site_id
 _symmetry_equiv_pos_as_xyz
  1  'x, y, z'
loop_
 _atom_site_type_symbol
 _atom_site_label
 _atom_site_symmetry_multiplicity
 _atom_site_fract_x
 _atom_site_fract_y
 _atom_site_fract_z
 _atom_site_occupancy
  Tm  Tm0  1  0.000000  0.627810  0.349891  1
  Tm  Tm1  1  0.000000  0.373071  0.650156  1
  Tm  Tm2  1  0.000000  0.127273  0.149574  1
  Tm  Tm3  1  0.000000  0.873185  0.850164  1
  Re  Re4  1  0.000000  0.867605  0.585487  1
  B  B5  1  0.500000  0.789429  0.186444  1
  B  B6  1  0.500000  0.209872  0.812989  1
  B  B7  1  0.500000  0.288661  0.314074  1
  B  B8  1  0.500000  0.713080  0.685181  1
  B  B9  1  0.500000  0.867925  0.031861  1
  B  B10  1  0.500000  0.132113  0.967546  1
  B  B11  1  0.500000  0.367185  0.469163  1
  B  B12  1  0.500000  0.634779  0.532420  1
  B  B13  1  0.500000  0.883814  0.453176  1
  B  B14  1  0.500000  0.113273  0.548999  1
  B  B15  1  0.500000  0.384369  0.047538  1
  B  B16  1  0.500000  0.615164  0.951699  1
  B  B17  1  0.500000  0.976551  0.306561  1
  B  B18  1  0.500000  0.021600  0.693160  1
  B  B19  1  0.500000  0.476752  0.194361  1
  B  B20  1  0.500000  0.523803  0.805023  1
  Mo  Mo21  1  0.000000  0.630257  0.084240  1
  Mo  Mo22  1  0.000000  0.369892  0.914523  1
  Mo  Mo23  1  0.000000  0.132541  0.415772  1
