# generated using pymatgen
data_TmGa4(Fe3Ge)2
_symmetry_space_group_name_H-M   'P 1'
_cell_length_a   5.01241111
_cell_length_b   6.53196713
_cell_length_c   6.53196722
_cell_angle_alpha   80.17250192
_cell_angle_beta   67.43799163
_cell_angle_gamma   67.43799303
_symmetry_Int_Tables_number   1
_chemical_formula_structural   TmGa4(Fe3Ge)2
_chemical_formula_sum   'Tm1 Ga4 Fe6 Ge2'
_cell_volume   182.31015681
_cell_formula_units_Z   1
loop_
 _symmetry_equiv_pos_site_id
 _symmetry_equiv_pos_as_xyz
  1  'x, y, z'
loop_
 _atom_site_type_symbol
 _atom_site_label
 _atom_site_symmetry_multiplicity
 _atom_site_fract_x
 _atom_site_fract_y
 _atom_site_fract_z
 _atom_site_occupancy
  Tm  Tm0  1  0.000000  0.000000  0.000000  1
  Ga  Ga1  1  0.341049  0.658951  0.658951  1
  Ga  Ga2  1  0.658951  0.341049  0.341049  1
  Ga  Ga3  1  0.323997  0.176003  0.176003  1
  Ga  Ga4  1  0.676003  0.823997  0.823997  1
  Fe  Fe5  1  0.500000  0.246252  0.753748  1
  Fe  Fe6  1  0.500000  0.753748  0.246252  1
  Fe  Fe7  1  0.000000  0.500000  0.000000  1
  Fe  Fe8  1  0.500000  0.500000  0.000000  1
  Fe  Fe9  1  0.000000  0.000000  0.500000  1
  Fe  Fe10  1  0.500000  0.000000  0.500000  1
  Ge  Ge11  1  0.000000  0.656495  0.343505  1
  Ge  Ge12  1  0.000000  0.343505  0.656495  1
