# generated using pymatgen
data_Rb6LuInAs4
_symmetry_space_group_name_H-M   'P 1'
_cell_length_a   9.66188739
_cell_length_b   9.66200043
_cell_length_c   9.66188810
_cell_angle_alpha   128.99323675
_cell_angle_beta   68.49417064
_cell_angle_gamma   137.50624523
_symmetry_Int_Tables_number   1
_chemical_formula_structural   Rb6LuInAs4
_chemical_formula_sum   'Rb6 Lu1 In1 As4'
_cell_volume   465.33643895
_cell_formula_units_Z   1
loop_
 _symmetry_equiv_pos_site_id
 _symmetry_equiv_pos_as_xyz
  1  'x, y, z'
loop_
 _atom_site_type_symbol
 _atom_site_label
 _atom_site_symmetry_multiplicity
 _atom_site_fract_x
 _atom_site_fract_y
 _atom_site_fract_z
 _atom_site_occupancy
  Rb  Rb0  1  0.304352  0.688565  0.013666  1
  Rb  Rb1  1  0.195688  0.209289  0.384161  1
  Rb  Rb2  1  0.750011  0.250000  0.500011  1
  Rb  Rb3  1  0.250015  0.749999  0.500015  1
  Rb  Rb4  1  0.825102  0.811433  0.615786  1
  Rb  Rb5  1  0.674870  0.290711  0.986399  1
  Lu  Lu6  1  0.750002  0.750001  0.000001  1
  In  In7  1  0.249933  0.250000  0.999933  1
  As  As8  1  0.905036  0.186947  0.087574  1
  As  As9  1  0.594997  0.682541  0.281909  1
  As  As10  1  0.400627  0.313053  0.718090  1
  As  As11  1  0.099367  0.817458  0.912455  1
