# generated using pymatgen
data_Sm6Al19Si5Os8
_symmetry_space_group_name_H-M   'P 1'
_cell_length_a   8.75974800
_cell_length_b   8.74264362
_cell_length_c   9.66178400
_cell_angle_alpha   90.00000000
_cell_angle_beta   90.00000000
_cell_angle_gamma   120.06473177
_symmetry_Int_Tables_number   1
_chemical_formula_structural   Sm6Al19Si5Os8
_chemical_formula_sum   'Sm6 Al19 Si5 Os8'
_cell_volume   640.38137537
_cell_formula_units_Z   1
loop_
 _symmetry_equiv_pos_site_id
 _symmetry_equiv_pos_as_xyz
  1  'x, y, z'
loop_
 _atom_site_type_symbol
 _atom_site_label
 _atom_site_symmetry_multiplicity
 _atom_site_fract_x
 _atom_site_fract_y
 _atom_site_fract_z
 _atom_site_occupancy
  Sm  Sm0  1  0.193233  0.386466  0.250001  1
  Sm  Sm1  1  0.807358  0.614716  0.750000  1
  Sm  Sm2  1  0.611537  0.807859  0.250001  1
  Sm  Sm3  1  0.386591  0.193407  0.749999  1
  Sm  Sm4  1  0.196322  0.807859  0.250001  1
  Sm  Sm5  1  0.806816  0.193407  0.749999  1
  Al  Al6  1  0.164927  0.329854  0.576940  1
  Al  Al7  1  0.834450  0.668900  0.423167  1
  Al  Al8  1  0.669460  0.835067  0.575695  1
  Al  Al9  1  0.834450  0.668900  0.076833  1
  Al  Al10  1  0.329551  0.165766  0.423432  1
  Al  Al11  1  0.164927  0.329854  0.923059  1
  Al  Al12  1  0.165607  0.835067  0.575695  1
  Al  Al13  1  0.329551  0.165766  0.076569  1
  Al  Al14  1  0.836215  0.165766  0.423432  1
  Al  Al15  1  0.669460  0.835067  0.924305  1
  Al  Al16  1  0.836215  0.165766  0.076569  1
  Al  Al17  1  0.165607  0.835067  0.924305  1
  Al  Al18  1  0.436288  0.872574  0.749999  1
  Al  Al19  1  0.871272  0.432507  0.250001  1
  Al  Al20  1  0.129139  0.565217  0.749999  1
  Al  Al21  1  0.561234  0.432507  0.250001  1
  Al  Al22  1  0.436079  0.565217  0.749999  1
  Al  Al23  1  0.999818  0.999636  0.250002  1
  Al  Al24  1  0.000463  0.000926  0.749998  1
  Si  Si25  1  0.332589  0.665178  0.034733  1
  Si  Si26  1  0.667340  0.334679  0.963869  1
  Si  Si27  1  0.667340  0.334679  0.536130  1
  Si  Si28  1  0.332589  0.665178  0.465267  1
  Si  Si29  1  0.564527  0.129055  0.250001  1
  Os  Os30  1  0.500940  0.001879  0.006158  1
  Os  Os31  1  0.998951  0.498980  0.000491  1
  Os  Os32  1  0.500940  0.001879  0.493842  1
  Os  Os33  1  0.500029  0.498980  0.000491  1
  Os  Os34  1  0.998951  0.498980  0.499509  1
  Os  Os35  1  0.500029  0.498980  0.499509  1
  Os  Os36  1  0.999603  0.999206  0.000002  1
  Os  Os37  1  0.999603  0.999206  0.499998  1
