# generated using pymatgen
data_LiLa2Si4(PPd10)2
_symmetry_space_group_name_H-M   'P 1'
_cell_length_a   8.71617925
_cell_length_b   8.71618011
_cell_length_c   8.71925300
_cell_angle_alpha   59.98834086
_cell_angle_beta   59.98833758
_cell_angle_gamma   60.02332905
_symmetry_Int_Tables_number   1
_chemical_formula_structural   LiLa2Si4(PPd10)2
_chemical_formula_sum   'Li1 La2 Si4 P2 Pd20'
_cell_volume   468.39963413
_cell_formula_units_Z   1
loop_
 _symmetry_equiv_pos_site_id
 _symmetry_equiv_pos_as_xyz
  1  'x, y, z'
loop_
 _atom_site_type_symbol
 _atom_site_label
 _atom_site_symmetry_multiplicity
 _atom_site_fract_x
 _atom_site_fract_y
 _atom_site_fract_z
 _atom_site_occupancy
  Li  Li0  1  0.000000  0.000000  0.000000  1
  La  La1  1  0.250000  0.250000  0.250000  1
  La  La2  1  0.750000  0.750000  0.750000  1
  Si  Si3  1  0.737600  0.262400  0.262400  1
  Si  Si4  1  0.262400  0.737600  0.737600  1
  Si  Si5  1  0.262400  0.737600  0.262400  1
  Si  Si6  1  0.737600  0.262400  0.737600  1
  P  P7  1  0.262110  0.262110  0.737890  1
  P  P8  1  0.737890  0.737890  0.262110  1
  Pd  Pd9  1  0.385452  0.385452  0.387182  1
  Pd  Pd10  1  0.614548  0.614548  0.612818  1
  Pd  Pd11  1  0.385452  0.385452  0.841912  1
  Pd  Pd12  1  0.387182  0.841912  0.385452  1
  Pd  Pd13  1  0.614548  0.614548  0.158088  1
  Pd  Pd14  1  0.612818  0.158088  0.614548  1
  Pd  Pd15  1  0.841912  0.387182  0.385452  1
  Pd  Pd16  1  0.158088  0.612818  0.614548  1
  Pd  Pd17  1  0.344280  0.001902  0.998098  1
  Pd  Pd18  1  0.655720  0.998098  0.001902  1
  Pd  Pd19  1  0.001902  0.344280  0.655720  1
  Pd  Pd20  1  0.998098  0.655720  0.344280  1
  Pd  Pd21  1  0.001902  0.344280  0.998098  1
  Pd  Pd22  1  0.655720  0.998098  0.344280  1
  Pd  Pd23  1  0.998098  0.655720  0.001902  1
  Pd  Pd24  1  0.344280  0.001902  0.655720  1
  Pd  Pd25  1  0.000000  0.000000  0.345663  1
  Pd  Pd26  1  0.000000  0.000000  0.654337  1
  Pd  Pd27  1  0.654337  0.345663  0.000000  1
  Pd  Pd28  1  0.345663  0.654337  0.000000  1
