# generated using pymatgen
data_K5Re3S7
_symmetry_space_group_name_H-M   'P 1'
_cell_length_a   10.51329865
_cell_length_b   10.52614983
_cell_length_c   10.49355628
_cell_angle_alpha   60.63095011
_cell_angle_beta   60.98912210
_cell_angle_gamma   60.82051619
_symmetry_Int_Tables_number   1
_chemical_formula_structural   K5Re3S7
_chemical_formula_sum   'K10 Re6 S14'
_cell_volume   836.18816977
_cell_formula_units_Z   2
loop_
 _symmetry_equiv_pos_site_id
 _symmetry_equiv_pos_as_xyz
  1  'x, y, z'
loop_
 _atom_site_type_symbol
 _atom_site_label
 _atom_site_symmetry_multiplicity
 _atom_site_fract_x
 _atom_site_fract_y
 _atom_site_fract_z
 _atom_site_occupancy
  K  K0  1  0.015922  0.990191  0.990887  1
  K  K1  1  0.403647  0.586545  0.005482  1
  K  K2  1  0.396882  0.005185  0.002311  1
  K  K3  1  0.591009  0.127468  0.125660  1
  K  K4  1  0.006230  0.583323  0.015593  1
  K  K5  1  0.413589  0.001257  0.587733  1
  K  K6  1  0.029568  0.422740  0.517072  1
  K  K7  1  0.996235  0.010865  0.582652  1
  K  K8  1  0.871587  0.859144  0.413913  1
  K  K9  1  0.856675  0.411803  0.901519  1
  Re  Re10  1  0.621853  0.372367  0.377447  1
  Re  Re11  1  0.625342  0.625373  0.375427  1
  Re  Re12  1  0.625198  0.378012  0.626426  1
  Re  Re13  1  0.373810  0.623995  0.373445  1
  Re  Re14  1  0.372659  0.375736  0.625043  1
  Re  Re15  1  0.375512  0.626744  0.624275  1
  S  S16  1  0.775764  0.200237  0.226106  1
  S  S17  1  0.788936  0.785503  0.218486  1
  S  S18  1  0.614752  0.611905  0.154118  1
  S  S19  1  0.842861  0.384149  0.384693  1
  S  S20  1  0.612231  0.154629  0.620455  1
  S  S21  1  0.795567  0.228530  0.782884  1
  S  S22  1  0.383720  0.382327  0.382625  1
  S  S23  1  0.615874  0.619552  0.616273  1
  S  S24  1  0.209917  0.782575  0.213623  1
  S  S25  1  0.386598  0.845898  0.382770  1
  S  S26  1  0.153328  0.615796  0.612993  1
  S  S27  1  0.386410  0.385559  0.846657  1
  S  S28  1  0.202760  0.220877  0.780336  1
  S  S29  1  0.212065  0.791013  0.784398  1
