# generated using pymatgen
data_Ho18Er2Si15Hg
_symmetry_space_group_name_H-M   'P 1'
_cell_length_a   7.40545896
_cell_length_b   7.67137419
_cell_length_c   14.58104804
_cell_angle_alpha   89.95441024
_cell_angle_beta   89.25805593
_cell_angle_gamma   90.11619777
_symmetry_Int_Tables_number   1
_chemical_formula_structural   Ho18Er2Si15Hg
_chemical_formula_sum   'Ho18 Er2 Si15 Hg1'
_cell_volume   828.27858686
_cell_formula_units_Z   1
loop_
 _symmetry_equiv_pos_site_id
 _symmetry_equiv_pos_as_xyz
  1  'x, y, z'
loop_
 _atom_site_type_symbol
 _atom_site_label
 _atom_site_symmetry_multiplicity
 _atom_site_fract_x
 _atom_site_fract_y
 _atom_site_fract_z
 _atom_site_occupancy
  Ho  Ho0  1  0.848135  0.489632  0.747788  1
  Ho  Ho1  1  0.347763  0.011499  0.749495  1
  Ho  Ho2  1  0.977839  0.823509  0.102099  1
  Ho  Ho3  1  0.471934  0.684277  0.401219  1
  Ho  Ho4  1  0.517132  0.311949  0.898808  1
  Ho  Ho5  1  0.029957  0.182137  0.598036  1
  Ho  Ho6  1  0.027015  0.176112  0.899888  1
  Ho  Ho7  1  0.529325  0.315921  0.598184  1
  Ho  Ho8  1  0.476086  0.682785  0.101294  1
  Ho  Ho9  1  0.970066  0.816488  0.400512  1
  Ho  Ho10  1  0.672023  0.830598  0.873515  1
  Ho  Ho11  1  0.182157  0.679811  0.621476  1
  Ho  Ho12  1  0.823073  0.320284  0.126635  1
  Ho  Ho13  1  0.318914  0.178216  0.377837  1
  Ho  Ho14  1  0.324139  0.176732  0.124485  1
  Ho  Ho15  1  0.819874  0.321147  0.377463  1
  Ho  Ho16  1  0.181157  0.675524  0.876865  1
  Ho  Ho17  1  0.681745  0.822437  0.621684  1
  Er  Er18  1  0.649723  0.990644  0.250360  1
  Er  Er19  1  0.152454  0.510968  0.248480  1
  Si  Si20  1  0.769132  0.630079  0.252335  1
  Si  Si21  1  0.269113  0.871688  0.252112  1
  Si  Si22  1  0.732775  0.127867  0.747643  1
  Si  Si23  1  0.229103  0.371973  0.747313  1
  Si  Si24  1  0.023282  0.103976  0.252160  1
  Si  Si25  1  0.523859  0.395044  0.252759  1
  Si  Si26  1  0.476084  0.604710  0.747376  1
  Si  Si27  1  0.976662  0.891951  0.747451  1
  Si  Si28  1  0.354422  0.971615  0.540655  1
  Si  Si29  1  0.653355  0.029814  0.041385  1
  Si  Si30  1  0.147225  0.470471  0.459890  1
  Si  Si31  1  0.162524  0.469349  0.042652  1
  Si  Si32  1  0.646711  0.028470  0.458614  1
  Si  Si33  1  0.347298  0.967849  0.961432  1
  Si  Si34  1  0.854565  0.530278  0.539317  1
  Hg  Hg35  1  0.833377  0.534198  0.960788  1
