# generated using pymatgen
data_Nb12Al9Zn13Au2
_symmetry_space_group_name_H-M   'P 1'
_cell_length_a   8.86474100
_cell_length_b   8.86474033
_cell_length_c   8.16207200
_cell_angle_alpha   90.00000000
_cell_angle_beta   90.00000000
_cell_angle_gamma   119.99999129
_symmetry_Int_Tables_number   1
_chemical_formula_structural   Nb12Al9Zn13Au2
_chemical_formula_sum   'Nb12 Al9 Zn13 Au2'
_cell_volume   555.47326536
_cell_formula_units_Z   1
loop_
 _symmetry_equiv_pos_site_id
 _symmetry_equiv_pos_as_xyz
  1  'x, y, z'
loop_
 _atom_site_type_symbol
 _atom_site_label
 _atom_site_symmetry_multiplicity
 _atom_site_fract_x
 _atom_site_fract_y
 _atom_site_fract_z
 _atom_site_occupancy
  Nb  Nb0  1  0.336351  0.999814  0.067977  1
  Nb  Nb1  1  0.663464  0.999814  0.932023  1
  Nb  Nb2  1  0.000186  0.336536  0.067977  1
  Nb  Nb3  1  0.664782  0.000936  0.568738  1
  Nb  Nb4  1  0.999064  0.335218  0.431262  1
  Nb  Nb5  1  0.000186  0.663649  0.932023  1
  Nb  Nb6  1  0.336154  0.000936  0.431262  1
  Nb  Nb7  1  0.999064  0.663846  0.568738  1
  Nb  Nb8  1  0.663464  0.663649  0.067977  1
  Nb  Nb9  1  0.336351  0.336536  0.932023  1
  Nb  Nb10  1  0.336154  0.335218  0.568738  1
  Nb  Nb11  1  0.664782  0.663846  0.431262  1
  Al  Al12  1  0.666667  0.333333  0.500000  1
  Al  Al13  1  0.666667  0.333333  0.000000  1
  Al  Al14  1  0.333333  0.666667  0.000000  1
  Al  Al15  1  0.178664  0.999750  0.750019  1
  Al  Al16  1  0.821087  0.999750  0.249981  1
  Al  Al17  1  0.000250  0.178913  0.750019  1
  Al  Al18  1  0.000250  0.821336  0.249981  1
  Al  Al19  1  0.821087  0.821336  0.750019  1
  Al  Al20  1  0.178664  0.178913  0.249981  1
  Zn  Zn21  1  0.161789  0.497264  0.747007  1
  Zn  Zn22  1  0.838648  0.503164  0.249929  1
  Zn  Zn23  1  0.502736  0.664525  0.747007  1
  Zn  Zn24  1  0.496836  0.161352  0.750071  1
  Zn  Zn25  1  0.496836  0.335485  0.249929  1
  Zn  Zn26  1  0.502736  0.838211  0.252993  1
  Zn  Zn27  1  0.335475  0.838211  0.747007  1
  Zn  Zn28  1  0.664515  0.503164  0.750071  1
  Zn  Zn29  1  0.664515  0.161352  0.249929  1
  Zn  Zn30  1  0.335475  0.497264  0.252993  1
  Zn  Zn31  1  0.838648  0.335485  0.750071  1
  Zn  Zn32  1  0.161789  0.664525  0.252993  1
  Zn  Zn33  1  0.333333  0.666667  0.500000  1
  Au  Au34  1  0.000000  0.000000  0.500000  1
  Au  Au35  1  0.000000  0.000000  0.000000  1
