# generated using pymatgen
data_Sc3GeAs2Ir2Ru
_symmetry_space_group_name_H-M   'P 1'
_cell_length_a   6.64620300
_cell_length_b   6.63407734
_cell_length_c   3.91613100
_cell_angle_alpha   90.00000000
_cell_angle_beta   90.00000000
_cell_angle_gamma   120.06049599
_symmetry_Int_Tables_number   1
_chemical_formula_structural   Sc3GeAs2Ir2Ru
_chemical_formula_sum   'Sc3 Ge1 As2 Ir2 Ru1'
_cell_volume   149.44345780
_cell_formula_units_Z   1
loop_
 _symmetry_equiv_pos_site_id
 _symmetry_equiv_pos_as_xyz
  1  'x, y, z'
loop_
 _atom_site_type_symbol
 _atom_site_label
 _atom_site_symmetry_multiplicity
 _atom_site_fract_x
 _atom_site_fract_y
 _atom_site_fract_z
 _atom_site_occupancy
  Sc  Sc0  1  0.422086  0.421776  0.000000  1
  Sc  Sc1  1  0.580465  0.000000  0.000000  1
  Sc  Sc2  1  0.000310  0.578224  0.000000  1
  Ge  Ge3  1  0.002390  0.000000  0.000000  1
  As  As4  1  0.664054  0.331854  0.500000  1
  As  As5  1  0.332200  0.668146  0.500000  1
  Ir  Ir6  1  0.999896  0.245030  0.500000  1
  Ir  Ir7  1  0.754866  0.754970  0.500000  1
  Ru  Ru8  1  0.243733  0.000000  0.500000  1
