# generated using pymatgen
data_Zr4NbVRh10
_symmetry_space_group_name_H-M   'P 1'
_cell_length_a   5.60699351
_cell_length_b   5.60699287
_cell_length_c   8.46128600
_cell_angle_alpha   90.00000000
_cell_angle_beta   90.00000000
_cell_angle_gamma   100.39211722
_symmetry_Int_Tables_number   1
_chemical_formula_structural   Zr4NbVRh10
_chemical_formula_sum   'Zr4 Nb1 V1 Rh10'
_cell_volume   261.64552879
_cell_formula_units_Z   1
loop_
 _symmetry_equiv_pos_site_id
 _symmetry_equiv_pos_as_xyz
  1  'x, y, z'
loop_
 _atom_site_type_symbol
 _atom_site_label
 _atom_site_symmetry_multiplicity
 _atom_site_fract_x
 _atom_site_fract_y
 _atom_site_fract_z
 _atom_site_occupancy
  Zr  Zr0  1  0.787077  0.208092  0.500010  1
  Zr  Zr1  1  0.208092  0.787077  0.999990  1
  Zr  Zr2  1  0.208092  0.787077  0.500010  1
  Zr  Zr3  1  0.787077  0.208092  0.999990  1
  Nb  Nb4  1  0.581064  0.581064  0.750000  1
  V  V5  1  0.434247  0.434247  0.250000  1
  Rh  Rh6  1  0.694165  0.694165  0.043474  1
  Rh  Rh7  1  0.694165  0.694165  0.456526  1
  Rh  Rh8  1  0.297461  0.297461  0.981401  1
  Rh  Rh9  1  0.297461  0.297461  0.518599  1
  Rh  Rh10  1  0.483845  0.015713  0.750000  1
  Rh  Rh11  1  0.505352  0.015800  0.250000  1
  Rh  Rh12  1  0.007704  0.007704  0.250000  1
  Rh  Rh13  1  0.982685  0.982685  0.750000  1
  Rh  Rh14  1  0.015713  0.483845  0.750000  1
  Rh  Rh15  1  0.015800  0.505352  0.250000  1
