# generated using pymatgen
data_La3Nd5(CdPt)2
_symmetry_space_group_name_H-M   'P 1'
_cell_length_a   10.08821530
_cell_length_b   10.11199289
_cell_length_c   10.11176826
_cell_angle_alpha   59.84781803
_cell_angle_beta   60.07289710
_cell_angle_gamma   60.07116734
_symmetry_Int_Tables_number   1
_chemical_formula_structural   La3Nd5(CdPt)2
_chemical_formula_sum   'La6 Nd10 Cd4 Pt4'
_cell_volume   729.34353227
_cell_formula_units_Z   2
loop_
 _symmetry_equiv_pos_site_id
 _symmetry_equiv_pos_as_xyz
  1  'x, y, z'
loop_
 _atom_site_type_symbol
 _atom_site_label
 _atom_site_symmetry_multiplicity
 _atom_site_fract_x
 _atom_site_fract_y
 _atom_site_fract_z
 _atom_site_occupancy
  La  La0  1  0.348611  0.351391  0.351378  1
  La  La1  1  0.351374  0.348606  0.948609  1
  La  La2  1  0.351384  0.948606  0.348593  1
  La  La3  1  0.948598  0.351396  0.351431  1
  La  La4  1  0.809822  0.190175  0.190208  1
  La  La5  1  0.190201  0.809802  0.809843  1
  Nd  Nd6  1  0.192619  0.807379  0.192630  1
  Nd  Nd7  1  0.807385  0.192621  0.807371  1
  Nd  Nd8  1  0.192610  0.192622  0.807372  1
  Nd  Nd9  1  0.807372  0.807391  0.192605  1
  Nd  Nd10  1  0.933640  0.566377  0.566343  1
  Nd  Nd11  1  0.566376  0.933629  0.933658  1
  Nd  Nd12  1  0.565633  0.934353  0.565645  1
  Nd  Nd13  1  0.934341  0.565656  0.934348  1
  Nd  Nd14  1  0.565675  0.565662  0.934334  1
  Nd  Nd15  1  0.934351  0.934313  0.565668  1
  Cd  Cd16  1  0.582158  0.580378  0.580370  1
  Cd  Cd17  1  0.580373  0.582160  0.257092  1
  Cd  Cd18  1  0.580365  0.257104  0.582155  1
  Cd  Cd19  1  0.257104  0.580366  0.580367  1
  Pt  Pt20  1  0.140851  0.143653  0.143644  1
  Pt  Pt21  1  0.143655  0.140855  0.571847  1
  Pt  Pt22  1  0.143639  0.571866  0.140852  1
  Pt  Pt23  1  0.571863  0.143637  0.143636  1
