# generated using pymatgen
data_Gd2Y8C4Cl17
_symmetry_space_group_name_H-M   'P 1'
_cell_length_a   8.53150999
_cell_length_b   9.23754978
_cell_length_c   11.51905579
_cell_angle_alpha   104.95877778
_cell_angle_beta   95.83019590
_cell_angle_gamma   110.30634599
_symmetry_Int_Tables_number   1
_chemical_formula_structural   Gd2Y8C4Cl17
_chemical_formula_sum   'Gd2 Y8 C4 Cl17'
_cell_volume   804.03198638
_cell_formula_units_Z   1
loop_
 _symmetry_equiv_pos_site_id
 _symmetry_equiv_pos_as_xyz
  1  'x, y, z'
loop_
 _atom_site_type_symbol
 _atom_site_label
 _atom_site_symmetry_multiplicity
 _atom_site_fract_x
 _atom_site_fract_y
 _atom_site_fract_z
 _atom_site_occupancy
  Gd  Gd0  1  0.207599  0.095972  0.307271  1
  Gd  Gd1  1  0.792435  0.904019  0.692736  1
  Y  Y2  1  0.651703  0.489101  0.438236  1
  Y  Y3  1  0.348287  0.510885  0.561763  1
  Y  Y4  1  0.083471  0.424360  0.271355  1
  Y  Y5  1  0.916527  0.575621  0.728656  1
  Y  Y6  1  0.409708  0.370274  0.138925  1
  Y  Y7  1  0.590281  0.629712  0.861097  1
  Y  Y8  1  0.489257  0.780628  0.342830  1
  Y  Y9  1  0.510725  0.219382  0.657166  1
  C  C10  1  0.396934  0.529264  0.345327  1
  C  C11  1  0.603057  0.470733  0.654708  1
  C  C12  1  0.327724  0.361850  0.339092  1
  C  C13  1  0.672303  0.638178  0.660939  1
  Cl  Cl14  1  0.104392  0.349818  0.040618  1
  Cl  Cl15  1  0.895650  0.650267  0.959394  1
  Cl  Cl16  1  0.810612  0.820471  0.441371  1
  Cl  Cl17  1  0.189356  0.179497  0.558643  1
  Cl  Cl18  1  0.000001  0.500023  0.500006  1
  Cl  Cl19  1  0.301115  0.047012  0.091156  1
  Cl  Cl20  1  0.698886  0.952959  0.908806  1
  Cl  Cl21  1  0.904018  0.108143  0.247667  1
  Cl  Cl22  1  0.095983  0.891843  0.752339  1
  Cl  Cl23  1  0.547524  0.127852  0.410272  1
  Cl  Cl24  1  0.452500  0.872173  0.589710  1
  Cl  Cl25  1  0.739287  0.414277  0.212773  1
  Cl  Cl26  1  0.260717  0.585729  0.787209  1
  Cl  Cl27  1  0.163226  0.753680  0.284543  1
  Cl  Cl28  1  0.836726  0.246275  0.715399  1
  Cl  Cl29  1  0.534261  0.683744  0.111187  1
  Cl  Cl30  1  0.465738  0.316264  0.888806  1
