# generated using pymatgen
data_Dy7Y4Th(CoNi)2
_symmetry_space_group_name_H-M   'P 1'
_cell_length_a   6.32918587
_cell_length_b   6.88193641
_cell_length_c   9.60135259
_cell_angle_alpha   89.97255004
_cell_angle_beta   90.02977048
_cell_angle_gamma   91.07592399
_symmetry_Int_Tables_number   1
_chemical_formula_structural   Dy7Y4Th(CoNi)2
_chemical_formula_sum   'Dy7 Y4 Th1 Co2 Ni2'
_cell_volume   418.13280360
_cell_formula_units_Z   1
loop_
 _symmetry_equiv_pos_site_id
 _symmetry_equiv_pos_as_xyz
  1  'x, y, z'
loop_
 _atom_site_type_symbol
 _atom_site_label
 _atom_site_symmetry_multiplicity
 _atom_site_fract_x
 _atom_site_fract_y
 _atom_site_fract_z
 _atom_site_occupancy
  Dy  Dy0  1  0.323703  0.673232  0.069613  1
  Dy  Dy1  1  0.176392  0.174134  0.429614  1
  Dy  Dy2  1  0.677424  0.323872  0.565989  1
  Dy  Dy3  1  0.824519  0.826246  0.932938  1
  Dy  Dy4  1  0.677278  0.324387  0.933702  1
  Dy  Dy5  1  0.824863  0.826684  0.567307  1
  Dy  Dy6  1  0.640313  0.044814  0.250009  1
  Y  Y7  1  0.323672  0.673646  0.431506  1
  Y  Y8  1  0.176288  0.174115  0.069846  1
  Y  Y9  1  0.143202  0.463654  0.750203  1
  Y  Y10  1  0.357007  0.962748  0.749871  1
  Th  Th11  1  0.847390  0.553018  0.249855  1
  Co  Co12  1  0.035673  0.870069  0.249961  1
  Co  Co13  1  0.469265  0.390777  0.249864  1
  Ni  Ni14  1  0.942071  0.110949  0.750132  1
  Ni  Ni15  1  0.560940  0.607656  0.749591  1
