# generated using pymatgen
data_Tb2Y3Re2C7
_symmetry_space_group_name_H-M   'P 1'
_cell_length_a   8.35595089
_cell_length_b   8.35428825
_cell_length_c   3.44055100
_cell_angle_alpha   90.00000000
_cell_angle_beta   90.00000000
_cell_angle_gamma   122.73886341
_symmetry_Int_Tables_number   1
_chemical_formula_structural   Tb2Y3Re2C7
_chemical_formula_sum   'Tb2 Y3 Re2 C7'
_cell_volume   202.02437024
_cell_formula_units_Z   1
loop_
 _symmetry_equiv_pos_site_id
 _symmetry_equiv_pos_as_xyz
  1  'x, y, z'
loop_
 _atom_site_type_symbol
 _atom_site_label
 _atom_site_symmetry_multiplicity
 _atom_site_fract_x
 _atom_site_fract_y
 _atom_site_fract_z
 _atom_site_occupancy
  Tb  Tb0  1  0.075081  0.333841  0.500000  1
  Tb  Tb1  1  0.924919  0.666159  0.500000  1
  Y  Y2  1  0.500000  0.500000  0.000000  1
  Y  Y3  1  0.664935  0.924668  0.500000  1
  Y  Y4  1  0.335065  0.075332  0.500000  1
  Re  Re5  1  0.714142  0.285914  0.000000  1
  Re  Re6  1  0.285858  0.714086  0.000000  1
  C  C7  1  0.628223  0.372793  0.500000  1
  C  C8  1  0.371777  0.627207  0.500000  1
  C  C9  1  0.000000  0.000000  0.000000  1
  C  C10  1  0.169856  0.168667  0.000000  1
  C  C11  1  0.830144  0.831333  0.000000  1
  C  C12  1  0.000000  0.500000  0.000000  1
  C  C13  1  0.500000  0.000000  0.000000  1
