# generated using pymatgen
data_Cr12Si3P
_symmetry_space_group_name_H-M   'P 1'
_cell_length_a   4.50520700
_cell_length_b   4.50481800
_cell_length_c   8.99665800
_cell_angle_alpha   90.00000000
_cell_angle_beta   90.00000000
_cell_angle_gamma   90.00000000
_symmetry_Int_Tables_number   1
_chemical_formula_structural   Cr12Si3P
_chemical_formula_sum   'Cr12 Si3 P1'
_cell_volume   182.58841194
_cell_formula_units_Z   1
loop_
 _symmetry_equiv_pos_site_id
 _symmetry_equiv_pos_as_xyz
  1  'x, y, z'
loop_
 _atom_site_type_symbol
 _atom_site_label
 _atom_site_symmetry_multiplicity
 _atom_site_fract_x
 _atom_site_fract_y
 _atom_site_fract_z
 _atom_site_occupancy
  Cr  Cr0  1  0.000000  0.500000  0.123665  1
  Cr  Cr1  1  0.000000  0.500000  0.624526  1
  Cr  Cr2  1  0.500000  0.250443  0.752082  1
  Cr  Cr3  1  0.500000  0.250443  0.247918  1
  Cr  Cr4  1  0.748248  0.000000  0.000000  1
  Cr  Cr5  1  0.748867  0.000000  0.500000  1
  Cr  Cr6  1  0.000000  0.500000  0.876335  1
  Cr  Cr7  1  0.000000  0.500000  0.375474  1
  Cr  Cr8  1  0.500000  0.749557  0.752082  1
  Cr  Cr9  1  0.500000  0.749557  0.247918  1
  Cr  Cr10  1  0.251752  0.000000  0.000000  1
  Cr  Cr11  1  0.251133  0.000000  0.500000  1
  Si  Si12  1  0.500000  0.500000  0.500000  1
  Si  Si13  1  0.000000  0.000000  0.749837  1
  Si  Si14  1  0.000000  0.000000  0.250163  1
  P  P15  1  0.500000  0.500000  0.000000  1
