# generated using pymatgen
data_RbBaAsS3
_symmetry_space_group_name_H-M   'P 1'
_cell_length_a   8.66466300
_cell_length_b   9.00752875
_cell_length_c   9.74602300
_cell_angle_alpha   75.03649894
_cell_angle_beta   90.00000000
_cell_angle_gamma   90.00000000
_symmetry_Int_Tables_number   1
_chemical_formula_structural   RbBaAsS3
_chemical_formula_sum   'Rb4 Ba4 As4 S12'
_cell_volume   734.85656576
_cell_formula_units_Z   4
loop_
 _symmetry_equiv_pos_site_id
 _symmetry_equiv_pos_as_xyz
  1  'x, y, z'
loop_
 _atom_site_type_symbol
 _atom_site_label
 _atom_site_symmetry_multiplicity
 _atom_site_fract_x
 _atom_site_fract_y
 _atom_site_fract_z
 _atom_site_occupancy
  Rb  Rb0  1  0.569309  0.228768  0.411084  1
  Rb  Rb1  1  0.069309  0.271232  0.588916  1
  Rb  Rb2  1  0.430691  0.771232  0.588916  1
  Rb  Rb3  1  0.930691  0.728768  0.411084  1
  Ba  Ba4  1  0.217815  0.472217  0.075376  1
  Ba  Ba5  1  0.717815  0.027783  0.924624  1
  Ba  Ba6  1  0.782185  0.527783  0.924624  1
  Ba  Ba7  1  0.282185  0.972217  0.075376  1
  As  As8  1  0.951895  0.157622  0.233892  1
  As  As9  1  0.451895  0.342378  0.766108  1
  As  As10  1  0.048105  0.842378  0.766108  1
  As  As11  1  0.548105  0.657622  0.233892  1
  S  S12  1  0.689497  0.394052  0.668774  1
  S  S13  1  0.189497  0.105948  0.331226  1
  S  S14  1  0.310503  0.605948  0.331226  1
  S  S15  1  0.810503  0.894052  0.668774  1
  S  S16  1  0.506015  0.280276  0.008496  1
  S  S17  1  0.006015  0.219724  0.991504  1
  S  S18  1  0.493985  0.719724  0.991504  1
  S  S19  1  0.993985  0.780276  0.008496  1
  S  S20  1  0.897757  0.394621  0.258401  1
  S  S21  1  0.397757  0.105379  0.741599  1
  S  S22  1  0.102243  0.605379  0.741599  1
  S  S23  1  0.602243  0.894621  0.258401  1
