# generated using pymatgen
data_Cs4MnZnS4
_symmetry_space_group_name_H-M   'P 1'
_cell_length_a   8.39978796
_cell_length_b   8.39978834
_cell_length_c   8.39979000
_cell_angle_alpha   134.51540419
_cell_angle_beta   128.12776420
_cell_angle_gamma   71.42667307
_symmetry_Int_Tables_number   1
_chemical_formula_structural   Cs4MnZnS4
_chemical_formula_sum   'Cs4 Mn1 Zn1 S4'
_cell_volume   325.45288349
_cell_formula_units_Z   1
loop_
 _symmetry_equiv_pos_site_id
 _symmetry_equiv_pos_as_xyz
  1  'x, y, z'
loop_
 _atom_site_type_symbol
 _atom_site_label
 _atom_site_symmetry_multiplicity
 _atom_site_fract_x
 _atom_site_fract_y
 _atom_site_fract_z
 _atom_site_occupancy
  Cs  Cs0  1  0.810476  0.147647  0.662041  1
  Cs  Cs1  1  0.189524  0.851565  0.337172  1
  Cs  Cs2  1  0.485607  0.648434  0.837959  1
  Cs  Cs3  1  0.514393  0.352352  0.162828  1
  Mn  Mn4  1  0.000000  0.750000  0.750000  1
  Zn  Zn5  1  0.000000  0.250000  0.250000  1
  S  S6  1  0.079385  0.402260  0.669267  1
  S  S7  1  0.920615  0.589882  0.322875  1
  S  S8  1  0.732993  0.910118  0.830733  1
  S  S9  1  0.267007  0.097740  0.177125  1
