# generated using pymatgen
data_SmYNb2(SbRh)4
_symmetry_space_group_name_H-M   'P 1'
_cell_length_a   4.51158200
_cell_length_b   6.40709327
_cell_length_c   9.06295179
_cell_angle_alpha   90.07198372
_cell_angle_beta   90.00000000
_cell_angle_gamma   90.00000000
_symmetry_Int_Tables_number   1
_chemical_formula_structural   SmYNb2(SbRh)4
_chemical_formula_sum   'Sm1 Y1 Nb2 Sb4 Rh4'
_cell_volume   261.97462539
_cell_formula_units_Z   1
loop_
 _symmetry_equiv_pos_site_id
 _symmetry_equiv_pos_as_xyz
  1  'x, y, z'
loop_
 _atom_site_type_symbol
 _atom_site_label
 _atom_site_symmetry_multiplicity
 _atom_site_fract_x
 _atom_site_fract_y
 _atom_site_fract_z
 _atom_site_occupancy
  Sm  Sm0  1  0.000000  0.005731  0.376347  1
  Y  Y1  1  0.500001  0.505292  0.623658  1
  Nb  Nb2  1  0.500001  0.494770  0.120346  1
  Nb  Nb3  1  0.000000  0.994035  0.879585  1
  Sb  Sb4  1  0.500001  0.984292  0.121266  1
  Sb  Sb5  1  0.000000  0.510690  0.369498  1
  Sb  Sb6  1  0.500001  0.009451  0.633815  1
  Sb  Sb7  1  0.000000  0.483406  0.876028  1
  Rh  Rh8  1  0.000000  0.732610  0.108651  1
  Rh  Rh9  1  0.500001  0.274663  0.348784  1
  Rh  Rh10  1  0.000000  0.770087  0.651894  1
  Rh  Rh11  1  0.500001  0.234969  0.890133  1
