# generated using pymatgen
data_Tb9Pa(In2Rh)4
_symmetry_space_group_name_H-M   'P 1'
_cell_length_a   3.64870900
_cell_length_b   8.04352498
_cell_length_c   18.33449600
_cell_angle_alpha   90.06378130
_cell_angle_beta   90.00000000
_cell_angle_gamma   90.00000000
_symmetry_Int_Tables_number   1
_chemical_formula_structural   Tb9Pa(In2Rh)4
_chemical_formula_sum   'Tb9 Pa1 In8 Rh4'
_cell_volume   538.08929243
_cell_formula_units_Z   1
loop_
 _symmetry_equiv_pos_site_id
 _symmetry_equiv_pos_as_xyz
  1  'x, y, z'
loop_
 _atom_site_type_symbol
 _atom_site_label
 _atom_site_symmetry_multiplicity
 _atom_site_fract_x
 _atom_site_fract_y
 _atom_site_fract_z
 _atom_site_occupancy
  Tb  Tb0  1  0.000000  0.114358  0.414597  1
  Tb  Tb1  1  0.000000  0.884773  0.588629  1
  Tb  Tb2  1  0.000000  0.383155  0.911566  1
  Tb  Tb3  1  0.000000  0.616673  0.084176  1
  Tb  Tb4  1  0.000000  0.243110  0.221601  1
  Tb  Tb5  1  0.000000  0.754805  0.779171  1
  Tb  Tb6  1  0.000000  0.255896  0.721043  1
  Tb  Tb7  1  0.000000  0.000476  0.998593  1
  Tb  Tb8  1  0.000000  0.500086  0.499883  1
  Pa  Pa9  1  0.000000  0.747663  0.275140  1
  In  In10  1  0.500000  0.424353  0.350809  1
  In  In11  1  0.500000  0.572801  0.649434  1
  In  In12  1  0.500000  0.072386  0.849831  1
  In  In13  1  0.500000  0.931507  0.145494  1
  In  In14  1  0.500000  0.292831  0.069137  1
  In  In15  1  0.500000  0.707842  0.931113  1
  In  In16  1  0.500000  0.207668  0.568244  1
  In  In17  1  0.500000  0.791160  0.434023  1
  Rh  Rh18  1  0.500000  0.987868  0.303027  1
  Rh  Rh19  1  0.500000  0.980867  0.695199  1
  Rh  Rh20  1  0.500000  0.478741  0.804719  1
  Rh  Rh21  1  0.500000  0.550980  0.204572  1
