# generated using pymatgen
data_Na4YAuO6
_symmetry_space_group_name_H-M   'P 1'
_cell_length_a   5.72964802
_cell_length_b   5.72969086
_cell_length_c   5.87510042
_cell_angle_alpha   99.43890658
_cell_angle_beta   99.44048125
_cell_angle_gamma   119.95486348
_symmetry_Int_Tables_number   1
_chemical_formula_structural   Na4YAuO6
_chemical_formula_sum   'Na4 Y1 Au1 O6'
_cell_volume   157.87696111
_cell_formula_units_Z   1
loop_
 _symmetry_equiv_pos_site_id
 _symmetry_equiv_pos_as_xyz
  1  'x, y, z'
loop_
 _atom_site_type_symbol
 _atom_site_label
 _atom_site_symmetry_multiplicity
 _atom_site_fract_x
 _atom_site_fract_y
 _atom_site_fract_z
 _atom_site_occupancy
  Na  Na0  1  0.500963  0.499035  0.000001  1
  Na  Na1  1  0.983222  0.016787  0.500004  1
  Na  Na2  1  0.666965  0.333032  0.499998  1
  Na  Na3  1  0.343625  0.656373  0.500001  1
  Y  Y4  1  0.166862  0.833136  0.000001  1
  Au  Au5  1  0.833916  0.166101  0.000001  1
  O  O6  1  0.597084  0.945713  0.211326  1
  O  O7  1  0.922523  0.544140  0.218085  1
  O  O8  1  0.197916  0.223203  0.218541  1
  O  O9  1  0.776792  0.802087  0.781460  1
  O  O10  1  0.455848  0.077474  0.781908  1
  O  O11  1  0.054284  0.402918  0.788679  1
