# generated using pymatgen
data_Er8Ga12CoCuNi2
_symmetry_space_group_name_H-M   'P 1'
_cell_length_a   6.92560700
_cell_length_b   8.73291318
_cell_length_c   8.73291400
_cell_angle_alpha   119.99999554
_cell_angle_beta   90.00000000
_cell_angle_gamma   90.00000000
_symmetry_Int_Tables_number   1
_chemical_formula_structural   Er8Ga12CoCuNi2
_chemical_formula_sum   'Er8 Ga12 Co1 Cu1 Ni2'
_cell_volume   457.41122742
_cell_formula_units_Z   1
loop_
 _symmetry_equiv_pos_site_id
 _symmetry_equiv_pos_as_xyz
  1  'x, y, z'
loop_
 _atom_site_type_symbol
 _atom_site_label
 _atom_site_symmetry_multiplicity
 _atom_site_fract_x
 _atom_site_fract_y
 _atom_site_fract_z
 _atom_site_occupancy
  Er  Er0  1  0.745660  0.000000  0.000000  1
  Er  Er1  1  0.250092  0.000000  0.000000  1
  Er  Er2  1  0.749386  0.478386  0.521614  1
  Er  Er3  1  0.256991  0.521013  0.478987  1
  Er  Er4  1  0.749386  0.043229  0.521614  1
  Er  Er5  1  0.256991  0.957974  0.478987  1
  Er  Er6  1  0.749386  0.478386  0.956771  1
  Er  Er7  1  0.256991  0.521013  0.042026  1
  Ga  Ga8  1  0.956652  0.831533  0.168467  1
  Ga  Ga9  1  0.046920  0.172165  0.827835  1
  Ga  Ga10  1  0.956652  0.336934  0.168467  1
  Ga  Ga11  1  0.457188  0.170812  0.829188  1
  Ga  Ga12  1  0.046920  0.655668  0.827835  1
  Ga  Ga13  1  0.545121  0.826876  0.173124  1
  Ga  Ga14  1  0.956652  0.831533  0.663066  1
  Ga  Ga15  1  0.457188  0.658375  0.829188  1
  Ga  Ga16  1  0.046920  0.172165  0.344332  1
  Ga  Ga17  1  0.545121  0.346249  0.173124  1
  Ga  Ga18  1  0.457188  0.170812  0.341625  1
  Ga  Ga19  1  0.545121  0.826876  0.653751  1
  Co  Co20  1  0.510993  0.666667  0.333333  1
  Cu  Cu21  1  0.955930  0.666667  0.333333  1
  Ni  Ni22  1  0.023214  0.333333  0.666667  1
  Ni  Ni23  1  0.477334  0.333333  0.666667  1
