# generated using pymatgen
data_EuDy2Zr(NiP)4
_symmetry_space_group_name_H-M   'P 1'
_cell_length_a   3.87090800
_cell_length_b   3.87090693
_cell_length_c   15.48129100
_cell_angle_alpha   90.00000000
_cell_angle_beta   90.00000000
_cell_angle_gamma   119.99999209
_symmetry_Int_Tables_number   1
_chemical_formula_structural   EuDy2Zr(NiP)4
_chemical_formula_sum   'Eu1 Dy2 Zr1 Ni4 P4'
_cell_volume   200.89235917
_cell_formula_units_Z   1
loop_
 _symmetry_equiv_pos_site_id
 _symmetry_equiv_pos_as_xyz
  1  'x, y, z'
loop_
 _atom_site_type_symbol
 _atom_site_label
 _atom_site_symmetry_multiplicity
 _atom_site_fract_x
 _atom_site_fract_y
 _atom_site_fract_z
 _atom_site_occupancy
  Eu  Eu0  1  0.000000  0.000000  0.750000  1
  Dy  Dy1  1  0.000000  0.000000  0.488708  1
  Dy  Dy2  1  0.000000  0.000000  0.011292  1
  Zr  Zr3  1  0.000000  0.000000  0.250000  1
  Ni  Ni4  1  0.333333  0.666667  0.347910  1
  Ni  Ni5  1  0.666667  0.333333  0.611737  1
  Ni  Ni6  1  0.666667  0.333333  0.888263  1
  Ni  Ni7  1  0.333333  0.666667  0.152090  1
  P  P8  1  0.333333  0.666667  0.886412  1
  P  P9  1  0.666667  0.333333  0.130786  1
  P  P10  1  0.666667  0.333333  0.369214  1
  P  P11  1  0.333333  0.666667  0.613588  1
