# generated using pymatgen
data_Sc6Ta4NbGa11Os7
_symmetry_space_group_name_H-M   'P 1'
_cell_length_a   8.94460372
_cell_length_b   8.94460300
_cell_length_c   8.88553135
_cell_angle_alpha   59.77983270
_cell_angle_beta   59.77983516
_cell_angle_gamma   59.99999054
_symmetry_Int_Tables_number   1
_chemical_formula_structural   Sc6Ta4NbGa11Os7
_chemical_formula_sum   'Sc6 Ta4 Nb1 Ga11 Os7'
_cell_volume   500.99945719
_cell_formula_units_Z   1
loop_
 _symmetry_equiv_pos_site_id
 _symmetry_equiv_pos_as_xyz
  1  'x, y, z'
loop_
 _atom_site_type_symbol
 _atom_site_label
 _atom_site_symmetry_multiplicity
 _atom_site_fract_x
 _atom_site_fract_y
 _atom_site_fract_z
 _atom_site_occupancy
  Sc  Sc0  1  0.713505  0.713505  0.290642  1
  Sc  Sc1  1  0.282347  0.713505  0.290642  1
  Sc  Sc2  1  0.713505  0.282347  0.290642  1
  Sc  Sc3  1  0.295152  0.295152  0.714933  1
  Sc  Sc4  1  0.694763  0.295152  0.714933  1
  Sc  Sc5  1  0.295152  0.694763  0.714933  1
  Ta  Ta6  1  0.875385  0.370229  0.879001  1
  Ta  Ta7  1  0.370229  0.875385  0.879001  1
  Ta  Ta8  1  0.875385  0.875385  0.879001  1
  Ta  Ta9  1  0.126942  0.126942  0.619176  1
  Nb  Nb10  1  0.877999  0.877999  0.366004  1
  Ga  Ga11  1  0.118106  0.643709  0.120080  1
  Ga  Ga12  1  0.643709  0.118106  0.120080  1
  Ga  Ga13  1  0.118106  0.118106  0.120080  1
  Ga  Ga14  1  0.657038  0.657038  0.028888  1
  Ga  Ga15  1  0.657021  0.030524  0.655434  1
  Ga  Ga16  1  0.030524  0.657021  0.655434  1
  Ga  Ga17  1  0.657021  0.657021  0.655434  1
  Ga  Ga18  1  0.337549  0.337549  0.987354  1
  Ga  Ga19  1  0.341619  0.979095  0.337665  1
  Ga  Ga20  1  0.979095  0.341619  0.337665  1
  Ga  Ga21  1  0.341619  0.341619  0.337665  1
  Os  Os22  1  0.006170  0.006170  0.981489  1
  Os  Os23  1  0.998116  0.998116  0.507273  1
  Os  Os24  1  0.496496  0.998116  0.507273  1
  Os  Os25  1  0.998116  0.496496  0.507273  1
  Os  Os26  1  0.502851  0.502851  0.000668  1
  Os  Os27  1  0.993630  0.502851  0.000668  1
  Os  Os28  1  0.502851  0.993630  0.000668  1
