# generated using pymatgen
data_La3Pr2P12Ru18Pt
_symmetry_space_group_name_H-M   'P 1'
_cell_length_a   12.64410900
_cell_length_b   12.73258625
_cell_length_c   4.04023100
_cell_angle_alpha   90.00000000
_cell_angle_beta   90.00000000
_cell_angle_gamma   119.77040038
_symmetry_Int_Tables_number   1
_chemical_formula_structural   La3Pr2P12Ru18Pt
_chemical_formula_sum   'La3 Pr2 P12 Ru18 Pt1'
_cell_volume   564.60123907
_cell_formula_units_Z   1
loop_
 _symmetry_equiv_pos_site_id
 _symmetry_equiv_pos_as_xyz
  1  'x, y, z'
loop_
 _atom_site_type_symbol
 _atom_site_label
 _atom_site_symmetry_multiplicity
 _atom_site_fract_x
 _atom_site_fract_y
 _atom_site_fract_z
 _atom_site_occupancy
  La  La0  1  0.818316  0.000000  0.500000  1
  La  La1  1  0.001754  0.817289  0.500000  1
  La  La2  1  0.184465  0.182711  0.500000  1
  Pr  Pr3  1  0.331381  0.661816  0.000000  1
  Pr  Pr4  1  0.669566  0.338184  0.000000  1
  P  P5  1  0.192610  0.000000  0.000000  1
  P  P6  1  0.998521  0.187641  0.000000  1
  P  P7  1  0.810879  0.812359  0.000000  1
  P  P8  1  0.521809  0.695186  0.500000  1
  P  P9  1  0.296376  0.817242  0.500000  1
  P  P10  1  0.169310  0.472972  0.500000  1
  P  P11  1  0.479134  0.182758  0.500000  1
  P  P12  1  0.696338  0.527028  0.500000  1
  P  P13  1  0.826623  0.304814  0.500000  1
  P  P14  1  0.631837  0.000000  0.000000  1
  P  P15  1  0.998526  0.622784  0.000000  1
  P  P16  1  0.375742  0.377216  0.000000  1
  Ru  Ru17  1  0.997865  0.443929  0.000000  1
  Ru  Ru18  1  0.553936  0.556071  0.000000  1
  Ru  Ru19  1  0.294216  0.000000  0.500000  1
  Ru  Ru20  1  0.997714  0.284999  0.500000  1
  Ru  Ru21  1  0.712717  0.715001  0.500000  1
  Ru  Ru22  1  0.618900  0.805343  0.000000  1
  Ru  Ru23  1  0.196295  0.814580  0.000000  1
  Ru  Ru24  1  0.182807  0.376581  0.000000  1
  Ru  Ru25  1  0.381714  0.185420  0.000000  1
  Ru  Ru26  1  0.806226  0.623419  0.000000  1
  Ru  Ru27  1  0.813558  0.194657  0.000000  1
  Ru  Ru28  1  0.505553  0.875113  0.500000  1
  Ru  Ru29  1  0.120324  0.628008  0.500000  1
  Ru  Ru30  1  0.365800  0.491552  0.500000  1
  Ru  Ru31  1  0.492316  0.371992  0.500000  1
  Ru  Ru32  1  0.874248  0.508448  0.500000  1
  Ru  Ru33  1  0.630440  0.124887  0.500000  1
  Ru  Ru34  1  0.003006  0.000000  0.000000  1
  Pt  Pt35  1  0.449180  0.000000  0.000000  1
