# generated using pymatgen
data_Dy7Y(LuPb3)2
_symmetry_space_group_name_H-M   'P 1'
_cell_length_a   9.02836101
_cell_length_b   9.02836246
_cell_length_c   6.61000500
_cell_angle_alpha   89.99964309
_cell_angle_beta   89.99964029
_cell_angle_gamma   120.00584781
_symmetry_Int_Tables_number   1
_chemical_formula_structural   Dy7Y(LuPb3)2
_chemical_formula_sum   'Dy7 Y1 Lu2 Pb6'
_cell_volume   466.57850593
_cell_formula_units_Z   1
loop_
 _symmetry_equiv_pos_site_id
 _symmetry_equiv_pos_as_xyz
  1  'x, y, z'
loop_
 _atom_site_type_symbol
 _atom_site_label
 _atom_site_symmetry_multiplicity
 _atom_site_fract_x
 _atom_site_fract_y
 _atom_site_fract_z
 _atom_site_occupancy
  Dy  Dy0  1  0.238150  0.999971  0.249322  1
  Dy  Dy1  1  0.999966  0.761795  0.750682  1
  Dy  Dy2  1  0.761863  0.761863  0.249322  1
  Dy  Dy3  1  0.999971  0.238150  0.249322  1
  Dy  Dy4  1  0.761795  0.999966  0.750682  1
  Dy  Dy5  1  0.333348  0.666669  0.500012  1
  Dy  Dy6  1  0.666669  0.333348  0.500012  1
  Y  Y7  1  0.238161  0.238161  0.750669  1
  Lu  Lu8  1  0.333342  0.666661  0.999987  1
  Lu  Lu9  1  0.666661  0.333342  0.999987  1
  Pb  Pb10  1  0.000006  0.395513  0.752500  1
  Pb  Pb11  1  0.395524  0.395524  0.247504  1
  Pb  Pb12  1  0.604509  0.999998  0.247500  1
  Pb  Pb13  1  0.604525  0.604525  0.752501  1
  Pb  Pb14  1  0.395513  0.000006  0.752500  1
  Pb  Pb15  1  0.999998  0.604509  0.247500  1
