# generated using pymatgen
data_BaPrB12
_symmetry_space_group_name_H-M   'P 1'
_cell_length_a   4.20437600
_cell_length_b   4.20437600
_cell_length_c   8.41839200
_cell_angle_alpha   90.00000000
_cell_angle_beta   90.00000000
_cell_angle_gamma   90.00000000
_symmetry_Int_Tables_number   1
_chemical_formula_structural   BaPrB12
_chemical_formula_sum   'Ba1 Pr1 B12'
_cell_volume   148.81004271
_cell_formula_units_Z   1
loop_
 _symmetry_equiv_pos_site_id
 _symmetry_equiv_pos_as_xyz
  1  'x, y, z'
loop_
 _atom_site_type_symbol
 _atom_site_label
 _atom_site_symmetry_multiplicity
 _atom_site_fract_x
 _atom_site_fract_y
 _atom_site_fract_z
 _atom_site_occupancy
  Ba  Ba0  1  0.000000  0.000000  0.500000  1
  Pr  Pr1  1  0.000000  0.000000  0.000000  1
  B  B2  1  0.202052  0.500000  0.245370  1
  B  B3  1  0.202052  0.500000  0.754630  1
  B  B4  1  0.500000  0.500000  0.396275  1
  B  B5  1  0.500000  0.500000  0.901406  1
  B  B6  1  0.500000  0.202052  0.245370  1
  B  B7  1  0.500000  0.202052  0.754630  1
  B  B8  1  0.500000  0.500000  0.098594  1
  B  B9  1  0.500000  0.500000  0.603725  1
  B  B10  1  0.500000  0.797948  0.245370  1
  B  B11  1  0.500000  0.797948  0.754630  1
  B  B12  1  0.797948  0.500000  0.245370  1
  B  B13  1  0.797948  0.500000  0.754630  1
