# generated using pymatgen
data_LaYbCu2(AsH)2
_symmetry_space_group_name_H-M   'P 1'
_cell_length_a   4.09015000
_cell_length_b   4.09015000
_cell_length_c   7.56783800
_cell_angle_alpha   90.00000000
_cell_angle_beta   90.00000000
_cell_angle_gamma   90.00000000
_symmetry_Int_Tables_number   1
_chemical_formula_structural   LaYbCu2(AsH)2
_chemical_formula_sum   'La1 Yb1 Cu2 As2 H2'
_cell_volume   126.60483676
_cell_formula_units_Z   1
loop_
 _symmetry_equiv_pos_site_id
 _symmetry_equiv_pos_as_xyz
  1  'x, y, z'
loop_
 _atom_site_type_symbol
 _atom_site_label
 _atom_site_symmetry_multiplicity
 _atom_site_fract_x
 _atom_site_fract_y
 _atom_site_fract_z
 _atom_site_occupancy
  La  La0  1  0.000000  0.500000  0.845110  1
  Yb  Yb1  1  0.500000  0.000000  0.170408  1
  Cu  Cu2  1  0.500000  0.500000  0.489585  1
  Cu  Cu3  1  0.000000  0.000000  0.489585  1
  As  As4  1  0.000000  0.500000  0.306631  1
  As  As5  1  0.500000  0.000000  0.683149  1
  H  H6  1  0.000000  0.000000  0.007765  1
  H  H7  1  0.500000  0.500000  0.007765  1
