# generated using pymatgen
data_La6YbFeCl12
_symmetry_space_group_name_H-M   'P 1'
_cell_length_a   9.08427384
_cell_length_b   9.38708348
_cell_length_c   9.40771200
_cell_angle_alpha   107.65736197
_cell_angle_beta   107.23609953
_cell_angle_gamma   106.80888858
_symmetry_Int_Tables_number   1
_chemical_formula_structural   La6YbFeCl12
_chemical_formula_sum   'La6 Yb1 Fe1 Cl12'
_cell_volume   663.77290690
_cell_formula_units_Z   1
loop_
 _symmetry_equiv_pos_site_id
 _symmetry_equiv_pos_as_xyz
  1  'x, y, z'
loop_
 _atom_site_type_symbol
 _atom_site_label
 _atom_site_symmetry_multiplicity
 _atom_site_fract_x
 _atom_site_fract_y
 _atom_site_fract_z
 _atom_site_occupancy
  La  La0  1  0.298496  0.102818  0.025342  1
  La  La1  1  0.024006  0.330283  0.117886  1
  La  La2  1  0.120384  0.027921  0.329887  1
  La  La3  1  0.879616  0.972079  0.670114  1
  La  La4  1  0.975994  0.669718  0.882115  1
  La  La5  1  0.701505  0.897182  0.974659  1
  Yb  Yb6  1  0.500000  0.500000  0.500000  1
  Fe  Fe7  1  0.000000  0.000000  0.000000  1
  Cl  Cl8  1  0.678668  0.213714  0.066085  1
  Cl  Cl9  1  0.379674  0.457218  0.179831  1
  Cl  Cl10  1  0.068348  0.685468  0.211885  1
  Cl  Cl11  1  0.787184  0.932898  0.315106  1
  Cl  Cl12  1  0.465206  0.180847  0.382177  1
  Cl  Cl13  1  0.172646  0.377519  0.458497  1
  Cl  Cl14  1  0.827354  0.622482  0.541503  1
  Cl  Cl15  1  0.534794  0.819154  0.617823  1
  Cl  Cl16  1  0.212817  0.067103  0.684894  1
  Cl  Cl17  1  0.931652  0.314532  0.788116  1
  Cl  Cl18  1  0.620327  0.542782  0.820169  1
  Cl  Cl19  1  0.321333  0.786286  0.933915  1
