# generated using pymatgen
data_Dy6Ho6Ir3Os
_symmetry_space_group_name_H-M   'P 1'
_cell_length_a   6.38508008
_cell_length_b   7.28487831
_cell_length_c   9.14011013
_cell_angle_alpha   89.99065724
_cell_angle_beta   89.98284487
_cell_angle_gamma   89.98075780
_symmetry_Int_Tables_number   1
_chemical_formula_structural   Dy6Ho6Ir3Os
_chemical_formula_sum   'Dy6 Ho6 Ir3 Os1'
_cell_volume   425.14789110
_cell_formula_units_Z   1
loop_
 _symmetry_equiv_pos_site_id
 _symmetry_equiv_pos_as_xyz
  1  'x, y, z'
loop_
 _atom_site_type_symbol
 _atom_site_label
 _atom_site_symmetry_multiplicity
 _atom_site_fract_x
 _atom_site_fract_y
 _atom_site_fract_z
 _atom_site_occupancy
  Dy  Dy0  1  0.326402  0.677865  0.435938  1
  Dy  Dy1  1  0.171659  0.175071  0.063859  1
  Dy  Dy2  1  0.869269  0.535304  0.249917  1
  Dy  Dy3  1  0.629686  0.035355  0.250089  1
  Dy  Dy4  1  0.131792  0.464516  0.750048  1
  Dy  Dy5  1  0.370535  0.963689  0.749957  1
  Ho  Ho6  1  0.326522  0.677711  0.064106  1
  Ho  Ho7  1  0.171570  0.175000  0.436129  1
  Ho  Ho8  1  0.671477  0.323436  0.563036  1
  Ho  Ho9  1  0.830894  0.823894  0.939193  1
  Ho  Ho10  1  0.671363  0.323538  0.936884  1
  Ho  Ho11  1  0.830981  0.824012  0.560869  1
  Ir  Ir12  1  0.455705  0.383892  0.249952  1
  Ir  Ir13  1  0.955521  0.116707  0.749810  1
  Ir  Ir14  1  0.546740  0.616308  0.750215  1
  Os  Os15  1  0.039884  0.883702  0.249999  1
