# generated using pymatgen
data_Tm4Al24Pt8Rh
_symmetry_space_group_name_H-M   'P 1'
_cell_length_a   7.50209658
_cell_length_b   7.53036239
_cell_length_c   13.13898164
_cell_angle_alpha   84.65599544
_cell_angle_beta   79.15172642
_cell_angle_gamma   59.90608641
_symmetry_Int_Tables_number   1
_chemical_formula_structural   Tm4Al24Pt8Rh
_chemical_formula_sum   'Tm4 Al24 Pt8 Rh1'
_cell_volume   630.73537006
_cell_formula_units_Z   1
loop_
 _symmetry_equiv_pos_site_id
 _symmetry_equiv_pos_as_xyz
  1  'x, y, z'
loop_
 _atom_site_type_symbol
 _atom_site_label
 _atom_site_symmetry_multiplicity
 _atom_site_fract_x
 _atom_site_fract_y
 _atom_site_fract_z
 _atom_site_occupancy
  Tm  Tm0  1  0.393947  0.168565  0.808183  1
  Tm  Tm1  1  0.606053  0.831435  0.191817  1
  Tm  Tm2  1  0.733947  0.498674  0.808151  1
  Tm  Tm3  1  0.266053  0.501326  0.191849  1
  Al  Al4  1  0.687025  0.830356  0.945003  1
  Al  Al5  1  0.312975  0.169644  0.054997  1
  Al  Al6  1  0.146604  0.832096  0.561774  1
  Al  Al7  1  0.853396  0.167904  0.438226  1
  Al  Al8  1  0.479767  0.166658  0.558988  1
  Al  Al9  1  0.520233  0.833342  0.441012  1
  Al  Al10  1  0.217653  0.165273  0.327845  1
  Al  Al11  1  0.782347  0.834727  0.672155  1
  Al  Al12  1  0.436406  0.506848  0.672111  1
  Al  Al13  1  0.563594  0.493152  0.327889  1
  Al  Al14  1  0.109130  0.160452  0.670381  1
  Al  Al15  1  0.890870  0.839548  0.329619  1
  Al  Al16  1  0.349929  0.498845  0.945113  1
  Al  Al17  1  0.650071  0.501155  0.054887  1
  Al  Al18  1  0.015519  0.172485  0.953368  1
  Al  Al19  1  0.984481  0.827515  0.046632  1
  Al  Al20  1  0.186510  0.499479  0.441053  1
  Al  Al21  1  0.813490  0.500521  0.558947  1
  Al  Al22  1  0.734059  0.163965  0.182869  1
  Al  Al23  1  0.265941  0.836035  0.817131  1
  Al  Al24  1  0.061009  0.628371  0.817927  1
  Al  Al25  1  0.938991  0.371629  0.182073  1
  Al  Al26  1  0.855064  0.041844  0.816614  1
  Al  Al27  1  0.144936  0.958156  0.183386  1
  Pt  Pt28  1  0.119944  0.491704  0.639016  1
  Pt  Pt29  1  0.880056  0.508296  0.360984  1
  Pt  Pt30  1  0.656574  0.171701  0.999840  1
  Pt  Pt31  1  0.343426  0.828299  0.000160  1
  Pt  Pt32  1  0.537134  0.166788  0.361157  1
  Pt  Pt33  1  0.462866  0.833212  0.638843  1
  Pt  Pt34  1  0.778156  0.175574  0.637486  1
  Pt  Pt35  1  0.221844  0.824426  0.362514  1
  Rh  Rh36  1  0.000000  0.500000  0.000000  1
