# generated using pymatgen
data_CaMo(PO4)2
_symmetry_space_group_name_H-M   'P 1'
_cell_length_a   4.87584016
_cell_length_b   4.87583919
_cell_length_c   7.22128227
_cell_angle_alpha   91.02658143
_cell_angle_beta   91.02658266
_cell_angle_gamma   66.85039383
_symmetry_Int_Tables_number   1
_chemical_formula_structural   CaMo(PO4)2
_chemical_formula_sum   'Ca1 Mo1 P2 O8'
_cell_volume   157.81782241
_cell_formula_units_Z   1
loop_
 _symmetry_equiv_pos_site_id
 _symmetry_equiv_pos_as_xyz
  1  'x, y, z'
loop_
 _atom_site_type_symbol
 _atom_site_label
 _atom_site_symmetry_multiplicity
 _atom_site_fract_x
 _atom_site_fract_y
 _atom_site_fract_z
 _atom_site_occupancy
  Ca  Ca0  1  0.000000  0.000000  0.000000  1
  Mo  Mo1  1  0.000000  0.000000  0.500000  1
  P  P2  1  0.641803  0.641803  0.268874  1
  P  P3  1  0.358198  0.358198  0.731126  1
  O  O4  1  0.724890  0.724890  0.084323  1
  O  O5  1  0.771668  0.292668  0.285316  1
  O  O6  1  0.292668  0.771668  0.285316  1
  O  O7  1  0.759447  0.759447  0.442813  1
  O  O8  1  0.240554  0.240554  0.557187  1
  O  O9  1  0.707333  0.228332  0.714684  1
  O  O10  1  0.228332  0.707333  0.714684  1
  O  O11  1  0.275110  0.275110  0.915677  1
