# generated using pymatgen
data_DyYLu18(Cd3Ru)2
_symmetry_space_group_name_H-M   'P 1'
_cell_length_a   9.39359502
_cell_length_b   9.39310972
_cell_length_c   9.69645100
_cell_angle_alpha   90.00000000
_cell_angle_beta   90.00000000
_cell_angle_gamma   119.98586955
_symmetry_Int_Tables_number   1
_chemical_formula_structural   DyYLu18(Cd3Ru)2
_chemical_formula_sum   'Dy1 Y1 Lu18 Cd6 Ru2'
_cell_volume   741.04825282
_cell_formula_units_Z   1
loop_
 _symmetry_equiv_pos_site_id
 _symmetry_equiv_pos_as_xyz
  1  'x, y, z'
loop_
 _atom_site_type_symbol
 _atom_site_label
 _atom_site_symmetry_multiplicity
 _atom_site_fract_x
 _atom_site_fract_y
 _atom_site_fract_z
 _atom_site_occupancy
  Dy  Dy0  1  0.459957  0.918752  0.750000  1
  Y  Y1  1  0.081246  0.539984  0.750000  1
  Lu  Lu2  1  0.999695  0.000184  0.499657  1
  Lu  Lu3  1  0.999695  0.000184  0.000343  1
  Lu  Lu4  1  0.209694  0.790279  0.440591  1
  Lu  Lu5  1  0.210991  0.419978  0.440979  1
  Lu  Lu6  1  0.580067  0.789038  0.440898  1
  Lu  Lu7  1  0.789376  0.210682  0.557302  1
  Lu  Lu8  1  0.788794  0.579683  0.557329  1
  Lu  Lu9  1  0.420350  0.211243  0.557202  1
  Lu  Lu10  1  0.789376  0.210682  0.942698  1
  Lu  Lu11  1  0.788794  0.579683  0.942671  1
  Lu  Lu12  1  0.420350  0.211243  0.942798  1
  Lu  Lu13  1  0.209694  0.790279  0.059409  1
  Lu  Lu14  1  0.210991  0.419978  0.059021  1
  Lu  Lu15  1  0.580067  0.789038  0.059102  1
  Lu  Lu16  1  0.541259  0.458764  0.250000  1
  Lu  Lu17  1  0.540825  0.080858  0.250000  1
  Lu  Lu18  1  0.919108  0.459188  0.250000  1
  Lu  Lu19  1  0.460911  0.538983  0.750000  1
  Cd  Cd20  1  0.886205  0.113741  0.250000  1
  Cd  Cd21  1  0.885439  0.772375  0.250000  1
  Cd  Cd22  1  0.227650  0.114584  0.250000  1
  Cd  Cd23  1  0.112667  0.887147  0.750000  1
  Cd  Cd24  1  0.115029  0.226691  0.750000  1
  Cd  Cd25  1  0.773369  0.884917  0.750000  1
  Ru  Ru26  1  0.332388  0.667699  0.250000  1
  Ru  Ru27  1  0.666012  0.334145  0.750000  1
