# generated using pymatgen
data_SrSmMnFeO6
_symmetry_space_group_name_H-M   'P 1'
_cell_length_a   5.48991584
_cell_length_b   7.75146317
_cell_length_c   5.54323100
_cell_angle_alpha   89.99998371
_cell_angle_beta   90.00000036
_cell_angle_gamma   90.10970905
_symmetry_Int_Tables_number   1
_chemical_formula_structural   SrSmMnFeO6
_chemical_formula_sum   'Sr2 Sm2 Mn2 Fe2 O12'
_cell_volume   235.89110021
_cell_formula_units_Z   2
loop_
 _symmetry_equiv_pos_site_id
 _symmetry_equiv_pos_as_xyz
  1  'x, y, z'
loop_
 _atom_site_type_symbol
 _atom_site_label
 _atom_site_symmetry_multiplicity
 _atom_site_fract_x
 _atom_site_fract_y
 _atom_site_fract_z
 _atom_site_occupancy
  Sr  Sr0  1  0.996476  0.250384  0.024190  1
  Sr  Sr1  1  0.496475  0.750384  0.475810  1
  Sm  Sm2  1  0.513507  0.250215  0.545088  1
  Sm  Sm3  1  0.013507  0.750216  0.954913  1
  Mn  Mn4  1  0.500018  0.000190  0.001928  1
  Mn  Mn5  1  0.000015  0.500191  0.498073  1
  Fe  Fe6  1  0.000594  0.000522  0.494455  1
  Fe  Fe7  1  0.500592  0.500522  0.005545  1
  O  O8  1  0.586838  0.754508  0.008155  1
  O  O9  1  0.086838  0.254509  0.491843  1
  O  O10  1  0.215349  0.957397  0.206888  1
  O  O11  1  0.715348  0.457398  0.293110  1
  O  O12  1  0.204517  0.542544  0.215160  1
  O  O13  1  0.704517  0.042542  0.284840  1
  O  O14  1  0.943767  0.745382  0.522499  1
  O  O15  1  0.443768  0.245381  0.977503  1
  O  O16  1  0.265175  0.534690  0.726868  1
  O  O17  1  0.765180  0.034690  0.773132  1
  O  O18  1  0.273759  0.964167  0.734051  1
  O  O19  1  0.773757  0.464165  0.765946  1
