# generated using pymatgen
data_Pr8Zn3Si12Au
_symmetry_space_group_name_H-M   'P 1'
_cell_length_a   8.26320600
_cell_length_b   8.26320710
_cell_length_c   8.67401500
_cell_angle_alpha   90.00000000
_cell_angle_beta   90.00000000
_cell_angle_gamma   120.00000362
_symmetry_Int_Tables_number   1
_chemical_formula_structural   Pr8Zn3Si12Au
_chemical_formula_sum   'Pr8 Zn3 Si12 Au1'
_cell_volume   512.91807275
_cell_formula_units_Z   1
loop_
 _symmetry_equiv_pos_site_id
 _symmetry_equiv_pos_as_xyz
  1  'x, y, z'
loop_
 _atom_site_type_symbol
 _atom_site_label
 _atom_site_symmetry_multiplicity
 _atom_site_fract_x
 _atom_site_fract_y
 _atom_site_fract_z
 _atom_site_occupancy
  Pr  Pr0  1  0.498721  0.501279  0.751775  1
  Pr  Pr1  1  0.499107  0.500893  0.248165  1
  Pr  Pr2  1  0.002559  0.501279  0.751775  1
  Pr  Pr3  1  0.001784  0.500893  0.248165  1
  Pr  Pr4  1  0.498721  0.997441  0.751775  1
  Pr  Pr5  1  0.499107  0.998216  0.248165  1
  Pr  Pr6  1  0.000000  0.000000  0.749889  1
  Pr  Pr7  1  0.000000  0.000000  0.250362  1
  Zn  Zn8  1  0.666667  0.333333  0.997447  1
  Zn  Zn9  1  0.333333  0.666667  0.001792  1
  Zn  Zn10  1  0.333333  0.666667  0.499222  1
  Si  Si11  1  0.833772  0.166228  0.000692  1
  Si  Si12  1  0.166382  0.833618  0.999539  1
  Si  Si13  1  0.332454  0.166228  0.000692  1
  Si  Si14  1  0.165634  0.834366  0.499731  1
  Si  Si15  1  0.667235  0.833618  0.999539  1
  Si  Si16  1  0.835819  0.164181  0.500438  1
  Si  Si17  1  0.833772  0.667546  0.000692  1
  Si  Si18  1  0.668733  0.834366  0.499731  1
  Si  Si19  1  0.166382  0.332765  0.999539  1
  Si  Si20  1  0.328362  0.164181  0.500438  1
  Si  Si21  1  0.165634  0.331267  0.499731  1
  Si  Si22  1  0.835819  0.671638  0.500438  1
  Au  Au23  1  0.666667  0.333333  0.500269  1
