# generated using pymatgen
data_Li8Tb5Dy3Sn5Bi3
_symmetry_space_group_name_H-M   'P 1'
_cell_length_a   9.49015017
_cell_length_b   9.48813096
_cell_length_c   7.29312902
_cell_angle_alpha   89.99676836
_cell_angle_beta   90.00837555
_cell_angle_gamma   119.98686113
_symmetry_Int_Tables_number   1
_chemical_formula_structural   Li8Tb5Dy3Sn5Bi3
_chemical_formula_sum   'Li8 Tb5 Dy3 Sn5 Bi3'
_cell_volume   568.79498958
_cell_formula_units_Z   1
loop_
 _symmetry_equiv_pos_site_id
 _symmetry_equiv_pos_as_xyz
  1  'x, y, z'
loop_
 _atom_site_type_symbol
 _atom_site_label
 _atom_site_symmetry_multiplicity
 _atom_site_fract_x
 _atom_site_fract_y
 _atom_site_fract_z
 _atom_site_occupancy
  Li  Li0  1  0.167151  0.334308  0.280431  1
  Li  Li1  1  0.167059  0.832691  0.280326  1
  Li  Li2  1  0.665690  0.832731  0.280457  1
  Li  Li3  1  0.831723  0.663309  0.789331  1
  Li  Li4  1  0.831785  0.168560  0.789167  1
  Li  Li5  1  0.336639  0.168414  0.789125  1
  Li  Li6  1  0.333269  0.666600  0.669642  1
  Li  Li7  1  0.666865  0.333446  0.178525  1
  Tb  Tb8  1  0.514077  0.027960  0.488867  1
  Tb  Tb9  1  0.513660  0.486163  0.488809  1
  Tb  Tb10  1  0.972321  0.486045  0.488792  1
  Tb  Tb11  1  0.491057  0.982259  0.999201  1
  Tb  Tb12  1  0.491411  0.508664  0.999303  1
  Dy  Dy13  1  0.017356  0.508732  0.999617  1
  Dy  Dy14  1  0.999969  0.000027  0.492809  1
  Dy  Dy15  1  0.000000  0.000058  0.008806  1
  Sn  Sn16  1  0.834019  0.667482  0.231939  1
  Sn  Sn17  1  0.834107  0.166485  0.232164  1
  Sn  Sn18  1  0.332224  0.166147  0.232653  1
  Sn  Sn19  1  0.332989  0.666493  0.258098  1
  Sn  Sn20  1  0.667130  0.333440  0.761154  1
  Bi  Bi21  1  0.165996  0.332841  0.734322  1
  Bi  Bi22  1  0.166168  0.833308  0.734505  1
  Bi  Bi23  1  0.667330  0.833840  0.733953  1
