# generated using pymatgen
data_DyHo2Tm2CoSb2
_symmetry_space_group_name_H-M   'P 1'
_cell_length_a   7.80906300
_cell_length_b   8.74457200
_cell_length_c   12.12248800
_cell_angle_alpha   90.00000000
_cell_angle_beta   90.00000000
_cell_angle_gamma   90.00000000
_symmetry_Int_Tables_number   1
_chemical_formula_structural   DyHo2Tm2CoSb2
_chemical_formula_sum   'Dy4 Ho8 Tm8 Co4 Sb8'
_cell_volume   827.80729135
_cell_formula_units_Z   4
loop_
 _symmetry_equiv_pos_site_id
 _symmetry_equiv_pos_as_xyz
  1  'x, y, z'
loop_
 _atom_site_type_symbol
 _atom_site_label
 _atom_site_symmetry_multiplicity
 _atom_site_fract_x
 _atom_site_fract_y
 _atom_site_fract_z
 _atom_site_occupancy
  Dy  Dy0  1  0.623066  0.750000  0.307806  1
  Dy  Dy1  1  0.876934  0.750000  0.807806  1
  Dy  Dy2  1  0.376934  0.250000  0.692194  1
  Dy  Dy3  1  0.123066  0.250000  0.192194  1
  Ho  Ho4  1  0.154154  0.750000  0.203304  1
  Ho  Ho5  1  0.345846  0.750000  0.703304  1
  Ho  Ho6  1  0.845846  0.250000  0.796696  1
  Ho  Ho7  1  0.654154  0.250000  0.296696  1
  Ho  Ho8  1  0.452133  0.750000  0.997818  1
  Ho  Ho9  1  0.047867  0.750000  0.497818  1
  Ho  Ho10  1  0.547867  0.250000  0.002182  1
  Ho  Ho11  1  0.952133  0.250000  0.502182  1
  Tm  Tm12  1  0.823408  0.535372  0.065261  1
  Tm  Tm13  1  0.676592  0.964628  0.565261  1
  Tm  Tm14  1  0.176592  0.035372  0.934739  1
  Tm  Tm15  1  0.323408  0.464628  0.434739  1
  Tm  Tm16  1  0.176592  0.464628  0.934739  1
  Tm  Tm17  1  0.323408  0.035372  0.434739  1
  Tm  Tm18  1  0.823408  0.964628  0.065261  1
  Tm  Tm19  1  0.676592  0.535372  0.565261  1
  Co  Co20  1  0.435697  0.750000  0.491766  1
  Co  Co21  1  0.064303  0.750000  0.991766  1
  Co  Co22  1  0.564303  0.250000  0.508234  1
  Co  Co23  1  0.935697  0.250000  0.008234  1
  Sb  Sb24  1  0.930239  0.507744  0.327622  1
  Sb  Sb25  1  0.569761  0.992256  0.827622  1
  Sb  Sb26  1  0.069761  0.007744  0.672378  1
  Sb  Sb27  1  0.430239  0.492256  0.172378  1
  Sb  Sb28  1  0.069761  0.492256  0.672378  1
  Sb  Sb29  1  0.430239  0.007744  0.172378  1
  Sb  Sb30  1  0.930239  0.992256  0.327622  1
  Sb  Sb31  1  0.569761  0.507744  0.827622  1
