# generated using pymatgen
data_TbDy2Tm2Sb3
_symmetry_space_group_name_H-M   'P 1'
_cell_length_a   8.96116608
_cell_length_b   8.96329820
_cell_length_c   6.26168600
_cell_angle_alpha   90.00000000
_cell_angle_beta   90.00000000
_cell_angle_gamma   120.00787001
_symmetry_Int_Tables_number   1
_chemical_formula_structural   TbDy2Tm2Sb3
_chemical_formula_sum   'Tb2 Dy4 Tm4 Sb6'
_cell_volume   435.53177223
_cell_formula_units_Z   2
loop_
 _symmetry_equiv_pos_site_id
 _symmetry_equiv_pos_as_xyz
  1  'x, y, z'
loop_
 _atom_site_type_symbol
 _atom_site_label
 _atom_site_symmetry_multiplicity
 _atom_site_fract_x
 _atom_site_fract_y
 _atom_site_fract_z
 _atom_site_occupancy
  Tb  Tb0  1  0.247494  0.247533  0.750000  1
  Tb  Tb1  1  0.247494  0.999961  0.250000  1
  Dy  Dy2  1  0.999970  0.752439  0.750000  1
  Dy  Dy3  1  0.999970  0.247531  0.250000  1
  Dy  Dy4  1  0.752497  0.752489  0.250000  1
  Dy  Dy5  1  0.752497  0.000008  0.750000  1
  Tm  Tm6  1  0.333356  0.666679  0.500000  1
  Tm  Tm7  1  0.666675  0.333337  0.000000  1
  Tm  Tm8  1  0.666675  0.333337  0.500000  1
  Tm  Tm9  1  0.333356  0.666679  0.000000  1
  Sb  Sb10  1  0.390090  0.999880  0.750000  1
  Sb  Sb11  1  0.390090  0.390209  0.250000  1
  Sb  Sb12  1  0.999885  0.609809  0.250000  1
  Sb  Sb13  1  0.999885  0.390076  0.750000  1
  Sb  Sb14  1  0.610032  0.610028  0.750000  1
  Sb  Sb15  1  0.610032  0.000004  0.250000  1
