# generated using pymatgen
data_NaVIrS4
_symmetry_space_group_name_H-M   'P 1'
_cell_length_a   3.54136600
_cell_length_b   5.64187994
_cell_length_c   7.00368186
_cell_angle_alpha   82.11918705
_cell_angle_beta   90.00000000
_cell_angle_gamma   90.00000000
_symmetry_Int_Tables_number   1
_chemical_formula_structural   NaVIrS4
_chemical_formula_sum   'Na1 V1 Ir1 S4'
_cell_volume   138.61168680
_cell_formula_units_Z   1
loop_
 _symmetry_equiv_pos_site_id
 _symmetry_equiv_pos_as_xyz
  1  'x, y, z'
loop_
 _atom_site_type_symbol
 _atom_site_label
 _atom_site_symmetry_multiplicity
 _atom_site_fract_x
 _atom_site_fract_y
 _atom_site_fract_z
 _atom_site_occupancy
  Na  Na0  1  0.500000  0.638690  0.493201  1
  V  V1  1  0.500000  0.449651  0.004582  1
  Ir  Ir2  1  0.000000  0.034532  0.011742  1
  S  S3  1  0.000000  0.635338  0.182670  1
  S  S4  1  0.000000  0.391407  0.787778  1
  S  S5  1  0.500000  0.124361  0.228228  1
  S  S6  1  0.500000  0.876020  0.841799  1
