# generated using pymatgen
data_Tb5RuRhO12
_symmetry_space_group_name_H-M   'P 1'
_cell_length_a   6.89602858
_cell_length_b   6.89602798
_cell_length_c   7.37224615
_cell_angle_alpha   74.34357964
_cell_angle_beta   74.34357993
_cell_angle_gamma   50.35012098
_symmetry_Int_Tables_number   1
_chemical_formula_structural   Tb5RuRhO12
_chemical_formula_sum   'Tb5 Ru1 Rh1 O12'
_cell_volume   257.65790050
_cell_formula_units_Z   1
loop_
 _symmetry_equiv_pos_site_id
 _symmetry_equiv_pos_as_xyz
  1  'x, y, z'
loop_
 _atom_site_type_symbol
 _atom_site_label
 _atom_site_symmetry_multiplicity
 _atom_site_fract_x
 _atom_site_fract_y
 _atom_site_fract_z
 _atom_site_occupancy
  Tb  Tb0  1  0.689470  0.692874  0.668436  1
  Tb  Tb1  1  0.693886  0.702462  0.141021  1
  Tb  Tb2  1  0.998033  0.001967  0.000000  1
  Tb  Tb3  1  0.297538  0.306114  0.858979  1
  Tb  Tb4  1  0.307126  0.310530  0.331564  1
  Ru  Ru5  1  0.766021  0.233979  0.500000  1
  Rh  Rh6  1  0.245844  0.754156  0.500000  1
  O  O7  1  0.401414  0.905716  0.925003  1
  O  O8  1  0.576368  0.096936  0.583813  1
  O  O9  1  0.903064  0.423632  0.416187  1
  O  O10  1  0.094284  0.598586  0.074997  1
  O  O11  1  0.996557  0.002765  0.310700  1
  O  O12  1  0.506812  0.492537  0.683759  1
  O  O13  1  0.899686  0.404468  0.926958  1
  O  O14  1  0.093817  0.570151  0.584757  1
  O  O15  1  0.429849  0.906183  0.415243  1
  O  O16  1  0.595532  0.100314  0.073042  1
  O  O17  1  0.507463  0.493188  0.316241  1
  O  O18  1  0.997235  0.003443  0.689300  1
