# generated using pymatgen
data_Dy13Ho4Th3Sn16
_symmetry_space_group_name_H-M   'P 1'
_cell_length_a   8.08468392
_cell_length_b   8.20034992
_cell_length_c   15.49408660
_cell_angle_alpha   90.05930522
_cell_angle_beta   90.17708463
_cell_angle_gamma   89.90337627
_symmetry_Int_Tables_number   1
_chemical_formula_structural   Dy13Ho4Th3Sn16
_chemical_formula_sum   'Dy13 Ho4 Th3 Sn16'
_cell_volume   1027.20822289
_cell_formula_units_Z   1
loop_
 _symmetry_equiv_pos_site_id
 _symmetry_equiv_pos_as_xyz
  1  'x, y, z'
loop_
 _atom_site_type_symbol
 _atom_site_label
 _atom_site_symmetry_multiplicity
 _atom_site_fract_x
 _atom_site_fract_y
 _atom_site_fract_z
 _atom_site_occupancy
  Dy  Dy0  1  0.366788  0.834980  0.878222  1
  Dy  Dy1  1  0.865996  0.664977  0.622855  1
  Dy  Dy2  1  0.634015  0.163631  0.376548  1
  Dy  Dy3  1  0.132934  0.336523  0.122609  1
  Dy  Dy4  1  0.632949  0.162219  0.122809  1
  Dy  Dy5  1  0.134320  0.337933  0.377012  1
  Dy  Dy6  1  0.366286  0.837811  0.623022  1
  Dy  Dy7  1  0.867998  0.662104  0.877583  1
  Dy  Dy8  1  0.527295  0.322852  0.900388  1
  Dy  Dy9  1  0.026212  0.176967  0.599882  1
  Dy  Dy10  1  0.475668  0.677530  0.400962  1
  Dy  Dy11  1  0.974976  0.821711  0.100320  1
  Dy  Dy12  1  0.478077  0.677255  0.097302  1
  Ho  Ho13  1  0.196577  0.501039  0.750451  1
  Ho  Ho14  1  0.695991  0.998786  0.749993  1
  Ho  Ho15  1  0.802836  0.499887  0.249284  1
  Ho  Ho16  1  0.303137  0.002253  0.248791  1
  Th  Th17  1  0.981575  0.819427  0.402463  1
  Th  Th18  1  0.517920  0.320813  0.596100  1
  Th  Th19  1  0.018633  0.179317  0.904684  1
  Sn  Sn20  1  0.291843  0.032326  0.043108  1
  Sn  Sn21  1  0.792304  0.466190  0.457011  1
  Sn  Sn22  1  0.709154  0.967367  0.542522  1
  Sn  Sn23  1  0.211822  0.533064  0.957582  1
  Sn  Sn24  1  0.704633  0.960090  0.958962  1
  Sn  Sn25  1  0.203223  0.541252  0.540576  1
  Sn  Sn26  1  0.296105  0.039963  0.459202  1
  Sn  Sn27  1  0.792127  0.462814  0.041379  1
  Sn  Sn28  1  0.562786  0.622025  0.749234  1
  Sn  Sn29  1  0.063397  0.878947  0.751303  1
  Sn  Sn30  1  0.436832  0.379653  0.249723  1
  Sn  Sn31  1  0.936185  0.121502  0.250952  1
  Sn  Sn32  1  0.328896  0.145723  0.752226  1
  Sn  Sn33  1  0.829672  0.354483  0.747794  1
  Sn  Sn34  1  0.667323  0.851486  0.249545  1
  Sn  Sn35  1  0.173511  0.645097  0.247602  1
