# generated using pymatgen
data_La2B6Ir7Rh2
_symmetry_space_group_name_H-M   'P 1'
_cell_length_a   5.72106031
_cell_length_b   5.72418819
_cell_length_c   8.62040100
_cell_angle_alpha   90.00085318
_cell_angle_beta   90.00082236
_cell_angle_gamma   120.01926611
_symmetry_Int_Tables_number   1
_chemical_formula_structural   La2B6Ir7Rh2
_chemical_formula_sum   'La2 B6 Ir7 Rh2'
_cell_volume   244.43544603
_cell_formula_units_Z   1
loop_
 _symmetry_equiv_pos_site_id
 _symmetry_equiv_pos_as_xyz
  1  'x, y, z'
loop_
 _atom_site_type_symbol
 _atom_site_label
 _atom_site_symmetry_multiplicity
 _atom_site_fract_x
 _atom_site_fract_y
 _atom_site_fract_z
 _atom_site_occupancy
  La  La0  1  0.000073  0.000109  0.293873  1
  La  La1  1  0.000008  0.999962  0.708694  1
  B  B2  1  0.332549  0.666288  0.000290  1
  B  B3  1  0.667407  0.333697  0.000303  1
  B  B4  1  0.333553  0.666767  0.332475  1
  B  B5  1  0.666356  0.333169  0.332478  1
  B  B6  1  0.667261  0.333644  0.666898  1
  B  B7  1  0.332699  0.666351  0.666916  1
  Ir  Ir8  1  0.500000  0.000002  0.162277  1
  Ir  Ir9  1  0.499941  0.500001  0.162319  1
  Ir  Ir10  1  0.999947  0.499955  0.162793  1
  Ir  Ir11  1  0.000037  0.500016  0.836270  1
  Ir  Ir12  1  0.499974  0.999973  0.500820  1
  Ir  Ir13  1  0.499964  0.500010  0.500846  1
  Ir  Ir14  1  0.999986  0.499980  0.500161  1
  Rh  Rh15  1  0.500008  0.999985  0.836217  1
  Rh  Rh16  1  0.500134  0.500092  0.836370  1
