# generated using pymatgen
data_CsLu(SeO4)2
_symmetry_space_group_name_H-M   'P 1'
_cell_length_a   5.40113200
_cell_length_b   5.40113155
_cell_length_c   9.23605800
_cell_angle_alpha   90.00000000
_cell_angle_beta   90.00000000
_cell_angle_gamma   119.99999216
_symmetry_Int_Tables_number   1
_chemical_formula_structural   CsLu(SeO4)2
_chemical_formula_sum   'Cs1 Lu1 Se2 O8'
_cell_volume   233.33874826
_cell_formula_units_Z   1
loop_
 _symmetry_equiv_pos_site_id
 _symmetry_equiv_pos_as_xyz
  1  'x, y, z'
loop_
 _atom_site_type_symbol
 _atom_site_label
 _atom_site_symmetry_multiplicity
 _atom_site_fract_x
 _atom_site_fract_y
 _atom_site_fract_z
 _atom_site_occupancy
  Cs  Cs0  1  0.000000  0.000000  0.500001  1
  Lu  Lu1  1  0.000000  0.000000  0.000000  1
  Se  Se2  1  0.333334  0.666668  0.206142  1
  Se  Se3  1  0.666666  0.333334  0.793858  1
  O  O4  1  0.069572  0.352585  0.143862  1
  O  O5  1  0.647416  0.716988  0.143862  1
  O  O6  1  0.283012  0.930427  0.143862  1
  O  O7  1  0.333334  0.666668  0.384377  1
  O  O8  1  0.666666  0.333334  0.615623  1
  O  O9  1  0.716987  0.069572  0.856138  1
  O  O10  1  0.352586  0.283014  0.856138  1
  O  O11  1  0.930426  0.647414  0.856138  1
