# generated using pymatgen
data_Er20Cd6CoRu
_symmetry_space_group_name_H-M   'P 1'
_cell_length_a   9.50553200
_cell_length_b   9.50553234
_cell_length_c   9.69630700
_cell_angle_alpha   90.00000000
_cell_angle_beta   90.00000000
_cell_angle_gamma   120.00000579
_symmetry_Int_Tables_number   1
_chemical_formula_structural   Er20Cd6CoRu
_chemical_formula_sum   'Er20 Cd6 Co1 Ru1'
_cell_volume   758.73450626
_cell_formula_units_Z   1
loop_
 _symmetry_equiv_pos_site_id
 _symmetry_equiv_pos_as_xyz
  1  'x, y, z'
loop_
 _atom_site_type_symbol
 _atom_site_label
 _atom_site_symmetry_multiplicity
 _atom_site_fract_x
 _atom_site_fract_y
 _atom_site_fract_z
 _atom_site_occupancy
  Er  Er0  1  0.000000  0.000000  0.499829  1
  Er  Er1  1  0.000000  0.000000  0.000171  1
  Er  Er2  1  0.211976  0.788024  0.436430  1
  Er  Er3  1  0.211976  0.423952  0.436430  1
  Er  Er4  1  0.576048  0.788024  0.436430  1
  Er  Er5  1  0.790866  0.209134  0.559503  1
  Er  Er6  1  0.790866  0.581733  0.559503  1
  Er  Er7  1  0.418267  0.209134  0.559503  1
  Er  Er8  1  0.790866  0.209134  0.940497  1
  Er  Er9  1  0.790866  0.581733  0.940497  1
  Er  Er10  1  0.418267  0.209134  0.940497  1
  Er  Er11  1  0.211976  0.788024  0.063570  1
  Er  Er12  1  0.211976  0.423952  0.063570  1
  Er  Er13  1  0.576048  0.788024  0.063570  1
  Er  Er14  1  0.541535  0.458465  0.250000  1
  Er  Er15  1  0.541535  0.083070  0.250000  1
  Er  Er16  1  0.916930  0.458465  0.250000  1
  Er  Er17  1  0.458339  0.541661  0.750000  1
  Er  Er18  1  0.458339  0.916678  0.750000  1
  Er  Er19  1  0.083322  0.541661  0.750000  1
  Cd  Cd20  1  0.885264  0.114736  0.250000  1
  Cd  Cd21  1  0.885264  0.770528  0.250000  1
  Cd  Cd22  1  0.229472  0.114736  0.250000  1
  Cd  Cd23  1  0.114694  0.885306  0.750000  1
  Cd  Cd24  1  0.114694  0.229389  0.750000  1
  Cd  Cd25  1  0.770611  0.885306  0.750000  1
  Co  Co26  1  0.333333  0.666667  0.250000  1
  Ru  Ru27  1  0.666667  0.333333  0.750000  1
