# generated using pymatgen
data_Th2Zn15Pd2
_symmetry_space_group_name_H-M   'P 1'
_cell_length_a   6.85273174
_cell_length_b   6.85273126
_cell_length_c   6.87747041
_cell_angle_alpha   82.98557341
_cell_angle_beta   97.01441019
_cell_angle_gamma   96.65885315
_symmetry_Int_Tables_number   1
_chemical_formula_structural   Th2Zn15Pd2
_chemical_formula_sum   'Th2 Zn15 Pd2'
_cell_volume   316.47099326
_cell_formula_units_Z   1
loop_
 _symmetry_equiv_pos_site_id
 _symmetry_equiv_pos_as_xyz
  1  'x, y, z'
loop_
 _atom_site_type_symbol
 _atom_site_label
 _atom_site_symmetry_multiplicity
 _atom_site_fract_x
 _atom_site_fract_y
 _atom_site_fract_z
 _atom_site_occupancy
  Th  Th0  1  0.660268  0.339732  0.335276  1
  Th  Th1  1  0.339296  0.660704  0.662482  1
  Zn  Zn2  1  0.500922  0.999892  0.002000  1
  Zn  Zn3  1  0.290942  0.294220  0.002485  1
  Zn  Zn4  1  0.705779  0.709058  0.002485  1
  Zn  Zn5  1  0.000108  0.499079  0.002001  1
  Zn  Zn6  1  0.001491  0.710616  0.289024  1
  Zn  Zn7  1  0.289384  0.998509  0.289024  1
  Zn  Zn8  1  0.157091  0.347869  0.349490  1
  Zn  Zn9  1  0.652131  0.842909  0.349490  1
  Zn  Zn10  1  0.997791  0.002209  0.495113  1
  Zn  Zn11  1  0.841150  0.649466  0.650314  1
  Zn  Zn12  1  0.350534  0.158848  0.650315  1
  Zn  Zn13  1  0.999674  0.291343  0.709754  1
  Zn  Zn14  1  0.708657  0.000326  0.709755  1
  Zn  Zn15  1  0.652795  0.347204  0.842806  1
  Zn  Zn16  1  0.102391  0.897609  0.899368  1
  Pd  Pd17  1  0.896654  0.103346  0.101559  1
  Pd  Pd18  1  0.352943  0.647057  0.157262  1
