# generated using pymatgen
data_Nd3Ho2P12Ru19
_symmetry_space_group_name_H-M   'P 1'
_cell_length_a   12.59364500
_cell_length_b   12.59364519
_cell_length_c   4.00721400
_cell_angle_alpha   90.00000000
_cell_angle_beta   90.00000000
_cell_angle_gamma   119.99999688
_symmetry_Int_Tables_number   1
_chemical_formula_structural   Nd3Ho2P12Ru19
_chemical_formula_sum   'Nd3 Ho2 P12 Ru19'
_cell_volume   550.39702972
_cell_formula_units_Z   1
loop_
 _symmetry_equiv_pos_site_id
 _symmetry_equiv_pos_as_xyz
  1  'x, y, z'
loop_
 _atom_site_type_symbol
 _atom_site_label
 _atom_site_symmetry_multiplicity
 _atom_site_fract_x
 _atom_site_fract_y
 _atom_site_fract_z
 _atom_site_occupancy
  Nd  Nd0  1  0.000000  0.184030  0.500000  1
  Nd  Nd1  1  0.815970  0.815970  0.500000  1
  Nd  Nd2  1  0.184030  0.000000  0.500000  1
  Ho  Ho3  1  0.666667  0.333333  0.000000  1
  Ho  Ho4  1  0.333333  0.666667  0.000000  1
  P  P5  1  0.000000  0.812003  0.000000  1
  P  P6  1  0.187997  0.187997  0.000000  1
  P  P7  1  0.812003  0.000000  0.000000  1
  P  P8  1  0.694619  0.173474  0.500000  1
  P  P9  1  0.826526  0.521145  0.500000  1
  P  P10  1  0.478855  0.305381  0.500000  1
  P  P11  1  0.173474  0.694619  0.500000  1
  P  P12  1  0.521145  0.826526  0.500000  1
  P  P13  1  0.305381  0.478855  0.500000  1
  P  P14  1  0.000000  0.373926  0.000000  1
  P  P15  1  0.626074  0.626074  0.000000  1
  P  P16  1  0.373926  0.000000  0.000000  1
  Ru  Ru17  1  0.000000  0.553941  0.000000  1
  Ru  Ru18  1  0.446059  0.446059  0.000000  1
  Ru  Ru19  1  0.553941  0.000000  0.000000  1
  Ru  Ru20  1  0.000000  0.713279  0.500000  1
  Ru  Ru21  1  0.286721  0.286721  0.500000  1
  Ru  Ru22  1  0.713279  0.000000  0.500000  1
  Ru  Ru23  1  0.804417  0.185333  0.000000  1
  Ru  Ru24  1  0.814667  0.619084  0.000000  1
  Ru  Ru25  1  0.380916  0.195583  0.000000  1
  Ru  Ru26  1  0.185333  0.804417  0.000000  1
  Ru  Ru27  1  0.619084  0.814667  0.000000  1
  Ru  Ru28  1  0.195583  0.380916  0.000000  1
  Ru  Ru29  1  0.874038  0.367361  0.500000  1
  Ru  Ru30  1  0.632639  0.506677  0.500000  1
  Ru  Ru31  1  0.493323  0.125962  0.500000  1
  Ru  Ru32  1  0.367361  0.874038  0.500000  1
  Ru  Ru33  1  0.506677  0.632639  0.500000  1
  Ru  Ru34  1  0.125962  0.493323  0.500000  1
  Ru  Ru35  1  0.000000  0.000000  0.000000  1
