# generated using pymatgen
data_TmLu2Zr(Al8Pt3)3
_symmetry_space_group_name_H-M   'P 1'
_cell_length_a   7.50650519
_cell_length_b   7.51588038
_cell_length_c   13.06740504
_cell_angle_alpha   84.56044081
_cell_angle_beta   79.02756635
_cell_angle_gamma   59.91324039
_symmetry_Int_Tables_number   1
_chemical_formula_structural   TmLu2Zr(Al8Pt3)3
_chemical_formula_sum   'Tm1 Lu2 Zr1 Al24 Pt9'
_cell_volume   626.24505767
_cell_formula_units_Z   1
loop_
 _symmetry_equiv_pos_site_id
 _symmetry_equiv_pos_as_xyz
  1  'x, y, z'
loop_
 _atom_site_type_symbol
 _atom_site_label
 _atom_site_symmetry_multiplicity
 _atom_site_fract_x
 _atom_site_fract_y
 _atom_site_fract_z
 _atom_site_occupancy
  Tm  Tm0  1  0.606122  0.831319  0.192837  1
  Lu  Lu1  1  0.734414  0.498795  0.806693  1
  Lu  Lu2  1  0.265973  0.501256  0.193212  1
  Zr  Zr3  1  0.393214  0.168276  0.809698  1
  Al  Al4  1  0.682246  0.835729  0.941919  1
  Al  Al5  1  0.316957  0.166520  0.055306  1
  Al  Al6  1  0.146419  0.832684  0.562338  1
  Al  Al7  1  0.853397  0.167244  0.437844  1
  Al  Al8  1  0.479560  0.166767  0.560545  1
  Al  Al9  1  0.519732  0.833744  0.441031  1
  Al  Al10  1  0.217776  0.165555  0.328261  1
  Al  Al11  1  0.779330  0.836700  0.673682  1
  Al  Al12  1  0.435866  0.504463  0.674015  1
  Al  Al13  1  0.562889  0.493496  0.327667  1
  Al  Al14  1  0.110777  0.159762  0.672872  1
  Al  Al15  1  0.890896  0.839807  0.328837  1
  Al  Al16  1  0.354615  0.496751  0.942030  1
  Al  Al17  1  0.646517  0.500953  0.055969  1
  Al  Al18  1  0.018367  0.168648  0.949672  1
  Al  Al19  1  0.984136  0.831856  0.048243  1
  Al  Al20  1  0.186848  0.499370  0.441011  1
  Al  Al21  1  0.813677  0.500365  0.558794  1
  Al  Al22  1  0.733013  0.164077  0.183274  1
  Al  Al23  1  0.267294  0.840034  0.816653  1
  Al  Al24  1  0.065167  0.626515  0.815347  1
  Al  Al25  1  0.939119  0.368776  0.184085  1
  Al  Al26  1  0.850662  0.042655  0.815858  1
  Al  Al27  1  0.145157  0.957913  0.183579  1
  Pt  Pt28  1  0.118723  0.490903  0.639620  1
  Pt  Pt29  1  0.879788  0.509436  0.360316  1
  Pt  Pt30  1  0.657209  0.172183  0.999150  1
  Pt  Pt31  1  0.344036  0.827625  0.999683  1
  Pt  Pt32  1  0.536778  0.166821  0.360976  1
  Pt  Pt33  1  0.463937  0.831791  0.639475  1
  Pt  Pt34  1  0.777990  0.177004  0.637972  1
  Pt  Pt35  1  0.221829  0.823814  0.362221  1
  Pt  Pt36  1  0.999567  0.500392  0.999311  1
