# generated using pymatgen
data_NdEu3Ga4(PdPt)2
_symmetry_space_group_name_H-M   'P 1'
_cell_length_a   4.46587600
_cell_length_b   7.29132710
_cell_length_c   7.91057418
_cell_angle_alpha   90.22171231
_cell_angle_beta   90.00000000
_cell_angle_gamma   90.00000000
_symmetry_Int_Tables_number   1
_chemical_formula_structural   NdEu3Ga4(PdPt)2
_chemical_formula_sum   'Nd1 Eu3 Ga4 Pd2 Pt2'
_cell_volume   257.58347511
_cell_formula_units_Z   1
loop_
 _symmetry_equiv_pos_site_id
 _symmetry_equiv_pos_as_xyz
  1  'x, y, z'
loop_
 _atom_site_type_symbol
 _atom_site_label
 _atom_site_symmetry_multiplicity
 _atom_site_fract_x
 _atom_site_fract_y
 _atom_site_fract_z
 _atom_site_occupancy
  Nd  Nd0  1  0.750000  0.477412  0.187726  1
  Eu  Eu1  1  0.250000  0.022155  0.690315  1
  Eu  Eu2  1  0.250000  0.520575  0.810337  1
  Eu  Eu3  1  0.750000  0.978668  0.310868  1
  Ga  Ga4  1  0.250000  0.156107  0.071737  1
  Ga  Ga5  1  0.250000  0.662437  0.426909  1
  Ga  Ga6  1  0.750000  0.842401  0.929211  1
  Ga  Ga7  1  0.750000  0.338227  0.572913  1
  Pd  Pd8  1  0.250000  0.293274  0.391729  1
  Pd  Pd9  1  0.750000  0.710021  0.604749  1
  Pt  Pt10  1  0.250000  0.781325  0.109419  1
  Pt  Pt11  1  0.750000  0.217399  0.894084  1
