# generated using pymatgen
data_La3Gd3MnI10
_symmetry_space_group_name_H-M   'P 1'
_cell_length_a   8.17619348
_cell_length_b   10.20464273
_cell_length_c   10.08112600
_cell_angle_alpha   106.72849433
_cell_angle_beta   96.18867522
_cell_angle_gamma   106.12303789
_symmetry_Int_Tables_number   1
_chemical_formula_structural   La3Gd3MnI10
_chemical_formula_sum   'La3 Gd3 Mn1 I10'
_cell_volume   757.55777550
_cell_formula_units_Z   1
loop_
 _symmetry_equiv_pos_site_id
 _symmetry_equiv_pos_as_xyz
  1  'x, y, z'
loop_
 _atom_site_type_symbol
 _atom_site_label
 _atom_site_symmetry_multiplicity
 _atom_site_fract_x
 _atom_site_fract_y
 _atom_site_fract_z
 _atom_site_occupancy
  La  La0  1  0.156391  0.875143  0.332648  1
  La  La1  1  0.387631  0.957428  0.725984  1
  La  La2  1  0.607525  0.043003  0.294780  1
  Gd  Gd3  1  0.468645  0.287401  0.585933  1
  Gd  Gd4  1  0.532797  0.711951  0.413529  1
  Gd  Gd5  1  0.838851  0.121997  0.660683  1
  Mn  Mn6  1  0.495918  0.000285  0.483746  1
  I  I7  1  0.423095  0.631543  0.674134  1
  I  I8  1  0.581624  0.375704  0.331909  1
  I  I9  1  0.275609  0.252088  0.832022  1
  I  I10  1  0.715939  0.744823  0.165774  1
  I  I11  1  0.840034  0.436497  0.763220  1
  I  I12  1  0.166354  0.551348  0.236556  1
  I  I13  1  0.045890  0.182369  0.418238  1
  I  I14  1  0.254868  0.917797  0.045325  1
  I  I15  1  0.757756  0.084316  0.941808  1
  I  I16  1  0.951075  0.826311  0.593713  1
