# generated using pymatgen
data_Pr2Zn5Si3Ag
_symmetry_space_group_name_H-M   'P 1'
_cell_length_a   7.62217400
_cell_length_b   7.65388606
_cell_length_c   4.13413000
_cell_angle_alpha   90.00000000
_cell_angle_beta   90.00000000
_cell_angle_gamma   119.86303635
_symmetry_Int_Tables_number   1
_chemical_formula_structural   Pr2Zn5Si3Ag
_chemical_formula_sum   'Pr2 Zn5 Si3 Ag1'
_cell_volume   209.15745328
_cell_formula_units_Z   1
loop_
 _symmetry_equiv_pos_site_id
 _symmetry_equiv_pos_as_xyz
  1  'x, y, z'
loop_
 _atom_site_type_symbol
 _atom_site_label
 _atom_site_symmetry_multiplicity
 _atom_site_fract_x
 _atom_site_fract_y
 _atom_site_fract_z
 _atom_site_occupancy
  Pr  Pr0  1  0.668156  0.333942  0.000000  1
  Pr  Pr1  1  0.334214  0.666058  0.000000  1
  Zn  Zn2  1  0.808834  0.000000  0.000000  1
  Zn  Zn3  1  0.191321  0.193793  0.000000  1
  Zn  Zn4  1  0.997528  0.806207  0.000000  1
  Zn  Zn5  1  0.000481  0.298222  0.500000  1
  Zn  Zn6  1  0.702260  0.701778  0.500000  1
  Si  Si7  1  0.633300  0.000000  0.500000  1
  Si  Si8  1  0.371340  0.376061  0.500000  1
  Si  Si9  1  0.995280  0.623939  0.500000  1
  Ag  Ag10  1  0.297287  0.000000  0.500000  1
