# generated using pymatgen
data_ErSc3Al18OsPd5
_symmetry_space_group_name_H-M   'P 1'
_cell_length_a   7.55497167
_cell_length_b   7.55121363
_cell_length_c   9.34525774
_cell_angle_alpha   89.88178859
_cell_angle_beta   89.88888954
_cell_angle_gamma   119.59116268
_symmetry_Int_Tables_number   1
_chemical_formula_structural   ErSc3Al18OsPd5
_chemical_formula_sum   'Er1 Sc3 Al18 Os1 Pd5'
_cell_volume   463.59905697
_cell_formula_units_Z   1
loop_
 _symmetry_equiv_pos_site_id
 _symmetry_equiv_pos_as_xyz
  1  'x, y, z'
loop_
 _atom_site_type_symbol
 _atom_site_label
 _atom_site_symmetry_multiplicity
 _atom_site_fract_x
 _atom_site_fract_y
 _atom_site_fract_z
 _atom_site_occupancy
  Er  Er0  1  0.328561  0.005060  0.751497  1
  Sc  Sc1  1  0.994149  0.671189  0.248551  1
  Sc  Sc2  1  0.005025  0.328442  0.751498  1
  Sc  Sc3  1  0.672558  0.995238  0.248366  1
  Al  Al4  1  0.125216  0.126738  0.247892  1
  Al  Al5  1  0.870764  0.871531  0.752836  1
  Al  Al6  1  0.996285  0.330295  0.077773  1
  Al  Al7  1  0.000263  0.666812  0.926552  1
  Al  Al8  1  0.999245  0.660925  0.578326  1
  Al  Al9  1  0.336197  0.996987  0.414225  1
  Al  Al10  1  0.996706  0.335997  0.417306  1
  Al  Al11  1  0.667296  0.002014  0.578066  1
  Al  Al12  1  0.672483  0.003133  0.925817  1
  Al  Al13  1  0.330358  0.996156  0.081656  1
  Al  Al14  1  0.331393  0.333986  0.559637  1
  Al  Al15  1  0.669648  0.669839  0.433484  1
  Al  Al16  1  0.673898  0.674057  0.063225  1
  Al  Al17  1  0.326818  0.329000  0.943660  1
  Al  Al18  1  0.340636  0.553363  0.249093  1
  Al  Al19  1  0.660731  0.450829  0.750829  1
  Al  Al20  1  0.553636  0.341821  0.248982  1
  Al  Al21  1  0.447883  0.657379  0.750834  1
  Os  Os22  1  0.000579  0.999597  0.000337  1
  Pd  Pd23  1  0.671510  0.327304  0.000172  1
  Pd  Pd24  1  0.328260  0.672645  0.000224  1
  Pd  Pd25  1  0.327784  0.672808  0.499748  1
  Pd  Pd26  1  0.671342  0.327060  0.499732  1
  Pd  Pd27  1  0.000780  0.999796  0.499679  1
