# generated using pymatgen
data_Gd6RhO12
_symmetry_space_group_name_H-M   'P 1'
_cell_length_a   6.53952081
_cell_length_b   6.53952022
_cell_length_c   6.53951930
_cell_angle_alpha   98.59595333
_cell_angle_beta   98.59596218
_cell_angle_gamma   98.59595642
_symmetry_Int_Tables_number   1
_chemical_formula_structural   Gd6RhO12
_chemical_formula_sum   'Gd6 Rh1 O12'
_cell_volume   269.16212129
_cell_formula_units_Z   1
loop_
 _symmetry_equiv_pos_site_id
 _symmetry_equiv_pos_as_xyz
  1  'x, y, z'
loop_
 _atom_site_type_symbol
 _atom_site_label
 _atom_site_symmetry_multiplicity
 _atom_site_fract_x
 _atom_site_fract_y
 _atom_site_fract_z
 _atom_site_occupancy
  Gd  Gd0  1  0.858140  0.389506  0.692667  1
  Gd  Gd1  1  0.610494  0.307333  0.141860  1
  Gd  Gd2  1  0.307333  0.141860  0.610494  1
  Gd  Gd3  1  0.692667  0.858140  0.389506  1
  Gd  Gd4  1  0.389506  0.692667  0.858140  1
  Gd  Gd5  1  0.141860  0.610494  0.307333  1
  Rh  Rh6  1  0.000000  0.000000  0.000000  1
  O  O7  1  0.930561  0.036885  0.701523  1
  O  O8  1  0.963115  0.298477  0.069439  1
  O  O9  1  0.591021  0.177543  0.436637  1
  O  O10  1  0.822457  0.563363  0.408979  1
  O  O11  1  0.298477  0.069439  0.963115  1
  O  O12  1  0.563363  0.408979  0.822457  1
  O  O13  1  0.436637  0.591021  0.177543  1
  O  O14  1  0.701523  0.930561  0.036885  1
  O  O15  1  0.177543  0.436637  0.591021  1
  O  O16  1  0.408979  0.822457  0.563363  1
  O  O17  1  0.036885  0.701523  0.930561  1
  O  O18  1  0.069439  0.963115  0.298477  1
