# generated using pymatgen
data_Cs4NiSb4Pt
_symmetry_space_group_name_H-M   'P 1'
_cell_length_a   8.51050451
_cell_length_b   8.51050506
_cell_length_c   6.81019955
_cell_angle_alpha   89.12368573
_cell_angle_beta   90.87631781
_cell_angle_gamma   125.40211946
_symmetry_Int_Tables_number   1
_chemical_formula_structural   Cs4NiSb4Pt
_chemical_formula_sum   'Cs4 Ni1 Sb4 Pt1'
_cell_volume   401.99479702
_cell_formula_units_Z   1
loop_
 _symmetry_equiv_pos_site_id
 _symmetry_equiv_pos_as_xyz
  1  'x, y, z'
loop_
 _atom_site_type_symbol
 _atom_site_label
 _atom_site_symmetry_multiplicity
 _atom_site_fract_x
 _atom_site_fract_y
 _atom_site_fract_z
 _atom_site_occupancy
  Cs  Cs0  1  0.601393  0.398607  0.747502  1
  Cs  Cs1  1  0.398607  0.601393  0.252498  1
  Cs  Cs2  1  0.200377  0.799623  0.752168  1
  Cs  Cs3  1  0.799623  0.200377  0.247832  1
  Ni  Ni4  1  0.000000  0.000000  0.000000  1
  Sb  Sb5  1  0.725577  0.912234  0.761406  1
  Sb  Sb6  1  0.912234  0.725577  0.238594  1
  Sb  Sb7  1  0.274423  0.087766  0.238594  1
  Sb  Sb8  1  0.087766  0.274423  0.761406  1
  Pt  Pt9  1  0.000000  0.000000  0.500000  1
