# generated using pymatgen
data_HoLuB6W
_symmetry_space_group_name_H-M   'P 1'
_cell_length_a   3.55816700
_cell_length_b   9.26116100
_cell_length_c   11.65631700
_cell_angle_alpha   90.00000000
_cell_angle_beta   90.00000000
_cell_angle_gamma   90.00000000
_symmetry_Int_Tables_number   1
_chemical_formula_structural   HoLuB6W
_chemical_formula_sum   'Ho4 Lu4 B24 W4'
_cell_volume   384.10778688
_cell_formula_units_Z   4
loop_
 _symmetry_equiv_pos_site_id
 _symmetry_equiv_pos_as_xyz
  1  'x, y, z'
loop_
 _atom_site_type_symbol
 _atom_site_label
 _atom_site_symmetry_multiplicity
 _atom_site_fract_x
 _atom_site_fract_y
 _atom_site_fract_z
 _atom_site_occupancy
  Ho  Ho0  1  0.000000  0.320901  0.413792  1
  Ho  Ho1  1  0.000000  0.679099  0.586208  1
  Ho  Ho2  1  0.000000  0.820901  0.086208  1
  Ho  Ho3  1  0.000000  0.179099  0.913792  1
  Lu  Lu4  1  0.000000  0.944302  0.372485  1
  Lu  Lu5  1  0.000000  0.055698  0.627515  1
  Lu  Lu6  1  0.000000  0.444302  0.127515  1
  Lu  Lu7  1  0.000000  0.555698  0.872485  1
  B  B8  1  0.500000  0.551761  0.434608  1
  B  B9  1  0.500000  0.448239  0.565392  1
  B  B10  1  0.500000  0.051761  0.065392  1
  B  B11  1  0.500000  0.948239  0.934608  1
  B  B12  1  0.500000  0.752887  0.421564  1
  B  B13  1  0.500000  0.247113  0.578436  1
  B  B14  1  0.500000  0.252887  0.078436  1
  B  B15  1  0.500000  0.747113  0.921564  1
  B  B16  1  0.500000  0.795725  0.264190  1
  B  B17  1  0.500000  0.204275  0.735809  1
  B  B18  1  0.500000  0.295725  0.235810  1
  B  B19  1  0.500000  0.704275  0.764191  1
  B  B20  1  0.500000  0.631092  0.182361  1
  B  B21  1  0.500000  0.368908  0.817639  1
  B  B22  1  0.500000  0.131092  0.317639  1
  B  B23  1  0.500000  0.868908  0.682361  1
  B  B24  1  0.500000  0.978652  0.213656  1
  B  B25  1  0.500000  0.021348  0.786344  1
  B  B26  1  0.500000  0.478652  0.286344  1
  B  B27  1  0.500000  0.521348  0.713656  1
  B  B28  1  0.500000  0.599769  0.027706  1
  B  B29  1  0.500000  0.400231  0.972294  1
  B  B30  1  0.500000  0.099769  0.472294  1
  B  B31  1  0.500000  0.900231  0.527706  1
  W  W32  1  0.000000  0.639919  0.319986  1
  W  W33  1  0.000000  0.360081  0.680014  1
  W  W34  1  0.000000  0.139919  0.180014  1
  W  W35  1  0.000000  0.860081  0.819986  1
