# generated using pymatgen
data_Gd(ThSe2)6
_symmetry_space_group_name_H-M   'P 1'
_cell_length_a   4.10232700
_cell_length_b   11.73497442
_cell_length_c   11.69085509
_cell_angle_alpha   119.95880533
_cell_angle_beta   90.00000000
_cell_angle_gamma   90.00000000
_symmetry_Int_Tables_number   1
_chemical_formula_structural   Gd(ThSe2)6
_chemical_formula_sum   'Gd1 Th6 Se12'
_cell_volume   487.60647064
_cell_formula_units_Z   1
loop_
 _symmetry_equiv_pos_site_id
 _symmetry_equiv_pos_as_xyz
  1  'x, y, z'
loop_
 _atom_site_type_symbol
 _atom_site_label
 _atom_site_symmetry_multiplicity
 _atom_site_fract_x
 _atom_site_fract_y
 _atom_site_fract_z
 _atom_site_occupancy
  Gd  Gd0  1  0.250000  0.286026  0.441489  1
  Th  Th1  1  0.750000  0.002805  0.003842  1
  Th  Th2  1  0.750000  0.717433  0.566976  1
  Th  Th3  1  0.750000  0.431669  0.153848  1
  Th  Th4  1  0.750000  0.850084  0.281424  1
  Th  Th5  1  0.250000  0.556122  0.841765  1
  Th  Th6  1  0.250000  0.156453  0.711959  1
  Se  Se7  1  0.750000  0.004801  0.752042  1
  Se  Se8  1  0.750000  0.248180  0.254874  1
  Se  Se9  1  0.750000  0.746670  0.993936  1
  Se  Se10  1  0.250000  0.994948  0.211481  1
  Se  Se11  1  0.250000  0.789103  0.784183  1
  Se  Se12  1  0.250000  0.216198  0.004083  1
  Se  Se13  1  0.750000  0.374337  0.862154  1
  Se  Se14  1  0.750000  0.138607  0.511689  1
  Se  Se15  1  0.750000  0.486427  0.624089  1
  Se  Se16  1  0.250000  0.617197  0.140215  1
  Se  Se17  1  0.250000  0.859450  0.477243  1
  Se  Se18  1  0.250000  0.523490  0.382709  1
