# generated using pymatgen
data_Nb6CoSe12
_symmetry_space_group_name_H-M   'P 1'
_cell_length_a   6.02409016
_cell_length_b   6.02409022
_cell_length_c   13.51552287
_cell_angle_alpha   85.65138394
_cell_angle_beta   85.65138437
_cell_angle_gamma   119.96654889
_symmetry_Int_Tables_number   1
_chemical_formula_structural   Nb6CoSe12
_chemical_formula_sum   'Nb6 Co1 Se12'
_cell_volume   419.99651107
_cell_formula_units_Z   1
loop_
 _symmetry_equiv_pos_site_id
 _symmetry_equiv_pos_as_xyz
  1  'x, y, z'
loop_
 _atom_site_type_symbol
 _atom_site_label
 _atom_site_symmetry_multiplicity
 _atom_site_fract_x
 _atom_site_fract_y
 _atom_site_fract_z
 _atom_site_occupancy
  Nb  Nb0  1  0.077132  0.077132  0.769450  1
  Nb  Nb1  1  0.410273  0.743190  0.770309  1
  Nb  Nb2  1  0.743190  0.410273  0.770309  1
  Nb  Nb3  1  0.256810  0.589727  0.229691  1
  Nb  Nb4  1  0.589727  0.256810  0.229691  1
  Nb  Nb5  1  0.922868  0.922868  0.230550  1
  Co  Co6  1  0.000000  0.000000  0.000000  1
  Se  Se7  1  0.299428  0.299428  0.104737  1
  Se  Se8  1  0.631874  0.965572  0.104857  1
  Se  Se9  1  0.965572  0.631874  0.104857  1
  Se  Se10  1  0.034428  0.368126  0.895143  1
  Se  Se11  1  0.368126  0.034428  0.895143  1
  Se  Se12  1  0.700572  0.700572  0.895263  1
  Se  Se13  1  0.213670  0.213670  0.356790  1
  Se  Se14  1  0.546591  0.880064  0.356756  1
  Se  Se15  1  0.880064  0.546591  0.356756  1
  Se  Se16  1  0.119936  0.453409  0.643244  1
  Se  Se17  1  0.453409  0.119936  0.643244  1
  Se  Se18  1  0.786330  0.786330  0.643210  1
