# generated using pymatgen
data_Lu4Hf3AlPt4
_symmetry_space_group_name_H-M   'P 1'
_cell_length_a   4.53777500
_cell_length_b   6.94188741
_cell_length_c   8.13439957
_cell_angle_alpha   87.25785545
_cell_angle_beta   90.00000000
_cell_angle_gamma   90.00000000
_symmetry_Int_Tables_number   1
_chemical_formula_structural   Lu4Hf3AlPt4
_chemical_formula_sum   'Lu4 Hf3 Al1 Pt4'
_cell_volume   255.94606341
_cell_formula_units_Z   1
loop_
 _symmetry_equiv_pos_site_id
 _symmetry_equiv_pos_as_xyz
  1  'x, y, z'
loop_
 _atom_site_type_symbol
 _atom_site_label
 _atom_site_symmetry_multiplicity
 _atom_site_fract_x
 _atom_site_fract_y
 _atom_site_fract_z
 _atom_site_occupancy
  Lu  Lu0  1  0.250000  0.511029  0.164203  1
  Lu  Lu1  1  0.750000  0.460014  0.830534  1
  Lu  Lu2  1  0.750000  0.982485  0.683210  1
  Lu  Lu3  1  0.250000  0.031358  0.312040  1
  Hf  Hf4  1  0.250000  0.647675  0.576761  1
  Hf  Hf5  1  0.750000  0.364410  0.430640  1
  Hf  Hf6  1  0.750000  0.856149  0.062549  1
  Al  Al7  1  0.250000  0.138870  0.926929  1
  Pt  Pt8  1  0.250000  0.764176  0.889455  1
  Pt  Pt9  1  0.750000  0.233113  0.121207  1
  Pt  Pt10  1  0.750000  0.745401  0.395589  1
  Pt  Pt11  1  0.250000  0.265319  0.606883  1
