# generated using pymatgen
data_NdTm2Pa(ReB6)2
_symmetry_space_group_name_H-M   'P 1'
_cell_length_a   3.70609200
_cell_length_b   9.16698568
_cell_length_c   11.56974721
_cell_angle_alpha   90.29158942
_cell_angle_beta   90.00000000
_cell_angle_gamma   90.00000000
_symmetry_Int_Tables_number   1
_chemical_formula_structural   NdTm2Pa(ReB6)2
_chemical_formula_sum   'Nd2 Tm4 Pa2 Re4 B24'
_cell_volume   393.06194118
_cell_formula_units_Z   2
loop_
 _symmetry_equiv_pos_site_id
 _symmetry_equiv_pos_as_xyz
  1  'x, y, z'
loop_
 _atom_site_type_symbol
 _atom_site_label
 _atom_site_symmetry_multiplicity
 _atom_site_fract_x
 _atom_site_fract_y
 _atom_site_fract_z
 _atom_site_occupancy
  Nd  Nd0  1  0.000000  0.823159  0.085976  1
  Nd  Nd1  1  0.000000  0.176841  0.914024  1
  Tm  Tm2  1  0.000000  0.944769  0.373426  1
  Tm  Tm3  1  0.000000  0.055231  0.626574  1
  Tm  Tm4  1  0.000000  0.444119  0.127774  1
  Tm  Tm5  1  0.000000  0.555881  0.872226  1
  Pa  Pa6  1  0.000000  0.321348  0.413721  1
  Pa  Pa7  1  0.000000  0.678652  0.586279  1
  Re  Re8  1  0.000000  0.634891  0.325239  1
  Re  Re9  1  0.000000  0.365109  0.674761  1
  Re  Re10  1  0.000000  0.142830  0.184861  1
  Re  Re11  1  0.000000  0.857170  0.815139  1
  B  B12  1  0.500000  0.553496  0.433203  1
  B  B13  1  0.500000  0.446504  0.566797  1
  B  B14  1  0.500000  0.055689  0.070293  1
  B  B15  1  0.500000  0.944311  0.929707  1
  B  B16  1  0.500000  0.748749  0.420075  1
  B  B17  1  0.500000  0.251251  0.579925  1
  B  B18  1  0.500000  0.250468  0.083379  1
  B  B19  1  0.500000  0.749532  0.916621  1
  B  B20  1  0.500000  0.790626  0.268084  1
  B  B21  1  0.500000  0.209374  0.731916  1
  B  B22  1  0.500000  0.293114  0.235612  1
  B  B23  1  0.500000  0.706886  0.764388  1
  B  B24  1  0.500000  0.629138  0.187060  1
  B  B25  1  0.500000  0.370862  0.812940  1
  B  B26  1  0.500000  0.132521  0.316011  1
  B  B27  1  0.500000  0.867479  0.683989  1
  B  B28  1  0.500000  0.984240  0.215118  1
  B  B29  1  0.500000  0.015760  0.784882  1
  B  B30  1  0.500000  0.482262  0.287682  1
  B  B31  1  0.500000  0.517738  0.712318  1
  B  B32  1  0.500000  0.598943  0.027661  1
  B  B33  1  0.500000  0.401057  0.972339  1
  B  B34  1  0.500000  0.108657  0.470350  1
  B  B35  1  0.500000  0.891343  0.529650  1
