# generated using pymatgen
data_Tb10Bi3Os2Pb
_symmetry_space_group_name_H-M   'P 1'
_cell_length_a   7.98855735
_cell_length_b   9.08512255
_cell_length_c   12.50531193
_cell_angle_alpha   90.05031308
_cell_angle_beta   90.18759607
_cell_angle_gamma   90.04452871
_symmetry_Int_Tables_number   1
_chemical_formula_structural   Tb10Bi3Os2Pb
_chemical_formula_sum   'Tb20 Bi6 Os4 Pb2'
_cell_volume   907.59281428
_cell_formula_units_Z   2
loop_
 _symmetry_equiv_pos_site_id
 _symmetry_equiv_pos_as_xyz
  1  'x, y, z'
loop_
 _atom_site_type_symbol
 _atom_site_label
 _atom_site_symmetry_multiplicity
 _atom_site_fract_x
 _atom_site_fract_y
 _atom_site_fract_z
 _atom_site_occupancy
  Tb  Tb0  1  0.839545  0.747137  0.791994  1
  Tb  Tb1  1  0.160455  0.252863  0.208006  1
  Tb  Tb2  1  0.344074  0.252440  0.709037  1
  Tb  Tb3  1  0.655926  0.747560  0.290963  1
  Tb  Tb4  1  0.378927  0.747994  0.693838  1
  Tb  Tb5  1  0.621073  0.252006  0.306162  1
  Tb  Tb6  1  0.873674  0.252114  0.807346  1
  Tb  Tb7  1  0.126326  0.747886  0.192654  1
  Tb  Tb8  1  0.943056  0.749976  0.503787  1
  Tb  Tb9  1  0.056944  0.250024  0.496213  1
  Tb  Tb10  1  0.443654  0.254089  0.996031  1
  Tb  Tb11  1  0.556346  0.745911  0.003969  1
  Tb  Tb12  1  0.675490  0.041777  0.564656  1
  Tb  Tb13  1  0.324510  0.958223  0.435344  1
  Tb  Tb14  1  0.175274  0.959516  0.934387  1
  Tb  Tb15  1  0.326599  0.540572  0.432291  1
  Tb  Tb16  1  0.824726  0.040484  0.065613  1
  Tb  Tb17  1  0.673401  0.459428  0.567709  1
  Tb  Tb18  1  0.822849  0.459957  0.064115  1
  Tb  Tb19  1  0.177151  0.540043  0.935885  1
  Bi  Bi20  1  0.069381  0.507184  0.671644  1
  Bi  Bi21  1  0.430633  0.993184  0.171636  1
  Bi  Bi22  1  0.930619  0.492816  0.328356  1
  Bi  Bi23  1  0.569367  0.006816  0.828364  1
  Bi  Bi24  1  0.931064  0.007027  0.327290  1
  Bi  Bi25  1  0.068936  0.992973  0.672710  1
  Os  Os26  1  0.576048  0.750279  0.509818  1
  Os  Os27  1  0.423952  0.249721  0.490182  1
  Os  Os28  1  0.073613  0.249386  0.990181  1
  Os  Os29  1  0.926387  0.750614  0.009819  1
  Pb  Pb30  1  0.569996  0.493579  0.827544  1
  Pb  Pb31  1  0.430004  0.506421  0.172456  1
