# generated using pymatgen
data_La2UAlGa2Ir3
_symmetry_space_group_name_H-M   'P 1'
_cell_length_a   7.32607105
_cell_length_b   7.28635341
_cell_length_c   4.03144300
_cell_angle_alpha   90.00000000
_cell_angle_beta   90.00000000
_cell_angle_gamma   119.82081795
_symmetry_Int_Tables_number   1
_chemical_formula_structural   La2UAlGa2Ir3
_chemical_formula_sum   'La2 U1 Al1 Ga2 Ir3'
_cell_volume   186.70408872
_cell_formula_units_Z   1
loop_
 _symmetry_equiv_pos_site_id
 _symmetry_equiv_pos_as_xyz
  1  'x, y, z'
loop_
 _atom_site_type_symbol
 _atom_site_label
 _atom_site_symmetry_multiplicity
 _atom_site_fract_x
 _atom_site_fract_y
 _atom_site_fract_z
 _atom_site_occupancy
  La  La0  1  0.419430  0.420202  0.500000  1
  La  La1  1  0.580570  0.000772  0.500000  1
  U  U2  1  0.000000  0.584564  0.500000  1
  Al  Al3  1  0.000000  0.226514  0.000000  1
  Ga  Ga4  1  0.766409  0.762243  0.000000  1
  Ga  Ga5  1  0.233591  0.995832  0.000000  1
  Ir  Ir6  1  0.721127  0.371617  0.000000  1
  Ir  Ir7  1  0.278873  0.650491  0.000000  1
  Ir  Ir8  1  0.000000  0.987766  0.500000  1
