# generated using pymatgen
data_Zr2Ta(AlCo2)3
_symmetry_space_group_name_H-M   'P 1'
_cell_length_a   4.25445600
_cell_length_b   6.02107600
_cell_length_c   12.85358600
_cell_angle_alpha   90.00000000
_cell_angle_beta   89.99986087
_cell_angle_gamma   90.00000000
_symmetry_Int_Tables_number   1
_chemical_formula_structural   Zr2Ta(AlCo2)3
_chemical_formula_sum   'Zr4 Ta2 Al6 Co12'
_cell_volume   329.26263787
_cell_formula_units_Z   2
loop_
 _symmetry_equiv_pos_site_id
 _symmetry_equiv_pos_as_xyz
  1  'x, y, z'
loop_
 _atom_site_type_symbol
 _atom_site_label
 _atom_site_symmetry_multiplicity
 _atom_site_fract_x
 _atom_site_fract_y
 _atom_site_fract_z
 _atom_site_occupancy
  Zr  Zr0  1  0.999989  0.000000  0.998367  1
  Zr  Zr1  1  0.500184  0.500000  0.165687  1
  Zr  Zr2  1  0.000170  0.000000  0.334347  1
  Zr  Zr3  1  0.499989  0.500000  0.501633  1
  Ta  Ta4  1  0.999835  0.000000  0.667888  1
  Ta  Ta5  1  0.499828  0.500000  0.832081  1
  Al  Al6  1  0.000004  0.500000  0.996534  1
  Al  Al7  1  0.500176  0.000000  0.165669  1
  Al  Al8  1  0.000166  0.500000  0.334412  1
  Al  Al9  1  0.500000  0.000000  0.503434  1
  Al  Al10  1  0.999853  0.500000  0.668126  1
  Al  Al11  1  0.499853  0.000000  0.831841  1
  Co  Co12  1  0.499985  0.258044  0.993234  1
  Co  Co13  1  0.499985  0.741954  0.993234  1
  Co  Co14  1  0.000205  0.248314  0.165990  1
  Co  Co15  1  0.000205  0.751686  0.165990  1
  Co  Co16  1  0.500193  0.251616  0.334049  1
  Co  Co17  1  0.500193  0.748384  0.334049  1
  Co  Co18  1  0.999983  0.242029  0.506775  1
  Co  Co19  1  0.999983  0.757971  0.506775  1
  Co  Co20  1  0.499810  0.242907  0.671750  1
  Co  Co21  1  0.499810  0.757093  0.671750  1
  Co  Co22  1  0.999800  0.256977  0.828192  1
  Co  Co23  1  0.999800  0.743023  0.828192  1
