# generated using pymatgen
data_TbTm15ZnIn3Rh4
_symmetry_space_group_name_H-M   'P 1'
_cell_length_a   9.50031593
_cell_length_b   9.50031553
_cell_length_c   9.49435894
_cell_angle_alpha   60.00985693
_cell_angle_beta   60.00985837
_cell_angle_gamma   60.03778841
_symmetry_Int_Tables_number   1
_chemical_formula_structural   TbTm15ZnIn3Rh4
_chemical_formula_sum   'Tb1 Tm15 Zn1 In3 Rh4'
_cell_volume   606.19916104
_cell_formula_units_Z   1
loop_
 _symmetry_equiv_pos_site_id
 _symmetry_equiv_pos_as_xyz
  1  'x, y, z'
loop_
 _atom_site_type_symbol
 _atom_site_label
 _atom_site_symmetry_multiplicity
 _atom_site_fract_x
 _atom_site_fract_y
 _atom_site_fract_z
 _atom_site_occupancy
  Tb  Tb0  1  0.062568  0.062568  0.437654  1
  Tm  Tm1  1  0.437207  0.068829  0.435897  1
  Tm  Tm2  1  0.062135  0.439132  0.061039  1
  Tm  Tm3  1  0.054038  0.646528  0.647361  1
  Tm  Tm4  1  0.436010  0.436010  0.068860  1
  Tm  Tm5  1  0.646528  0.054038  0.647361  1
  Tm  Tm6  1  0.189197  0.810951  0.188801  1
  Tm  Tm7  1  0.189120  0.189120  0.811252  1
  Tm  Tm8  1  0.810172  0.810172  0.190796  1
  Tm  Tm9  1  0.439132  0.062135  0.061039  1
  Tm  Tm10  1  0.810951  0.189197  0.188801  1
  Tm  Tm11  1  0.068829  0.437207  0.435897  1
  Tm  Tm12  1  0.809590  0.190838  0.810951  1
  Tm  Tm13  1  0.190838  0.809590  0.810951  1
  Tm  Tm14  1  0.646938  0.646938  0.053774  1
  Tm  Tm15  1  0.651295  0.651295  0.651587  1
  Zn  Zn16  1  0.415707  0.415707  0.415849  1
  In  In17  1  0.744606  0.418171  0.417095  1
  In  In18  1  0.418171  0.744606  0.417095  1
  In  In19  1  0.416976  0.416976  0.745900  1
  Rh  Rh20  1  0.857941  0.857941  0.427673  1
  Rh  Rh21  1  0.855878  0.855878  0.857323  1
  Rh  Rh22  1  0.427708  0.858465  0.858523  1
  Rh  Rh23  1  0.858465  0.427708  0.858523  1
