# generated using pymatgen
data_Pr2Nd(Co3P2)3
_symmetry_space_group_name_H-M   'P 1'
_cell_length_a   3.78111400
_cell_length_b   10.66899100
_cell_length_c   12.40969500
_cell_angle_alpha   90.00000000
_cell_angle_beta   90.00000000
_cell_angle_gamma   90.00000000
_symmetry_Int_Tables_number   1
_chemical_formula_structural   Pr2Nd(Co3P2)3
_chemical_formula_sum   'Pr4 Nd2 Co18 P12'
_cell_volume   500.61542613
_cell_formula_units_Z   2
loop_
 _symmetry_equiv_pos_site_id
 _symmetry_equiv_pos_as_xyz
  1  'x, y, z'
loop_
 _atom_site_type_symbol
 _atom_site_label
 _atom_site_symmetry_multiplicity
 _atom_site_fract_x
 _atom_site_fract_y
 _atom_site_fract_z
 _atom_site_occupancy
  Pr  Pr0  1  0.000000  0.500000  0.520050  1
  Pr  Pr1  1  0.500000  0.000000  0.479271  1
  Pr  Pr2  1  0.000000  0.682922  0.794130  1
  Pr  Pr3  1  0.000000  0.317078  0.794130  1
  Nd  Nd4  1  0.500000  0.817165  0.205974  1
  Nd  Nd5  1  0.500000  0.182835  0.205974  1
  Co  Co6  1  0.500000  0.500000  0.156422  1
  Co  Co7  1  0.000000  0.000000  0.843644  1
  Co  Co8  1  0.500000  0.500000  0.705567  1
  Co  Co9  1  0.000000  0.000000  0.294615  1
  Co  Co10  1  0.000000  0.500000  0.988698  1
  Co  Co11  1  0.500000  0.000000  0.013388  1
  Co  Co12  1  0.500000  0.333293  0.996890  1
  Co  Co13  1  0.500000  0.666707  0.996890  1
  Co  Co14  1  0.000000  0.166003  0.004399  1
  Co  Co15  1  0.000000  0.833997  0.004399  1
  Co  Co16  1  0.500000  0.297489  0.428681  1
  Co  Co17  1  0.500000  0.702511  0.428681  1
  Co  Co18  1  0.000000  0.202636  0.569780  1
  Co  Co19  1  0.000000  0.797364  0.569780  1
  Co  Co20  1  0.500000  0.881979  0.711572  1
  Co  Co21  1  0.500000  0.118021  0.711572  1
  Co  Co22  1  0.000000  0.618337  0.287636  1
  Co  Co23  1  0.000000  0.381663  0.287636  1
  P  P24  1  0.500000  0.500000  0.888044  1
  P  P25  1  0.000000  0.000000  0.114013  1
  P  P26  1  0.500000  0.500000  0.337857  1
  P  P27  1  0.000000  0.000000  0.661721  1
  P  P28  1  0.500000  0.304916  0.613170  1
  P  P29  1  0.500000  0.695084  0.613170  1
  P  P30  1  0.000000  0.194706  0.385397  1
  P  P31  1  0.000000  0.805294  0.385397  1
  P  P32  1  0.500000  0.849004  0.896408  1
  P  P33  1  0.500000  0.150996  0.896408  1
  P  P34  1  0.000000  0.652378  0.104316  1
  P  P35  1  0.000000  0.347622  0.104316  1
