# generated using pymatgen
data_LiY16Cd3Ni4
_symmetry_space_group_name_H-M   'P 1'
_cell_length_a   9.60109135
_cell_length_b   9.60109168
_cell_length_c   9.60109101
_cell_angle_alpha   60.00341884
_cell_angle_beta   60.00341339
_cell_angle_gamma   60.00342085
_symmetry_Int_Tables_number   1
_chemical_formula_structural   LiY16Cd3Ni4
_chemical_formula_sum   'Li1 Y16 Cd3 Ni4'
_cell_volume   625.86470013
_cell_formula_units_Z   1
loop_
 _symmetry_equiv_pos_site_id
 _symmetry_equiv_pos_as_xyz
  1  'x, y, z'
loop_
 _atom_site_type_symbol
 _atom_site_label
 _atom_site_symmetry_multiplicity
 _atom_site_fract_x
 _atom_site_fract_y
 _atom_site_fract_z
 _atom_site_occupancy
  Li  Li0  1  0.820532  0.820532  0.820532  1
  Y  Y1  1  0.597514  0.597514  0.597514  1
  Y  Y2  1  0.598756  0.598756  0.203784  1
  Y  Y3  1  0.598756  0.203784  0.598756  1
  Y  Y4  1  0.203784  0.598756  0.598756  1
  Y  Y5  1  0.061334  0.441350  0.441350  1
  Y  Y6  1  0.437112  0.063992  0.063992  1
  Y  Y7  1  0.441350  0.061334  0.441350  1
  Y  Y8  1  0.063992  0.437112  0.063992  1
  Y  Y9  1  0.441350  0.441350  0.061334  1
  Y  Y10  1  0.063992  0.063992  0.437112  1
  Y  Y11  1  0.186688  0.814115  0.814115  1
  Y  Y12  1  0.813511  0.186741  0.186741  1
  Y  Y13  1  0.814115  0.186688  0.814115  1
  Y  Y14  1  0.186741  0.813511  0.186741  1
  Y  Y15  1  0.814115  0.814115  0.186688  1
  Y  Y16  1  0.186741  0.186741  0.813511  1
  Cd  Cd17  1  0.831561  0.831561  0.505939  1
  Cd  Cd18  1  0.831561  0.505939  0.831561  1
  Cd  Cd19  1  0.505939  0.831561  0.831561  1
  Ni  Ni20  1  0.393503  0.393503  0.393503  1
  Ni  Ni21  1  0.392010  0.392010  0.823031  1
  Ni  Ni22  1  0.392010  0.823031  0.392010  1
  Ni  Ni23  1  0.823031  0.392010  0.392010  1
