# generated using pymatgen
data_Hf4SnAsRh10
_symmetry_space_group_name_H-M   'P 1'
_cell_length_a   4.10161400
_cell_length_b   5.63804358
_cell_length_c   11.02073362
_cell_angle_alpha   89.62282901
_cell_angle_beta   90.00000000
_cell_angle_gamma   90.00000000
_symmetry_Int_Tables_number   1
_chemical_formula_structural   Hf4SnAsRh10
_chemical_formula_sum   'Hf4 Sn1 As1 Rh10'
_cell_volume   254.84980788
_cell_formula_units_Z   1
loop_
 _symmetry_equiv_pos_site_id
 _symmetry_equiv_pos_as_xyz
  1  'x, y, z'
loop_
 _atom_site_type_symbol
 _atom_site_label
 _atom_site_symmetry_multiplicity
 _atom_site_fract_x
 _atom_site_fract_y
 _atom_site_fract_z
 _atom_site_occupancy
  Hf  Hf0  1  0.500000  0.323318  0.356164  1
  Hf  Hf1  1  0.500000  0.676682  0.643836  1
  Hf  Hf2  1  0.500000  0.172975  0.858802  1
  Hf  Hf3  1  0.500000  0.827025  0.141198  1
  Sn  Sn4  1  0.000000  0.000000  0.500000  1
  As  As5  1  0.000000  0.500000  0.000000  1
  Rh  Rh6  1  0.500000  0.313347  0.104301  1
  Rh  Rh7  1  0.500000  0.686653  0.895699  1
  Rh  Rh8  1  0.500000  0.797497  0.384452  1
  Rh  Rh9  1  0.500000  0.202503  0.615548  1
  Rh  Rh10  1  0.000000  0.930793  0.749361  1
  Rh  Rh11  1  0.000000  0.069207  0.250639  1
  Rh  Rh12  1  0.000000  0.433233  0.759682  1
  Rh  Rh13  1  0.000000  0.566767  0.240318  1
  Rh  Rh14  1  0.000000  0.500000  0.500000  1
  Rh  Rh15  1  0.000000  0.000000  0.000000  1
