# generated using pymatgen
data_Dy17Er3(Cd3Ru)2
_symmetry_space_group_name_H-M   'P 1'
_cell_length_a   9.57861901
_cell_length_b   9.57923674
_cell_length_c   9.83834101
_cell_angle_alpha   90.00000069
_cell_angle_beta   89.99524344
_cell_angle_gamma   120.00213977
_symmetry_Int_Tables_number   1
_chemical_formula_structural   Dy17Er3(Cd3Ru)2
_chemical_formula_sum   'Dy17 Er3 Cd6 Ru2'
_cell_volume   781.76629626
_cell_formula_units_Z   1
loop_
 _symmetry_equiv_pos_site_id
 _symmetry_equiv_pos_as_xyz
  1  'x, y, z'
loop_
 _atom_site_type_symbol
 _atom_site_label
 _atom_site_symmetry_multiplicity
 _atom_site_fract_x
 _atom_site_fract_y
 _atom_site_fract_z
 _atom_site_occupancy
  Dy  Dy0  1  0.209753  0.790345  0.440435  1
  Dy  Dy1  1  0.209753  0.419409  0.440435  1
  Dy  Dy2  1  0.580486  0.790244  0.440258  1
  Dy  Dy3  1  0.790303  0.209689  0.559567  1
  Dy  Dy4  1  0.790303  0.580614  0.559567  1
  Dy  Dy5  1  0.419416  0.209708  0.559519  1
  Dy  Dy6  1  0.790198  0.209525  0.940493  1
  Dy  Dy7  1  0.790198  0.580672  0.940493  1
  Dy  Dy8  1  0.419416  0.209708  0.940473  1
  Dy  Dy9  1  0.209996  0.790297  0.059593  1
  Dy  Dy10  1  0.209996  0.419700  0.059593  1
  Dy  Dy11  1  0.541109  0.459088  0.249895  1
  Dy  Dy12  1  0.541109  0.082021  0.249895  1
  Dy  Dy13  1  0.917745  0.458872  0.250023  1
  Dy  Dy14  1  0.458972  0.541230  0.750138  1
  Dy  Dy15  1  0.458972  0.917743  0.750138  1
  Dy  Dy16  1  0.082207  0.541103  0.750009  1
  Er  Er17  1  0.999944  0.999972  0.500078  1
  Er  Er18  1  0.999713  0.999856  0.000010  1
  Er  Er19  1  0.580352  0.790177  0.059611  1
  Cd  Cd20  1  0.885632  0.114275  0.249947  1
  Cd  Cd21  1  0.885632  0.771359  0.249947  1
  Cd  Cd22  1  0.228646  0.114324  0.249983  1
  Cd  Cd23  1  0.114294  0.885658  0.750022  1
  Cd  Cd24  1  0.114294  0.228635  0.750022  1
  Cd  Cd25  1  0.771284  0.885641  0.750092  1
  Ru  Ru26  1  0.333577  0.666789  0.249799  1
  Ru  Ru27  1  0.666698  0.333348  0.749970  1
