# generated using pymatgen
data_LiYZnCu3
_symmetry_space_group_name_H-M   'P 1'
_cell_length_a   5.11335554
_cell_length_b   5.11335575
_cell_length_c   5.10283900
_cell_angle_alpha   59.93181462
_cell_angle_beta   59.93181323
_cell_angle_gamma   59.99999998
_symmetry_Int_Tables_number   1
_chemical_formula_structural   LiYZnCu3
_chemical_formula_sum   'Li1 Y1 Zn1 Cu3'
_cell_volume   94.24547347
_cell_formula_units_Z   1
loop_
 _symmetry_equiv_pos_site_id
 _symmetry_equiv_pos_as_xyz
  1  'x, y, z'
loop_
 _atom_site_type_symbol
 _atom_site_label
 _atom_site_symmetry_multiplicity
 _atom_site_fract_x
 _atom_site_fract_y
 _atom_site_fract_z
 _atom_site_occupancy
  Li  Li0  1  0.250894  0.250894  0.247319  1
  Y  Y1  1  0.002146  0.002146  0.993563  1
  Zn  Zn2  1  0.621714  0.621714  0.134858  1
  Cu  Cu3  1  0.623238  0.128772  0.624753  1
  Cu  Cu4  1  0.128772  0.623238  0.624753  1
  Cu  Cu5  1  0.623238  0.623238  0.624753  1
