# generated using pymatgen
data_La3U2PbS10
_symmetry_space_group_name_H-M   'P 1'
_cell_length_a   7.55895700
_cell_length_b   8.13025357
_cell_length_c   11.91487100
_cell_angle_alpha   90.00000000
_cell_angle_beta   90.00000000
_cell_angle_gamma   90.40744617
_symmetry_Int_Tables_number   1
_chemical_formula_structural   La3U2PbS10
_chemical_formula_sum   'La6 U4 Pb2 S20'
_cell_volume   732.22462315
_cell_formula_units_Z   2
loop_
 _symmetry_equiv_pos_site_id
 _symmetry_equiv_pos_as_xyz
  1  'x, y, z'
loop_
 _atom_site_type_symbol
 _atom_site_label
 _atom_site_symmetry_multiplicity
 _atom_site_fract_x
 _atom_site_fract_y
 _atom_site_fract_z
 _atom_site_occupancy
  La  La0  1  0.467560  0.001632  0.678753  1
  La  La1  1  0.032440  0.498368  0.178753  1
  La  La2  1  0.463121  0.499094  0.670815  1
  La  La3  1  0.036879  0.000906  0.170815  1
  La  La4  1  0.534296  0.995816  0.326099  1
  La  La5  1  0.965704  0.504184  0.826099  1
  U  U6  1  0.063779  0.754980  0.491995  1
  U  U7  1  0.436221  0.745020  0.991995  1
  U  U8  1  0.931605  0.251466  0.507015  1
  U  U9  1  0.568395  0.248534  0.007015  1
  Pb  Pb10  1  0.527491  0.498810  0.324008  1
  Pb  Pb11  1  0.972509  0.001190  0.824008  1
  S  S12  1  0.831552  0.958015  0.585125  1
  S  S13  1  0.668448  0.541985  0.085125  1
  S  S14  1  0.160030  0.464760  0.412372  1
  S  S15  1  0.339970  0.035240  0.912372  1
  S  S16  1  0.166061  0.042686  0.409932  1
  S  S17  1  0.333939  0.457314  0.909932  1
  S  S18  1  0.835948  0.543043  0.591222  1
  S  S19  1  0.664052  0.956957  0.091222  1
  S  S20  1  0.848148  0.756326  0.312155  1
  S  S21  1  0.651852  0.743674  0.812155  1
  S  S22  1  0.160638  0.255181  0.684825  1
  S  S23  1  0.339362  0.244819  0.184825  1
  S  S24  1  0.445790  0.756603  0.500821  1
  S  S25  1  0.054210  0.743397  0.000821  1
  S  S26  1  0.554106  0.244766  0.505372  1
  S  S27  1  0.945894  0.255234  0.005372  1
  S  S28  1  0.185808  0.748470  0.710453  1
  S  S29  1  0.314192  0.751530  0.210453  1
  S  S30  1  0.819809  0.241069  0.289036  1
  S  S31  1  0.680191  0.258931  0.789036  1
