# generated using pymatgen
data_La3Pr2Bi3O14
_symmetry_space_group_name_H-M   'P 1'
_cell_length_a   6.81688248
_cell_length_b   6.89132718
_cell_length_c   8.02610768
_cell_angle_alpha   106.61041807
_cell_angle_beta   89.69738436
_cell_angle_gamma   97.80679497
_symmetry_Int_Tables_number   1
_chemical_formula_structural   La3Pr2Bi3O14
_chemical_formula_sum   'La3 Pr2 Bi3 O14'
_cell_volume   357.73924937
_cell_formula_units_Z   1
loop_
 _symmetry_equiv_pos_site_id
 _symmetry_equiv_pos_as_xyz
  1  'x, y, z'
loop_
 _atom_site_type_symbol
 _atom_site_label
 _atom_site_symmetry_multiplicity
 _atom_site_fract_x
 _atom_site_fract_y
 _atom_site_fract_z
 _atom_site_occupancy
  La  La0  1  0.265500  0.526997  0.880507  1
  La  La1  1  0.746100  0.466803  0.117870  1
  La  La2  1  0.753993  0.486789  0.618977  1
  Pr  Pr3  1  0.455693  0.008364  0.254962  1
  Pr  Pr4  1  0.538556  0.002289  0.750271  1
  Bi  Bi5  1  0.993095  0.998523  0.499609  1
  Bi  Bi6  1  0.998115  0.995059  0.997272  1
  Bi  Bi7  1  0.292239  0.540192  0.390673  1
  O  O8  1  0.442336  0.647737  0.175670  1
  O  O9  1  0.562637  0.361437  0.836523  1
  O  O10  1  0.294717  0.924939  0.953601  1
  O  O11  1  0.703249  0.067817  0.047982  1
  O  O12  1  0.288449  0.926353  0.513098  1
  O  O13  1  0.704217  0.083309  0.492431  1
  O  O14  1  0.545233  0.365166  0.345080  1
  O  O15  1  0.457482  0.640358  0.649452  1
  O  O16  1  0.925172  0.670040  0.946742  1
  O  O17  1  0.070904  0.311814  0.025977  1
  O  O18  1  0.071923  0.322974  0.623100  1
  O  O19  1  0.903920  0.677283  0.386586  1
  O  O20  1  0.884148  0.911894  0.728199  1
  O  O21  1  0.102322  0.063863  0.265418  1
