# generated using pymatgen
data_Sc6Al8Os3Ru
_symmetry_space_group_name_H-M   'P 1'
_cell_length_a   9.19983700
_cell_length_b   9.12469907
_cell_length_c   8.46235500
_cell_angle_alpha   90.00000000
_cell_angle_beta   90.00000000
_cell_angle_gamma   119.92579955
_symmetry_Int_Tables_number   1
_chemical_formula_structural   Sc6Al8Os3Ru
_chemical_formula_sum   'Sc12 Al16 Os6 Ru2'
_cell_volume   615.66545855
_cell_formula_units_Z   2
loop_
 _symmetry_equiv_pos_site_id
 _symmetry_equiv_pos_as_xyz
  1  'x, y, z'
loop_
 _atom_site_type_symbol
 _atom_site_label
 _atom_site_symmetry_multiplicity
 _atom_site_fract_x
 _atom_site_fract_y
 _atom_site_fract_z
 _atom_site_occupancy
  Sc  Sc0  1  0.341542  0.017819  0.061333  1
  Sc  Sc1  1  0.658458  0.982181  0.938667  1
  Sc  Sc2  1  0.999904  0.333668  0.056755  1
  Sc  Sc3  1  0.658458  0.982181  0.561333  1
  Sc  Sc4  1  0.999904  0.333668  0.443245  1
  Sc  Sc5  1  0.000096  0.666332  0.943245  1
  Sc  Sc6  1  0.341542  0.017819  0.438667  1
  Sc  Sc7  1  0.000096  0.666332  0.556755  1
  Sc  Sc8  1  0.665410  0.667019  0.062624  1
  Sc  Sc9  1  0.334590  0.332981  0.937376  1
  Sc  Sc10  1  0.334590  0.332981  0.562624  1
  Sc  Sc11  1  0.665410  0.667019  0.437376  1
  Al  Al12  1  0.343284  0.842476  0.750000  1
  Al  Al13  1  0.652367  0.500576  0.750000  1
  Al  Al14  1  0.656716  0.157524  0.250000  1
  Al  Al15  1  0.347633  0.499424  0.250000  1
  Al  Al16  1  0.831533  0.332689  0.750000  1
  Al  Al17  1  0.168467  0.667311  0.250000  1
  Al  Al18  1  0.338712  0.662509  0.504646  1
  Al  Al19  1  0.661288  0.337491  0.495354  1
  Al  Al20  1  0.661288  0.337491  0.004646  1
  Al  Al21  1  0.338712  0.662509  0.995354  1
  Al  Al22  1  0.177576  0.011114  0.750000  1
  Al  Al23  1  0.822424  0.988886  0.250000  1
  Al  Al24  1  0.011989  0.177846  0.750000  1
  Al  Al25  1  0.988011  0.822154  0.250000  1
  Al  Al26  1  0.829586  0.833217  0.750000  1
  Al  Al27  1  0.170414  0.166783  0.250000  1
  Os  Os28  1  0.149615  0.501402  0.750000  1
  Os  Os29  1  0.850385  0.498598  0.250000  1
  Os  Os30  1  0.504394  0.670629  0.750000  1
  Os  Os31  1  0.503149  0.165362  0.750000  1
  Os  Os32  1  0.495606  0.329371  0.250000  1
  Os  Os33  1  0.496851  0.834638  0.250000  1
  Ru  Ru34  1  0.000000  0.000000  0.500000  1
  Ru  Ru35  1  0.000000  0.000000  0.000000  1
