# generated using pymatgen
data_CeZnCdPt3
_symmetry_space_group_name_H-M   'P 1'
_cell_length_a   5.51884629
_cell_length_b   5.51884746
_cell_length_c   5.27232568
_cell_angle_alpha   58.44082625
_cell_angle_beta   58.44083827
_cell_angle_gamma   59.99999817
_symmetry_Int_Tables_number   1
_chemical_formula_structural   CeZnCdPt3
_chemical_formula_sum   'Ce1 Zn1 Cd1 Pt3'
_cell_volume   110.79915298
_cell_formula_units_Z   1
loop_
 _symmetry_equiv_pos_site_id
 _symmetry_equiv_pos_as_xyz
  1  'x, y, z'
loop_
 _atom_site_type_symbol
 _atom_site_label
 _atom_site_symmetry_multiplicity
 _atom_site_fract_x
 _atom_site_fract_y
 _atom_site_fract_z
 _atom_site_occupancy
  Ce  Ce0  1  0.002179  0.002179  0.993463  1
  Zn  Zn1  1  0.623633  0.623633  0.129101  1
  Cd  Cd2  1  0.253204  0.253204  0.240386  1
  Pt  Pt3  1  0.622618  0.125748  0.629017  1
  Pt  Pt4  1  0.125748  0.622618  0.629017  1
  Pt  Pt5  1  0.622618  0.622618  0.629017  1
