# generated using pymatgen
data_Mg3ScZn5Ni3
_symmetry_space_group_name_H-M   'P 1'
_cell_length_a   5.07421800
_cell_length_b   5.03927751
_cell_length_c   8.23137865
_cell_angle_alpha   89.73401224
_cell_angle_beta   90.00000000
_cell_angle_gamma   120.22961578
_symmetry_Int_Tables_number   1
_chemical_formula_structural   Mg3ScZn5Ni3
_chemical_formula_sum   'Mg3 Sc1 Zn5 Ni3'
_cell_volume   181.85482529
_cell_formula_units_Z   1
loop_
 _symmetry_equiv_pos_site_id
 _symmetry_equiv_pos_as_xyz
  1  'x, y, z'
loop_
 _atom_site_type_symbol
 _atom_site_label
 _atom_site_symmetry_multiplicity
 _atom_site_fract_x
 _atom_site_fract_y
 _atom_site_fract_z
 _atom_site_occupancy
  Mg  Mg0  1  0.664003  0.328006  0.556029  1
  Mg  Mg1  1  0.664321  0.328640  0.937673  1
  Mg  Mg2  1  0.331000  0.662002  0.437228  1
  Sc  Sc3  1  0.329437  0.658877  0.080303  1
  Zn  Zn4  1  0.009698  0.019396  0.001433  1
  Zn  Zn5  1  0.016982  0.033963  0.492678  1
  Zn  Zn6  1  0.659166  0.823617  0.749640  1
  Zn  Zn7  1  0.164451  0.823617  0.749640  1
  Zn  Zn8  1  0.828941  0.657882  0.252535  1
  Ni  Ni9  1  0.169497  0.338995  0.750013  1
  Ni  Ni10  1  0.820366  0.162504  0.246413  1
  Ni  Ni11  1  0.342138  0.162504  0.246413  1
