# generated using pymatgen
data_NaEu3(CdAu)4
_symmetry_space_group_name_H-M   'P 1'
_cell_length_a   4.55753500
_cell_length_b   7.55938451
_cell_length_c   8.88787211
_cell_angle_alpha   90.70174622
_cell_angle_beta   90.00000000
_cell_angle_gamma   90.00000000
_symmetry_Int_Tables_number   1
_chemical_formula_structural   NaEu3(CdAu)4
_chemical_formula_sum   'Na1 Eu3 Cd4 Au4'
_cell_volume   306.18342114
_cell_formula_units_Z   1
loop_
 _symmetry_equiv_pos_site_id
 _symmetry_equiv_pos_as_xyz
  1  'x, y, z'
loop_
 _atom_site_type_symbol
 _atom_site_label
 _atom_site_symmetry_multiplicity
 _atom_site_fract_x
 _atom_site_fract_y
 _atom_site_fract_z
 _atom_site_occupancy
  Na  Na0  1  0.750000  0.463138  0.817113  1
  Eu  Eu1  1  0.250000  0.038387  0.318295  1
  Eu  Eu2  1  0.750000  0.962651  0.685255  1
  Eu  Eu3  1  0.250000  0.535820  0.176431  1
  Cd  Cd4  1  0.250000  0.638596  0.563571  1
  Cd  Cd5  1  0.250000  0.151524  0.936808  1
  Cd  Cd6  1  0.750000  0.360010  0.442896  1
  Cd  Cd7  1  0.750000  0.852647  0.060265  1
  Au  Au8  1  0.250000  0.760147  0.872177  1
  Au  Au9  1  0.250000  0.253415  0.625858  1
  Au  Au10  1  0.750000  0.743372  0.373426  1
  Au  Au11  1  0.750000  0.240294  0.127905  1
