# generated using pymatgen
data_Sc4Si2Ni2Pt5
_symmetry_space_group_name_H-M   'P 1'
_cell_length_a   3.85932500
_cell_length_b   6.54248900
_cell_length_c   16.23825100
_cell_angle_alpha   90.00000000
_cell_angle_beta   90.00000000
_cell_angle_gamma   90.00000000
_symmetry_Int_Tables_number   1
_chemical_formula_structural   Sc4Si2Ni2Pt5
_chemical_formula_sum   'Sc8 Si4 Ni4 Pt10'
_cell_volume   410.00920215
_cell_formula_units_Z   2
loop_
 _symmetry_equiv_pos_site_id
 _symmetry_equiv_pos_as_xyz
  1  'x, y, z'
loop_
 _atom_site_type_symbol
 _atom_site_label
 _atom_site_symmetry_multiplicity
 _atom_site_fract_x
 _atom_site_fract_y
 _atom_site_fract_z
 _atom_site_occupancy
  Sc  Sc0  1  0.000000  0.282410  0.460427  1
  Sc  Sc1  1  0.000000  0.717590  0.539573  1
  Sc  Sc2  1  0.000000  0.782410  0.039573  1
  Sc  Sc3  1  0.000000  0.217590  0.960427  1
  Sc  Sc4  1  0.000000  0.531511  0.288911  1
  Sc  Sc5  1  0.000000  0.468489  0.711089  1
  Sc  Sc6  1  0.000000  0.031511  0.211089  1
  Sc  Sc7  1  0.000000  0.968489  0.788911  1
  Si  Si8  1  0.500000  0.842627  0.309779  1
  Si  Si9  1  0.500000  0.157373  0.690221  1
  Si  Si10  1  0.500000  0.342627  0.190221  1
  Si  Si11  1  0.500000  0.657373  0.809779  1
  Ni  Ni12  1  0.000000  0.907627  0.382406  1
  Ni  Ni13  1  0.000000  0.092373  0.617594  1
  Ni  Ni14  1  0.000000  0.407627  0.117594  1
  Ni  Ni15  1  0.000000  0.592373  0.882406  1
  Pt  Pt16  1  0.500000  0.599875  0.420742  1
  Pt  Pt17  1  0.500000  0.400125  0.579258  1
  Pt  Pt18  1  0.500000  0.099875  0.079258  1
  Pt  Pt19  1  0.500000  0.900125  0.920742  1
  Pt  Pt20  1  0.500000  0.500000  0.000000  1
  Pt  Pt21  1  0.500000  0.000000  0.500000  1
  Pt  Pt22  1  0.500000  0.210798  0.334080  1
  Pt  Pt23  1  0.500000  0.789202  0.665920  1
  Pt  Pt24  1  0.500000  0.710798  0.165920  1
  Pt  Pt25  1  0.500000  0.289202  0.834080  1
