# generated using pymatgen
data_Ca3Pr2Nd5Ir4
_symmetry_space_group_name_H-M   'P 1'
_cell_length_a   8.88824944
_cell_length_b   8.85089857
_cell_length_c   7.47196196
_cell_angle_alpha   83.19239506
_cell_angle_beta   83.49812338
_cell_angle_gamma   44.48044459
_symmetry_Int_Tables_number   1
_chemical_formula_structural   Ca3Pr2Nd5Ir4
_chemical_formula_sum   'Ca3 Pr2 Nd5 Ir4'
_cell_volume   408.60868756
_cell_formula_units_Z   1
loop_
 _symmetry_equiv_pos_site_id
 _symmetry_equiv_pos_as_xyz
  1  'x, y, z'
loop_
 _atom_site_type_symbol
 _atom_site_label
 _atom_site_symmetry_multiplicity
 _atom_site_fract_x
 _atom_site_fract_y
 _atom_site_fract_z
 _atom_site_occupancy
  Ca  Ca0  1  0.017246  0.799336  0.918268  1
  Ca  Ca1  1  0.201457  0.983077  0.581585  1
  Ca  Ca2  1  0.985568  0.200129  0.081716  1
  Pr  Pr3  1  0.798059  0.018079  0.416732  1
  Pr  Pr4  1  0.351650  0.212923  0.815736  1
  Nd  Nd5  1  0.786966  0.650956  0.682348  1
  Nd  Nd6  1  0.652886  0.784589  0.182266  1
  Nd  Nd7  1  0.209339  0.349844  0.316786  1
  Nd  Nd8  1  0.563624  0.436892  0.751388  1
  Nd  Nd9  1  0.433457  0.567787  0.248890  1
  Ir  Ir10  1  0.179725  0.592703  0.568598  1
  Ir  Ir11  1  0.416202  0.814585  0.926266  1
  Ir  Ir12  1  0.811488  0.409170  0.430941  1
  Ir  Ir13  1  0.592333  0.179929  0.078480  1
