# generated using pymatgen
data_YbEu2Ni6B2Pd
_symmetry_space_group_name_H-M   'P 1'
_cell_length_a   5.13519100
_cell_length_b   5.13519137
_cell_length_c   14.73404400
_cell_angle_alpha   90.00000000
_cell_angle_beta   90.00000000
_cell_angle_gamma   120.00000405
_symmetry_Int_Tables_number   1
_chemical_formula_structural   YbEu2Ni6B2Pd
_chemical_formula_sum   'Yb2 Eu4 Ni12 B4 Pd2'
_cell_volume   336.48507914
_cell_formula_units_Z   2
loop_
 _symmetry_equiv_pos_site_id
 _symmetry_equiv_pos_as_xyz
  1  'x, y, z'
loop_
 _atom_site_type_symbol
 _atom_site_label
 _atom_site_symmetry_multiplicity
 _atom_site_fract_x
 _atom_site_fract_y
 _atom_site_fract_z
 _atom_site_occupancy
  Yb  Yb0  1  0.666667  0.333333  0.750000  1
  Yb  Yb1  1  0.333333  0.666667  0.250000  1
  Eu  Eu2  1  0.666667  0.333333  0.538038  1
  Eu  Eu3  1  0.333333  0.666667  0.461962  1
  Eu  Eu4  1  0.333333  0.666667  0.038038  1
  Eu  Eu5  1  0.666667  0.333333  0.961962  1
  Ni  Ni6  1  0.166343  0.332687  0.658037  1
  Ni  Ni7  1  0.332687  0.166343  0.341963  1
  Ni  Ni8  1  0.332687  0.166343  0.158037  1
  Ni  Ni9  1  0.166343  0.833657  0.841963  1
  Ni  Ni10  1  0.833657  0.667313  0.341963  1
  Ni  Ni11  1  0.833657  0.166343  0.158037  1
  Ni  Ni12  1  0.667313  0.833657  0.658037  1
  Ni  Ni13  1  0.667313  0.833657  0.841963  1
  Ni  Ni14  1  0.166343  0.833657  0.658037  1
  Ni  Ni15  1  0.833657  0.667313  0.158037  1
  Ni  Ni16  1  0.166343  0.332687  0.841963  1
  Ni  Ni17  1  0.833657  0.166343  0.341963  1
  B  B18  1  0.666667  0.333333  0.250000  1
  B  B19  1  0.000000  0.000000  0.750000  1
  B  B20  1  0.333333  0.666667  0.750000  1
  B  B21  1  0.000000  0.000000  0.250000  1
  Pd  Pd22  1  0.000000  0.000000  0.000000  1
  Pd  Pd23  1  0.000000  0.000000  0.500000  1
