# generated using pymatgen
data_LiYb2AlSn2
_symmetry_space_group_name_H-M   'P 1'
_cell_length_a   4.65338500
_cell_length_b   7.63780300
_cell_length_c   8.31291900
_cell_angle_alpha   90.00000000
_cell_angle_beta   90.00000000
_cell_angle_gamma   90.00000000
_symmetry_Int_Tables_number   1
_chemical_formula_structural   LiYb2AlSn2
_chemical_formula_sum   'Li2 Yb4 Al2 Sn4'
_cell_volume   295.45475710
_cell_formula_units_Z   2
loop_
 _symmetry_equiv_pos_site_id
 _symmetry_equiv_pos_as_xyz
  1  'x, y, z'
loop_
 _atom_site_type_symbol
 _atom_site_label
 _atom_site_symmetry_multiplicity
 _atom_site_fract_x
 _atom_site_fract_y
 _atom_site_fract_z
 _atom_site_occupancy
  Li  Li0  1  0.250000  0.344752  0.569011  1
  Li  Li1  1  0.250000  0.844752  0.930989  1
  Yb  Yb2  1  0.250000  0.990561  0.302030  1
  Yb  Yb3  1  0.250000  0.490561  0.197970  1
  Yb  Yb4  1  0.750000  0.006291  0.698111  1
  Yb  Yb5  1  0.750000  0.506291  0.801889  1
  Al  Al6  1  0.750000  0.654978  0.423093  1
  Al  Al7  1  0.750000  0.154978  0.076907  1
  Sn  Sn8  1  0.250000  0.226681  0.897342  1
  Sn  Sn9  1  0.250000  0.726681  0.602658  1
  Sn  Sn10  1  0.750000  0.776738  0.103436  1
  Sn  Sn11  1  0.750000  0.276738  0.396564  1
