# generated using pymatgen
data_La15Pr(CdPd)4
_symmetry_space_group_name_H-M   'P 1'
_cell_length_a   10.20434133
_cell_length_b   10.20434103
_cell_length_c   10.20639700
_cell_angle_alpha   59.99333163
_cell_angle_beta   59.99333262
_cell_angle_gamma   59.98714880
_symmetry_Int_Tables_number   1
_chemical_formula_structural   La15Pr(CdPd)4
_chemical_formula_sum   'La15 Pr1 Cd4 Pd4'
_cell_volume   751.34851795
_cell_formula_units_Z   1
loop_
 _symmetry_equiv_pos_site_id
 _symmetry_equiv_pos_as_xyz
  1  'x, y, z'
loop_
 _atom_site_type_symbol
 _atom_site_label
 _atom_site_symmetry_multiplicity
 _atom_site_fract_x
 _atom_site_fract_y
 _atom_site_fract_z
 _atom_site_occupancy
  La  La0  1  0.350515  0.350515  0.350586  1
  La  La1  1  0.350515  0.350515  0.948385  1
  La  La2  1  0.350439  0.947723  0.350920  1
  La  La3  1  0.947723  0.350439  0.350920  1
  La  La4  1  0.806902  0.193207  0.193675  1
  La  La5  1  0.193207  0.806902  0.806216  1
  La  La6  1  0.193207  0.806902  0.193675  1
  La  La7  1  0.806902  0.193207  0.806216  1
  La  La8  1  0.193216  0.193216  0.806784  1
  La  La9  1  0.806581  0.806581  0.193419  1
  La  La10  1  0.935399  0.564996  0.565082  1
  La  La11  1  0.564996  0.935399  0.934523  1
  La  La12  1  0.564996  0.935399  0.565082  1
  La  La13  1  0.935399  0.564996  0.934523  1
  La  La14  1  0.564806  0.564806  0.935194  1
  Pr  Pr15  1  0.935314  0.935314  0.564686  1
  Cd  Cd16  1  0.579450  0.579450  0.579400  1
  Cd  Cd17  1  0.579450  0.579450  0.261698  1
  Cd  Cd18  1  0.579682  0.261441  0.579438  1
  Cd  Cd19  1  0.261441  0.579682  0.579438  1
  Pd  Pd20  1  0.142945  0.142945  0.143243  1
  Pd  Pd21  1  0.142945  0.142945  0.570866  1
  Pd  Pd22  1  0.142947  0.571022  0.143016  1
  Pd  Pd23  1  0.571022  0.142947  0.143016  1
