# generated using pymatgen
data_DySc4Bi3
_symmetry_space_group_name_H-M   'P 1'
_cell_length_a   7.90138000
_cell_length_b   9.06213800
_cell_length_c   11.55803400
_cell_angle_alpha   90.00000000
_cell_angle_beta   90.00000000
_cell_angle_gamma   90.00000000
_symmetry_Int_Tables_number   1
_chemical_formula_structural   DySc4Bi3
_chemical_formula_sum   'Dy4 Sc16 Bi12'
_cell_volume   827.59448491
_cell_formula_units_Z   4
loop_
 _symmetry_equiv_pos_site_id
 _symmetry_equiv_pos_as_xyz
  1  'x, y, z'
loop_
 _atom_site_type_symbol
 _atom_site_label
 _atom_site_symmetry_multiplicity
 _atom_site_fract_x
 _atom_site_fract_y
 _atom_site_fract_z
 _atom_site_occupancy
  Dy  Dy0  1  0.314870  0.250000  0.219103  1
  Dy  Dy1  1  0.814870  0.250000  0.280897  1
  Dy  Dy2  1  0.685130  0.750000  0.780897  1
  Dy  Dy3  1  0.185130  0.750000  0.719103  1
  Sc  Sc4  1  0.348802  0.750000  0.220156  1
  Sc  Sc5  1  0.848802  0.750000  0.279844  1
  Sc  Sc6  1  0.651198  0.250000  0.779844  1
  Sc  Sc7  1  0.151198  0.250000  0.720156  1
  Sc  Sc8  1  0.693527  0.567098  0.061627  1
  Sc  Sc9  1  0.193527  0.932902  0.438373  1
  Sc  Sc10  1  0.306473  0.067098  0.938373  1
  Sc  Sc11  1  0.806473  0.432902  0.561627  1
  Sc  Sc12  1  0.306473  0.432902  0.938373  1
  Sc  Sc13  1  0.806473  0.067098  0.561627  1
  Sc  Sc14  1  0.693527  0.932902  0.061627  1
  Sc  Sc15  1  0.193527  0.567098  0.438373  1
  Sc  Sc16  1  0.481033  0.250000  0.488961  1
  Sc  Sc17  1  0.981033  0.250000  0.011039  1
  Sc  Sc18  1  0.518967  0.750000  0.511039  1
  Sc  Sc19  1  0.018967  0.750000  0.988961  1
  Bi  Bi20  1  0.402780  0.750000  0.966624  1
  Bi  Bi21  1  0.902780  0.750000  0.533376  1
  Bi  Bi22  1  0.597220  0.250000  0.033376  1
  Bi  Bi23  1  0.097220  0.250000  0.466624  1
  Bi  Bi24  1  0.563613  0.989644  0.328275  1
  Bi  Bi25  1  0.063613  0.510356  0.171725  1
  Bi  Bi26  1  0.436387  0.489644  0.671725  1
  Bi  Bi27  1  0.936387  0.010356  0.828275  1
  Bi  Bi28  1  0.436387  0.010356  0.671725  1
  Bi  Bi29  1  0.936387  0.489644  0.828275  1
  Bi  Bi30  1  0.563613  0.510356  0.328275  1
  Bi  Bi31  1  0.063613  0.989644  0.171725  1
