# generated using pymatgen
data_Er3Lu5Ta4Ti7Si16W
_symmetry_space_group_name_H-M   'P 1'
_cell_length_a   6.99889920
_cell_length_b   6.99179655
_cell_length_c   12.86581400
_cell_angle_alpha   90.04579207
_cell_angle_beta   90.05478339
_cell_angle_gamma   89.95328733
_symmetry_Int_Tables_number   1
_chemical_formula_structural   Er3Lu5Ta4Ti7Si16W
_chemical_formula_sum   'Er3 Lu5 Ta4 Ti7 Si16 W1'
_cell_volume   629.58635737
_cell_formula_units_Z   1
loop_
 _symmetry_equiv_pos_site_id
 _symmetry_equiv_pos_as_xyz
  1  'x, y, z'
loop_
 _atom_site_type_symbol
 _atom_site_label
 _atom_site_symmetry_multiplicity
 _atom_site_fract_x
 _atom_site_fract_y
 _atom_site_fract_z
 _atom_site_occupancy
  Er  Er0  1  0.657314  0.998614  0.967185  1
  Er  Er1  1  0.001784  0.341294  0.532556  1
  Er  Er2  1  0.999159  0.659386  0.032929  1
  Lu  Lu3  1  0.342051  0.000782  0.466724  1
  Lu  Lu4  1  0.498611  0.840972  0.717606  1
  Lu  Lu5  1  0.499948  0.159470  0.216688  1
  Lu  Lu6  1  0.840862  0.499117  0.282771  1
  Lu  Lu7  1  0.159743  0.500762  0.783121  1
  Ta  Ta8  1  0.172019  0.828631  0.249971  1
  Ta  Ta9  1  0.829203  0.171862  0.750505  1
  Ta  Ta10  1  0.672232  0.672361  0.499884  1
  Ta  Ta11  1  0.152430  0.007882  0.874654  1
  Ti  Ti12  1  0.491100  0.651180  0.123890  1
  Ti  Ti13  1  0.507754  0.349046  0.625090  1
  Ti  Ti14  1  0.651456  0.490962  0.875651  1
  Ti  Ti15  1  0.349261  0.508418  0.375161  1
  Ti  Ti16  1  0.847980  0.992799  0.374459  1
  Ti  Ti17  1  0.007672  0.151729  0.125201  1
  Ti  Ti18  1  0.992912  0.847557  0.625815  1
  Si  Si19  1  0.205884  0.132362  0.681763  1
  Si  Si20  1  0.368702  0.700778  0.932561  1
  Si  Si21  1  0.631889  0.295865  0.432459  1
  Si  Si22  1  0.701179  0.367510  0.067636  1
  Si  Si23  1  0.297059  0.633522  0.567320  1
  Si  Si24  1  0.795879  0.868581  0.183880  1
  Si  Si25  1  0.132385  0.203702  0.317008  1
  Si  Si26  1  0.865350  0.794387  0.816752  1
  Si  Si27  1  0.294044  0.954992  0.065333  1
  Si  Si28  1  0.545880  0.794295  0.314045  1
  Si  Si29  1  0.453774  0.208214  0.814131  1
  Si  Si30  1  0.794591  0.545654  0.685752  1
  Si  Si31  1  0.207299  0.451880  0.185232  1
  Si  Si32  1  0.705879  0.045694  0.564209  1
  Si  Si33  1  0.954081  0.295933  0.936427  1
  Si  Si34  1  0.046032  0.707266  0.435676  1
  W  W35  1  0.326603  0.326537  0.999951  1
