# generated using pymatgen
data_Er8CdHgPdPt
_symmetry_space_group_name_H-M   'P 1'
_cell_length_a   9.58756265
_cell_length_b   9.58756140
_cell_length_c   9.56976600
_cell_angle_alpha   60.06137317
_cell_angle_beta   60.06137748
_cell_angle_gamma   60.13503408
_symmetry_Int_Tables_number   1
_chemical_formula_structural   Er8CdHgPdPt
_chemical_formula_sum   'Er16 Cd2 Hg2 Pd2 Pt2'
_cell_volume   623.22810572
_cell_formula_units_Z   2
loop_
 _symmetry_equiv_pos_site_id
 _symmetry_equiv_pos_as_xyz
  1  'x, y, z'
loop_
 _atom_site_type_symbol
 _atom_site_label
 _atom_site_symmetry_multiplicity
 _atom_site_fract_x
 _atom_site_fract_y
 _atom_site_fract_z
 _atom_site_occupancy
  Er  Er0  1  0.354524  0.354524  0.348415  1
  Er  Er1  1  0.354524  0.354524  0.942537  1
  Er  Er2  1  0.362243  0.927889  0.354934  1
  Er  Er3  1  0.927889  0.362243  0.354934  1
  Er  Er4  1  0.810145  0.189238  0.189321  1
  Er  Er5  1  0.189238  0.810145  0.811295  1
  Er  Er6  1  0.189238  0.810145  0.189321  1
  Er  Er7  1  0.810145  0.189238  0.811295  1
  Er  Er8  1  0.189961  0.189961  0.810039  1
  Er  Er9  1  0.810937  0.810937  0.189063  1
  Er  Er10  1  0.934782  0.565527  0.564522  1
  Er  Er11  1  0.565527  0.934782  0.935169  1
  Er  Er12  1  0.565527  0.934782  0.564522  1
  Er  Er13  1  0.934782  0.565527  0.935169  1
  Er  Er14  1  0.565846  0.565846  0.934154  1
  Er  Er15  1  0.935465  0.935465  0.564535  1
  Cd  Cd16  1  0.578385  0.254024  0.583796  1
  Cd  Cd17  1  0.254024  0.578385  0.583796  1
  Hg  Hg18  1  0.585116  0.585116  0.590700  1
  Hg  Hg19  1  0.585116  0.585116  0.239070  1
  Pd  Pd20  1  0.143728  0.143728  0.149982  1
  Pd  Pd21  1  0.143728  0.143728  0.562561  1
  Pt  Pt22  1  0.140092  0.569036  0.145435  1
  Pt  Pt23  1  0.569036  0.140092  0.145435  1
