# generated using pymatgen
data_TmP4(Ru2Rh)2
_symmetry_space_group_name_H-M   'P 1'
_cell_length_a   6.90012007
_cell_length_b   6.90012013
_cell_length_c   3.75376000
_cell_angle_alpha   90.00000000
_cell_angle_beta   90.00000000
_cell_angle_gamma   119.54292112
_symmetry_Int_Tables_number   1
_chemical_formula_structural   TmP4(Ru2Rh)2
_chemical_formula_sum   'Tm1 P4 Ru4 Rh2'
_cell_volume   155.48637930
_cell_formula_units_Z   1
loop_
 _symmetry_equiv_pos_site_id
 _symmetry_equiv_pos_as_xyz
  1  'x, y, z'
loop_
 _atom_site_type_symbol
 _atom_site_label
 _atom_site_symmetry_multiplicity
 _atom_site_fract_x
 _atom_site_fract_y
 _atom_site_fract_z
 _atom_site_occupancy
  Tm  Tm0  1  0.998399  0.001601  0.000000  1
  P  P1  1  0.189223  0.385043  0.500000  1
  P  P2  1  0.614957  0.810777  0.500000  1
  P  P3  1  0.193856  0.806144  0.500000  1
  P  P4  1  0.670534  0.329466  0.000000  1
  Ru  Ru5  1  0.801697  0.198303  0.500000  1
  Ru  Ru6  1  0.466146  0.932514  0.000000  1
  Ru  Ru7  1  0.067486  0.533854  0.000000  1
  Ru  Ru8  1  0.468797  0.531203  0.000000  1
  Rh  Rh9  1  0.805993  0.610418  0.500000  1
  Rh  Rh10  1  0.389582  0.194007  0.500000  1
