# generated using pymatgen
data_Ba4Sn5Rh9
_symmetry_space_group_name_H-M   'P 1'
_cell_length_a   12.94062962
_cell_length_b   12.94062945
_cell_length_c   12.94063040
_cell_angle_alpha   27.09552336
_cell_angle_beta   27.09552345
_cell_angle_gamma   27.09552750
_symmetry_Int_Tables_number   1
_chemical_formula_structural   Ba4Sn5Rh9
_chemical_formula_sum   'Ba4 Sn5 Rh9'
_cell_volume   396.58690084
_cell_formula_units_Z   1
loop_
 _symmetry_equiv_pos_site_id
 _symmetry_equiv_pos_as_xyz
  1  'x, y, z'
loop_
 _atom_site_type_symbol
 _atom_site_label
 _atom_site_symmetry_multiplicity
 _atom_site_fract_x
 _atom_site_fract_y
 _atom_site_fract_z
 _atom_site_occupancy
  Ba  Ba0  1  0.950511  0.950511  0.950511  1
  Ba  Ba1  1  0.854528  0.854528  0.854528  1
  Ba  Ba2  1  0.145472  0.145472  0.145472  1
  Ba  Ba3  1  0.049489  0.049489  0.049489  1
  Sn  Sn4  1  0.277718  0.277718  0.277718  1
  Sn  Sn5  1  0.500000  0.500000  0.500000  1
  Sn  Sn6  1  0.388479  0.388479  0.388479  1
  Sn  Sn7  1  0.722282  0.722282  0.722282  1
  Sn  Sn8  1  0.611521  0.611521  0.611521  1
  Rh  Rh9  1  0.608027  0.608027  0.111157  1
  Rh  Rh10  1  0.888843  0.391973  0.391973  1
  Rh  Rh11  1  0.500000  0.000000  0.500000  1
  Rh  Rh12  1  0.391973  0.888843  0.391973  1
  Rh  Rh13  1  0.500000  0.500000  0.000000  1
  Rh  Rh14  1  0.111157  0.608027  0.608027  1
  Rh  Rh15  1  0.000000  0.500000  0.500000  1
  Rh  Rh16  1  0.391973  0.391973  0.888843  1
  Rh  Rh17  1  0.608027  0.111157  0.608027  1
