# generated using pymatgen
data_CaDyRu2O7
_symmetry_space_group_name_H-M   'P 1'
_cell_length_a   7.25717878
_cell_length_b   7.28487474
_cell_length_c   7.25717843
_cell_angle_alpha   59.87367239
_cell_angle_beta   59.56719567
_cell_angle_gamma   59.87367325
_symmetry_Int_Tables_number   1
_chemical_formula_structural   CaDyRu2O7
_chemical_formula_sum   'Ca2 Dy2 Ru4 O14'
_cell_volume   269.88299056
_cell_formula_units_Z   2
loop_
 _symmetry_equiv_pos_site_id
 _symmetry_equiv_pos_as_xyz
  1  'x, y, z'
loop_
 _atom_site_type_symbol
 _atom_site_label
 _atom_site_symmetry_multiplicity
 _atom_site_fract_x
 _atom_site_fract_y
 _atom_site_fract_z
 _atom_site_occupancy
  Ca  Ca0  1  0.125000  0.125000  0.625000  1
  Ca  Ca1  1  0.625000  0.125000  0.125000  1
  Dy  Dy2  1  0.125000  0.625000  0.125000  1
  Dy  Dy3  1  0.125000  0.125000  0.125000  1
  Ru  Ru4  1  0.625000  0.625000  0.125000  1
  Ru  Ru5  1  0.625000  0.125000  0.625000  1
  Ru  Ru6  1  0.125000  0.625000  0.625000  1
  Ru  Ru7  1  0.625000  0.625000  0.625000  1
  O  O8  1  0.243853  0.256147  0.243853  1
  O  O9  1  0.006147  0.993853  0.006147  1
  O  O10  1  0.294522  0.705478  0.294522  1
  O  O11  1  0.554764  0.945236  0.554764  1
  O  O12  1  0.297860  0.300063  0.705799  1
  O  O13  1  0.705799  0.300063  0.297860  1
  O  O14  1  0.297860  0.696278  0.705799  1
  O  O15  1  0.705799  0.696278  0.297860  1
  O  O16  1  0.695236  0.304764  0.695236  1
  O  O17  1  0.952140  0.553722  0.544201  1
  O  O18  1  0.544201  0.949937  0.952140  1
  O  O19  1  0.955478  0.544522  0.955478  1
  O  O20  1  0.544201  0.553722  0.952140  1
  O  O21  1  0.952140  0.949937  0.544201  1
