# generated using pymatgen
data_Gd8Tm12Si15Pt
_symmetry_space_group_name_H-M   'P 1'
_cell_length_a   7.35989900
_cell_length_b   7.75712430
_cell_length_c   14.60378200
_cell_angle_alpha   90.00000000
_cell_angle_beta   90.00000000
_cell_angle_gamma   90.14918692
_symmetry_Int_Tables_number   1
_chemical_formula_structural   Gd8Tm12Si15Pt
_chemical_formula_sum   'Gd8 Tm12 Si15 Pt1'
_cell_volume   833.75120396
_cell_formula_units_Z   1
loop_
 _symmetry_equiv_pos_site_id
 _symmetry_equiv_pos_as_xyz
  1  'x, y, z'
loop_
 _atom_site_type_symbol
 _atom_site_label
 _atom_site_symmetry_multiplicity
 _atom_site_fract_x
 _atom_site_fract_y
 _atom_site_fract_z
 _atom_site_occupancy
  Gd  Gd0  1  0.016516  0.182586  0.097517  1
  Gd  Gd1  1  0.985081  0.819247  0.905175  1
  Gd  Gd2  1  0.484138  0.679053  0.904515  1
  Gd  Gd3  1  0.985081  0.819247  0.594825  1
  Gd  Gd4  1  0.516078  0.320567  0.097386  1
  Gd  Gd5  1  0.016516  0.182586  0.402483  1
  Gd  Gd6  1  0.516078  0.320567  0.402614  1
  Gd  Gd7  1  0.484138  0.679053  0.595485  1
  Tm  Tm8  1  0.156056  0.513360  0.750000  1
  Tm  Tm9  1  0.840785  0.488310  0.250000  1
  Tm  Tm10  1  0.341645  0.013670  0.250000  1
  Tm  Tm11  1  0.664586  0.990102  0.750000  1
  Tm  Tm12  1  0.318064  0.174383  0.624502  1
  Tm  Tm13  1  0.676205  0.824931  0.374958  1
  Tm  Tm14  1  0.175846  0.678887  0.375583  1
  Tm  Tm15  1  0.676205  0.824931  0.125042  1
  Tm  Tm16  1  0.828392  0.319652  0.624152  1
  Tm  Tm17  1  0.318064  0.174383  0.875498  1
  Tm  Tm18  1  0.828392  0.319652  0.875848  1
  Tm  Tm19  1  0.175846  0.678887  0.124417  1
  Si  Si20  1  0.972821  0.891198  0.250000  1
  Si  Si21  1  0.471375  0.609465  0.250000  1
  Si  Si22  1  0.528516  0.393323  0.750000  1
  Si  Si23  1  0.280463  0.868943  0.750000  1
  Si  Si24  1  0.720524  0.129160  0.250000  1
  Si  Si25  1  0.220658  0.372879  0.250000  1
  Si  Si26  1  0.770767  0.622450  0.750000  1
  Si  Si27  1  0.154369  0.471369  0.538369  1
  Si  Si28  1  0.846780  0.532660  0.460839  1
  Si  Si29  1  0.349290  0.969425  0.460404  1
  Si  Si30  1  0.846780  0.532660  0.039161  1
  Si  Si31  1  0.651809  0.029839  0.538718  1
  Si  Si32  1  0.154369  0.471369  0.961631  1
  Si  Si33  1  0.651809  0.029839  0.961282  1
  Si  Si34  1  0.349290  0.969425  0.039596  1
  Pt  Pt35  1  0.026668  0.101944  0.750000  1
