# generated using pymatgen
data_Pa4Re7P6
_symmetry_space_group_name_H-M   'P 1'
_cell_length_a   7.15075900
_cell_length_b   7.15075765
_cell_length_c   7.15075900
_cell_angle_alpha   109.47123011
_cell_angle_beta   109.47122631
_cell_angle_gamma   109.47121075
_symmetry_Int_Tables_number   1
_chemical_formula_structural   Pa4Re7P6
_chemical_formula_sum   'Pa4 Re7 P6'
_cell_volume   281.47149717
_cell_formula_units_Z   1
loop_
 _symmetry_equiv_pos_site_id
 _symmetry_equiv_pos_as_xyz
  1  'x, y, z'
loop_
 _atom_site_type_symbol
 _atom_site_label
 _atom_site_symmetry_multiplicity
 _atom_site_fract_x
 _atom_site_fract_y
 _atom_site_fract_z
 _atom_site_occupancy
  Pa  Pa0  1  0.000000  0.000000  0.500000  1
  Pa  Pa1  1  0.500000  0.000000  0.000000  1
  Pa  Pa2  1  0.000000  0.500000  0.000000  1
  Pa  Pa3  1  0.500000  0.500000  0.500000  1
  Re  Re4  1  0.750000  0.500000  0.250000  1
  Re  Re5  1  0.500000  0.750000  0.250000  1
  Re  Re6  1  0.500000  0.250000  0.750000  1
  Re  Re7  1  0.750000  0.250000  0.500000  1
  Re  Re8  1  0.250000  0.750000  0.500000  1
  Re  Re9  1  0.250000  0.500000  0.750000  1
  Re  Re10  1  0.000000  0.000000  0.000000  1
  P  P11  1  0.315322  0.000000  0.315322  1
  P  P12  1  0.000000  0.315322  0.315322  1
  P  P13  1  0.000000  0.684678  0.684678  1
  P  P14  1  0.315322  0.315322  0.000000  1
  P  P15  1  0.684678  0.684678  0.000000  1
  P  P16  1  0.684678  0.000000  0.684678  1
