# generated using pymatgen
data_Tb5Ho(Tm2Sb3)2
_symmetry_space_group_name_H-M   'P 1'
_cell_length_a   8.96451257
_cell_length_b   8.97006461
_cell_length_c   6.26830900
_cell_angle_alpha   90.00000000
_cell_angle_beta   90.00000000
_cell_angle_gamma   120.02048858
_symmetry_Int_Tables_number   1
_chemical_formula_structural   Tb5Ho(Tm2Sb3)2
_chemical_formula_sum   'Tb5 Ho1 Tm4 Sb6'
_cell_volume   436.42897953
_cell_formula_units_Z   1
loop_
 _symmetry_equiv_pos_site_id
 _symmetry_equiv_pos_as_xyz
  1  'x, y, z'
loop_
 _atom_site_type_symbol
 _atom_site_label
 _atom_site_symmetry_multiplicity
 _atom_site_fract_x
 _atom_site_fract_y
 _atom_site_fract_z
 _atom_site_occupancy
  Tb  Tb0  1  0.000000  0.247604  0.250000  1
  Tb  Tb1  1  0.752557  0.752451  0.250000  1
  Tb  Tb2  1  0.752544  0.000025  0.750000  1
  Tb  Tb3  1  0.247456  0.247481  0.750000  1
  Tb  Tb4  1  0.247443  0.999894  0.250000  1
  Ho  Ho5  1  0.000000  0.752492  0.750000  1
  Tm  Tm6  1  0.333364  0.666694  0.499959  1
  Tm  Tm7  1  0.666636  0.333329  0.000041  1
  Tm  Tm8  1  0.666636  0.333329  0.499959  1
  Tm  Tm9  1  0.333364  0.666694  0.000041  1
  Sb  Sb10  1  0.389807  0.999685  0.750000  1
  Sb  Sb11  1  0.390155  0.390166  0.250000  1
  Sb  Sb12  1  0.000000  0.609875  0.250000  1
  Sb  Sb13  1  0.000000  0.390393  0.750000  1
  Sb  Sb14  1  0.610193  0.609878  0.750000  1
  Sb  Sb15  1  0.609845  0.000011  0.250000  1
