# generated using pymatgen
data_Dy8Y4Co4BiRh
_symmetry_space_group_name_H-M   'P 1'
_cell_length_a   8.34297491
_cell_length_b   8.34297390
_cell_length_c   8.34297542
_cell_angle_alpha   110.85820005
_cell_angle_beta   110.58615913
_cell_angle_gamma   106.99739151
_symmetry_Int_Tables_number   1
_chemical_formula_structural   Dy8Y4Co4BiRh
_chemical_formula_sum   'Dy8 Y4 Co4 Bi1 Rh1'
_cell_volume   446.41006266
_cell_formula_units_Z   1
loop_
 _symmetry_equiv_pos_site_id
 _symmetry_equiv_pos_as_xyz
  1  'x, y, z'
loop_
 _atom_site_type_symbol
 _atom_site_label
 _atom_site_symmetry_multiplicity
 _atom_site_fract_x
 _atom_site_fract_y
 _atom_site_fract_z
 _atom_site_occupancy
  Dy  Dy0  1  0.688207  0.379096  0.690888  1
  Dy  Dy1  1  0.311793  0.620904  0.309112  1
  Dy  Dy2  1  0.688207  0.997318  0.309112  1
  Dy  Dy3  1  0.311793  0.002682  0.690888  1
  Dy  Dy4  1  0.594447  0.791474  0.802972  1
  Dy  Dy5  1  0.405553  0.208526  0.197028  1
  Dy  Dy6  1  0.988503  0.791474  0.197027  1
  Dy  Dy7  1  0.011497  0.208526  0.802973  1
  Y  Y8  1  0.815310  0.710166  0.525477  1
  Y  Y9  1  0.184690  0.289834  0.474523  1
  Y  Y10  1  0.184689  0.710166  0.894855  1
  Y  Y11  1  0.815311  0.289834  0.105145  1
  Co  Co12  1  0.622462  0.000000  0.622462  1
  Co  Co13  1  0.377538  0.000000  0.377538  1
  Co  Co14  1  0.111493  0.611492  0.499999  1
  Co  Co15  1  0.888507  0.388508  0.500001  1
  Bi  Bi16  1  0.500000  0.500000  0.000000  1
  Rh  Rh17  1  0.000000  0.000000  0.000000  1
