# generated using pymatgen
data_Er4Ga6CuPt
_symmetry_space_group_name_H-M   'P 1'
_cell_length_a   6.99464600
_cell_length_b   8.80291473
_cell_length_c   8.80291500
_cell_angle_alpha   119.99999724
_cell_angle_beta   90.00000000
_cell_angle_gamma   90.00000000
_symmetry_Int_Tables_number   1
_chemical_formula_structural   Er4Ga6CuPt
_chemical_formula_sum   'Er8 Ga12 Cu2 Pt2'
_cell_volume   469.40681133
_cell_formula_units_Z   2
loop_
 _symmetry_equiv_pos_site_id
 _symmetry_equiv_pos_as_xyz
  1  'x, y, z'
loop_
 _atom_site_type_symbol
 _atom_site_label
 _atom_site_symmetry_multiplicity
 _atom_site_fract_x
 _atom_site_fract_y
 _atom_site_fract_z
 _atom_site_occupancy
  Er  Er0  1  0.748358  0.000000  0.000000  1
  Er  Er1  1  0.251642  0.000000  0.000000  1
  Er  Er2  1  0.747776  0.483102  0.516898  1
  Er  Er3  1  0.252224  0.516898  0.483102  1
  Er  Er4  1  0.747776  0.033796  0.516898  1
  Er  Er5  1  0.252224  0.966204  0.483102  1
  Er  Er6  1  0.747776  0.483102  0.966204  1
  Er  Er7  1  0.252224  0.516898  0.033796  1
  Ga  Ga8  1  0.962390  0.831090  0.168910  1
  Ga  Ga9  1  0.037610  0.168910  0.831090  1
  Ga  Ga10  1  0.962390  0.337820  0.168910  1
  Ga  Ga11  1  0.458417  0.166966  0.833034  1
  Ga  Ga12  1  0.037610  0.662180  0.831090  1
  Ga  Ga13  1  0.541583  0.833034  0.166966  1
  Ga  Ga14  1  0.962390  0.831090  0.662180  1
  Ga  Ga15  1  0.458417  0.666069  0.833034  1
  Ga  Ga16  1  0.037610  0.168910  0.337820  1
  Ga  Ga17  1  0.541583  0.333931  0.166966  1
  Ga  Ga18  1  0.458417  0.166966  0.333931  1
  Ga  Ga19  1  0.541583  0.833034  0.666069  1
  Cu  Cu20  1  0.948586  0.666667  0.333333  1
  Cu  Cu21  1  0.051414  0.333333  0.666667  1
  Pt  Pt22  1  0.478303  0.333333  0.666667  1
  Pt  Pt23  1  0.521697  0.666667  0.333333  1
