# generated using pymatgen
data_Er3Mg3Hg2Pt
_symmetry_space_group_name_H-M   'P 1'
_cell_length_a   7.94199200
_cell_length_b   7.94199165
_cell_length_c   3.82350500
_cell_angle_alpha   90.00000000
_cell_angle_beta   90.00000000
_cell_angle_gamma   119.99999313
_symmetry_Int_Tables_number   1
_chemical_formula_structural   Er3Mg3Hg2Pt
_chemical_formula_sum   'Er3 Mg3 Hg2 Pt1'
_cell_volume   208.85803874
_cell_formula_units_Z   1
loop_
 _symmetry_equiv_pos_site_id
 _symmetry_equiv_pos_as_xyz
  1  'x, y, z'
loop_
 _atom_site_type_symbol
 _atom_site_label
 _atom_site_symmetry_multiplicity
 _atom_site_fract_x
 _atom_site_fract_y
 _atom_site_fract_z
 _atom_site_occupancy
  Er  Er0  1  0.426079  0.393652  0.500000  1
  Er  Er1  1  0.606348  0.032427  0.500000  1
  Er  Er2  1  0.967573  0.573921  0.500000  1
  Mg  Mg3  1  0.732375  0.736279  0.000000  1
  Mg  Mg4  1  0.263721  0.996096  0.000000  1
  Mg  Mg5  1  0.003904  0.267625  0.000000  1
  Hg  Hg6  1  0.333333  0.666667  0.000000  1
  Hg  Hg7  1  0.000000  0.000000  0.500000  1
  Pt  Pt8  1  0.666667  0.333333  0.000000  1
