# generated using pymatgen
data_TbDy12Er7Sn16
_symmetry_space_group_name_H-M   'P 1'
_cell_length_a   8.01177379
_cell_length_b   8.15452500
_cell_length_c   15.41745087
_cell_angle_alpha   90.00098882
_cell_angle_beta   90.02365498
_cell_angle_gamma   90.01502292
_symmetry_Int_Tables_number   1
_chemical_formula_structural   TbDy12Er7Sn16
_chemical_formula_sum   'Tb1 Dy12 Er7 Sn16'
_cell_volume   1007.25601140
_cell_formula_units_Z   1
loop_
 _symmetry_equiv_pos_site_id
 _symmetry_equiv_pos_as_xyz
  1  'x, y, z'
loop_
 _atom_site_type_symbol
 _atom_site_label
 _atom_site_symmetry_multiplicity
 _atom_site_fract_x
 _atom_site_fract_y
 _atom_site_fract_z
 _atom_site_occupancy
  Tb  Tb0  1  0.019080  0.178501  0.902425  1
  Dy  Dy1  1  0.134178  0.337151  0.121959  1
  Dy  Dy2  1  0.633487  0.163095  0.122569  1
  Dy  Dy3  1  0.133505  0.336987  0.377945  1
  Dy  Dy4  1  0.366650  0.837116  0.622424  1
  Dy  Dy5  1  0.866804  0.662671  0.877785  1
  Dy  Dy6  1  0.519441  0.320614  0.902824  1
  Dy  Dy7  1  0.019569  0.179392  0.597169  1
  Dy  Dy8  1  0.480774  0.679597  0.403302  1
  Dy  Dy9  1  0.980039  0.820695  0.097143  1
  Dy  Dy10  1  0.480951  0.679600  0.096770  1
  Dy  Dy11  1  0.981443  0.820663  0.403563  1
  Dy  Dy12  1  0.518727  0.321124  0.596797  1
  Er  Er13  1  0.365788  0.837695  0.876371  1
  Er  Er14  1  0.865099  0.662450  0.622897  1
  Er  Er15  1  0.634640  0.162470  0.377538  1
  Er  Er16  1  0.197515  0.503339  0.750238  1
  Er  Er17  1  0.697626  0.996802  0.749452  1
  Er  Er18  1  0.802340  0.496884  0.250782  1
  Er  Er19  1  0.302803  0.003085  0.249763  1
  Sn  Sn20  1  0.294287  0.035990  0.040960  1
  Sn  Sn21  1  0.793059  0.461984  0.459104  1
  Sn  Sn22  1  0.707175  0.962019  0.541427  1
  Sn  Sn23  1  0.207657  0.538635  0.957736  1
  Sn  Sn24  1  0.703110  0.962307  0.957656  1
  Sn  Sn25  1  0.203208  0.537925  0.542536  1
  Sn  Sn26  1  0.296503  0.037668  0.457859  1
  Sn  Sn27  1  0.794096  0.463165  0.042347  1
  Sn  Sn28  1  0.563484  0.618525  0.749870  1
  Sn  Sn29  1  0.063194  0.881122  0.749798  1
  Sn  Sn30  1  0.436938  0.381443  0.250421  1
  Sn  Sn31  1  0.936487  0.117945  0.250446  1
  Sn  Sn32  1  0.329034  0.148875  0.749891  1
  Sn  Sn33  1  0.828792  0.351904  0.749627  1
  Sn  Sn34  1  0.671174  0.851766  0.250433  1
  Sn  Sn35  1  0.171344  0.648798  0.250177  1
