# generated using pymatgen
data_EuMnFeB6
_symmetry_space_group_name_H-M   'P 1'
_cell_length_a   5.44863289
_cell_length_b   5.44851935
_cell_length_c   5.44850546
_cell_angle_alpha   146.88801787
_cell_angle_beta   108.25493157
_cell_angle_gamma   81.32326277
_symmetry_Int_Tables_number   1
_chemical_formula_structural   EuMnFeB6
_chemical_formula_sum   'Eu1 Mn1 Fe1 B6'
_cell_volume   81.95157940
_cell_formula_units_Z   1
loop_
 _symmetry_equiv_pos_site_id
 _symmetry_equiv_pos_as_xyz
  1  'x, y, z'
loop_
 _atom_site_type_symbol
 _atom_site_label
 _atom_site_symmetry_multiplicity
 _atom_site_fract_x
 _atom_site_fract_y
 _atom_site_fract_z
 _atom_site_occupancy
  Eu  Eu0  1  0.999294  0.999292  0.999997  1
  Mn  Mn1  1  0.656590  0.156590  0.500005  1
  Fe  Fe2  1  0.344316  0.844314  0.499996  1
  B  B3  1  0.638483  0.499937  0.138547  1
  B  B4  1  0.539408  0.303148  0.236261  1
  B  B5  1  0.932466  0.696818  0.235652  1
  B  B6  1  0.066888  0.303149  0.763742  1
  B  B7  1  0.461164  0.696816  0.764350  1
  B  B8  1  0.361390  0.499937  0.861454  1
