# generated using pymatgen
data_Eu3(ZnNi)4
_symmetry_space_group_name_H-M   'P 1'
_cell_length_a   6.47741892
_cell_length_b   6.47741974
_cell_length_c   6.47741900
_cell_angle_alpha   109.47122146
_cell_angle_beta   109.47122400
_cell_angle_gamma   109.47121915
_symmetry_Int_Tables_number   1
_chemical_formula_structural   Eu3(ZnNi)4
_chemical_formula_sum   'Eu3 Zn4 Ni4'
_cell_volume   209.21080541
_cell_formula_units_Z   1
loop_
 _symmetry_equiv_pos_site_id
 _symmetry_equiv_pos_as_xyz
  1  'x, y, z'
loop_
 _atom_site_type_symbol
 _atom_site_label
 _atom_site_symmetry_multiplicity
 _atom_site_fract_x
 _atom_site_fract_y
 _atom_site_fract_z
 _atom_site_occupancy
  Eu  Eu0  1  0.500000  0.000000  0.500000  1
  Eu  Eu1  1  0.000000  0.500000  0.500000  1
  Eu  Eu2  1  0.500000  0.500000  0.000000  1
  Zn  Zn3  1  0.000000  0.000000  0.598265  1
  Zn  Zn4  1  0.401735  0.401735  0.401735  1
  Zn  Zn5  1  0.000000  0.598265  0.000000  1
  Zn  Zn6  1  0.598265  0.000000  0.000000  1
  Ni  Ni7  1  0.000000  0.000000  0.231702  1
  Ni  Ni8  1  0.768298  0.768298  0.768298  1
  Ni  Ni9  1  0.231702  0.000000  0.000000  1
  Ni  Ni10  1  0.000000  0.231702  0.000000  1
