# generated using pymatgen
data_NdTh3(InNi2)2
_symmetry_space_group_name_H-M   'P 1'
_cell_length_a   7.66277028
_cell_length_b   7.66277028
_cell_length_c   3.70316500
_cell_angle_alpha   90.00000000
_cell_angle_beta   90.00000000
_cell_angle_gamma   91.16393010
_symmetry_Int_Tables_number   1
_chemical_formula_structural   NdTh3(InNi2)2
_chemical_formula_sum   'Nd1 Th3 In2 Ni4'
_cell_volume   217.39775629
_cell_formula_units_Z   1
loop_
 _symmetry_equiv_pos_site_id
 _symmetry_equiv_pos_as_xyz
  1  'x, y, z'
loop_
 _atom_site_type_symbol
 _atom_site_label
 _atom_site_symmetry_multiplicity
 _atom_site_fract_x
 _atom_site_fract_y
 _atom_site_fract_z
 _atom_site_occupancy
  Nd  Nd0  1  0.826326  0.673674  0.500000  1
  Th  Th1  1  0.673899  0.171533  0.500000  1
  Th  Th2  1  0.328467  0.826101  0.500000  1
  Th  Th3  1  0.171051  0.328949  0.500000  1
  In  In4  1  0.502632  0.501145  0.000000  1
  In  In5  1  0.998855  0.997368  0.000000  1
  Ni  Ni6  1  0.135310  0.619422  0.000000  1
  Ni  Ni7  1  0.880578  0.364690  0.000000  1
  Ni  Ni8  1  0.612595  0.887405  0.000000  1
  Ni  Ni9  1  0.370287  0.129713  0.000000  1
