# generated using pymatgen
data_Rb2Hf11ZrMnCI28
_symmetry_space_group_name_H-M   'P 1'
_cell_length_a   11.00119601
_cell_length_b   11.00571219
_cell_length_c   13.06245100
_cell_angle_alpha   90.06435663
_cell_angle_beta   90.04892007
_cell_angle_gamma   93.45154474
_symmetry_Int_Tables_number   1
_chemical_formula_structural   Rb2Hf11ZrMnCI28
_chemical_formula_sum   'Rb2 Hf11 Zr1 Mn1 C1 I28'
_cell_volume   1578.67879146
_cell_formula_units_Z   1
loop_
 _symmetry_equiv_pos_site_id
 _symmetry_equiv_pos_as_xyz
  1  'x, y, z'
loop_
 _atom_site_type_symbol
 _atom_site_label
 _atom_site_symmetry_multiplicity
 _atom_site_fract_x
 _atom_site_fract_y
 _atom_site_fract_z
 _atom_site_occupancy
  Rb  Rb0  1  0.498916  0.499434  0.000275  1
  Rb  Rb1  1  0.000363  0.999440  0.498872  1
  Hf  Hf2  1  0.376141  0.376450  0.407376  1
  Hf  Hf3  1  0.623502  0.623248  0.592475  1
  Hf  Hf4  1  0.133016  0.133459  0.899945  1
  Hf  Hf5  1  0.866463  0.866981  0.099727  1
  Hf  Hf6  1  0.952950  0.172797  0.112274  1
  Hf  Hf7  1  0.046966  0.827405  0.887749  1
  Hf  Hf8  1  0.543001  0.339759  0.604401  1
  Hf  Hf9  1  0.660323  0.456656  0.395243  1
  Hf  Hf10  1  0.456973  0.660889  0.395128  1
  Hf  Hf11  1  0.339491  0.543233  0.604527  1
  Hf  Hf12  1  0.828635  0.046457  0.888610  1
  Zr  Zr13  1  0.174382  0.953093  0.113428  1
  Mn  Mn14  1  0.001001  0.999901  0.000902  1
  C  C15  1  0.499768  0.500160  0.499681  1
  I  I16  1  0.108955  0.361017  0.007773  1
  I  I17  1  0.890693  0.639316  0.992201  1
  I  I18  1  0.394175  0.147204  0.507140  1
  I  I19  1  0.852860  0.605299  0.493061  1
  I  I20  1  0.606423  0.852686  0.493412  1
  I  I21  1  0.146958  0.394373  0.507160  1
  I  I22  1  0.638923  0.890766  0.992274  1
  I  I23  1  0.361480  0.111946  0.005958  1
  I  I24  1  0.746034  0.253928  0.999838  1
  I  I25  1  0.253919  0.744568  0.998617  1
  I  I26  1  0.747988  0.251898  0.500031  1
  I  I27  1  0.252064  0.748206  0.500055  1
  I  I28  1  0.890694  0.395200  0.251444  1
  I  I29  1  0.107532  0.605237  0.747370  1
  I  I30  1  0.606040  0.107690  0.748271  1
  I  I31  1  0.397708  0.890030  0.253463  1
  I  I32  1  0.150665  0.154073  0.264231  1
  I  I33  1  0.848566  0.848352  0.736857  1
  I  I34  1  0.352913  0.353071  0.757629  1
  I  I35  1  0.647226  0.646636  0.242136  1
  I  I36  1  0.289761  0.534978  0.253957  1
  I  I37  1  0.709889  0.465016  0.746111  1
  I  I38  1  0.214261  0.964341  0.748028  1
  I  I39  1  0.032942  0.784970  0.252691  1
  I  I40  1  0.785509  0.035999  0.251888  1
  I  I41  1  0.964290  0.214158  0.747870  1
  I  I42  1  0.465259  0.709922  0.746070  1
  I  I43  1  0.534379  0.289759  0.253853  1
