# generated using pymatgen
data_YbDy2Er5(B6Ru)4
_symmetry_space_group_name_H-M   'P 1'
_cell_length_a   3.64201900
_cell_length_b   9.10885963
_cell_length_c   11.49377100
_cell_angle_alpha   89.91773814
_cell_angle_beta   90.00000000
_cell_angle_gamma   90.00000000
_symmetry_Int_Tables_number   1
_chemical_formula_structural   YbDy2Er5(B6Ru)4
_chemical_formula_sum   'Yb1 Dy2 Er5 B24 Ru4'
_cell_volume   381.30132020
_cell_formula_units_Z   1
loop_
 _symmetry_equiv_pos_site_id
 _symmetry_equiv_pos_as_xyz
  1  'x, y, z'
loop_
 _atom_site_type_symbol
 _atom_site_label
 _atom_site_symmetry_multiplicity
 _atom_site_fract_x
 _atom_site_fract_y
 _atom_site_fract_z
 _atom_site_occupancy
  Yb  Yb0  1  0.000000  0.323131  0.413809  1
  Dy  Dy1  1  0.000000  0.676168  0.584989  1
  Dy  Dy2  1  0.000000  0.822262  0.086266  1
  Er  Er3  1  0.000000  0.178373  0.914700  1
  Er  Er4  1  0.000000  0.943956  0.371263  1
  Er  Er5  1  0.000000  0.058226  0.627977  1
  Er  Er6  1  0.000000  0.442498  0.129537  1
  Er  Er7  1  0.000000  0.556395  0.872119  1
  B  B8  1  0.500000  0.553856  0.432519  1
  B  B9  1  0.500000  0.445752  0.567460  1
  B  B10  1  0.500000  0.053493  0.066378  1
  B  B11  1  0.500000  0.946208  0.932461  1
  B  B12  1  0.500000  0.748508  0.419030  1
  B  B13  1  0.500000  0.252040  0.581067  1
  B  B14  1  0.500000  0.247743  0.080322  1
  B  B15  1  0.500000  0.751604  0.919357  1
  B  B16  1  0.500000  0.791153  0.265980  1
  B  B17  1  0.500000  0.209694  0.734568  1
  B  B18  1  0.500000  0.289757  0.233717  1
  B  B19  1  0.500000  0.709479  0.766174  1
  B  B20  1  0.500000  0.631200  0.185728  1
  B  B21  1  0.500000  0.368878  0.815545  1
  B  B22  1  0.500000  0.130698  0.314160  1
  B  B23  1  0.500000  0.869273  0.685028  1
  B  B24  1  0.500000  0.982976  0.211881  1
  B  B25  1  0.500000  0.017435  0.787321  1
  B  B26  1  0.500000  0.483241  0.287706  1
  B  B27  1  0.500000  0.516743  0.712883  1
  B  B28  1  0.500000  0.606564  0.029699  1
  B  B29  1  0.500000  0.393007  0.970825  1
  B  B30  1  0.500000  0.103554  0.471283  1
  B  B31  1  0.500000  0.895613  0.528833  1
  Ru  Ru32  1  0.000000  0.639229  0.320205  1
  Ru  Ru33  1  0.000000  0.361885  0.680643  1
  Ru  Ru34  1  0.000000  0.136781  0.177628  1
  Ru  Ru35  1  0.000000  0.862625  0.820939  1
