# generated using pymatgen
data_Hf2ScMoAs3Ru2
_symmetry_space_group_name_H-M   'P 1'
_cell_length_a   7.73334712
_cell_length_b   7.73334860
_cell_length_c   7.73334742
_cell_angle_alpha   126.77970040
_cell_angle_beta   123.00359456
_cell_angle_gamma   81.75353444
_symmetry_Int_Tables_number   1
_chemical_formula_structural   Hf2ScMoAs3Ru2
_chemical_formula_sum   'Hf4 Sc2 Mo2 As6 Ru4'
_cell_volume   298.94308765
_cell_formula_units_Z   2
loop_
 _symmetry_equiv_pos_site_id
 _symmetry_equiv_pos_as_xyz
  1  'x, y, z'
loop_
 _atom_site_type_symbol
 _atom_site_label
 _atom_site_symmetry_multiplicity
 _atom_site_fract_x
 _atom_site_fract_y
 _atom_site_fract_z
 _atom_site_occupancy
  Hf  Hf0  1  0.750059  0.837592  0.587532  1
  Hf  Hf1  1  0.249941  0.837474  0.087532  1
  Hf  Hf2  1  0.055899  0.263398  0.707499  1
  Hf  Hf3  1  0.944101  0.651600  0.207499  1
  Sc  Sc4  1  0.466336  0.695979  0.729643  1
  Sc  Sc5  1  0.533664  0.263307  0.229643  1
  Mo  Mo6  1  0.500000  0.497195  0.997195  1
  Mo  Mo7  1  0.000000  0.497195  0.497195  1
  As  As8  1  0.281541  0.266349  0.484809  1
  As  As9  1  0.718459  0.203269  0.984809  1
  As  As10  1  0.329236  0.588992  0.255125  1
  As  As11  1  0.670764  0.925888  0.259756  1
  As  As12  1  0.166132  0.925888  0.755125  1
  As  As13  1  0.833868  0.588992  0.759756  1
  Ru  Ru14  1  0.088392  0.253133  0.093500  1
  Ru  Ru15  1  0.911608  0.005108  0.164741  1
  Ru  Ru16  1  0.340367  0.005108  0.593500  1
  Ru  Ru17  1  0.659633  0.253133  0.664741  1
