# generated using pymatgen
data_Na16SnGeP8
_symmetry_space_group_name_H-M   'P 1'
_cell_length_a   9.62826021
_cell_length_b   9.62825991
_cell_length_c   9.62826000
_cell_angle_alpha   59.99999970
_cell_angle_beta   60.00000073
_cell_angle_gamma   59.99999549
_symmetry_Int_Tables_number   1
_chemical_formula_structural   Na16SnGeP8
_chemical_formula_sum   'Na16 Sn1 Ge1 P8'
_cell_volume   631.14394873
_cell_formula_units_Z   1
loop_
 _symmetry_equiv_pos_site_id
 _symmetry_equiv_pos_as_xyz
  1  'x, y, z'
loop_
 _atom_site_type_symbol
 _atom_site_label
 _atom_site_symmetry_multiplicity
 _atom_site_fract_x
 _atom_site_fract_y
 _atom_site_fract_z
 _atom_site_occupancy
  Na  Na0  1  0.628056  0.628056  0.115830  1
  Na  Na1  1  0.628056  0.115830  0.628056  1
  Na  Na2  1  0.115830  0.628056  0.628056  1
  Na  Na3  1  0.628056  0.628056  0.628056  1
  Na  Na4  1  0.028736  0.471264  0.471264  1
  Na  Na5  1  0.773058  0.226942  0.226942  1
  Na  Na6  1  0.471264  0.028736  0.471264  1
  Na  Na7  1  0.471264  0.471264  0.028736  1
  Na  Na8  1  0.028736  0.028736  0.471264  1
  Na  Na9  1  0.028736  0.471264  0.028736  1
  Na  Na10  1  0.471264  0.028736  0.028736  1
  Na  Na11  1  0.773058  0.226942  0.773058  1
  Na  Na12  1  0.226942  0.773058  0.226942  1
  Na  Na13  1  0.226942  0.226942  0.773058  1
  Na  Na14  1  0.773058  0.773058  0.226942  1
  Na  Na15  1  0.226942  0.773058  0.773058  1
  Sn  Sn16  1  0.500000  0.500000  0.500000  1
  Ge  Ge17  1  0.750000  0.750000  0.750000  1
  P  P18  1  0.853130  0.853130  0.440611  1
  P  P19  1  0.853130  0.440611  0.853130  1
  P  P20  1  0.390847  0.390847  0.827458  1
  P  P21  1  0.390847  0.827458  0.390847  1
  P  P22  1  0.827458  0.390847  0.390847  1
  P  P23  1  0.853130  0.853130  0.853130  1
  P  P24  1  0.440611  0.853130  0.853130  1
  P  P25  1  0.390847  0.390847  0.390847  1
