# generated using pymatgen
data_Sc12Si16Ni5Rh3
_symmetry_space_group_name_H-M   'P 1'
_cell_length_a   4.00765800
_cell_length_b   11.71879260
_cell_length_c   12.28275350
_cell_angle_alpha   89.88978063
_cell_angle_beta   90.00000000
_cell_angle_gamma   90.00000000
_symmetry_Int_Tables_number   1
_chemical_formula_structural   Sc12Si16Ni5Rh3
_chemical_formula_sum   'Sc12 Si16 Ni5 Rh3'
_cell_volume   576.85738096
_cell_formula_units_Z   1
loop_
 _symmetry_equiv_pos_site_id
 _symmetry_equiv_pos_as_xyz
  1  'x, y, z'
loop_
 _atom_site_type_symbol
 _atom_site_label
 _atom_site_symmetry_multiplicity
 _atom_site_fract_x
 _atom_site_fract_y
 _atom_site_fract_z
 _atom_site_occupancy
  Sc  Sc0  1  0.750000  0.979767  0.814774  1
  Sc  Sc1  1  0.250000  0.019852  0.179026  1
  Sc  Sc2  1  0.750000  0.479582  0.678932  1
  Sc  Sc3  1  0.250000  0.520282  0.320593  1
  Sc  Sc4  1  0.750000  0.753101  0.650874  1
  Sc  Sc5  1  0.250000  0.243235  0.350493  1
  Sc  Sc6  1  0.750000  0.253830  0.847038  1
  Sc  Sc7  1  0.250000  0.745378  0.150957  1
  Sc  Sc8  1  0.750000  0.695362  0.914986  1
  Sc  Sc9  1  0.250000  0.304091  0.084168  1
  Sc  Sc10  1  0.750000  0.197387  0.582831  1
  Sc  Sc11  1  0.250000  0.811851  0.418814  1
  Si  Si12  1  0.750000  0.940543  0.537717  1
  Si  Si13  1  0.250000  0.060359  0.478530  1
  Si  Si14  1  0.750000  0.436181  0.973518  1
  Si  Si15  1  0.250000  0.563017  0.025981  1
  Si  Si16  1  0.750000  0.894689  0.060370  1
  Si  Si17  1  0.250000  0.104063  0.936486  1
  Si  Si18  1  0.750000  0.393907  0.437737  1
  Si  Si19  1  0.250000  0.608181  0.561000  1
  Si  Si20  1  0.750000  0.878330  0.260811  1
  Si  Si21  1  0.250000  0.120335  0.734875  1
  Si  Si22  1  0.750000  0.376904  0.239521  1
  Si  Si23  1  0.250000  0.622572  0.759824  1
  Si  Si24  1  0.750000  0.677278  0.301823  1
  Si  Si25  1  0.250000  0.323744  0.698426  1
  Si  Si26  1  0.750000  0.174532  0.200905  1
  Si  Si27  1  0.250000  0.825074  0.796984  1
  Ni  Ni28  1  0.250000  0.948253  0.638456  1
  Ni  Ni29  1  0.750000  0.595206  0.472792  1
  Ni  Ni30  1  0.250000  0.405601  0.526708  1
  Ni  Ni31  1  0.750000  0.096064  0.026727  1
  Ni  Ni32  1  0.250000  0.902452  0.970100  1
  Rh  Rh33  1  0.750000  0.551390  0.136688  1
  Rh  Rh34  1  0.250000  0.448456  0.863037  1
  Rh  Rh35  1  0.750000  0.049151  0.367500  1
