# generated using pymatgen
data_ZrBe8Tc3
_symmetry_space_group_name_H-M   'P 1'
_cell_length_a   4.45141000
_cell_length_b   4.45141058
_cell_length_c   7.40254400
_cell_angle_alpha   89.99998695
_cell_angle_beta   90.00000731
_cell_angle_gamma   119.99999091
_symmetry_Int_Tables_number   1
_chemical_formula_structural   ZrBe8Tc3
_chemical_formula_sum   'Zr1 Be8 Tc3'
_cell_volume   127.03018190
_cell_formula_units_Z   1
loop_
 _symmetry_equiv_pos_site_id
 _symmetry_equiv_pos_as_xyz
  1  'x, y, z'
loop_
 _atom_site_type_symbol
 _atom_site_label
 _atom_site_symmetry_multiplicity
 _atom_site_fract_x
 _atom_site_fract_y
 _atom_site_fract_z
 _atom_site_occupancy
  Zr  Zr0  1  0.666666  0.333334  0.563205  1
  Be  Be1  1  0.000000  0.000000  0.493174  1
  Be  Be2  1  0.000000  0.000000  0.003293  1
  Be  Be3  1  0.168861  0.337723  0.764763  1
  Be  Be4  1  0.168860  0.831140  0.764761  1
  Be  Be5  1  0.662277  0.831139  0.764762  1
  Be  Be6  1  0.831948  0.663898  0.240317  1
  Be  Be7  1  0.831950  0.168050  0.240320  1
  Be  Be8  1  0.336102  0.168051  0.240318  1
  Tc  Tc9  1  0.333333  0.666668  0.418716  1
  Tc  Tc10  1  0.333332  0.666668  0.064473  1
  Tc  Tc11  1  0.666668  0.333331  0.941897  1
