# generated using pymatgen
data_CaY7(Si4Mo3)4
_symmetry_space_group_name_H-M   'P 1'
_cell_length_a   6.77440974
_cell_length_b   6.96428531
_cell_length_c   12.94274065
_cell_angle_alpha   90.03743682
_cell_angle_beta   89.99085315
_cell_angle_gamma   90.07695967
_symmetry_Int_Tables_number   1
_chemical_formula_structural   CaY7(Si4Mo3)4
_chemical_formula_sum   'Ca1 Y7 Si16 Mo12'
_cell_volume   610.62386623
_cell_formula_units_Z   1
loop_
 _symmetry_equiv_pos_site_id
 _symmetry_equiv_pos_as_xyz
  1  'x, y, z'
loop_
 _atom_site_type_symbol
 _atom_site_label
 _atom_site_symmetry_multiplicity
 _atom_site_fract_x
 _atom_site_fract_y
 _atom_site_fract_z
 _atom_site_occupancy
  Ca  Ca0  1  0.997093  0.166419  0.092201  1
  Y  Y1  1  0.498486  0.332087  0.094464  1
  Y  Y2  1  0.998146  0.167701  0.405623  1
  Y  Y3  1  0.502926  0.667314  0.594080  1
  Y  Y4  1  0.002151  0.833786  0.907026  1
  Y  Y5  1  0.502305  0.667219  0.906388  1
  Y  Y6  1  0.002569  0.832781  0.594233  1
  Y  Y7  1  0.497636  0.332649  0.405285  1
  Si  Si8  1  0.659610  0.043057  0.546800  1
  Si  Si9  1  0.158286  0.456967  0.952611  1
  Si  Si10  1  0.340997  0.958086  0.047553  1
  Si  Si11  1  0.840785  0.542992  0.452981  1
  Si  Si12  1  0.340385  0.956904  0.452929  1
  Si  Si13  1  0.841925  0.541177  0.047799  1
  Si  Si14  1  0.657951  0.043049  0.952997  1
  Si  Si15  1  0.159315  0.456917  0.546832  1
  Si  Si16  1  0.534398  0.365044  0.750149  1
  Si  Si17  1  0.034486  0.135416  0.750590  1
  Si  Si18  1  0.465392  0.634403  0.250188  1
  Si  Si19  1  0.965537  0.866031  0.249794  1
  Si  Si20  1  0.803791  0.628728  0.750395  1
  Si  Si21  1  0.303014  0.871467  0.750151  1
  Si  Si22  1  0.195334  0.370758  0.248862  1
  Si  Si23  1  0.698288  0.127845  0.248889  1
  Mo  Mo24  1  0.829887  0.335698  0.625351  1
  Mo  Mo25  1  0.331015  0.164133  0.874292  1
  Mo  Mo26  1  0.169916  0.666486  0.126127  1
  Mo  Mo27  1  0.669384  0.835814  0.374204  1
  Mo  Mo28  1  0.169892  0.663909  0.374993  1
  Mo  Mo29  1  0.668789  0.832823  0.125324  1
  Mo  Mo30  1  0.829141  0.336537  0.873808  1
  Mo  Mo31  1  0.330492  0.164534  0.625409  1
  Mo  Mo32  1  0.665669  0.000187  0.749797  1
  Mo  Mo33  1  0.166100  0.499936  0.750029  1
  Mo  Mo34  1  0.334953  0.998783  0.250866  1
  Mo  Mo35  1  0.833954  0.502359  0.250981  1
