# generated using pymatgen
data_Os2Cl7F3
_symmetry_space_group_name_H-M   'P 1'
_cell_length_a   10.19784149
_cell_length_b   10.19784093
_cell_length_c   13.20181618
_cell_angle_alpha   49.68634766
_cell_angle_beta   49.68635126
_cell_angle_gamma   46.36770338
_symmetry_Int_Tables_number   1
_chemical_formula_structural   Os2Cl7F3
_chemical_formula_sum   'Os4 Cl14 F6'
_cell_volume   705.92166615
_cell_formula_units_Z   2
loop_
 _symmetry_equiv_pos_site_id
 _symmetry_equiv_pos_as_xyz
  1  'x, y, z'
loop_
 _atom_site_type_symbol
 _atom_site_label
 _atom_site_symmetry_multiplicity
 _atom_site_fract_x
 _atom_site_fract_y
 _atom_site_fract_z
 _atom_site_occupancy
  Os  Os0  1  0.256993  0.175648  0.830516  1
  Os  Os1  1  0.824352  0.743007  0.169484  1
  Os  Os2  1  0.989885  0.917626  0.264060  1
  Os  Os3  1  0.082374  0.010115  0.735940  1
  Cl  Cl4  1  0.103172  0.002544  0.300061  1
  Cl  Cl5  1  0.997456  0.896828  0.699939  1
  Cl  Cl6  1  0.712093  0.205546  0.251949  1
  Cl  Cl7  1  0.794454  0.287907  0.748051  1
  Cl  Cl8  1  0.360262  0.728025  0.764027  1
  Cl  Cl9  1  0.271975  0.639738  0.235973  1
  Cl  Cl10  1  0.333906  0.261594  0.895546  1
  Cl  Cl11  1  0.738406  0.666094  0.104454  1
  Cl  Cl12  1  0.393074  0.309358  0.596853  1
  Cl  Cl13  1  0.690642  0.606926  0.403147  1
  Cl  Cl14  1  0.850517  0.768098  0.492153  1
  Cl  Cl15  1  0.231902  0.149483  0.507847  1
  Cl  Cl16  1  0.517488  0.878200  0.846747  1
  Cl  Cl17  1  0.121800  0.482512  0.153253  1
  F  F18  1  0.144204  0.101092  0.798530  1
  F  F19  1  0.898908  0.855796  0.201470  1
  F  F20  1  0.011348  0.408361  0.833901  1
  F  F21  1  0.591639  0.988652  0.166099  1
  F  F22  1  0.103106  0.054961  0.041875  1
  F  F23  1  0.945039  0.896894  0.958125  1
