# generated using pymatgen
data_Li4NdSm5Pd13
_symmetry_space_group_name_H-M   'P 1'
_cell_length_a   8.33574662
_cell_length_b   8.33574675
_cell_length_c   8.33574708
_cell_angle_alpha   109.45544114
_cell_angle_beta   109.47910942
_cell_angle_gamma   109.47911183
_symmetry_Int_Tables_number   1
_chemical_formula_structural   Li4NdSm5Pd13
_chemical_formula_sum   'Li4 Nd1 Sm5 Pd13'
_cell_volume   445.87347161
_cell_formula_units_Z   1
loop_
 _symmetry_equiv_pos_site_id
 _symmetry_equiv_pos_as_xyz
  1  'x, y, z'
loop_
 _atom_site_type_symbol
 _atom_site_label
 _atom_site_symmetry_multiplicity
 _atom_site_fract_x
 _atom_site_fract_y
 _atom_site_fract_z
 _atom_site_occupancy
  Li  Li0  1  0.000000  0.000132  0.499844  1
  Li  Li1  1  0.000000  0.499844  0.000132  1
  Li  Li2  1  0.500288  0.000132  0.000132  1
  Li  Li3  1  0.499712  0.499844  0.499844  1
  Nd  Nd4  1  0.000000  0.694510  0.694510  1
  Sm  Sm5  1  0.693330  0.693461  0.000131  1
  Sm  Sm6  1  0.306670  0.000131  0.306801  1
  Sm  Sm7  1  0.000000  0.306213  0.306213  1
  Sm  Sm8  1  0.306670  0.306801  0.000131  1
  Sm  Sm9  1  0.693330  0.000131  0.693461  1
  Pd  Pd10  1  0.332721  0.332702  0.665423  1
  Pd  Pd11  1  0.667279  0.999981  0.332702  1
  Pd  Pd12  1  0.000000  0.667267  0.331582  1
  Pd  Pd13  1  0.667279  0.332702  0.999981  1
  Pd  Pd14  1  0.332721  0.665423  0.332702  1
  Pd  Pd15  1  0.000000  0.331582  0.667267  1
  Pd  Pd16  1  0.333233  0.667277  0.000510  1
  Pd  Pd17  1  0.333233  0.000510  0.667277  1
  Pd  Pd18  1  0.664315  0.331582  0.331582  1
  Pd  Pd19  1  0.666767  0.667277  0.334044  1
  Pd  Pd20  1  0.666767  0.334044  0.667277  1
  Pd  Pd21  1  0.335685  0.667267  0.667267  1
  Pd  Pd22  1  0.000000  0.001189  0.001189  1
