# generated using pymatgen
data_Sm5Y7Fe2I17
_symmetry_space_group_name_H-M   'P 1'
_cell_length_a   9.76793476
_cell_length_b   11.72056525
_cell_length_c   11.73261776
_cell_angle_alpha   93.18098688
_cell_angle_beta   105.02846741
_cell_angle_gamma   114.13597823
_symmetry_Int_Tables_number   1
_chemical_formula_structural   Sm5Y7Fe2I17
_chemical_formula_sum   'Sm5 Y7 Fe2 I17'
_cell_volume   1163.81508115
_cell_formula_units_Z   1
loop_
 _symmetry_equiv_pos_site_id
 _symmetry_equiv_pos_as_xyz
  1  'x, y, z'
loop_
 _atom_site_type_symbol
 _atom_site_label
 _atom_site_symmetry_multiplicity
 _atom_site_fract_x
 _atom_site_fract_y
 _atom_site_fract_z
 _atom_site_occupancy
  Sm  Sm0  1  0.054764  0.505988  0.320050  1
  Sm  Sm1  1  0.993980  0.806620  0.591330  1
  Sm  Sm2  1  0.649520  0.240967  0.280936  1
  Sm  Sm3  1  0.009642  0.189801  0.414136  1
  Sm  Sm4  1  0.216792  0.671144  0.979682  1
  Y  Y5  1  0.256944  0.980952  0.891170  1
  Y  Y6  1  0.351832  0.758923  0.716767  1
  Y  Y7  1  0.945291  0.493312  0.678584  1
  Y  Y8  1  0.748243  0.024873  0.111334  1
  Y  Y9  1  0.140142  0.285317  0.151943  1
  Y  Y10  1  0.780696  0.328004  0.016675  1
  Y  Y11  1  0.852223  0.712723  0.848141  1
  Fe  Fe12  1  0.104459  0.737706  0.785694  1
  Fe  Fe13  1  0.895765  0.262867  0.214824  1
  I  I14  1  0.782566  0.529609  0.420306  1
  I  I15  1  0.643688  0.419920  0.761574  1
  I  I16  1  0.839910  0.892508  0.324277  1
  I  I17  1  0.328998  0.213875  0.367279  1
  I  I18  1  0.159165  0.104536  0.677687  1
  I  I19  1  0.584416  0.053250  0.842332  1
  I  I20  1  0.759097  0.190175  0.544831  1
  I  I21  1  0.554406  0.712872  0.953525  1
  I  I22  1  0.359480  0.577531  0.236274  1
  I  I23  1  0.218526  0.472031  0.586666  1
  I  I24  1  0.053485  0.365861  0.894351  1
  I  I25  1  0.443711  0.287643  0.039056  1
  I  I26  1  0.999830  0.999515  0.998670  1
  I  I27  1  0.248900  0.816747  0.463498  1
  I  I28  1  0.413763  0.944823  0.154346  1
  I  I29  1  0.669489  0.786607  0.633204  1
  I  I30  1  0.940277  0.633301  0.100860  1
