# generated using pymatgen
data_Mg4Zn6NiRu
_symmetry_space_group_name_H-M   'P 1'
_cell_length_a   5.08940586
_cell_length_b   5.18139326
_cell_length_c   8.32026600
_cell_angle_alpha   90.00000000
_cell_angle_beta   90.00000000
_cell_angle_gamma   119.55554065
_symmetry_Int_Tables_number   1
_chemical_formula_structural   Mg4Zn6NiRu
_chemical_formula_sum   'Mg4 Zn6 Ni1 Ru1'
_cell_volume   190.85747495
_cell_formula_units_Z   1
loop_
 _symmetry_equiv_pos_site_id
 _symmetry_equiv_pos_as_xyz
  1  'x, y, z'
loop_
 _atom_site_type_symbol
 _atom_site_label
 _atom_site_symmetry_multiplicity
 _atom_site_fract_x
 _atom_site_fract_y
 _atom_site_fract_z
 _atom_site_occupancy
  Mg  Mg0  1  0.323713  0.650848  0.064119  1
  Mg  Mg1  1  0.671721  0.332968  0.569464  1
  Mg  Mg2  1  0.671721  0.332968  0.930536  1
  Mg  Mg3  1  0.323713  0.650848  0.435881  1
  Zn  Zn4  1  0.999980  0.025032  0.004360  1
  Zn  Zn5  1  0.999980  0.025032  0.495640  1
  Zn  Zn6  1  0.347914  0.158958  0.250000  1
  Zn  Zn7  1  0.660753  0.827616  0.750000  1
  Zn  Zn8  1  0.168922  0.831228  0.750000  1
  Zn  Zn9  1  0.833154  0.659667  0.250000  1
  Ni  Ni10  1  0.824565  0.163062  0.250000  1
  Ru  Ru11  1  0.173867  0.341774  0.750000  1
