# generated using pymatgen
data_Tb3ErTh6(Si3C)2
_symmetry_space_group_name_H-M   'P 1'
_cell_length_a   8.76376700
_cell_length_b   8.76376738
_cell_length_c   6.38289300
_cell_angle_alpha   90.00000000
_cell_angle_beta   90.00000000
_cell_angle_gamma   120.00000236
_symmetry_Int_Tables_number   1
_chemical_formula_structural   Tb3ErTh6(Si3C)2
_chemical_formula_sum   'Tb3 Er1 Th6 Si6 C2'
_cell_volume   424.55098156
_cell_formula_units_Z   1
loop_
 _symmetry_equiv_pos_site_id
 _symmetry_equiv_pos_as_xyz
  1  'x, y, z'
loop_
 _atom_site_type_symbol
 _atom_site_label
 _atom_site_symmetry_multiplicity
 _atom_site_fract_x
 _atom_site_fract_y
 _atom_site_fract_z
 _atom_site_occupancy
  Tb  Tb0  1  0.666667  0.333333  0.000000  1
  Tb  Tb1  1  0.333333  0.666667  0.000000  1
  Tb  Tb2  1  0.333333  0.666667  0.500000  1
  Er  Er3  1  0.666667  0.333333  0.500000  1
  Th  Th4  1  0.767322  0.767068  0.749717  1
  Th  Th5  1  0.232932  0.000255  0.749717  1
  Th  Th6  1  0.999745  0.232678  0.749717  1
  Th  Th7  1  0.232932  0.232678  0.250283  1
  Th  Th8  1  0.767322  0.000255  0.250283  1
  Th  Th9  1  0.999745  0.767068  0.250283  1
  Si  Si10  1  0.402245  0.401249  0.749179  1
  Si  Si11  1  0.598751  0.000996  0.749179  1
  Si  Si12  1  0.999004  0.597755  0.749179  1
  Si  Si13  1  0.598751  0.597755  0.250821  1
  Si  Si14  1  0.402245  0.000996  0.250821  1
  Si  Si15  1  0.999004  0.401249  0.250821  1
  C  C16  1  0.000000  0.000000  0.000000  1
  C  C17  1  0.000000  0.000000  0.500000  1
