# generated using pymatgen
data_Ho15Er(HgRh)4
_symmetry_space_group_name_H-M   'P 1'
_cell_length_a   9.54948416
_cell_length_b   9.55290499
_cell_length_c   9.54948350
_cell_angle_alpha   59.98814590
_cell_angle_beta   59.96509895
_cell_angle_gamma   59.98814668
_symmetry_Int_Tables_number   1
_chemical_formula_structural   Ho15Er(HgRh)4
_chemical_formula_sum   'Ho15 Er1 Hg4 Rh4'
_cell_volume   615.72640662
_cell_formula_units_Z   1
loop_
 _symmetry_equiv_pos_site_id
 _symmetry_equiv_pos_as_xyz
  1  'x, y, z'
loop_
 _atom_site_type_symbol
 _atom_site_label
 _atom_site_symmetry_multiplicity
 _atom_site_fract_x
 _atom_site_fract_y
 _atom_site_fract_z
 _atom_site_occupancy
  Ho  Ho0  1  0.189331  0.188734  0.811219  1
  Ho  Ho1  1  0.436676  0.063405  0.063153  1
  Ho  Ho2  1  0.436697  0.063303  0.436697  1
  Ho  Ho3  1  0.063298  0.436702  0.063298  1
  Ho  Ho4  1  0.648667  0.053561  0.648667  1
  Ho  Ho5  1  0.189331  0.810716  0.811219  1
  Ho  Ho6  1  0.063153  0.063405  0.436676  1
  Ho  Ho7  1  0.811219  0.188734  0.189331  1
  Ho  Ho8  1  0.811219  0.810716  0.189331  1
  Ho  Ho9  1  0.648164  0.648852  0.054134  1
  Ho  Ho10  1  0.648667  0.649106  0.648667  1
  Ho  Ho11  1  0.063153  0.436766  0.436676  1
  Ho  Ho12  1  0.054134  0.648852  0.648164  1
  Ho  Ho13  1  0.810883  0.189117  0.810883  1
  Ho  Ho14  1  0.436676  0.436766  0.063153  1
  Er  Er15  1  0.189065  0.810935  0.189065  1
  Hg  Hg16  1  0.415491  0.753449  0.415491  1
  Hg  Hg17  1  0.415412  0.415415  0.753758  1
  Hg  Hg18  1  0.753758  0.415415  0.415412  1
  Hg  Hg19  1  0.415491  0.415570  0.415491  1
  Rh  Rh20  1  0.856950  0.428763  0.856950  1
  Rh  Rh21  1  0.857000  0.857192  0.428615  1
  Rh  Rh22  1  0.428615  0.857192  0.857000  1
  Rh  Rh23  1  0.856950  0.857336  0.856950  1
