# generated using pymatgen
data_ZnBi3(Ru2O7)2
_symmetry_space_group_name_H-M   'P 1'
_cell_length_a   7.20521530
_cell_length_b   7.32140315
_cell_length_c   7.32140300
_cell_angle_alpha   60.00000517
_cell_angle_beta   59.46512816
_cell_angle_gamma   59.46512962
_symmetry_Int_Tables_number   1
_chemical_formula_structural   ZnBi3(Ru2O7)2
_chemical_formula_sum   'Zn1 Bi3 Ru4 O14'
_cell_volume   270.87056056
_cell_formula_units_Z   1
loop_
 _symmetry_equiv_pos_site_id
 _symmetry_equiv_pos_as_xyz
  1  'x, y, z'
loop_
 _atom_site_type_symbol
 _atom_site_label
 _atom_site_symmetry_multiplicity
 _atom_site_fract_x
 _atom_site_fract_y
 _atom_site_fract_z
 _atom_site_occupancy
  Zn  Zn0  1  0.625000  0.125000  0.125000  1
  Bi  Bi1  1  0.125000  0.125000  0.625000  1
  Bi  Bi2  1  0.125000  0.625000  0.125000  1
  Bi  Bi3  1  0.125000  0.125000  0.125000  1
  Ru  Ru4  1  0.625000  0.625000  0.125000  1
  Ru  Ru5  1  0.625000  0.125000  0.625000  1
  Ru  Ru6  1  0.125000  0.625000  0.625000  1
  Ru  Ru7  1  0.625000  0.625000  0.625000  1
  O  O8  1  0.298170  0.233943  0.233943  1
  O  O9  1  0.951830  0.016057  0.016057  1
  O  O10  1  0.543393  0.948070  0.560466  1
  O  O11  1  0.289986  0.707604  0.294806  1
  O  O12  1  0.543393  0.560466  0.948070  1
  O  O13  1  0.960014  0.542396  0.542396  1
  O  O14  1  0.543393  0.948070  0.948070  1
  O  O15  1  0.960014  0.955194  0.542396  1
  O  O16  1  0.960014  0.542396  0.955194  1
  O  O17  1  0.706607  0.301930  0.301930  1
  O  O18  1  0.289986  0.707604  0.707604  1
  O  O19  1  0.706607  0.301930  0.689534  1
  O  O20  1  0.289986  0.294806  0.707604  1
  O  O21  1  0.706607  0.689534  0.301930  1
