# generated using pymatgen
data_RbGd2Br7
_symmetry_space_group_name_H-M   'P 1'
_cell_length_a   7.46940200
_cell_length_b   13.56149400
_cell_length_c   14.25951000
_cell_angle_alpha   90.00000000
_cell_angle_beta   90.00000000
_cell_angle_gamma   90.00000000
_symmetry_Int_Tables_number   1
_chemical_formula_structural   RbGd2Br7
_chemical_formula_sum   'Rb4 Gd8 Br28'
_cell_volume   1444.43489564
_cell_formula_units_Z   4
loop_
 _symmetry_equiv_pos_site_id
 _symmetry_equiv_pos_as_xyz
  1  'x, y, z'
loop_
 _atom_site_type_symbol
 _atom_site_label
 _atom_site_symmetry_multiplicity
 _atom_site_fract_x
 _atom_site_fract_y
 _atom_site_fract_z
 _atom_site_occupancy
  Rb  Rb0  1  0.250000  0.804845  0.042076  1
  Rb  Rb1  1  0.750000  0.195155  0.957924  1
  Rb  Rb2  1  0.750000  0.304845  0.457924  1
  Rb  Rb3  1  0.250000  0.695155  0.542076  1
  Gd  Gd4  1  0.250000  0.459747  0.236994  1
  Gd  Gd5  1  0.750000  0.540253  0.763006  1
  Gd  Gd6  1  0.750000  0.959747  0.263006  1
  Gd  Gd7  1  0.250000  0.040253  0.736994  1
  Gd  Gd8  1  0.250000  0.158198  0.250418  1
  Gd  Gd9  1  0.750000  0.841802  0.749582  1
  Gd  Gd10  1  0.750000  0.658198  0.249582  1
  Gd  Gd11  1  0.250000  0.341802  0.750418  1
  Br  Br12  1  0.007616  0.307196  0.174370  1
  Br  Br13  1  0.992384  0.692804  0.825630  1
  Br  Br14  1  0.992384  0.807196  0.325630  1
  Br  Br15  1  0.507616  0.692804  0.825630  1
  Br  Br16  1  0.007616  0.192804  0.674370  1
  Br  Br17  1  0.492384  0.307196  0.174370  1
  Br  Br18  1  0.492384  0.192804  0.674370  1
  Br  Br19  1  0.507616  0.807196  0.325630  1
  Br  Br20  1  0.010272  0.577921  0.119565  1
  Br  Br21  1  0.989728  0.422079  0.880435  1
  Br  Br22  1  0.989728  0.077921  0.380435  1
  Br  Br23  1  0.510272  0.422079  0.880435  1
  Br  Br24  1  0.010272  0.922079  0.619565  1
  Br  Br25  1  0.489728  0.577921  0.119565  1
  Br  Br26  1  0.489728  0.922079  0.619565  1
  Br  Br27  1  0.510272  0.077921  0.380435  1
  Br  Br28  1  0.009958  0.039347  0.131429  1
  Br  Br29  1  0.990042  0.960653  0.868571  1
  Br  Br30  1  0.990042  0.539347  0.368571  1
  Br  Br31  1  0.509958  0.960653  0.868571  1
  Br  Br32  1  0.009958  0.460653  0.631429  1
  Br  Br33  1  0.490042  0.039347  0.131429  1
  Br  Br34  1  0.490042  0.460653  0.631429  1
  Br  Br35  1  0.509958  0.539347  0.368571  1
  Br  Br36  1  0.250000  0.311992  0.393725  1
  Br  Br37  1  0.750000  0.688008  0.606275  1
  Br  Br38  1  0.750000  0.811992  0.106275  1
  Br  Br39  1  0.250000  0.188008  0.893725  1
