# generated using pymatgen
data_LuSc7In3Os
_symmetry_space_group_name_H-M   'P 1'
_cell_length_a   9.84341600
_cell_length_b   9.84341523
_cell_length_c   6.63831200
_cell_angle_alpha   90.00000000
_cell_angle_beta   90.00000000
_cell_angle_gamma   119.99999588
_symmetry_Int_Tables_number   1
_chemical_formula_structural   LuSc7In3Os
_chemical_formula_sum   'Lu2 Sc14 In6 Os2'
_cell_volume   557.03175640
_cell_formula_units_Z   2
loop_
 _symmetry_equiv_pos_site_id
 _symmetry_equiv_pos_as_xyz
  1  'x, y, z'
loop_
 _atom_site_type_symbol
 _atom_site_label
 _atom_site_symmetry_multiplicity
 _atom_site_fract_x
 _atom_site_fract_y
 _atom_site_fract_z
 _atom_site_occupancy
  Lu  Lu0  1  0.000000  0.000000  0.507642  1
  Lu  Lu1  1  0.000000  0.000000  0.007642  1
  Sc  Sc2  1  0.530457  0.060913  0.521537  1
  Sc  Sc3  1  0.939087  0.469543  0.521537  1
  Sc  Sc4  1  0.530457  0.469543  0.521537  1
  Sc  Sc5  1  0.469543  0.939087  0.021537  1
  Sc  Sc6  1  0.060913  0.530457  0.021537  1
  Sc  Sc7  1  0.469543  0.530457  0.021537  1
  Sc  Sc8  1  0.179092  0.358183  0.731591  1
  Sc  Sc9  1  0.641817  0.820908  0.731591  1
  Sc  Sc10  1  0.179092  0.820908  0.731591  1
  Sc  Sc11  1  0.820908  0.641817  0.231591  1
  Sc  Sc12  1  0.358183  0.179092  0.231591  1
  Sc  Sc13  1  0.820908  0.179092  0.231591  1
  Sc  Sc14  1  0.666667  0.333333  0.901874  1
  Sc  Sc15  1  0.333333  0.666667  0.401874  1
  In  In16  1  0.835339  0.670678  0.768557  1
  In  In17  1  0.329322  0.164661  0.768557  1
  In  In18  1  0.835339  0.164661  0.768557  1
  In  In19  1  0.164661  0.329322  0.268557  1
  In  In20  1  0.670678  0.835339  0.268557  1
  In  In21  1  0.164661  0.835339  0.268557  1
  Os  Os22  1  0.666667  0.333333  0.303267  1
  Os  Os23  1  0.333333  0.666667  0.803267  1
