# generated using pymatgen
data_LaTb(BIr)8
_symmetry_space_group_name_H-M   'P 1'
_cell_length_a   7.69534900
_cell_length_b   7.69534900
_cell_length_c   3.98864600
_cell_angle_alpha   90.00000000
_cell_angle_beta   90.00000000
_cell_angle_gamma   90.00000000
_symmetry_Int_Tables_number   1
_chemical_formula_structural   LaTb(BIr)8
_chemical_formula_sum   'La1 Tb1 B8 Ir8'
_cell_volume   236.20121926
_cell_formula_units_Z   1
loop_
 _symmetry_equiv_pos_site_id
 _symmetry_equiv_pos_as_xyz
  1  'x, y, z'
loop_
 _atom_site_type_symbol
 _atom_site_label
 _atom_site_symmetry_multiplicity
 _atom_site_fract_x
 _atom_site_fract_y
 _atom_site_fract_z
 _atom_site_occupancy
  La  La0  1  0.500000  0.500000  0.000000  1
  Tb  Tb1  1  0.000000  0.000000  0.500000  1
  B  B2  1  0.842658  0.276344  0.888110  1
  B  B3  1  0.157342  0.723656  0.888110  1
  B  B4  1  0.276344  0.157342  0.111890  1
  B  B5  1  0.723656  0.842658  0.111890  1
  B  B6  1  0.781099  0.658734  0.393132  1
  B  B7  1  0.218901  0.341266  0.393132  1
  B  B8  1  0.341266  0.781099  0.606868  1
  B  B9  1  0.658734  0.218901  0.606868  1
  Ir  Ir10  1  0.891708  0.662193  0.889909  1
  Ir  Ir11  1  0.108292  0.337807  0.889909  1
  Ir  Ir12  1  0.337807  0.891708  0.110091  1
  Ir  Ir13  1  0.662193  0.108292  0.110091  1
  Ir  Ir14  1  0.843462  0.389715  0.389825  1
  Ir  Ir15  1  0.156538  0.610285  0.389825  1
  Ir  Ir16  1  0.389715  0.156538  0.610175  1
  Ir  Ir17  1  0.610285  0.843462  0.610175  1
