# generated using pymatgen
data_Rb2Au(S4O13)2
_symmetry_space_group_name_H-M   'P 1'
_cell_length_a   7.75118689
_cell_length_b   8.99852165
_cell_length_c   9.58264419
_cell_angle_alpha   107.46933375
_cell_angle_beta   88.16157807
_cell_angle_gamma   107.59967890
_symmetry_Int_Tables_number   1
_chemical_formula_structural   Rb2Au(S4O13)2
_chemical_formula_sum   'Rb2 Au1 S8 O26'
_cell_volume   606.44502639
_cell_formula_units_Z   1
loop_
 _symmetry_equiv_pos_site_id
 _symmetry_equiv_pos_as_xyz
  1  'x, y, z'
loop_
 _atom_site_type_symbol
 _atom_site_label
 _atom_site_symmetry_multiplicity
 _atom_site_fract_x
 _atom_site_fract_y
 _atom_site_fract_z
 _atom_site_occupancy
  Rb  Rb0  1  0.131078  0.266247  0.881192  1
  Rb  Rb1  1  0.868922  0.733753  0.118808  1
  Au  Au2  1  0.500000  0.500000  0.500000  1
  S  S3  1  0.673372  0.358713  0.711157  1
  S  S4  1  0.326628  0.641287  0.288843  1
  S  S5  1  0.874175  0.191093  0.482465  1
  S  S6  1  0.125825  0.808907  0.517535  1
  S  S7  1  0.386309  0.146653  0.223459  1
  S  S8  1  0.613691  0.853347  0.776541  1
  S  S9  1  0.787744  0.221951  0.196693  1
  S  S10  1  0.212256  0.778049  0.803307  1
  O  O11  1  0.700004  0.187371  0.574171  1
  O  O12  1  0.299996  0.812629  0.425829  1
  O  O13  1  0.710120  0.484617  0.632428  1
  O  O14  1  0.289880  0.515383  0.367572  1
  O  O15  1  0.813057  0.401762  0.824261  1
  O  O16  1  0.186943  0.598238  0.175739  1
  O  O17  1  0.845681  0.296632  0.375252  1
  O  O18  1  0.154319  0.703368  0.624748  1
  O  O19  1  0.035613  0.293241  0.571432  1
  O  O20  1  0.964387  0.706759  0.428568  1
  O  O21  1  0.487185  0.293553  0.738704  1
  O  O22  1  0.512815  0.706447  0.261296  1
  O  O23  1  0.852084  0.026041  0.396645  1
  O  O24  1  0.147916  0.973959  0.603355  1
  O  O25  1  0.415913  0.234436  0.383250  1
  O  O26  1  0.584087  0.765564  0.616750  1
  O  O27  1  0.595767  0.094848  0.186599  1
  O  O28  1  0.404233  0.905152  0.813401  1
  O  O29  1  0.783200  0.364455  0.162491  1
  O  O30  1  0.216800  0.635545  0.837509  1
  O  O31  1  0.906819  0.130958  0.127827  1
  O  O32  1  0.093181  0.869042  0.872173  1
  O  O33  1  0.381460  0.243019  0.129303  1
  O  O34  1  0.618540  0.756981  0.870697  1
  O  O35  1  0.265179  0.983214  0.192349  1
  O  O36  1  0.734821  0.016786  0.807651  1
