# generated using pymatgen
data_Ti18ReSi16Tc
_symmetry_space_group_name_H-M   'P 1'
_cell_length_a   6.66690791
_cell_length_b   6.66042409
_cell_length_c   12.16076837
_cell_angle_alpha   89.98157922
_cell_angle_beta   90.20384623
_cell_angle_gamma   90.00485463
_symmetry_Int_Tables_number   1
_chemical_formula_structural   Ti18ReSi16Tc
_chemical_formula_sum   'Ti18 Re1 Si16 Tc1'
_cell_volume   539.98858994
_cell_formula_units_Z   1
loop_
 _symmetry_equiv_pos_site_id
 _symmetry_equiv_pos_as_xyz
  1  'x, y, z'
loop_
 _atom_site_type_symbol
 _atom_site_label
 _atom_site_symmetry_multiplicity
 _atom_site_fract_x
 _atom_site_fract_y
 _atom_site_fract_z
 _atom_site_occupancy
  Ti  Ti0  1  0.996509  0.148542  0.623436  1
  Ti  Ti1  1  0.352616  0.498453  0.872539  1
  Ti  Ti2  1  0.650741  0.505781  0.370698  1
  Ti  Ti3  1  0.496163  0.350679  0.129823  1
  Ti  Ti4  1  0.503473  0.648532  0.626622  1
  Ti  Ti5  1  0.003900  0.850112  0.120376  1
  Ti  Ti6  1  0.147678  0.998101  0.377226  1
  Ti  Ti7  1  0.849119  0.005608  0.879185  1
  Ti  Ti8  1  0.999391  0.340358  0.222729  1
  Ti  Ti9  1  0.155064  0.501990  0.470336  1
  Ti  Ti10  1  0.838279  0.500607  0.971814  1
  Ti  Ti11  1  0.500397  0.156821  0.529399  1
  Ti  Ti12  1  0.500739  0.839899  0.027525  1
  Ti  Ti13  1  0.999564  0.656775  0.720636  1
  Ti  Ti14  1  0.345036  0.001913  0.779392  1
  Ti  Ti15  1  0.661429  0.000304  0.278162  1
  Ti  Ti16  1  0.670499  0.328142  0.751393  1
  Ti  Ti17  1  0.829480  0.828177  0.498656  1
  Re  Re18  1  0.327299  0.671141  0.247972  1
  Si  Si19  1  0.045942  0.301661  0.815960  1
  Si  Si20  1  0.197252  0.541244  0.064110  1
  Si  Si21  1  0.802055  0.455374  0.564928  1
  Si  Si22  1  0.540584  0.198064  0.935996  1
  Si  Si23  1  0.454372  0.801814  0.434264  1
  Si  Si24  1  0.959110  0.698022  0.314112  1
  Si  Si25  1  0.302688  0.041896  0.185399  1
  Si  Si26  1  0.697917  0.955480  0.685128  1
  Si  Si27  1  0.293945  0.358251  0.673939  1
  Si  Si28  1  0.141125  0.795627  0.921562  1
  Si  Si29  1  0.856667  0.205683  0.424838  1
  Si  Si30  1  0.794432  0.142025  0.077693  1
  Si  Si31  1  0.205998  0.858377  0.576076  1
  Si  Si32  1  0.705523  0.642093  0.172261  1
  Si  Si33  1  0.358840  0.295578  0.328443  1
  Si  Si34  1  0.643416  0.705684  0.825186  1
  Tc  Tc35  1  0.172756  0.171189  0.002186  1
