# generated using pymatgen
data_CaDy3Y2(Si3Ru)8
_symmetry_space_group_name_H-M   'P 1'
_cell_length_a   10.14885658
_cell_length_b   10.14885803
_cell_length_c   8.15212634
_cell_angle_alpha   89.90393046
_cell_angle_beta   90.09607188
_cell_angle_gamma   132.63839698
_symmetry_Int_Tables_number   1
_chemical_formula_structural   CaDy3Y2(Si3Ru)8
_chemical_formula_sum   'Ca1 Dy3 Y2 Si24 Ru8'
_cell_volume   617.69168714
_cell_formula_units_Z   1
loop_
 _symmetry_equiv_pos_site_id
 _symmetry_equiv_pos_as_xyz
  1  'x, y, z'
loop_
 _atom_site_type_symbol
 _atom_site_label
 _atom_site_symmetry_multiplicity
 _atom_site_fract_x
 _atom_site_fract_y
 _atom_site_fract_z
 _atom_site_occupancy
  Ca  Ca0  1  0.001958  0.501958  0.250000  1
  Dy  Dy1  1  0.000255  0.000351  0.000576  1
  Dy  Dy2  1  0.500351  0.500255  0.499424  1
  Dy  Dy3  1  0.498388  0.998388  0.750000  1
  Y  Y4  1  0.997112  0.497112  0.750000  1
  Y  Y5  1  0.502704  0.002704  0.250000  1
  Si  Si6  1  0.293818  0.704486  0.000166  1
  Si  Si7  1  0.795261  0.206185  0.498873  1
  Si  Si8  1  0.706185  0.295261  0.001127  1
  Si  Si9  1  0.204486  0.793818  0.499834  1
  Si  Si10  1  0.832693  0.834117  0.333090  1
  Si  Si11  1  0.166851  0.168349  0.666840  1
  Si  Si12  1  0.668349  0.666851  0.833160  1
  Si  Si13  1  0.334117  0.332693  0.166910  1
  Si  Si14  1  0.620531  0.386501  0.228048  1
  Si  Si15  1  0.611072  0.377784  0.772433  1
  Si  Si16  1  0.111555  0.878263  0.728283  1
  Si  Si17  1  0.123477  0.889747  0.271971  1
  Si  Si18  1  0.378263  0.611555  0.771717  1
  Si  Si19  1  0.389747  0.623477  0.228029  1
  Si  Si20  1  0.886501  0.120531  0.271952  1
  Si  Si21  1  0.877784  0.111072  0.727567  1
  Si  Si22  1  0.844490  0.611440  0.002800  1
  Si  Si23  1  0.388520  0.155650  0.994547  1
  Si  Si24  1  0.888215  0.654763  0.506160  1
  Si  Si25  1  0.344090  0.111598  0.495080  1
  Si  Si26  1  0.154763  0.388215  0.993840  1
  Si  Si27  1  0.611598  0.844090  0.004920  1
  Si  Si28  1  0.111440  0.344490  0.497200  1
  Si  Si29  1  0.655650  0.888520  0.505453  1
  Ru  Ru30  1  0.170639  0.831708  0.999240  1
  Ru  Ru31  1  0.667287  0.328950  0.501851  1
  Ru  Ru32  1  0.828950  0.167287  0.998149  1
  Ru  Ru33  1  0.331708  0.670639  0.500760  1
  Ru  Ru34  1  0.626941  0.626869  0.127197  1
  Ru  Ru35  1  0.373313  0.374072  0.873052  1
  Ru  Ru36  1  0.874072  0.873313  0.626948  1
  Ru  Ru37  1  0.126869  0.126941  0.372803  1
