# generated using pymatgen
data_Hf8ScNbRe3B
_symmetry_space_group_name_H-M   'P 1'
_cell_length_a   8.55849001
_cell_length_b   8.55906549
_cell_length_c   8.49413900
_cell_angle_alpha   90.00000000
_cell_angle_beta   90.00000000
_cell_angle_gamma   120.00222458
_symmetry_Int_Tables_number   1
_chemical_formula_structural   Hf8ScNbRe3B
_chemical_formula_sum   'Hf16 Sc2 Nb2 Re6 B2'
_cell_volume   538.84487533
_cell_formula_units_Z   2
loop_
 _symmetry_equiv_pos_site_id
 _symmetry_equiv_pos_as_xyz
  1  'x, y, z'
loop_
 _atom_site_type_symbol
 _atom_site_label
 _atom_site_symmetry_multiplicity
 _atom_site_fract_x
 _atom_site_fract_y
 _atom_site_fract_z
 _atom_site_occupancy
  Hf  Hf0  1  0.204155  0.797562  0.443898  1
  Hf  Hf1  1  0.204155  0.406593  0.443898  1
  Hf  Hf2  1  0.592764  0.796382  0.443090  1
  Hf  Hf3  1  0.796375  0.203015  0.555642  1
  Hf  Hf4  1  0.796375  0.593360  0.555642  1
  Hf  Hf5  1  0.406609  0.203304  0.555986  1
  Hf  Hf6  1  0.796375  0.203015  0.944358  1
  Hf  Hf7  1  0.796375  0.593360  0.944358  1
  Hf  Hf8  1  0.406609  0.203304  0.944014  1
  Hf  Hf9  1  0.204155  0.797562  0.056102  1
  Hf  Hf10  1  0.204155  0.406593  0.056102  1
  Hf  Hf11  1  0.592764  0.796382  0.056910  1
  Hf  Hf12  1  0.919068  0.459534  0.250000  1
  Hf  Hf13  1  0.458314  0.541560  0.750000  1
  Hf  Hf14  1  0.458314  0.916754  0.750000  1
  Hf  Hf15  1  0.081754  0.540877  0.750000  1
  Sc  Sc16  1  0.542449  0.457271  0.250000  1
  Sc  Sc17  1  0.542449  0.085178  0.250000  1
  Nb  Nb18  1  0.000112  0.000056  0.497280  1
  Nb  Nb19  1  0.000112  0.000056  0.002720  1
  Re  Re20  1  0.886796  0.114744  0.250000  1
  Re  Re21  1  0.886796  0.772054  0.250000  1
  Re  Re22  1  0.226598  0.113300  0.250000  1
  Re  Re23  1  0.113351  0.887011  0.750000  1
  Re  Re24  1  0.113351  0.226339  0.750000  1
  Re  Re25  1  0.773319  0.886659  0.750000  1
  B  B26  1  0.328234  0.664117  0.250000  1
  B  B27  1  0.668119  0.334059  0.750000  1
