# generated using pymatgen
data_Dy6Er3TmSi6
_symmetry_space_group_name_H-M   'P 1'
_cell_length_a   8.41182600
_cell_length_b   8.41182463
_cell_length_c   6.31170200
_cell_angle_alpha   90.00000000
_cell_angle_beta   90.00000000
_cell_angle_gamma   119.99999753
_symmetry_Int_Tables_number   1
_chemical_formula_structural   Dy6Er3TmSi6
_chemical_formula_sum   'Dy6 Er3 Tm1 Si6'
_cell_volume   386.77430896
_cell_formula_units_Z   1
loop_
 _symmetry_equiv_pos_site_id
 _symmetry_equiv_pos_as_xyz
  1  'x, y, z'
loop_
 _atom_site_type_symbol
 _atom_site_label
 _atom_site_symmetry_multiplicity
 _atom_site_fract_x
 _atom_site_fract_y
 _atom_site_fract_z
 _atom_site_occupancy
  Dy  Dy0  1  0.000042  0.756758  0.749954  1
  Dy  Dy1  1  0.000042  0.243284  0.250046  1
  Dy  Dy2  1  0.756716  0.756758  0.250046  1
  Dy  Dy3  1  0.756716  0.999958  0.749954  1
  Dy  Dy4  1  0.243242  0.243284  0.749954  1
  Dy  Dy5  1  0.243242  0.999958  0.250046  1
  Er  Er6  1  0.666667  0.333333  0.000000  1
  Er  Er7  1  0.666667  0.333333  0.500000  1
  Er  Er8  1  0.333333  0.666667  0.000000  1
  Tm  Tm9  1  0.333333  0.666667  0.500000  1
  Si  Si10  1  0.394768  0.999883  0.749898  1
  Si  Si11  1  0.394768  0.394885  0.250102  1
  Si  Si12  1  0.000117  0.605232  0.250102  1
  Si  Si13  1  0.000117  0.394885  0.749898  1
  Si  Si14  1  0.605115  0.605232  0.749898  1
  Si  Si15  1  0.605115  0.999883  0.250102  1
