# generated using pymatgen
data_Gd4Ho3ErSb20
_symmetry_space_group_name_H-M   'P 1'
_cell_length_a   4.30662800
_cell_length_b   13.37212695
_cell_length_c   14.57937200
_cell_angle_alpha   78.83168043
_cell_angle_beta   90.00000000
_cell_angle_gamma   90.00000000
_symmetry_Int_Tables_number   1
_chemical_formula_structural   Gd4Ho3ErSb20
_chemical_formula_sum   'Gd4 Ho3 Er1 Sb20'
_cell_volume   823.70803179
_cell_formula_units_Z   1
loop_
 _symmetry_equiv_pos_site_id
 _symmetry_equiv_pos_as_xyz
  1  'x, y, z'
loop_
 _atom_site_type_symbol
 _atom_site_label
 _atom_site_symmetry_multiplicity
 _atom_site_fract_x
 _atom_site_fract_y
 _atom_site_fract_z
 _atom_site_occupancy
  Gd  Gd0  1  0.250000  0.399107  0.769696  1
  Gd  Gd1  1  0.750000  0.601062  0.230259  1
  Gd  Gd2  1  0.250000  0.667055  0.854248  1
  Gd  Gd3  1  0.750000  0.333309  0.145494  1
  Ho  Ho4  1  0.750000  0.327384  0.423158  1
  Ho  Ho5  1  0.250000  0.951518  0.360761  1
  Ho  Ho6  1  0.750000  0.048253  0.639280  1
  Er  Er7  1  0.250000  0.672289  0.576962  1
  Sb  Sb8  1  0.250000  0.145849  0.776888  1
  Sb  Sb9  1  0.750000  0.854127  0.223062  1
  Sb  Sb10  1  0.250000  0.142482  0.482495  1
  Sb  Sb11  1  0.750000  0.856653  0.517558  1
  Sb  Sb12  1  0.250000  0.148537  0.174628  1
  Sb  Sb13  1  0.750000  0.851617  0.825236  1
  Sb  Sb14  1  0.250000  0.420973  0.977549  1
  Sb  Sb15  1  0.750000  0.579468  0.022328  1
  Sb  Sb16  1  0.750000  0.038346  0.895705  1
  Sb  Sb17  1  0.250000  0.961729  0.104255  1
  Sb  Sb18  1  0.750000  0.134659  0.323520  1
  Sb  Sb19  1  0.250000  0.865039  0.676158  1
  Sb  Sb20  1  0.750000  0.285609  0.936019  1
  Sb  Sb21  1  0.250000  0.714636  0.064263  1
  Sb  Sb22  1  0.750000  0.292820  0.647306  1
  Sb  Sb23  1  0.250000  0.707142  0.353125  1
  Sb  Sb24  1  0.750000  0.580186  0.731746  1
  Sb  Sb25  1  0.250000  0.420209  0.268062  1
  Sb  Sb26  1  0.750000  0.575906  0.448751  1
  Sb  Sb27  1  0.250000  0.424037  0.551490  1
