# generated using pymatgen
data_Sr6Cd32Ni
_symmetry_space_group_name_H-M   'P 1'
_cell_length_a   9.86492000
_cell_length_b   9.86492000
_cell_length_c   9.86492000
_cell_angle_alpha   90.00000000
_cell_angle_beta   90.00000000
_cell_angle_gamma   90.00000000
_symmetry_Int_Tables_number   1
_chemical_formula_structural   Sr6Cd32Ni
_chemical_formula_sum   'Sr6 Cd32 Ni1'
_cell_volume   960.02093344
_cell_formula_units_Z   1
loop_
 _symmetry_equiv_pos_site_id
 _symmetry_equiv_pos_as_xyz
  1  'x, y, z'
loop_
 _atom_site_type_symbol
 _atom_site_label
 _atom_site_symmetry_multiplicity
 _atom_site_fract_x
 _atom_site_fract_y
 _atom_site_fract_z
 _atom_site_occupancy
  Sr  Sr0  1  0.207032  0.000000  0.500000  1
  Sr  Sr1  1  0.792968  0.000000  0.500000  1
  Sr  Sr2  1  0.500000  0.207032  0.000000  1
  Sr  Sr3  1  0.500000  0.792968  0.000000  1
  Sr  Sr4  1  0.000000  0.500000  0.207032  1
  Sr  Sr5  1  0.000000  0.500000  0.792968  1
  Cd  Cd6  1  0.317925  0.500000  0.000000  1
  Cd  Cd7  1  0.682075  0.500000  0.000000  1
  Cd  Cd8  1  0.000000  0.317925  0.500000  1
  Cd  Cd9  1  0.000000  0.682075  0.500000  1
  Cd  Cd10  1  0.500000  0.000000  0.317925  1
  Cd  Cd11  1  0.500000  0.000000  0.682075  1
  Cd  Cd12  1  0.281857  0.281857  0.281857  1
  Cd  Cd13  1  0.718143  0.718143  0.718143  1
  Cd  Cd14  1  0.718143  0.718143  0.281857  1
  Cd  Cd15  1  0.718143  0.281857  0.718143  1
  Cd  Cd16  1  0.281857  0.281857  0.718143  1
  Cd  Cd17  1  0.281857  0.718143  0.281857  1
  Cd  Cd18  1  0.281857  0.718143  0.718143  1
  Cd  Cd19  1  0.718143  0.281857  0.281857  1
  Cd  Cd20  1  0.259699  0.500000  0.500000  1
  Cd  Cd21  1  0.740301  0.500000  0.500000  1
  Cd  Cd22  1  0.500000  0.259699  0.500000  1
  Cd  Cd23  1  0.500000  0.740301  0.500000  1
  Cd  Cd24  1  0.500000  0.500000  0.259699  1
  Cd  Cd25  1  0.500000  0.500000  0.740301  1
  Cd  Cd26  1  0.000000  0.150079  0.253558  1
  Cd  Cd27  1  0.000000  0.849921  0.746442  1
  Cd  Cd28  1  0.000000  0.849921  0.253558  1
  Cd  Cd29  1  0.000000  0.150079  0.746442  1
  Cd  Cd30  1  0.253558  0.000000  0.150079  1
  Cd  Cd31  1  0.746442  0.000000  0.849921  1
  Cd  Cd32  1  0.253558  0.000000  0.849921  1
  Cd  Cd33  1  0.746442  0.000000  0.150079  1
  Cd  Cd34  1  0.150079  0.253558  0.000000  1
  Cd  Cd35  1  0.849921  0.746442  0.000000  1
  Cd  Cd36  1  0.150079  0.746442  0.000000  1
  Cd  Cd37  1  0.849921  0.253558  0.000000  1
  Ni  Ni38  1  0.000000  0.000000  0.000000  1
