# generated using pymatgen
data_Yb3Pr16TmGa12
_symmetry_space_group_name_H-M   'P 1'
_cell_length_a   7.88628500
_cell_length_b   7.88628500
_cell_length_c   14.69150800
_cell_angle_alpha   90.00000000
_cell_angle_beta   90.00000000
_cell_angle_gamma   90.00000000
_symmetry_Int_Tables_number   1
_chemical_formula_structural   Yb3Pr16TmGa12
_chemical_formula_sum   'Yb3 Pr16 Tm1 Ga12'
_cell_volume   913.71617206
_cell_formula_units_Z   1
loop_
 _symmetry_equiv_pos_site_id
 _symmetry_equiv_pos_as_xyz
  1  'x, y, z'
loop_
 _atom_site_type_symbol
 _atom_site_label
 _atom_site_symmetry_multiplicity
 _atom_site_fract_x
 _atom_site_fract_y
 _atom_site_fract_z
 _atom_site_occupancy
  Yb  Yb0  1  0.000000  0.500000  0.241204  1
  Yb  Yb1  1  0.500000  0.000000  0.258603  1
  Yb  Yb2  1  0.500000  0.000000  0.759026  1
  Pr  Pr3  1  0.822901  0.830152  0.602577  1
  Pr  Pr4  1  0.177068  0.830320  0.102435  1
  Pr  Pr5  1  0.169981  0.823293  0.397654  1
  Pr  Pr6  1  0.830019  0.176707  0.397654  1
  Pr  Pr7  1  0.676707  0.669981  0.397654  1
  Pr  Pr8  1  0.669848  0.322901  0.602577  1
  Pr  Pr9  1  0.330152  0.677099  0.602577  1
  Pr  Pr10  1  0.669680  0.677068  0.102435  1
  Pr  Pr11  1  0.677984  0.330664  0.897271  1
  Pr  Pr12  1  0.830664  0.822016  0.897271  1
  Pr  Pr13  1  0.323293  0.330019  0.397654  1
  Pr  Pr14  1  0.177099  0.169848  0.602577  1
  Pr  Pr15  1  0.822932  0.169680  0.102435  1
  Pr  Pr16  1  0.322016  0.669336  0.897271  1
  Pr  Pr17  1  0.330320  0.322932  0.102435  1
  Pr  Pr18  1  0.169336  0.177984  0.897271  1
  Tm  Tm19  1  0.000000  0.500000  0.738881  1
  Ga  Ga20  1  0.616722  0.383415  0.250049  1
  Ga  Ga21  1  0.114298  0.877666  0.750142  1
  Ga  Ga22  1  0.377666  0.385702  0.750142  1
  Ga  Ga23  1  0.383278  0.616585  0.250049  1
  Ga  Ga24  1  0.883415  0.883278  0.250049  1
  Ga  Ga25  1  0.622334  0.614298  0.750142  1
  Ga  Ga26  1  0.000000  0.500000  0.506780  1
  Ga  Ga27  1  0.885702  0.122334  0.750142  1
  Ga  Ga28  1  0.500000  0.000000  0.495766  1
  Ga  Ga29  1  0.500000  0.000000  0.996324  1
  Ga  Ga30  1  0.116585  0.116722  0.250049  1
  Ga  Ga31  1  0.000000  0.500000  0.002906  1
