# generated using pymatgen
data_Al13OsPd12
_symmetry_space_group_name_H-M   'P 1'
_cell_length_a   9.28409974
_cell_length_b   9.28410018
_cell_length_c   9.28410061
_cell_angle_alpha   116.47498741
_cell_angle_beta   116.47499350
_cell_angle_gamma   116.47498980
_symmetry_Int_Tables_number   1
_chemical_formula_structural   Al13OsPd12
_chemical_formula_sum   'Al13 Os1 Pd12'
_cell_volume   380.90431433
_cell_formula_units_Z   1
loop_
 _symmetry_equiv_pos_site_id
 _symmetry_equiv_pos_as_xyz
  1  'x, y, z'
loop_
 _atom_site_type_symbol
 _atom_site_label
 _atom_site_symmetry_multiplicity
 _atom_site_fract_x
 _atom_site_fract_y
 _atom_site_fract_z
 _atom_site_occupancy
  Al  Al0  1  0.342138  0.097449  0.056094  1
  Al  Al1  1  0.056095  0.342138  0.097448  1
  Al  Al2  1  0.097448  0.056096  0.342137  1
  Al  Al3  1  0.657861  0.902550  0.943904  1
  Al  Al4  1  0.943904  0.657861  0.902550  1
  Al  Al5  1  0.902550  0.943903  0.657861  1
  Al  Al6  1  0.155303  0.597389  0.752698  1
  Al  Al7  1  0.752698  0.155303  0.597389  1
  Al  Al8  1  0.597389  0.752697  0.155303  1
  Al  Al9  1  0.844697  0.402611  0.247303  1
  Al  Al10  1  0.247303  0.844697  0.402611  1
  Al  Al11  1  0.402611  0.247303  0.844697  1
  Al  Al12  1  0.500001  0.500001  0.500001  1
  Os  Os13  1  0.000000  0.000000  0.000000  1
  Pd  Pd14  1  0.653218  0.097454  0.249833  1
  Pd  Pd15  1  0.249833  0.653218  0.097454  1
  Pd  Pd16  1  0.097454  0.249833  0.653218  1
  Pd  Pd17  1  0.346784  0.902548  0.750169  1
  Pd  Pd18  1  0.750170  0.346784  0.902548  1
  Pd  Pd19  1  0.902548  0.750170  0.346784  1
  Pd  Pd20  1  0.843927  0.594997  0.554247  1
  Pd  Pd21  1  0.554246  0.843926  0.594998  1
  Pd  Pd22  1  0.594998  0.554247  0.843926  1
  Pd  Pd23  1  0.156075  0.405005  0.445755  1
  Pd  Pd24  1  0.445756  0.156076  0.405004  1
  Pd  Pd25  1  0.405005  0.445755  0.156076  1
