# generated using pymatgen
data_Tb7HoIn2NiRh
_symmetry_space_group_name_H-M   'P 1'
_cell_length_a   9.65469516
_cell_length_b   9.65131582
_cell_length_c   9.65468228
_cell_angle_alpha   60.02202714
_cell_angle_beta   60.19325496
_cell_angle_gamma   60.01732106
_symmetry_Int_Tables_number   1
_chemical_formula_structural   Tb7HoIn2NiRh
_chemical_formula_sum   'Tb14 Ho2 In4 Ni2 Rh2'
_cell_volume   637.24704128
_cell_formula_units_Z   2
loop_
 _symmetry_equiv_pos_site_id
 _symmetry_equiv_pos_as_xyz
  1  'x, y, z'
loop_
 _atom_site_type_symbol
 _atom_site_label
 _atom_site_symmetry_multiplicity
 _atom_site_fract_x
 _atom_site_fract_y
 _atom_site_fract_z
 _atom_site_occupancy
  Tb  Tb0  1  0.187602  0.191148  0.809648  1
  Tb  Tb1  1  0.652488  0.045775  0.652425  1
  Tb  Tb2  1  0.061841  0.062526  0.436508  1
  Tb  Tb3  1  0.436725  0.439225  0.061739  1
  Tb  Tb4  1  0.652528  0.649480  0.651996  1
  Tb  Tb5  1  0.809616  0.190783  0.187613  1
  Tb  Tb6  1  0.187238  0.811509  0.810059  1
  Tb  Tb7  1  0.047690  0.649949  0.652566  1
  Tb  Tb8  1  0.436864  0.062286  0.061942  1
  Tb  Tb9  1  0.438216  0.061914  0.437711  1
  Tb  Tb10  1  0.061979  0.438146  0.062275  1
  Tb  Tb11  1  0.652689  0.650003  0.047928  1
  Tb  Tb12  1  0.189743  0.809821  0.190155  1
  Tb  Tb13  1  0.061658  0.439435  0.436371  1
  Ho  Ho14  1  0.809669  0.811545  0.187758  1
  Ho  Ho15  1  0.810461  0.189090  0.810913  1
  In  In16  1  0.417643  0.417746  0.417628  1
  In  In17  1  0.418228  0.417518  0.746779  1
  In  In18  1  0.417762  0.747034  0.417579  1
  In  In19  1  0.746850  0.417600  0.418079  1
  Ni  Ni20  1  0.858416  0.426585  0.858337  1
  Ni  Ni21  1  0.858370  0.856656  0.858737  1
  Rh  Rh22  1  0.858659  0.857066  0.426532  1
  Rh  Rh23  1  0.427066  0.857157  0.858724  1
