# generated using pymatgen
data_Eu(BrO3)4
_symmetry_space_group_name_H-M   'P 1'
_cell_length_a   10.13323000
_cell_length_b   10.13323000
_cell_length_c   5.24345500
_cell_angle_alpha   90.00000000
_cell_angle_beta   90.00000000
_cell_angle_gamma   90.00000000
_symmetry_Int_Tables_number   1
_chemical_formula_structural   Eu(BrO3)4
_chemical_formula_sum   'Eu2 Br8 O24'
_cell_volume   538.41028274
_cell_formula_units_Z   2
loop_
 _symmetry_equiv_pos_site_id
 _symmetry_equiv_pos_as_xyz
  1  'x, y, z'
loop_
 _atom_site_type_symbol
 _atom_site_label
 _atom_site_symmetry_multiplicity
 _atom_site_fract_x
 _atom_site_fract_y
 _atom_site_fract_z
 _atom_site_occupancy
  Eu  Eu0  1  0.000000  0.000000  0.000000  1
  Eu  Eu1  1  0.500000  0.500000  0.500000  1
  Br  Br2  1  0.018808  0.267364  0.533788  1
  Br  Br3  1  0.767364  0.481192  0.033788  1
  Br  Br4  1  0.232636  0.518808  0.033788  1
  Br  Br5  1  0.981192  0.732636  0.533788  1
  Br  Br6  1  0.481192  0.232636  0.966212  1
  Br  Br7  1  0.732636  0.018808  0.466212  1
  Br  Br8  1  0.267364  0.981192  0.466212  1
  Br  Br9  1  0.518808  0.767364  0.966212  1
  O  O10  1  0.077425  0.155472  0.317002  1
  O  O11  1  0.655472  0.422575  0.817002  1
  O  O12  1  0.344528  0.577425  0.817002  1
  O  O13  1  0.922575  0.844528  0.317002  1
  O  O14  1  0.422575  0.344528  0.182998  1
  O  O15  1  0.844528  0.077425  0.682998  1
  O  O16  1  0.155472  0.922575  0.682998  1
  O  O17  1  0.577425  0.655472  0.182998  1
  O  O18  1  0.080098  0.199004  0.806323  1
  O  O19  1  0.699004  0.419902  0.306323  1
  O  O20  1  0.615156  0.897674  0.001714  1
  O  O21  1  0.397674  0.884844  0.501714  1
  O  O22  1  0.602326  0.115156  0.501714  1
  O  O23  1  0.384844  0.102326  0.001714  1
  O  O24  1  0.884844  0.602326  0.498286  1
  O  O25  1  0.102326  0.615156  0.998286  1
  O  O26  1  0.897674  0.384844  0.998286  1
  O  O27  1  0.115156  0.397674  0.498286  1
  O  O28  1  0.580098  0.699004  0.693677  1
  O  O29  1  0.199004  0.919902  0.193677  1
  O  O30  1  0.800996  0.080098  0.193677  1
  O  O31  1  0.419902  0.300996  0.693677  1
  O  O32  1  0.919902  0.800996  0.806323  1
  O  O33  1  0.300996  0.580098  0.306323  1
