# generated using pymatgen
data_Zr16TaNb3Si16
_symmetry_space_group_name_H-M   'P 1'
_cell_length_a   7.07172109
_cell_length_b   7.07172109
_cell_length_c   12.95519300
_cell_angle_alpha   89.99969129
_cell_angle_beta   90.00030871
_cell_angle_gamma   89.98167305
_symmetry_Int_Tables_number   1
_chemical_formula_structural   Zr16TaNb3Si16
_chemical_formula_sum   'Zr16 Ta1 Nb3 Si16'
_cell_volume   647.87931222
_cell_formula_units_Z   1
loop_
 _symmetry_equiv_pos_site_id
 _symmetry_equiv_pos_as_xyz
  1  'x, y, z'
loop_
 _atom_site_type_symbol
 _atom_site_label
 _atom_site_symmetry_multiplicity
 _atom_site_fract_x
 _atom_site_fract_y
 _atom_site_fract_z
 _atom_site_occupancy
  Zr  Zr0  1  0.354872  0.503061  0.376275  1
  Zr  Zr1  1  0.854955  0.997065  0.373817  1
  Zr  Zr2  1  0.003069  0.144995  0.126245  1
  Zr  Zr3  1  0.997065  0.854955  0.626183  1
  Zr  Zr4  1  0.644791  0.497006  0.876268  1
  Zr  Zr5  1  0.503061  0.354872  0.623725  1
  Zr  Zr6  1  0.497006  0.644791  0.123732  1
  Zr  Zr7  1  0.144995  0.003069  0.873755  1
  Zr  Zr8  1  0.999050  0.650769  0.033634  1
  Zr  Zr9  1  0.000893  0.349487  0.533617  1
  Zr  Zr10  1  0.650769  0.999050  0.966366  1
  Zr  Zr11  1  0.150848  0.500956  0.783613  1
  Zr  Zr12  1  0.849069  0.499141  0.283884  1
  Zr  Zr13  1  0.500956  0.150848  0.216387  1
  Zr  Zr14  1  0.499141  0.849069  0.716116  1
  Zr  Zr15  1  0.349487  0.000893  0.466383  1
  Ta  Ta16  1  0.675660  0.675660  0.500000  1
  Nb  Nb17  1  0.824351  0.175642  0.749930  1
  Nb  Nb18  1  0.175642  0.824351  0.250070  1
  Nb  Nb19  1  0.324443  0.324443  0.000000  1
  Si  Si20  1  0.048796  0.699548  0.435917  1
  Si  Si21  1  0.950579  0.300290  0.935859  1
  Si  Si22  1  0.699548  0.048796  0.564083  1
  Si  Si23  1  0.199692  0.450484  0.185839  1
  Si  Si24  1  0.800046  0.549590  0.685419  1
  Si  Si25  1  0.450484  0.199692  0.814161  1
  Si  Si26  1  0.549590  0.800046  0.314581  1
  Si  Si27  1  0.300290  0.950579  0.064141  1
  Si  Si28  1  0.852443  0.797798  0.821636  1
  Si  Si29  1  0.147596  0.202287  0.321580  1
  Si  Si30  1  0.797798  0.852443  0.178364  1
  Si  Si31  1  0.298377  0.647677  0.571530  1
  Si  Si32  1  0.702253  0.352421  0.071586  1
  Si  Si33  1  0.647677  0.298377  0.428470  1
  Si  Si34  1  0.352421  0.702253  0.928414  1
  Si  Si35  1  0.202287  0.147596  0.678420  1
