# generated using pymatgen
data_TbHoAl3Pt4
_symmetry_space_group_name_H-M   'P 1'
_cell_length_a   8.15128113
_cell_length_b   8.15128169
_cell_length_c   7.62861517
_cell_angle_alpha   89.91901271
_cell_angle_beta   90.08098895
_cell_angle_gamma   140.07751494
_symmetry_Int_Tables_number   1
_chemical_formula_structural   TbHoAl3Pt4
_chemical_formula_sum   'Tb2 Ho2 Al6 Pt8'
_cell_volume   325.28445162
_cell_formula_units_Z   2
loop_
 _symmetry_equiv_pos_site_id
 _symmetry_equiv_pos_as_xyz
  1  'x, y, z'
loop_
 _atom_site_type_symbol
 _atom_site_label
 _atom_site_symmetry_multiplicity
 _atom_site_fract_x
 _atom_site_fract_y
 _atom_site_fract_z
 _atom_site_occupancy
  Tb  Tb0  1  0.106796  0.893204  0.407859  1
  Tb  Tb1  1  0.893204  0.106796  0.592141  1
  Ho  Ho2  1  0.393395  0.606605  0.907829  1
  Ho  Ho3  1  0.606605  0.393395  0.092171  1
  Al  Al4  1  0.000000  0.000000  0.000000  1
  Al  Al5  1  0.500000  0.500000  0.500000  1
  Al  Al6  1  0.023040  0.477037  0.249539  1
  Al  Al7  1  0.477037  0.023040  0.750461  1
  Al  Al8  1  0.976960  0.522963  0.750461  1
  Al  Al9  1  0.522963  0.976960  0.249539  1
  Pt  Pt10  1  0.191586  0.309519  0.248939  1
  Pt  Pt11  1  0.309519  0.191586  0.751061  1
  Pt  Pt12  1  0.808414  0.690481  0.751061  1
  Pt  Pt13  1  0.690481  0.808414  0.248939  1
  Pt  Pt14  1  0.183997  0.816003  0.028368  1
  Pt  Pt15  1  0.816003  0.183997  0.971632  1
  Pt  Pt16  1  0.315725  0.684275  0.528684  1
  Pt  Pt17  1  0.684275  0.315725  0.471316  1
