# generated using pymatgen
data_Y4PSe4
_symmetry_space_group_name_H-M   'P 1'
_cell_length_a   4.02815443
_cell_length_b   9.94719184
_cell_length_c   8.95733200
_cell_angle_alpha   43.21452776
_cell_angle_beta   103.01460443
_cell_angle_gamma   89.88363491
_symmetry_Int_Tables_number   1
_chemical_formula_structural   Y4PSe4
_chemical_formula_sum   'Y4 P1 Se4'
_cell_volume   231.89911000
_cell_formula_units_Z   1
loop_
 _symmetry_equiv_pos_site_id
 _symmetry_equiv_pos_as_xyz
  1  'x, y, z'
loop_
 _atom_site_type_symbol
 _atom_site_label
 _atom_site_symmetry_multiplicity
 _atom_site_fract_x
 _atom_site_fract_y
 _atom_site_fract_z
 _atom_site_occupancy
  Y  Y0  1  0.937845  0.971050  0.848190  1
  Y  Y1  1  0.141917  0.356626  0.261839  1
  Y  Y2  1  0.544578  0.152244  0.064543  1
  Y  Y3  1  0.749550  0.537823  0.478295  1
  P  P4  1  0.343702  0.254432  0.663180  1
  Se  Se5  1  0.740624  0.060283  0.458465  1
  Se  Se6  1  0.538465  0.662431  0.052976  1
  Se  Se7  1  0.945439  0.448570  0.868023  1
  Se  Se8  1  0.148479  0.846349  0.273699  1
