# generated using pymatgen
data_Yb3Eu7(TlPd2)2
_symmetry_space_group_name_H-M   'P 1'
_cell_length_a   9.36610699
_cell_length_b   9.34039227
_cell_length_c   9.30956600
_cell_angle_alpha   128.70623584
_cell_angle_beta   128.46982876
_cell_angle_gamma   75.40527822
_symmetry_Int_Tables_number   1
_chemical_formula_structural   Yb3Eu7(TlPd2)2
_chemical_formula_sum   'Yb3 Eu7 Tl2 Pd4'
_cell_volume   484.91722835
_cell_formula_units_Z   1
loop_
 _symmetry_equiv_pos_site_id
 _symmetry_equiv_pos_as_xyz
  1  'x, y, z'
loop_
 _atom_site_type_symbol
 _atom_site_label
 _atom_site_symmetry_multiplicity
 _atom_site_fract_x
 _atom_site_fract_y
 _atom_site_fract_z
 _atom_site_occupancy
  Yb  Yb0  1  0.499322  0.498494  0.999417  1
  Yb  Yb1  1  0.998533  0.999422  0.999497  1
  Yb  Yb2  1  0.536180  0.035462  0.831607  1
  Eu  Eu3  1  0.200319  0.700463  0.172472  1
  Eu  Eu4  1  0.030356  0.199303  0.500824  1
  Eu  Eu5  1  0.699154  0.529211  0.500073  1
  Eu  Eu6  1  0.469556  0.970135  0.168654  1
  Eu  Eu7  1  0.800758  0.300700  0.829536  1
  Eu  Eu8  1  0.968376  0.800135  0.498692  1
  Eu  Eu9  1  0.300228  0.469366  0.499475  1
  Tl  Tl10  1  0.252662  0.247775  0.998079  1
  Tl  Tl11  1  0.747760  0.752728  0.998093  1
  Pd  Pd12  1  0.131269  0.631502  0.763244  1
  Pd  Pd13  1  0.864284  0.364003  0.231217  1
  Pd  Pd14  1  0.630958  0.869926  0.504294  1
  Pd  Pd15  1  0.370284  0.131372  0.504825  1
