# generated using pymatgen
data_Sm2Bi2Ru2O11
_symmetry_space_group_name_H-M   'P 1'
_cell_length_a   6.55926692
_cell_length_b   7.57387058
_cell_length_c   9.81581544
_cell_angle_alpha   101.16170459
_cell_angle_beta   91.51981710
_cell_angle_gamma   90.03311537
_symmetry_Int_Tables_number   1
_chemical_formula_structural   Sm2Bi2Ru2O11
_chemical_formula_sum   'Sm4 Bi4 Ru4 O22'
_cell_volume   478.24002889
_cell_formula_units_Z   2
loop_
 _symmetry_equiv_pos_site_id
 _symmetry_equiv_pos_as_xyz
  1  'x, y, z'
loop_
 _atom_site_type_symbol
 _atom_site_label
 _atom_site_symmetry_multiplicity
 _atom_site_fract_x
 _atom_site_fract_y
 _atom_site_fract_z
 _atom_site_occupancy
  Sm  Sm0  1  0.748398  0.368906  0.481998  1
  Sm  Sm1  1  0.251602  0.631094  0.518002  1
  Sm  Sm2  1  0.757622  0.872712  0.485353  1
  Sm  Sm3  1  0.242378  0.127288  0.514647  1
  Bi  Bi4  1  0.473899  0.954844  0.818837  1
  Bi  Bi5  1  0.526101  0.045156  0.181163  1
  Bi  Bi6  1  0.396790  0.455822  0.825803  1
  Bi  Bi7  1  0.603210  0.544178  0.174197  1
  Ru  Ru8  1  0.933479  0.702762  0.809587  1
  Ru  Ru9  1  0.066521  0.297238  0.190413  1
  Ru  Ru10  1  0.933695  0.201824  0.810467  1
  Ru  Ru11  1  0.066305  0.798176  0.189533  1
  O  O12  1  0.230534  0.722546  0.765432  1
  O  O13  1  0.769466  0.277454  0.234568  1
  O  O14  1  0.639847  0.674605  0.833963  1
  O  O15  1  0.360153  0.325395  0.166037  1
  O  O16  1  0.640223  0.242378  0.834930  1
  O  O17  1  0.359777  0.757622  0.165070  1
  O  O18  1  0.897387  0.158317  0.597770  1
  O  O19  1  0.102613  0.841683  0.402230  1
  O  O20  1  0.228904  0.158611  0.763697  1
  O  O21  1  0.771096  0.841389  0.236303  1
  O  O22  1  0.901304  0.640574  0.600231  1
  O  O23  1  0.098696  0.359426  0.399769  1
  O  O24  1  0.001976  0.547523  0.188570  1
  O  O25  1  0.998024  0.452477  0.811430  1
  O  O26  1  0.999110  0.772584  0.000353  1
  O  O27  1  0.000890  0.227416  0.999647  1
  O  O28  1  0.571406  0.599620  0.393738  1
  O  O29  1  0.428594  0.400380  0.606262  1
  O  O30  1  0.152295  0.053767  0.215126  1
  O  O31  1  0.847705  0.946233  0.784874  1
  O  O32  1  0.545884  0.100125  0.400109  1
  O  O33  1  0.454116  0.899875  0.599891  1
