# generated using pymatgen
data_MgSc4P12Ru19
_symmetry_space_group_name_H-M   'P 1'
_cell_length_a   12.39661578
_cell_length_b   12.39706318
_cell_length_c   3.94746400
_cell_angle_alpha   90.00000000
_cell_angle_beta   90.00000000
_cell_angle_gamma   120.00120152
_symmetry_Int_Tables_number   1
_chemical_formula_structural   MgSc4P12Ru19
_chemical_formula_sum   'Mg1 Sc4 P12 Ru19'
_cell_volume   525.37028662
_cell_formula_units_Z   1
loop_
 _symmetry_equiv_pos_site_id
 _symmetry_equiv_pos_as_xyz
  1  'x, y, z'
loop_
 _atom_site_type_symbol
 _atom_site_label
 _atom_site_symmetry_multiplicity
 _atom_site_fract_x
 _atom_site_fract_y
 _atom_site_fract_z
 _atom_site_occupancy
  Mg  Mg0  1  0.000000  0.188225  0.500000  1
  Sc  Sc1  1  0.817853  0.815969  0.500000  1
  Sc  Sc2  1  0.182147  0.998117  0.500000  1
  Sc  Sc3  1  0.673029  0.332632  0.000000  1
  Sc  Sc4  1  0.326971  0.659604  0.000000  1
  P  P5  1  0.000000  0.829359  0.000000  1
  P  P6  1  0.193507  0.176729  0.000000  1
  P  P7  1  0.806493  0.983222  0.000000  1
  P  P8  1  0.699780  0.170335  0.500000  1
  P  P9  1  0.829628  0.525113  0.500000  1
  P  P10  1  0.483019  0.307976  0.500000  1
  P  P11  1  0.170372  0.695485  0.500000  1
  P  P12  1  0.516981  0.824958  0.500000  1
  P  P13  1  0.300220  0.470555  0.500000  1
  P  P14  1  0.000000  0.381252  0.000000  1
  P  P15  1  0.625485  0.626633  0.000000  1
  P  P16  1  0.374515  0.001148  0.000000  1
  Ru  Ru17  1  0.000000  0.562067  0.000000  1
  Ru  Ru18  1  0.438712  0.444889  0.000000  1
  Ru  Ru19  1  0.561288  0.006177  0.000000  1
  Ru  Ru20  1  0.000000  0.725500  0.500000  1
  Ru  Ru21  1  0.282031  0.276345  0.500000  1
  Ru  Ru22  1  0.717969  0.994315  0.500000  1
  Ru  Ru23  1  0.825513  0.182372  0.000000  1
  Ru  Ru24  1  0.814927  0.630304  0.000000  1
  Ru  Ru25  1  0.385186  0.193361  0.000000  1
  Ru  Ru26  1  0.185073  0.815377  0.000000  1
  Ru  Ru27  1  0.614814  0.808174  0.000000  1
  Ru  Ru28  1  0.174487  0.356859  0.000000  1
  Ru  Ru29  1  0.872297  0.365945  0.500000  1
  Ru  Ru30  1  0.633916  0.509097  0.500000  1
  Ru  Ru31  1  0.500730  0.130487  0.500000  1
  Ru  Ru32  1  0.366084  0.875181  0.500000  1
  Ru  Ru33  1  0.499270  0.629756  0.500000  1
  Ru  Ru34  1  0.127703  0.493647  0.500000  1
  Ru  Ru35  1  0.000000  0.012833  0.000000  1
