# generated using pymatgen
data_Ho4Fe3Co17As12
_symmetry_space_group_name_H-M   'P 1'
_cell_length_a   3.79600400
_cell_length_b   10.65964298
_cell_length_c   12.19948868
_cell_angle_alpha   90.05217370
_cell_angle_beta   90.00000000
_cell_angle_gamma   90.00000000
_symmetry_Int_Tables_number   1
_chemical_formula_structural   Ho4Fe3Co17As12
_chemical_formula_sum   'Ho4 Fe3 Co17 As12'
_cell_volume   493.64048323
_cell_formula_units_Z   1
loop_
 _symmetry_equiv_pos_site_id
 _symmetry_equiv_pos_as_xyz
  1  'x, y, z'
loop_
 _atom_site_type_symbol
 _atom_site_label
 _atom_site_symmetry_multiplicity
 _atom_site_fract_x
 _atom_site_fract_y
 _atom_site_fract_z
 _atom_site_occupancy
  Ho  Ho0  1  0.250000  0.580118  0.702317  1
  Ho  Ho1  1  0.250000  0.919899  0.201335  1
  Ho  Ho2  1  0.750000  0.419949  0.297885  1
  Ho  Ho3  1  0.750000  0.079421  0.798331  1
  Fe  Fe4  1  0.250000  0.706743  0.988807  1
  Fe  Fe5  1  0.250000  0.792751  0.488238  1
  Fe  Fe6  1  0.750000  0.293015  0.011286  1
  Co  Co7  1  0.750000  0.207926  0.510119  1
  Co  Co8  1  0.250000  0.406081  0.487751  1
  Co  Co9  1  0.250000  0.093804  0.987347  1
  Co  Co10  1  0.750000  0.593467  0.513071  1
  Co  Co11  1  0.750000  0.906587  0.013581  1
  Co  Co12  1  0.250000  0.216544  0.177460  1
  Co  Co13  1  0.250000  0.283609  0.676041  1
  Co  Co14  1  0.750000  0.783414  0.823190  1
  Co  Co15  1  0.750000  0.716877  0.323306  1
  Co  Co16  1  0.250000  0.883270  0.697182  1
  Co  Co17  1  0.250000  0.616615  0.197464  1
  Co  Co18  1  0.750000  0.116834  0.303096  1
  Co  Co19  1  0.750000  0.382518  0.802160  1
  Co  Co20  1  0.250000  0.467993  0.932359  1
  Co  Co21  1  0.250000  0.031870  0.432865  1
  Co  Co22  1  0.750000  0.531423  0.067186  1
  Co  Co23  1  0.750000  0.969347  0.567277  1
  As  As24  1  0.250000  0.416308  0.115168  1
  As  As25  1  0.250000  0.083359  0.615288  1
  As  As26  1  0.750000  0.583241  0.884556  1
  As  As27  1  0.750000  0.916752  0.384622  1
  As  As28  1  0.250000  0.267452  0.867993  1
  As  As29  1  0.250000  0.232222  0.368409  1
  As  As30  1  0.750000  0.731904  0.131780  1
  As  As31  1  0.750000  0.768388  0.631942  1
  As  As32  1  0.250000  0.600455  0.391391  1
  As  As33  1  0.250000  0.899027  0.892056  1
  As  As34  1  0.750000  0.399441  0.608447  1
  As  As35  1  0.750000  0.101376  0.108697  1
