# generated using pymatgen
data_Tb7HoHf12Si15Ir
_symmetry_space_group_name_H-M   'P 1'
_cell_length_a   7.29472536
_cell_length_b   7.30100501
_cell_length_c   13.43163727
_cell_angle_alpha   89.88006808
_cell_angle_beta   89.92280978
_cell_angle_gamma   90.02873779
_symmetry_Int_Tables_number   1
_chemical_formula_structural   Tb7HoHf12Si15Ir
_chemical_formula_sum   'Tb7 Ho1 Hf12 Si15 Ir1'
_cell_volume   715.35093012
_cell_formula_units_Z   1
loop_
 _symmetry_equiv_pos_site_id
 _symmetry_equiv_pos_as_xyz
  1  'x, y, z'
loop_
 _atom_site_type_symbol
 _atom_site_label
 _atom_site_symmetry_multiplicity
 _atom_site_fract_x
 _atom_site_fract_y
 _atom_site_fract_z
 _atom_site_occupancy
  Tb  Tb0  1  0.004336  0.655381  0.714633  1
  Tb  Tb1  1  0.157696  0.494368  0.463528  1
  Tb  Tb2  1  0.503641  0.842696  0.034265  1
  Tb  Tb3  1  0.844330  0.502868  0.965161  1
  Tb  Tb4  1  0.496098  0.157307  0.535398  1
  Tb  Tb5  1  0.343592  0.996931  0.785148  1
  Tb  Tb6  1  0.657548  0.000599  0.284532  1
  Ho  Ho7  1  0.996011  0.346797  0.214603  1
  Hf  Hf8  1  0.174900  0.175171  0.998752  1
  Hf  Hf9  1  0.827010  0.825699  0.500364  1
  Hf  Hf10  1  0.325188  0.667729  0.252687  1
  Hf  Hf11  1  0.674257  0.325294  0.750253  1
  Hf  Hf12  1  0.153768  0.004985  0.373413  1
  Hf  Hf13  1  0.850372  0.004093  0.874732  1
  Hf  Hf14  1  0.503859  0.650546  0.625549  1
  Hf  Hf15  1  0.351162  0.495903  0.873847  1
  Hf  Hf16  1  0.494567  0.346839  0.126650  1
  Hf  Hf17  1  0.646083  0.501816  0.378640  1
  Hf  Hf18  1  0.997074  0.148689  0.626272  1
  Hf  Hf19  1  0.000574  0.848812  0.124361  1
  Si  Si20  1  0.638149  0.705270  0.818362  1
  Si  Si21  1  0.204865  0.862202  0.566739  1
  Si  Si22  1  0.137725  0.795127  0.932837  1
  Si  Si23  1  0.796744  0.137391  0.066319  1
  Si  Si24  1  0.861008  0.199873  0.435506  1
  Si  Si25  1  0.295812  0.362317  0.683346  1
  Si  Si26  1  0.704059  0.638952  0.182682  1
  Si  Si27  1  0.290648  0.045594  0.183676  1
  Si  Si28  1  0.705507  0.951347  0.685703  1
  Si  Si29  1  0.451985  0.797607  0.438073  1
  Si  Si30  1  0.205479  0.550124  0.061795  1
  Si  Si31  1  0.548205  0.204882  0.935218  1
  Si  Si32  1  0.795107  0.451278  0.566208  1
  Si  Si33  1  0.047944  0.295601  0.814580  1
  Si  Si34  1  0.949443  0.708783  0.313826  1
  Ir  Ir35  1  0.365252  0.301126  0.312344  1
