# generated using pymatgen
data_Er12ZnCo4Sn
_symmetry_space_group_name_H-M   'P 1'
_cell_length_a   8.23911853
_cell_length_b   8.23911867
_cell_length_c   8.23911859
_cell_angle_alpha   111.40104466
_cell_angle_beta   109.89145255
_cell_angle_gamma   107.14956101
_symmetry_Int_Tables_number   1
_chemical_formula_structural   Er12ZnCo4Sn
_chemical_formula_sum   'Er12 Zn1 Co4 Sn1'
_cell_volume   429.94134114
_cell_formula_units_Z   1
loop_
 _symmetry_equiv_pos_site_id
 _symmetry_equiv_pos_as_xyz
  1  'x, y, z'
loop_
 _atom_site_type_symbol
 _atom_site_label
 _atom_site_symmetry_multiplicity
 _atom_site_fract_x
 _atom_site_fract_y
 _atom_site_fract_z
 _atom_site_occupancy
  Er  Er0  1  0.315024  0.617254  0.302229  1
  Er  Er1  1  0.684976  0.382747  0.697771  1
  Er  Er2  1  0.315024  0.012794  0.697771  1
  Er  Er3  1  0.684976  0.987206  0.302229  1
  Er  Er4  1  0.429329  0.222180  0.207149  1
  Er  Er5  1  0.570671  0.777820  0.792851  1
  Er  Er6  1  0.015032  0.222180  0.792851  1
  Er  Er7  1  0.984968  0.777820  0.207149  1
  Er  Er8  1  0.184245  0.286813  0.471057  1
  Er  Er9  1  0.815755  0.713187  0.528943  1
  Er  Er10  1  0.184245  0.713187  0.897432  1
  Er  Er11  1  0.815755  0.286813  0.102568  1
  Zn  Zn12  1  0.000000  0.000000  0.000000  1
  Co  Co13  1  0.113516  0.613516  0.500000  1
  Co  Co14  1  0.886485  0.386485  0.500000  1
  Co  Co15  1  0.377457  0.000000  0.377457  1
  Co  Co16  1  0.622543  0.000000  0.622543  1
  Sn  Sn17  1  0.500000  0.500000  0.000000  1
