# generated using pymatgen
data_Ca2Tb2Bi3Sb3Rh7
_symmetry_space_group_name_H-M   'P 1'
_cell_length_a   7.72583368
_cell_length_b   7.70221885
_cell_length_c   7.73858791
_cell_angle_alpha   109.39428070
_cell_angle_beta   109.51775075
_cell_angle_gamma   109.37277909
_symmetry_Int_Tables_number   1
_chemical_formula_structural   Ca2Tb2Bi3Sb3Rh7
_chemical_formula_sum   'Ca2 Tb2 Bi3 Sb3 Rh7'
_cell_volume   355.04968259
_cell_formula_units_Z   1
loop_
 _symmetry_equiv_pos_site_id
 _symmetry_equiv_pos_as_xyz
  1  'x, y, z'
loop_
 _atom_site_type_symbol
 _atom_site_label
 _atom_site_symmetry_multiplicity
 _atom_site_fract_x
 _atom_site_fract_y
 _atom_site_fract_z
 _atom_site_occupancy
  Ca  Ca0  1  0.471050  0.000122  0.000000  1
  Ca  Ca1  1  0.003493  0.510869  0.000000  1
  Tb  Tb2  1  0.003081  0.999431  0.513830  1
  Tb  Tb3  1  0.489251  0.485601  0.486170  1
  Bi  Bi4  1  0.985926  0.301289  0.297688  1
  Bi  Bi5  1  0.688237  0.003601  0.702312  1
  Bi  Bi6  1  0.689586  0.699226  0.000000  1
  Sb  Sb7  1  0.995719  0.668208  0.672154  1
  Sb  Sb8  1  0.323565  0.996055  0.327846  1
  Sb  Sb9  1  0.326202  0.333559  0.000000  1
  Rh  Rh10  1  0.048013  0.003442  0.000000  1
  Rh  Rh11  1  0.504628  0.752227  0.260920  1
  Rh  Rh12  1  0.746594  0.508089  0.255634  1
  Rh  Rh13  1  0.244440  0.746708  0.498893  1
  Rh  Rh14  1  0.243708  0.491306  0.739080  1
  Rh  Rh15  1  0.490959  0.252454  0.744366  1
  Rh  Rh16  1  0.745546  0.247815  0.501107  1
