# generated using pymatgen
data_Yb5Ge12Ir19
_symmetry_space_group_name_H-M   'P 1'
_cell_length_a   13.09917400
_cell_length_b   13.09917361
_cell_length_c   4.06442700
_cell_angle_alpha   90.00000000
_cell_angle_beta   90.00000000
_cell_angle_gamma   120.00000099
_symmetry_Int_Tables_number   1
_chemical_formula_structural   Yb5Ge12Ir19
_chemical_formula_sum   'Yb5 Ge12 Ir19'
_cell_volume   603.97333348
_cell_formula_units_Z   1
loop_
 _symmetry_equiv_pos_site_id
 _symmetry_equiv_pos_as_xyz
  1  'x, y, z'
loop_
 _atom_site_type_symbol
 _atom_site_label
 _atom_site_symmetry_multiplicity
 _atom_site_fract_x
 _atom_site_fract_y
 _atom_site_fract_z
 _atom_site_occupancy
  Yb  Yb0  1  0.333333  0.666667  0.000000  1
  Yb  Yb1  1  0.666667  0.333333  0.000000  1
  Yb  Yb2  1  0.179714  0.179714  0.500000  1
  Yb  Yb3  1  0.820286  0.000000  0.500000  1
  Yb  Yb4  1  0.000000  0.820286  0.500000  1
  Ge  Ge5  1  0.818118  0.818118  0.000000  1
  Ge  Ge6  1  0.181882  0.000000  0.000000  1
  Ge  Ge7  1  0.000000  0.181882  0.000000  1
  Ge  Ge8  1  0.315516  0.829406  0.500000  1
  Ge  Ge9  1  0.170594  0.486111  0.500000  1
  Ge  Ge10  1  0.513889  0.684484  0.500000  1
  Ge  Ge11  1  0.829406  0.315516  0.500000  1
  Ge  Ge12  1  0.486111  0.170594  0.500000  1
  Ge  Ge13  1  0.684484  0.513889  0.500000  1
  Ge  Ge14  1  0.362704  0.362704  0.000000  1
  Ge  Ge15  1  0.637296  0.000000  0.000000  1
  Ge  Ge16  1  0.000000  0.637296  0.000000  1
  Ir  Ir17  1  0.197198  0.818140  0.000000  1
  Ir  Ir18  1  0.181860  0.379058  0.000000  1
  Ir  Ir19  1  0.620942  0.802802  0.000000  1
  Ir  Ir20  1  0.818140  0.197198  0.000000  1
  Ir  Ir21  1  0.379058  0.181860  0.000000  1
  Ir  Ir22  1  0.802802  0.620942  0.000000  1
  Ir  Ir23  1  0.712097  0.712097  0.500000  1
  Ir  Ir24  1  0.287903  0.000000  0.500000  1
  Ir  Ir25  1  0.000000  0.287903  0.500000  1
  Ir  Ir26  1  0.123523  0.641336  0.500000  1
  Ir  Ir27  1  0.358664  0.482186  0.500000  1
  Ir  Ir28  1  0.517814  0.876477  0.500000  1
  Ir  Ir29  1  0.641336  0.123523  0.500000  1
  Ir  Ir30  1  0.482186  0.358664  0.500000  1
  Ir  Ir31  1  0.876477  0.517814  0.500000  1
  Ir  Ir32  1  0.551591  0.551591  0.000000  1
  Ir  Ir33  1  0.448409  0.000000  0.000000  1
  Ir  Ir34  1  0.000000  0.448409  0.000000  1
  Ir  Ir35  1  0.000000  0.000000  0.000000  1
