# generated using pymatgen
data_HfZr2Sc(CoP)4
_symmetry_space_group_name_H-M   'P 1'
_cell_length_a   3.69555900
_cell_length_b   6.31300818
_cell_length_c   7.10810025
_cell_angle_alpha   90.01968520
_cell_angle_beta   90.00000000
_cell_angle_gamma   90.00000000
_symmetry_Int_Tables_number   1
_chemical_formula_structural   HfZr2Sc(CoP)4
_chemical_formula_sum   'Hf1 Zr2 Sc1 Co4 P4'
_cell_volume   165.83263854
_cell_formula_units_Z   1
loop_
 _symmetry_equiv_pos_site_id
 _symmetry_equiv_pos_as_xyz
  1  'x, y, z'
loop_
 _atom_site_type_symbol
 _atom_site_label
 _atom_site_symmetry_multiplicity
 _atom_site_fract_x
 _atom_site_fract_y
 _atom_site_fract_z
 _atom_site_occupancy
  Hf  Hf0  1  0.250000  0.018075  0.815516  1
  Zr  Zr1  1  0.750000  0.980578  0.182660  1
  Zr  Zr2  1  0.750000  0.480718  0.317708  1
  Sc  Sc3  1  0.250000  0.518822  0.684613  1
  Co  Co4  1  0.750000  0.357844  0.936611  1
  Co  Co5  1  0.250000  0.138789  0.442491  1
  Co  Co6  1  0.750000  0.861158  0.563304  1
  Co  Co7  1  0.250000  0.640698  0.057396  1
  P  P8  1  0.250000  0.775149  0.388826  1
  P  P9  1  0.250000  0.276334  0.111595  1
  P  P10  1  0.750000  0.227189  0.615852  1
  P  P11  1  0.750000  0.724646  0.883427  1
