# generated using pymatgen
data_DyTm5(Si3Ru)8
_symmetry_space_group_name_H-M   'P 1'
_cell_length_a   10.10731704
_cell_length_b   10.10736481
_cell_length_c   8.10597761
_cell_angle_alpha   89.93395108
_cell_angle_beta   90.06580759
_cell_angle_gamma   132.70513232
_symmetry_Int_Tables_number   1
_chemical_formula_structural   DyTm5(Si3Ru)8
_chemical_formula_sum   'Dy1 Tm5 Si24 Ru8'
_cell_volume   608.52700772
_cell_formula_units_Z   1
loop_
 _symmetry_equiv_pos_site_id
 _symmetry_equiv_pos_as_xyz
  1  'x, y, z'
loop_
 _atom_site_type_symbol
 _atom_site_label
 _atom_site_symmetry_multiplicity
 _atom_site_fract_x
 _atom_site_fract_y
 _atom_site_fract_z
 _atom_site_occupancy
  Dy  Dy0  1  0.002348  0.502343  0.750006  1
  Tm  Tm1  1  0.500010  0.500007  0.499898  1
  Tm  Tm2  1  0.000007  0.000014  0.000106  1
  Tm  Tm3  1  0.502303  0.002309  0.750003  1
  Tm  Tm4  1  0.997817  0.497821  0.249997  1
  Tm  Tm5  1  0.498047  0.998040  0.249992  1
  Si  Si6  1  0.794744  0.204903  0.499364  1
  Si  Si7  1  0.295238  0.705475  0.000693  1
  Si  Si8  1  0.205469  0.795244  0.499305  1
  Si  Si9  1  0.704910  0.294742  0.000635  1
  Si  Si10  1  0.332359  0.332464  0.832921  1
  Si  Si11  1  0.667554  0.667600  0.166895  1
  Si  Si12  1  0.167592  0.167547  0.333093  1
  Si  Si13  1  0.832470  0.832365  0.667093  1
  Si  Si14  1  0.122562  0.887790  0.729195  1
  Si  Si15  1  0.111547  0.877335  0.271781  1
  Si  Si16  1  0.613075  0.378980  0.228291  1
  Si  Si17  1  0.621666  0.387021  0.771273  1
  Si  Si18  1  0.878972  0.113058  0.271701  1
  Si  Si19  1  0.887041  0.121675  0.728733  1
  Si  Si20  1  0.387768  0.622553  0.770811  1
  Si  Si21  1  0.377347  0.611569  0.228209  1
  Si  Si22  1  0.344738  0.111558  0.504818  1
  Si  Si23  1  0.887667  0.653276  0.494341  1
  Si  Si24  1  0.388563  0.155466  0.004260  1
  Si  Si25  1  0.846237  0.612294  0.996310  1
  Si  Si26  1  0.655459  0.888553  0.495719  1
  Si  Si27  1  0.112300  0.346241  0.503712  1
  Si  Si28  1  0.611548  0.844728  0.995204  1
  Si  Si29  1  0.153283  0.387676  0.005639  1
  Ru  Ru30  1  0.667488  0.328298  0.499123  1
  Ru  Ru31  1  0.171576  0.832492  0.001319  1
  Ru  Ru32  1  0.332483  0.671577  0.498677  1
  Ru  Ru33  1  0.828301  0.167482  0.000873  1
  Ru  Ru34  1  0.126406  0.126486  0.627814  1
  Ru  Ru35  1  0.873387  0.873227  0.372490  1
  Ru  Ru36  1  0.373234  0.373390  0.127523  1
  Ru  Ru37  1  0.626484  0.626400  0.872180  1
