# generated using pymatgen
data_Zr9TiCoOs3
_symmetry_space_group_name_H-M   'P 1'
_cell_length_a   8.74348600
_cell_length_b   8.74348464
_cell_length_c   8.48059600
_cell_angle_alpha   90.00000000
_cell_angle_beta   90.00000000
_cell_angle_gamma   119.99999758
_symmetry_Int_Tables_number   1
_chemical_formula_structural   Zr9TiCoOs3
_chemical_formula_sum   'Zr18 Ti2 Co2 Os6'
_cell_volume   561.46952299
_cell_formula_units_Z   2
loop_
 _symmetry_equiv_pos_site_id
 _symmetry_equiv_pos_as_xyz
  1  'x, y, z'
loop_
 _atom_site_type_symbol
 _atom_site_label
 _atom_site_symmetry_multiplicity
 _atom_site_fract_x
 _atom_site_fract_y
 _atom_site_fract_z
 _atom_site_occupancy
  Zr  Zr0  1  0.198737  0.801263  0.441383  1
  Zr  Zr1  1  0.198737  0.397474  0.441383  1
  Zr  Zr2  1  0.602526  0.801263  0.441383  1
  Zr  Zr3  1  0.801263  0.198737  0.558617  1
  Zr  Zr4  1  0.801263  0.602526  0.558617  1
  Zr  Zr5  1  0.397474  0.198737  0.558617  1
  Zr  Zr6  1  0.801263  0.198737  0.941383  1
  Zr  Zr7  1  0.801263  0.602526  0.941383  1
  Zr  Zr8  1  0.397474  0.198737  0.941383  1
  Zr  Zr9  1  0.198737  0.801263  0.058617  1
  Zr  Zr10  1  0.198737  0.397474  0.058617  1
  Zr  Zr11  1  0.602526  0.801263  0.058617  1
  Zr  Zr12  1  0.541883  0.458117  0.250000  1
  Zr  Zr13  1  0.541883  0.083765  0.250000  1
  Zr  Zr14  1  0.916235  0.458117  0.250000  1
  Zr  Zr15  1  0.458117  0.541883  0.750000  1
  Zr  Zr16  1  0.458117  0.916235  0.750000  1
  Zr  Zr17  1  0.083765  0.541883  0.750000  1
  Ti  Ti18  1  0.000000  0.000000  0.500000  1
  Ti  Ti19  1  0.000000  0.000000  0.000000  1
  Co  Co20  1  0.333333  0.666667  0.250000  1
  Co  Co21  1  0.666667  0.333333  0.750000  1
  Os  Os22  1  0.890222  0.109778  0.250000  1
  Os  Os23  1  0.890222  0.780444  0.250000  1
  Os  Os24  1  0.219556  0.109778  0.250000  1
  Os  Os25  1  0.109778  0.890222  0.750000  1
  Os  Os26  1  0.109778  0.219556  0.750000  1
  Os  Os27  1  0.780444  0.890222  0.750000  1
