# generated using pymatgen
data_Zr10Tl6S
_symmetry_space_group_name_H-M   'P 1'
_cell_length_a   5.90144302
_cell_length_b   8.66439045
_cell_length_c   8.66424201
_cell_angle_alpha   120.00455907
_cell_angle_beta   89.99866156
_cell_angle_gamma   90.00860834
_symmetry_Int_Tables_number   1
_chemical_formula_structural   Zr10Tl6S
_chemical_formula_sum   'Zr10 Tl6 S1'
_cell_volume   383.65201231
_cell_formula_units_Z   1
loop_
 _symmetry_equiv_pos_site_id
 _symmetry_equiv_pos_as_xyz
  1  'x, y, z'
loop_
 _atom_site_type_symbol
 _atom_site_label
 _atom_site_symmetry_multiplicity
 _atom_site_fract_x
 _atom_site_fract_y
 _atom_site_fract_z
 _atom_site_occupancy
  Zr  Zr0  1  0.500007  0.333336  0.666668  1
  Zr  Zr1  1  0.499999  0.666667  0.333332  1
  Zr  Zr2  1  0.000007  0.666670  0.333335  1
  Zr  Zr3  1  0.999987  0.333331  0.666664  1
  Zr  Zr4  1  0.757834  0.242073  0.999903  1
  Zr  Zr5  1  0.757828  0.757833  0.757922  1
  Zr  Zr6  1  0.757824  0.000099  0.242168  1
  Zr  Zr7  1  0.242165  0.757834  0.999908  1
  Zr  Zr8  1  0.242173  0.242071  0.242173  1
  Zr  Zr9  1  0.242175  0.000088  0.757926  1
  Tl  Tl10  1  0.750379  0.606262  0.000032  1
  Tl  Tl11  1  0.750377  0.393769  0.393738  1
  Tl  Tl12  1  0.750378  0.999966  0.606231  1
  Tl  Tl13  1  0.249620  0.393771  0.000032  1
  Tl  Tl14  1  0.249623  0.606264  0.606230  1
  Tl  Tl15  1  0.249623  0.999968  0.393737  1
  S  S16  1  0.500001  0.000000  0.000000  1
