# generated using pymatgen
data_YbTm3Pa4(ReB6)4
_symmetry_space_group_name_H-M   'P 1'
_cell_length_a   3.70448600
_cell_length_b   9.12769942
_cell_length_c   11.47051252
_cell_angle_alpha   90.03463516
_cell_angle_beta   90.00000000
_cell_angle_gamma   90.00000000
_symmetry_Int_Tables_number   1
_chemical_formula_structural   YbTm3Pa4(ReB6)4
_chemical_formula_sum   'Yb1 Tm3 Pa4 Re4 B24'
_cell_volume   387.85735536
_cell_formula_units_Z   1
loop_
 _symmetry_equiv_pos_site_id
 _symmetry_equiv_pos_as_xyz
  1  'x, y, z'
loop_
 _atom_site_type_symbol
 _atom_site_label
 _atom_site_symmetry_multiplicity
 _atom_site_fract_x
 _atom_site_fract_y
 _atom_site_fract_z
 _atom_site_occupancy
  Yb  Yb0  1  0.000000  0.945511  0.374673  1
  Tm  Tm1  1  0.000000  0.053793  0.623431  1
  Tm  Tm2  1  0.000000  0.445286  0.125820  1
  Tm  Tm3  1  0.000000  0.555039  0.874278  1
  Pa  Pa4  1  0.000000  0.321625  0.412811  1
  Pa  Pa5  1  0.000000  0.678590  0.585887  1
  Pa  Pa6  1  0.000000  0.822601  0.087944  1
  Pa  Pa7  1  0.000000  0.178006  0.913752  1
  Re  Re8  1  0.000000  0.638391  0.321217  1
  Re  Re9  1  0.000000  0.361013  0.679145  1
  Re  Re10  1  0.000000  0.139279  0.178220  1
  Re  Re11  1  0.000000  0.861605  0.821986  1
  B  B12  1  0.500000  0.552704  0.433106  1
  B  B13  1  0.500000  0.446755  0.566870  1
  B  B14  1  0.500000  0.053374  0.066942  1
  B  B15  1  0.500000  0.946780  0.933413  1
  B  B16  1  0.500000  0.748215  0.419927  1
  B  B17  1  0.500000  0.251142  0.579425  1
  B  B18  1  0.500000  0.249275  0.080017  1
  B  B19  1  0.500000  0.750965  0.920401  1
  B  B20  1  0.500000  0.792946  0.265821  1
  B  B21  1  0.500000  0.206210  0.734106  1
  B  B22  1  0.500000  0.293229  0.234072  1
  B  B23  1  0.500000  0.706484  0.765943  1
  B  B24  1  0.500000  0.632563  0.184878  1
  B  B25  1  0.500000  0.367325  0.815225  1
  B  B26  1  0.500000  0.132867  0.315021  1
  B  B27  1  0.500000  0.866898  0.684611  1
  B  B28  1  0.500000  0.983134  0.213922  1
  B  B29  1  0.500000  0.017480  0.785774  1
  B  B30  1  0.500000  0.482547  0.286297  1
  B  B31  1  0.500000  0.517730  0.713791  1
  B  B32  1  0.500000  0.608876  0.030125  1
  B  B33  1  0.500000  0.391358  0.969840  1
  B  B34  1  0.500000  0.111766  0.469688  1
  B  B35  1  0.500000  0.888641  0.531622  1
