# generated using pymatgen
data_Na16ZrSiP8
_symmetry_space_group_name_H-M   'P 1'
_cell_length_a   9.57957672
_cell_length_b   9.57957613
_cell_length_c   9.57957700
_cell_angle_alpha   60.00000046
_cell_angle_beta   60.00000247
_cell_angle_gamma   59.99999765
_symmetry_Int_Tables_number   1
_chemical_formula_structural   Na16ZrSiP8
_chemical_formula_sum   'Na16 Zr1 Si1 P8'
_cell_volume   621.61852681
_cell_formula_units_Z   1
loop_
 _symmetry_equiv_pos_site_id
 _symmetry_equiv_pos_as_xyz
  1  'x, y, z'
loop_
 _atom_site_type_symbol
 _atom_site_label
 _atom_site_symmetry_multiplicity
 _atom_site_fract_x
 _atom_site_fract_y
 _atom_site_fract_z
 _atom_site_occupancy
  Na  Na0  1  0.628498  0.628498  0.114506  1
  Na  Na1  1  0.628498  0.114506  0.628498  1
  Na  Na2  1  0.114506  0.628498  0.628498  1
  Na  Na3  1  0.628498  0.628498  0.628498  1
  Na  Na4  1  0.030665  0.469335  0.469335  1
  Na  Na5  1  0.774480  0.225520  0.225520  1
  Na  Na6  1  0.469335  0.030665  0.469335  1
  Na  Na7  1  0.469335  0.469335  0.030665  1
  Na  Na8  1  0.030665  0.030665  0.469335  1
  Na  Na9  1  0.030665  0.469335  0.030665  1
  Na  Na10  1  0.469335  0.030665  0.030665  1
  Na  Na11  1  0.774480  0.225520  0.774480  1
  Na  Na12  1  0.225520  0.774480  0.225520  1
  Na  Na13  1  0.225520  0.225520  0.774480  1
  Na  Na14  1  0.774480  0.774480  0.225520  1
  Na  Na15  1  0.225520  0.774480  0.774480  1
  Zr  Zr16  1  0.500000  0.500000  0.500000  1
  Si  Si17  1  0.750000  0.750000  0.750000  1
  P  P18  1  0.850334  0.850334  0.448999  1
  P  P19  1  0.850334  0.448999  0.850334  1
  P  P20  1  0.391849  0.391849  0.824451  1
  P  P21  1  0.391849  0.824451  0.391849  1
  P  P22  1  0.824451  0.391849  0.391849  1
  P  P23  1  0.850334  0.850334  0.850334  1
  P  P24  1  0.448999  0.850334  0.850334  1
  P  P25  1  0.391849  0.391849  0.391849  1
