# generated using pymatgen
data_Dy6Y4Tl7InPd4
_symmetry_space_group_name_H-M   'P 1'
_cell_length_a   3.64581400
_cell_length_b   8.22870178
_cell_length_c   18.44433020
_cell_angle_alpha   89.94450478
_cell_angle_beta   90.00000000
_cell_angle_gamma   90.00000000
_symmetry_Int_Tables_number   1
_chemical_formula_structural   Dy6Y4Tl7InPd4
_chemical_formula_sum   'Dy6 Y4 Tl7 In1 Pd4'
_cell_volume   553.33547786
_cell_formula_units_Z   1
loop_
 _symmetry_equiv_pos_site_id
 _symmetry_equiv_pos_as_xyz
  1  'x, y, z'
loop_
 _atom_site_type_symbol
 _atom_site_label
 _atom_site_symmetry_multiplicity
 _atom_site_fract_x
 _atom_site_fract_y
 _atom_site_fract_z
 _atom_site_occupancy
  Dy  Dy0  1  0.500000  0.240653  0.782704  1
  Dy  Dy1  1  0.500000  0.760287  0.217227  1
  Dy  Dy2  1  0.500000  0.260329  0.281765  1
  Dy  Dy3  1  0.500000  0.739548  0.717833  1
  Dy  Dy4  1  0.500000  0.998091  0.000282  1
  Dy  Dy5  1  0.500000  0.500043  0.499888  1
  Y  Y6  1  0.500000  0.117517  0.585335  1
  Y  Y7  1  0.500000  0.882499  0.414518  1
  Y  Y8  1  0.500000  0.382335  0.084907  1
  Y  Y9  1  0.500000  0.617979  0.916146  1
  Tl  Tl10  1  0.000000  0.081528  0.148976  1
  Tl  Tl11  1  0.000000  0.915261  0.850330  1
  Tl  Tl12  1  0.000000  0.415848  0.650027  1
  Tl  Tl13  1  0.000000  0.583805  0.349908  1
  Tl  Tl14  1  0.000000  0.206085  0.434893  1
  Tl  Tl15  1  0.000000  0.794100  0.564955  1
  Tl  Tl16  1  0.000000  0.293716  0.935167  1
  In  In17  1  0.000000  0.704532  0.065932  1
  Pd  Pd18  1  0.000000  0.024980  0.697870  1
  Pd  Pd19  1  0.000000  0.976647  0.302207  1
  Pd  Pd20  1  0.000000  0.479040  0.196197  1
  Pd  Pd21  1  0.000000  0.525178  0.802935  1
