# generated using pymatgen
data_Ho5Mn(Co3P2)6
_symmetry_space_group_name_H-M   'P 1'
_cell_length_a   11.98516101
_cell_length_b   11.98516061
_cell_length_c   3.66116000
_cell_angle_alpha   90.00000000
_cell_angle_beta   90.00000000
_cell_angle_gamma   119.86397104
_symmetry_Int_Tables_number   1
_chemical_formula_structural   Ho5Mn(Co3P2)6
_chemical_formula_sum   'Ho5 Mn1 Co18 P12'
_cell_volume   456.06919228
_cell_formula_units_Z   1
loop_
 _symmetry_equiv_pos_site_id
 _symmetry_equiv_pos_as_xyz
  1  'x, y, z'
loop_
 _atom_site_type_symbol
 _atom_site_label
 _atom_site_symmetry_multiplicity
 _atom_site_fract_x
 _atom_site_fract_y
 _atom_site_fract_z
 _atom_site_occupancy
  Ho  Ho0  1  0.666297  0.333490  0.000000  1
  Ho  Ho1  1  0.333490  0.666297  0.000000  1
  Ho  Ho2  1  0.186653  0.186653  0.500000  1
  Ho  Ho3  1  0.812068  0.999286  0.500000  1
  Ho  Ho4  1  0.999286  0.812068  0.500000  1
  Mn  Mn5  1  0.557248  0.557248  0.000000  1
  Co  Co6  1  0.447746  0.000051  0.000000  1
  Co  Co7  1  0.000051  0.447746  0.000000  1
  Co  Co8  1  0.822206  0.200660  0.000000  1
  Co  Co9  1  0.801874  0.622344  0.000000  1
  Co  Co10  1  0.377118  0.176753  0.000000  1
  Co  Co11  1  0.200660  0.822206  0.000000  1
  Co  Co12  1  0.622344  0.801874  0.000000  1
  Co  Co13  1  0.176753  0.377118  0.000000  1
  Co  Co14  1  0.641723  0.125246  0.500000  1
  Co  Co15  1  0.874877  0.515822  0.500000  1
  Co  Co16  1  0.482792  0.356665  0.500000  1
  Co  Co17  1  0.125246  0.641723  0.500000  1
  Co  Co18  1  0.515822  0.874877  0.500000  1
  Co  Co19  1  0.356665  0.482792  0.500000  1
  Co  Co20  1  0.716545  0.716545  0.500000  1
  Co  Co21  1  0.284844  0.999515  0.500000  1
  Co  Co22  1  0.999515  0.284844  0.500000  1
  Co  Co23  1  0.000767  0.000767  0.000000  1
  P  P24  1  0.365236  0.365236  0.000000  1
  P  P25  1  0.632671  0.000796  0.000000  1
  P  P26  1  0.000796  0.632671  0.000000  1
  P  P27  1  0.833671  0.314289  0.500000  1
  P  P28  1  0.685804  0.519669  0.500000  1
  P  P29  1  0.479927  0.165307  0.500000  1
  P  P30  1  0.314289  0.833671  0.500000  1
  P  P31  1  0.519669  0.685804  0.500000  1
  P  P32  1  0.165307  0.479927  0.500000  1
  P  P33  1  0.819850  0.819850  0.000000  1
  P  P34  1  0.180650  0.999542  0.000000  1
  P  P35  1  0.999542  0.180650  0.000000  1
