# generated using pymatgen
data_Ca4Nd16Bi5Pb11
_symmetry_space_group_name_H-M   'P 1'
_cell_length_a   8.40822343
_cell_length_b   8.45519567
_cell_length_c   16.14695400
_cell_angle_alpha   90.10738566
_cell_angle_beta   89.98162877
_cell_angle_gamma   89.83797664
_symmetry_Int_Tables_number   1
_chemical_formula_structural   Ca4Nd16Bi5Pb11
_chemical_formula_sum   'Ca4 Nd16 Bi5 Pb11'
_cell_volume   1147.93154925
_cell_formula_units_Z   1
loop_
 _symmetry_equiv_pos_site_id
 _symmetry_equiv_pos_as_xyz
  1  'x, y, z'
loop_
 _atom_site_type_symbol
 _atom_site_label
 _atom_site_symmetry_multiplicity
 _atom_site_fract_x
 _atom_site_fract_y
 _atom_site_fract_z
 _atom_site_occupancy
  Ca  Ca0  1  0.214258  0.502359  0.748309  1
  Ca  Ca1  1  0.714059  0.998840  0.749124  1
  Ca  Ca2  1  0.785799  0.497330  0.249867  1
  Ca  Ca3  1  0.286671  0.001713  0.251226  1
  Nd  Nd4  1  0.384320  0.838343  0.881427  1
  Nd  Nd5  1  0.886727  0.660901  0.619021  1
  Nd  Nd6  1  0.613197  0.159337  0.381122  1
  Nd  Nd7  1  0.112969  0.339017  0.118984  1
  Nd  Nd8  1  0.618396  0.163631  0.118784  1
  Nd  Nd9  1  0.119237  0.337708  0.381730  1
  Nd  Nd10  1  0.380668  0.838737  0.618208  1
  Nd  Nd11  1  0.881279  0.660666  0.880964  1
  Nd  Nd12  1  0.544528  0.328929  0.895720  1
  Nd  Nd13  1  0.044086  0.175837  0.603768  1
  Nd  Nd14  1  0.456261  0.675540  0.395949  1
  Nd  Nd15  1  0.958630  0.821240  0.104578  1
  Nd  Nd16  1  0.462359  0.673022  0.104223  1
  Nd  Nd17  1  0.966081  0.822624  0.397824  1
  Nd  Nd18  1  0.533558  0.324311  0.602169  1
  Nd  Nd19  1  0.037867  0.179274  0.896681  1
  Bi  Bi20  1  0.273645  0.025865  0.044435  1
  Bi  Bi21  1  0.774021  0.472116  0.456335  1
  Bi  Bi22  1  0.725796  0.972733  0.543956  1
  Bi  Bi23  1  0.224468  0.527036  0.956041  1
  Bi  Bi24  1  0.725189  0.974112  0.955281  1
  Pb  Pb25  1  0.223998  0.529388  0.543069  1
  Pb  Pb26  1  0.275714  0.028683  0.456800  1
  Pb  Pb27  1  0.774770  0.472974  0.043226  1
  Pb  Pb28  1  0.581197  0.620784  0.748987  1
  Pb  Pb29  1  0.082508  0.879181  0.751409  1
  Pb  Pb30  1  0.417950  0.378212  0.249542  1
  Pb  Pb31  1  0.917762  0.120582  0.250731  1
  Pb  Pb32  1  0.344897  0.145689  0.751594  1
  Pb  Pb33  1  0.844576  0.354819  0.749310  1
  Pb  Pb34  1  0.657043  0.854058  0.250169  1
  Pb  Pb35  1  0.155516  0.644403  0.249438  1
