# generated using pymatgen
data_Ca6Yb3LuIr4
_symmetry_space_group_name_H-M   'P 1'
_cell_length_a   8.53568405
_cell_length_b   8.51071435
_cell_length_c   7.51932253
_cell_angle_alpha   82.45275932
_cell_angle_beta   82.81317041
_cell_angle_gamma   44.27083801
_symmetry_Int_Tables_number   1
_chemical_formula_structural   Ca6Yb3LuIr4
_chemical_formula_sum   'Ca6 Yb3 Lu1 Ir4'
_cell_volume   377.61881679
_cell_formula_units_Z   1
loop_
 _symmetry_equiv_pos_site_id
 _symmetry_equiv_pos_as_xyz
  1  'x, y, z'
loop_
 _atom_site_type_symbol
 _atom_site_label
 _atom_site_symmetry_multiplicity
 _atom_site_fract_x
 _atom_site_fract_y
 _atom_site_fract_z
 _atom_site_occupancy
  Ca  Ca0  1  0.794533  0.034269  0.921926  1
  Ca  Ca1  1  0.965714  0.206311  0.578320  1
  Ca  Ca2  1  0.637995  0.796617  0.677352  1
  Ca  Ca3  1  0.203818  0.360992  0.823303  1
  Ca  Ca4  1  0.800085  0.636923  0.177885  1
  Ca  Ca5  1  0.027375  0.798795  0.418341  1
  Yb  Yb6  1  0.425261  0.575455  0.749968  1
  Yb  Yb7  1  0.363795  0.200370  0.322901  1
  Yb  Yb8  1  0.200665  0.972357  0.082110  1
  Lu  Lu9  1  0.565785  0.434190  0.250235  1
  Ir  Ir10  1  0.405192  0.808120  0.413675  1
  Ir  Ir11  1  0.197478  0.590518  0.084214  1
  Ir  Ir12  1  0.812888  0.395115  0.932254  1
  Ir  Ir13  1  0.599415  0.189968  0.567516  1
