# generated using pymatgen
data_Ho2Er4MnTe2
_symmetry_space_group_name_H-M   'P 1'
_cell_length_a   4.04917400
_cell_length_b   8.24356337
_cell_length_c   8.25328707
_cell_angle_alpha   119.96103366
_cell_angle_beta   90.00000000
_cell_angle_gamma   90.00000000
_symmetry_Int_Tables_number   1
_chemical_formula_structural   Ho2Er4MnTe2
_chemical_formula_sum   'Ho2 Er4 Mn1 Te2'
_cell_volume   238.67635436
_cell_formula_units_Z   1
loop_
 _symmetry_equiv_pos_site_id
 _symmetry_equiv_pos_as_xyz
  1  'x, y, z'
loop_
 _atom_site_type_symbol
 _atom_site_label
 _atom_site_symmetry_multiplicity
 _atom_site_fract_x
 _atom_site_fract_y
 _atom_site_fract_z
 _atom_site_occupancy
  Ho  Ho0  1  0.500000  0.392971  0.392941  1
  Ho  Ho1  1  0.500000  0.000029  0.607059  1
  Er  Er2  1  0.500000  0.607505  0.000000  1
  Er  Er3  1  0.000000  0.236236  0.000000  1
  Er  Er4  1  0.000000  0.763724  0.763885  1
  Er  Er5  1  0.000000  0.999839  0.236115  1
  Mn  Mn6  1  0.500000  0.999318  0.000000  1
  Te  Te7  1  0.000000  0.333580  0.666880  1
  Te  Te8  1  0.000000  0.666700  0.333120  1
