# generated using pymatgen
data_Tm4Al18Zn2Os3Rh
_symmetry_space_group_name_H-M   'P 1'
_cell_length_a   7.58766671
_cell_length_b   7.58764739
_cell_length_c   9.41779068
_cell_angle_alpha   90.08142379
_cell_angle_beta   90.08136200
_cell_angle_gamma   119.45087350
_symmetry_Int_Tables_number   1
_chemical_formula_structural   Tm4Al18Zn2Os3Rh
_chemical_formula_sum   'Tm4 Al18 Zn2 Os3 Rh1'
_cell_volume   472.13906897
_cell_formula_units_Z   1
loop_
 _symmetry_equiv_pos_site_id
 _symmetry_equiv_pos_as_xyz
  1  'x, y, z'
loop_
 _atom_site_type_symbol
 _atom_site_label
 _atom_site_symmetry_multiplicity
 _atom_site_fract_x
 _atom_site_fract_y
 _atom_site_fract_z
 _atom_site_occupancy
  Tm  Tm0  1  0.001187  0.675498  0.248456  1
  Tm  Tm1  1  0.012014  0.333112  0.751237  1
  Tm  Tm2  1  0.666888  0.987990  0.248763  1
  Tm  Tm3  1  0.324502  0.998810  0.751541  1
  Al  Al4  1  0.122517  0.126474  0.250142  1
  Al  Al5  1  0.873529  0.877485  0.749857  1
  Al  Al6  1  0.989191  0.324318  0.075748  1
  Al  Al7  1  0.987109  0.661844  0.922190  1
  Al  Al8  1  0.988594  0.664310  0.578171  1
  Al  Al9  1  0.335689  0.011406  0.421828  1
  Al  Al10  1  0.989073  0.326192  0.423973  1
  Al  Al11  1  0.673809  0.010925  0.576027  1
  Al  Al12  1  0.675683  0.010809  0.924252  1
  Al  Al13  1  0.338155  0.012890  0.077811  1
  Al  Al14  1  0.331201  0.325834  0.555033  1
  Al  Al15  1  0.674165  0.668799  0.444966  1
  Al  Al16  1  0.675896  0.666948  0.051750  1
  Al  Al17  1  0.333054  0.324105  0.948249  1
  Al  Al18  1  0.340900  0.540430  0.249815  1
  Al  Al19  1  0.655036  0.441583  0.750158  1
  Al  Al20  1  0.558416  0.344964  0.249845  1
  Al  Al21  1  0.459572  0.659099  0.750184  1
  Zn  Zn22  1  0.325330  0.674671  0.000000  1
  Zn  Zn23  1  0.324665  0.675333  0.500001  1
  Os  Os24  1  0.671575  0.328420  0.000000  1
  Os  Os25  1  0.001439  0.998567  0.000001  1
  Os  Os26  1  0.000047  0.999954  0.499997  1
  Rh  Rh27  1  0.670765  0.329232  0.500005  1
