# generated using pymatgen
data_TbDy4Lu3(P3Ir4)4
_symmetry_space_group_name_H-M   'P 1'
_cell_length_a   12.93867400
_cell_length_b   12.93867367
_cell_length_c   3.99339400
_cell_angle_alpha   90.00000000
_cell_angle_beta   90.00000000
_cell_angle_gamma   120.00000083
_symmetry_Int_Tables_number   1
_chemical_formula_structural   TbDy4Lu3(P3Ir4)4
_chemical_formula_sum   'Tb1 Dy4 Lu3 P12 Ir16'
_cell_volume   578.96501228
_cell_formula_units_Z   1
loop_
 _symmetry_equiv_pos_site_id
 _symmetry_equiv_pos_as_xyz
  1  'x, y, z'
loop_
 _atom_site_type_symbol
 _atom_site_label
 _atom_site_symmetry_multiplicity
 _atom_site_fract_x
 _atom_site_fract_y
 _atom_site_fract_z
 _atom_site_occupancy
  Tb  Tb0  1  0.333333  0.666667  0.500000  1
  Dy  Dy1  1  0.666667  0.333333  0.500000  1
  Dy  Dy2  1  0.000006  0.814256  0.000000  1
  Dy  Dy3  1  0.185744  0.185751  0.000000  1
  Dy  Dy4  1  0.814249  0.999994  0.000000  1
  Lu  Lu5  1  0.999976  0.446430  0.500000  1
  Lu  Lu6  1  0.553570  0.553546  0.500000  1
  Lu  Lu7  1  0.446454  0.000024  0.500000  1
  P  P8  1  0.000021  0.651672  0.500000  1
  P  P9  1  0.348328  0.348349  0.500000  1
  P  P10  1  0.651651  0.999979  0.500000  1
  P  P11  1  0.516844  0.687773  0.000000  1
  P  P12  1  0.312227  0.829072  0.000000  1
  P  P13  1  0.170928  0.483156  0.000000  1
  P  P14  1  0.483325  0.171078  0.000000  1
  P  P15  1  0.687755  0.516675  0.000000  1
  P  P16  1  0.828922  0.312245  0.000000  1
  P  P17  1  0.999992  0.176746  0.500000  1
  P  P18  1  0.823254  0.823247  0.500000  1
  P  P19  1  0.176753  0.000008  0.500000  1
  Ir  Ir20  1  0.509783  0.866555  0.000000  1
  Ir  Ir21  1  0.133445  0.643229  0.000000  1
  Ir  Ir22  1  0.356771  0.490217  0.000000  1
  Ir  Ir23  1  0.490454  0.356726  0.000000  1
  Ir  Ir24  1  0.866272  0.509546  0.000000  1
  Ir  Ir25  1  0.643274  0.133728  0.000000  1
  Ir  Ir26  1  0.999988  0.276152  0.000000  1
  Ir  Ir27  1  0.723848  0.723835  0.000000  1
  Ir  Ir28  1  0.276165  0.000012  0.000000  1
  Ir  Ir29  1  0.629641  0.808199  0.500000  1
  Ir  Ir30  1  0.191801  0.821442  0.500000  1
  Ir  Ir31  1  0.178558  0.370359  0.500000  1
  Ir  Ir32  1  0.370406  0.178592  0.500000  1
  Ir  Ir33  1  0.808185  0.629594  0.500000  1
  Ir  Ir34  1  0.821408  0.191815  0.500000  1
  Ir  Ir35  1  0.000000  0.000000  0.500000  1
