# generated using pymatgen
data_NaTa8VS16
_symmetry_space_group_name_H-M   'P 1'
_cell_length_a   6.70488500
_cell_length_b   6.70488634
_cell_length_c   13.52659600
_cell_angle_alpha   90.00000000
_cell_angle_beta   90.00000000
_cell_angle_gamma   119.99999831
_symmetry_Int_Tables_number   1
_chemical_formula_structural   NaTa8VS16
_chemical_formula_sum   'Na1 Ta8 V1 S16'
_cell_volume   526.62553318
_cell_formula_units_Z   1
loop_
 _symmetry_equiv_pos_site_id
 _symmetry_equiv_pos_as_xyz
  1  'x, y, z'
loop_
 _atom_site_type_symbol
 _atom_site_label
 _atom_site_symmetry_multiplicity
 _atom_site_fract_x
 _atom_site_fract_y
 _atom_site_fract_z
 _atom_site_occupancy
  Na  Na0  1  0.000000  0.000000  0.000000  1
  Ta  Ta1  1  0.988779  0.494390  0.274557  1
  Ta  Ta2  1  0.011221  0.505610  0.725443  1
  Ta  Ta3  1  0.494390  0.505610  0.725443  1
  Ta  Ta4  1  0.505610  0.011221  0.274557  1
  Ta  Ta5  1  0.000000  0.000000  0.727757  1
  Ta  Ta6  1  0.000000  0.000000  0.272243  1
  Ta  Ta7  1  0.505610  0.494390  0.274557  1
  Ta  Ta8  1  0.494390  0.988779  0.725443  1
  V  V9  1  0.000000  0.000000  0.500000  1
  S  S10  1  0.333333  0.666667  0.608608  1
  S  S11  1  0.666667  0.333333  0.156809  1
  S  S12  1  0.666667  0.333333  0.391392  1
  S  S13  1  0.333333  0.666667  0.843191  1
  S  S14  1  0.165248  0.330497  0.388596  1
  S  S15  1  0.831508  0.168492  0.840300  1
  S  S16  1  0.336985  0.168492  0.840300  1
  S  S17  1  0.669503  0.834752  0.388596  1
  S  S18  1  0.165248  0.834752  0.388596  1
  S  S19  1  0.831508  0.663015  0.840300  1
  S  S20  1  0.168492  0.336985  0.159700  1
  S  S21  1  0.834752  0.165248  0.611404  1
  S  S22  1  0.330497  0.165248  0.611404  1
  S  S23  1  0.663015  0.831508  0.159700  1
  S  S24  1  0.168492  0.831508  0.159700  1
  S  S25  1  0.834752  0.669503  0.611404  1
