# generated using pymatgen
data_CeEr3(Ni2Hg)2
_symmetry_space_group_name_H-M   'P 1'
_cell_length_a   7.35107910
_cell_length_b   7.35107910
_cell_length_c   3.61513100
_cell_angle_alpha   90.00000000
_cell_angle_beta   90.00000000
_cell_angle_gamma   88.28204724
_symmetry_Int_Tables_number   1
_chemical_formula_structural   CeEr3(Ni2Hg)2
_chemical_formula_sum   'Ce1 Er3 Ni4 Hg2'
_cell_volume   195.26795503
_cell_formula_units_Z   1
loop_
 _symmetry_equiv_pos_site_id
 _symmetry_equiv_pos_as_xyz
  1  'x, y, z'
loop_
 _atom_site_type_symbol
 _atom_site_label
 _atom_site_symmetry_multiplicity
 _atom_site_fract_x
 _atom_site_fract_y
 _atom_site_fract_z
 _atom_site_occupancy
  Ce  Ce0  1  0.323946  0.176055  0.499999  1
  Er  Er1  1  0.823242  0.326541  0.499999  1
  Er  Er2  1  0.173460  0.676759  0.499999  1
  Er  Er3  1  0.677189  0.822812  0.499999  1
  Ni  Ni4  1  0.613534  0.120972  0.000000  1
  Ni  Ni5  1  0.127157  0.372843  0.000000  1
  Ni  Ni6  1  0.885256  0.614744  0.000000  1
  Ni  Ni7  1  0.379028  0.886466  0.000000  1
  Hg  Hg8  1  0.994071  0.996881  0.000000  1
  Hg  Hg9  1  0.503119  0.505929  0.000000  1
