# generated using pymatgen
data_Gd4Y3AsI12
_symmetry_space_group_name_H-M   'P 1'
_cell_length_a   9.94169635
_cell_length_b   9.94284953
_cell_length_c   9.94514300
_cell_angle_alpha   107.94973223
_cell_angle_beta   107.97744018
_cell_angle_gamma   107.95764085
_symmetry_Int_Tables_number   1
_chemical_formula_structural   Gd4Y3AsI12
_chemical_formula_sum   'Gd4 Y3 As1 I12'
_cell_volume   796.25470290
_cell_formula_units_Z   1
loop_
 _symmetry_equiv_pos_site_id
 _symmetry_equiv_pos_as_xyz
  1  'x, y, z'
loop_
 _atom_site_type_symbol
 _atom_site_label
 _atom_site_symmetry_multiplicity
 _atom_site_fract_x
 _atom_site_fract_y
 _atom_site_fract_z
 _atom_site_occupancy
  Gd  Gd0  1  0.308194  0.028929  0.100978  1
  Gd  Gd1  1  0.969767  0.899118  0.691502  1
  Gd  Gd2  1  0.897383  0.691591  0.969939  1
  Gd  Gd3  1  0.691268  0.969948  0.899024  1
  Y  Y4  1  0.503703  0.503742  0.503529  1
  Y  Y5  1  0.029339  0.100363  0.302934  1
  Y  Y6  1  0.099758  0.303524  0.029546  1
  As  As7  1  0.999344  0.999069  0.999034  1
  I  I8  1  0.158202  0.459080  0.382414  1
  I  I9  1  0.459410  0.384958  0.158705  1
  I  I10  1  0.381816  0.159815  0.462012  1
  I  I11  1  0.841969  0.536699  0.614512  1
  I  I12  1  0.535316  0.613857  0.841448  1
  I  I13  1  0.614000  0.841940  0.536403  1
  I  I14  1  0.690109  0.077173  0.228172  1
  I  I15  1  0.076728  0.226882  0.688867  1
  I  I16  1  0.223897  0.683885  0.075306  1
  I  I17  1  0.314448  0.924814  0.774130  1
  I  I18  1  0.926277  0.779466  0.315096  1
  I  I19  1  0.779072  0.315144  0.926452  1
