# generated using pymatgen
data_MgCuBi2(Pt2O7)2
_symmetry_space_group_name_H-M   'P 1'
_cell_length_a   7.15691404
_cell_length_b   7.08964015
_cell_length_c   7.15691282
_cell_angle_alpha   61.18032545
_cell_angle_beta   61.73574588
_cell_angle_gamma   61.18032346
_symmetry_Int_Tables_number   1
_chemical_formula_structural   MgCuBi2(Pt2O7)2
_chemical_formula_sum   'Mg1 Cu1 Bi2 Pt4 O14'
_cell_volume   264.64173618
_cell_formula_units_Z   1
loop_
 _symmetry_equiv_pos_site_id
 _symmetry_equiv_pos_as_xyz
  1  'x, y, z'
loop_
 _atom_site_type_symbol
 _atom_site_label
 _atom_site_symmetry_multiplicity
 _atom_site_fract_x
 _atom_site_fract_y
 _atom_site_fract_z
 _atom_site_occupancy
  Mg  Mg0  1  0.125000  0.625000  0.125000  1
  Cu  Cu1  1  0.125000  0.125000  0.125000  1
  Bi  Bi2  1  0.125000  0.125000  0.625000  1
  Bi  Bi3  1  0.625000  0.125000  0.125000  1
  Pt  Pt4  1  0.625000  0.625000  0.125000  1
  Pt  Pt5  1  0.625000  0.125000  0.625000  1
  Pt  Pt6  1  0.125000  0.625000  0.625000  1
  Pt  Pt7  1  0.625000  0.625000  0.625000  1
  O  O8  1  0.233596  0.252917  0.233596  1
  O  O9  1  0.016404  0.997083  0.016404  1
  O  O10  1  0.536267  0.962120  0.536267  1
  O  O11  1  0.288728  0.701270  0.288728  1
  O  O12  1  0.528148  0.541614  0.962601  1
  O  O13  1  0.962601  0.541614  0.528148  1
  O  O14  1  0.536286  0.960033  0.959221  1
  O  O15  1  0.959221  0.960033  0.536286  1
  O  O16  1  0.961272  0.548730  0.961272  1
  O  O17  1  0.713714  0.289967  0.290779  1
  O  O18  1  0.287399  0.708386  0.721852  1
  O  O19  1  0.713733  0.287880  0.713733  1
  O  O20  1  0.290779  0.289967  0.713714  1
  O  O21  1  0.721852  0.708386  0.287399  1
