# generated using pymatgen
data_DyEr(GePt2)2
_symmetry_space_group_name_H-M   'P 1'
_cell_length_a   5.50799128
_cell_length_b   5.50799192
_cell_length_c   7.19648300
_cell_angle_alpha   90.00000000
_cell_angle_beta   90.00000000
_cell_angle_gamma   138.05599282
_symmetry_Int_Tables_number   1
_chemical_formula_structural   DyEr(GePt2)2
_chemical_formula_sum   'Dy1 Er1 Ge2 Pt4'
_cell_volume   145.93044609
_cell_formula_units_Z   1
loop_
 _symmetry_equiv_pos_site_id
 _symmetry_equiv_pos_as_xyz
  1  'x, y, z'
loop_
 _atom_site_type_symbol
 _atom_site_label
 _atom_site_symmetry_multiplicity
 _atom_site_fract_x
 _atom_site_fract_y
 _atom_site_fract_z
 _atom_site_occupancy
  Dy  Dy0  1  0.448765  0.551237  0.750001  1
  Er  Er1  1  0.550911  0.449091  0.250000  1
  Ge  Ge2  1  0.267887  0.732114  0.250000  1
  Ge  Ge3  1  0.732104  0.267897  0.750001  1
  Pt  Pt4  1  0.863700  0.136301  0.051540  1
  Pt  Pt5  1  0.863700  0.136301  0.448460  1
  Pt  Pt6  1  0.136469  0.863532  0.550533  1
  Pt  Pt7  1  0.136469  0.863532  0.949467  1
