# generated using pymatgen
data_Tb5As5P7Ru9Rh10
_symmetry_space_group_name_H-M   'P 1'
_cell_length_a   3.94811000
_cell_length_b   12.84390299
_cell_length_c   12.86855217
_cell_angle_alpha   119.93948135
_cell_angle_beta   90.00000000
_cell_angle_gamma   90.00000000
_symmetry_Int_Tables_number   1
_chemical_formula_structural   Tb5As5P7Ru9Rh10
_chemical_formula_sum   'Tb5 As5 P7 Ru9 Rh10'
_cell_volume   565.47199536
_cell_formula_units_Z   1
loop_
 _symmetry_equiv_pos_site_id
 _symmetry_equiv_pos_as_xyz
  1  'x, y, z'
loop_
 _atom_site_type_symbol
 _atom_site_label
 _atom_site_symmetry_multiplicity
 _atom_site_fract_x
 _atom_site_fract_y
 _atom_site_fract_z
 _atom_site_occupancy
  Tb  Tb0  1  0.500000  0.998327  0.183326  1
  Tb  Tb1  1  0.500000  0.184026  0.999939  1
  Tb  Tb2  1  0.500000  0.816465  0.817474  1
  Tb  Tb3  1  0.000000  0.333317  0.666270  1
  Tb  Tb4  1  0.000000  0.668468  0.329157  1
  As  As5  1  0.500000  0.314539  0.480949  1
  As  As6  1  0.500000  0.167049  0.684925  1
  As  As7  1  0.500000  0.517788  0.833723  1
  As  As8  1  0.500000  0.832404  0.517234  1
  As  As9  1  0.500000  0.484227  0.314815  1
  P  P10  1  0.000000  0.999747  0.820886  1
  P  P11  1  0.000000  0.819404  0.001505  1
  P  P12  1  0.000000  0.180306  0.178754  1
  P  P13  1  0.500000  0.689068  0.168773  1
  P  P14  1  0.000000  0.997606  0.367397  1
  P  P15  1  0.000000  0.370853  0.000034  1
  P  P16  1  0.000000  0.630790  0.630926  1
  Ru  Ru17  1  0.500000  0.999722  0.723169  1
  Ru  Ru18  1  0.500000  0.721046  0.004145  1
  Ru  Ru19  1  0.500000  0.277483  0.275685  1
  Ru  Ru20  1  0.500000  0.120773  0.479026  1
  Ru  Ru21  1  0.500000  0.358763  0.880778  1
  Ru  Ru22  1  0.500000  0.519928  0.642651  1
  Ru  Ru23  1  0.500000  0.641873  0.520680  1
  Ru  Ru24  1  0.500000  0.490946  0.125681  1
  Ru  Ru25  1  0.500000  0.874098  0.354108  1
  Rh  Rh26  1  0.000000  0.996783  0.547516  1
  Rh  Rh27  1  0.000000  0.551907  0.001541  1
  Rh  Rh28  1  0.000000  0.449454  0.450411  1
  Rh  Rh29  1  0.000000  0.182751  0.364587  1
  Rh  Rh30  1  0.000000  0.182020  0.815680  1
  Rh  Rh31  1  0.000000  0.634123  0.819174  1
  Rh  Rh32  1  0.000000  0.817680  0.634183  1
  Rh  Rh33  1  0.000000  0.369327  0.183478  1
  Rh  Rh34  1  0.000000  0.807735  0.180870  1
  Rh  Rh35  1  0.000000  0.999104  0.000552  1
