# generated using pymatgen
data_YTh2(GeRh)3
_symmetry_space_group_name_H-M   'P 1'
_cell_length_a   7.27328057
_cell_length_b   7.27328024
_cell_length_c   3.93767900
_cell_angle_alpha   90.00000000
_cell_angle_beta   90.00000000
_cell_angle_gamma   119.63867563
_symmetry_Int_Tables_number   1
_chemical_formula_structural   YTh2(GeRh)3
_chemical_formula_sum   'Y1 Th2 Ge3 Rh3'
_cell_volume   181.05117946
_cell_formula_units_Z   1
loop_
 _symmetry_equiv_pos_site_id
 _symmetry_equiv_pos_as_xyz
  1  'x, y, z'
loop_
 _atom_site_type_symbol
 _atom_site_label
 _atom_site_symmetry_multiplicity
 _atom_site_fract_x
 _atom_site_fract_y
 _atom_site_fract_z
 _atom_site_occupancy
  Y  Y0  1  0.594582  0.594582  0.500000  1
  Th  Th1  1  0.412430  0.999900  0.500000  1
  Th  Th2  1  0.999900  0.412430  0.500000  1
  Ge  Ge3  1  0.750109  0.989124  0.000000  1
  Ge  Ge4  1  0.989124  0.750109  0.000000  1
  Ge  Ge5  1  0.258835  0.258835  0.000000  1
  Rh  Rh6  1  0.323420  0.666950  0.000000  1
  Rh  Rh7  1  0.666950  0.323420  0.000000  1
  Rh  Rh8  1  0.004649  0.004649  0.500000  1
