# generated using pymatgen
data_Ta3Mo2W11
_symmetry_space_group_name_H-M   'P 1'
_cell_length_a   6.40852900
_cell_length_b   6.40954439
_cell_length_c   6.40954439
_cell_angle_alpha   89.96000631
_cell_angle_beta   90.00000000
_cell_angle_gamma   90.00000000
_symmetry_Int_Tables_number   1
_chemical_formula_structural   Ta3Mo2W11
_chemical_formula_sum   'Ta3 Mo2 W11'
_cell_volume   263.27678592
_cell_formula_units_Z   1
loop_
 _symmetry_equiv_pos_site_id
 _symmetry_equiv_pos_as_xyz
  1  'x, y, z'
loop_
 _atom_site_type_symbol
 _atom_site_label
 _atom_site_symmetry_multiplicity
 _atom_site_fract_x
 _atom_site_fract_y
 _atom_site_fract_z
 _atom_site_occupancy
  Ta  Ta0  1  0.500000  0.998726  0.998726  1
  Ta  Ta1  1  0.000000  0.501443  0.998715  1
  Ta  Ta2  1  0.000000  0.998715  0.501443  1
  Mo  Mo3  1  0.250779  0.749172  0.749172  1
  Mo  Mo4  1  0.749220  0.749172  0.749172  1
  W  W5  1  0.000000  0.999842  0.999842  1
  W  W6  1  0.500000  0.500136  0.000106  1
  W  W7  1  0.251262  0.251248  0.251248  1
  W  W8  1  0.748737  0.251248  0.251248  1
  W  W9  1  0.251115  0.748722  0.251122  1
  W  W10  1  0.748884  0.748722  0.251122  1
  W  W11  1  0.500000  0.000106  0.500136  1
  W  W12  1  0.000000  0.500077  0.500077  1
  W  W13  1  0.500000  0.500424  0.500424  1
  W  W14  1  0.251115  0.251122  0.748722  1
  W  W15  1  0.748884  0.251122  0.748722  1
