# generated using pymatgen
data_Y10SiBi4As
_symmetry_space_group_name_H-M   'P 1'
_cell_length_a   12.14845200
_cell_length_b   9.15566800
_cell_length_c   8.09453900
_cell_angle_alpha   90.00000000
_cell_angle_beta   90.00000000
_cell_angle_gamma   90.00000000
_symmetry_Int_Tables_number   1
_chemical_formula_structural   Y10SiBi4As
_chemical_formula_sum   'Y20 Si2 Bi8 As2'
_cell_volume   900.33285343
_cell_formula_units_Z   2
loop_
 _symmetry_equiv_pos_site_id
 _symmetry_equiv_pos_as_xyz
  1  'x, y, z'
loop_
 _atom_site_type_symbol
 _atom_site_label
 _atom_site_symmetry_multiplicity
 _atom_site_fract_x
 _atom_site_fract_y
 _atom_site_fract_z
 _atom_site_occupancy
  Y  Y0  1  0.564807  0.050319  0.316962  1
  Y  Y1  1  0.064807  0.449681  0.183038  1
  Y  Y2  1  0.435547  0.554395  0.681354  1
  Y  Y3  1  0.935547  0.945605  0.818646  1
  Y  Y4  1  0.435547  0.945605  0.681354  1
  Y  Y5  1  0.935547  0.554395  0.818646  1
  Y  Y6  1  0.564807  0.449681  0.316962  1
  Y  Y7  1  0.064807  0.050319  0.183038  1
  Y  Y8  1  0.710737  0.250000  0.658863  1
  Y  Y9  1  0.210737  0.250000  0.841137  1
  Y  Y10  1  0.289157  0.750000  0.340076  1
  Y  Y11  1  0.789157  0.750000  0.159924  1
  Y  Y12  1  0.500175  0.250000  0.962946  1
  Y  Y13  1  0.000175  0.250000  0.537054  1
  Y  Y14  1  0.499550  0.750000  0.040814  1
  Y  Y15  1  0.999550  0.750000  0.459186  1
  Y  Y16  1  0.794854  0.250000  0.136477  1
  Y  Y17  1  0.294854  0.250000  0.363523  1
  Y  Y18  1  0.203961  0.750000  0.865810  1
  Y  Y19  1  0.703961  0.750000  0.634190  1
  Si  Si20  1  0.018630  0.750000  0.082815  1
  Si  Si21  1  0.518630  0.750000  0.417185  1
  Bi  Bi22  1  0.826691  0.010855  0.429964  1
  Bi  Bi23  1  0.326691  0.489145  0.070036  1
  Bi  Bi24  1  0.173484  0.509522  0.570805  1
  Bi  Bi25  1  0.673484  0.990478  0.929195  1
  Bi  Bi26  1  0.173484  0.990478  0.570805  1
  Bi  Bi27  1  0.673484  0.509522  0.929195  1
  Bi  Bi28  1  0.826691  0.489145  0.429964  1
  Bi  Bi29  1  0.326691  0.010855  0.070036  1
  As  As30  1  0.981878  0.250000  0.917440  1
  As  As31  1  0.481878  0.250000  0.582560  1
