# generated using pymatgen
data_Ba3InCoO6
_symmetry_space_group_name_H-M   'P 1'
_cell_length_a   7.04934823
_cell_length_b   7.04931617
_cell_length_c   7.04926771
_cell_angle_alpha   93.50459839
_cell_angle_beta   93.50593366
_cell_angle_gamma   93.50629810
_symmetry_Int_Tables_number   1
_chemical_formula_structural   Ba3InCoO6
_chemical_formula_sum   'Ba6 In2 Co2 O12'
_cell_volume   348.24918198
_cell_formula_units_Z   2
loop_
 _symmetry_equiv_pos_site_id
 _symmetry_equiv_pos_as_xyz
  1  'x, y, z'
loop_
 _atom_site_type_symbol
 _atom_site_label
 _atom_site_symmetry_multiplicity
 _atom_site_fract_x
 _atom_site_fract_y
 _atom_site_fract_z
 _atom_site_occupancy
  Ba  Ba0  1  0.616383  0.883600  0.249998  1
  Ba  Ba1  1  0.883580  0.250009  0.616381  1
  Ba  Ba2  1  0.250003  0.616407  0.883600  1
  Ba  Ba3  1  0.116381  0.749996  0.383583  1
  Ba  Ba4  1  0.749998  0.383619  0.116403  1
  Ba  Ba5  1  0.383592  0.116411  0.749992  1
  In  In6  1  0.250016  0.249966  0.249991  1
  In  In7  1  0.749988  0.749933  0.749968  1
  Co  Co8  1  0.500146  0.499957  0.499897  1
  Co  Co9  1  0.000018  0.999975  0.000174  1
  O  O10  1  0.533610  0.229001  0.408907  1
  O  O11  1  0.228968  0.408911  0.533597  1
  O  O12  1  0.408916  0.533612  0.228924  1
  O  O13  1  0.033592  0.908918  0.728999  1
  O  O14  1  0.908895  0.728990  0.033613  1
  O  O15  1  0.728920  0.033591  0.908924  1
  O  O16  1  0.466422  0.771064  0.591085  1
  O  O17  1  0.771027  0.591095  0.466400  1
  O  O18  1  0.591100  0.466414  0.770989  1
  O  O19  1  0.966399  0.091087  0.271059  1
  O  O20  1  0.091070  0.271046  0.966416  1
  O  O21  1  0.270971  0.966397  0.091099  1
