# generated using pymatgen
data_Tb4Lu2Al24ZnOs7
_symmetry_space_group_name_H-M   'P 1'
_cell_length_a   8.81970300
_cell_length_b   8.85033453
_cell_length_c   9.57117195
_cell_angle_alpha   89.95735941
_cell_angle_beta   90.00000000
_cell_angle_gamma   119.88557123
_symmetry_Int_Tables_number   1
_chemical_formula_structural   Tb4Lu2Al24ZnOs7
_chemical_formula_sum   'Tb4 Lu2 Al24 Zn1 Os7'
_cell_volume   647.75213263
_cell_formula_units_Z   1
loop_
 _symmetry_equiv_pos_site_id
 _symmetry_equiv_pos_as_xyz
  1  'x, y, z'
loop_
 _atom_site_type_symbol
 _atom_site_label
 _atom_site_symmetry_multiplicity
 _atom_site_fract_x
 _atom_site_fract_y
 _atom_site_fract_z
 _atom_site_occupancy
  Tb  Tb0  1  0.618094  0.810054  0.247158  1
  Tb  Tb1  1  0.381906  0.189946  0.752842  1
  Tb  Tb2  1  0.191960  0.810054  0.247158  1
  Tb  Tb3  1  0.808040  0.189946  0.752842  1
  Lu  Lu4  1  0.198702  0.397405  0.256035  1
  Lu  Lu5  1  0.801298  0.602595  0.743965  1
  Al  Al6  1  0.329023  0.658047  0.023146  1
  Al  Al7  1  0.670977  0.341953  0.976854  1
  Al  Al8  1  0.665468  0.330935  0.522771  1
  Al  Al9  1  0.334532  0.669065  0.477229  1
  Al  Al10  1  0.163608  0.327214  0.576416  1
  Al  Al11  1  0.836392  0.672786  0.423584  1
  Al  Al12  1  0.672909  0.835681  0.573907  1
  Al  Al13  1  0.836492  0.672984  0.075948  1
  Al  Al14  1  0.327091  0.164319  0.426093  1
  Al  Al15  1  0.163508  0.327016  0.924052  1
  Al  Al16  1  0.162773  0.835681  0.573907  1
  Al  Al17  1  0.323072  0.174239  0.082092  1
  Al  Al18  1  0.837227  0.164319  0.426093  1
  Al  Al19  1  0.676928  0.825761  0.917908  1
  Al  Al20  1  0.851165  0.174239  0.082092  1
  Al  Al21  1  0.148835  0.825761  0.917908  1
  Al  Al22  1  0.564835  0.129669  0.254481  1
  Al  Al23  1  0.435165  0.870331  0.745519  1
  Al  Al24  1  0.879414  0.442198  0.249522  1
  Al  Al25  1  0.120586  0.557802  0.750478  1
  Al  Al26  1  0.562783  0.442198  0.249522  1
  Al  Al27  1  0.437217  0.557802  0.750478  1
  Al  Al28  1  0.003537  0.007072  0.250478  1
  Al  Al29  1  0.996463  0.992928  0.749522  1
  Zn  Zn30  1  0.500000  0.000000  0.000000  1
  Os  Os31  1  0.000000  0.500000  0.000000  1
  Os  Os32  1  0.500000  0.000000  0.500000  1
  Os  Os33  1  0.500000  0.500000  0.000000  1
  Os  Os34  1  0.000000  0.500000  0.500000  1
  Os  Os35  1  0.500000  0.500000  0.500000  1
  Os  Os36  1  0.000000  0.000000  0.000000  1
  Os  Os37  1  0.000000  0.000000  0.500000  1
