# generated using pymatgen
data_GdDy3Er2Ta2O14
_symmetry_space_group_name_H-M   'P 1'
_cell_length_a   6.48828911
_cell_length_b   6.48773454
_cell_length_c   7.47257803
_cell_angle_alpha   89.96896142
_cell_angle_beta   89.95442574
_cell_angle_gamma   108.52094059
_symmetry_Int_Tables_number   1
_chemical_formula_structural   GdDy3Er2Ta2O14
_chemical_formula_sum   'Gd1 Dy3 Er2 Ta2 O14'
_cell_volume   298.26127918
_cell_formula_units_Z   1
loop_
 _symmetry_equiv_pos_site_id
 _symmetry_equiv_pos_as_xyz
  1  'x, y, z'
loop_
 _atom_site_type_symbol
 _atom_site_label
 _atom_site_symmetry_multiplicity
 _atom_site_fract_x
 _atom_site_fract_y
 _atom_site_fract_z
 _atom_site_occupancy
  Gd  Gd0  1  0.468741  0.467735  0.000808  1
  Dy  Dy1  1  0.538537  0.537542  0.499266  1
  Dy  Dy2  1  0.000102  0.465019  0.740663  1
  Dy  Dy3  1  0.534849  0.000145  0.757879  1
  Er  Er4  1  0.000714  0.535127  0.241845  1
  Er  Er5  1  0.464729  0.999502  0.259665  1
  Ta  Ta6  1  0.002176  0.002498  0.498923  1
  Ta  Ta7  1  0.997912  0.998274  0.001069  1
  O  O8  1  0.932199  0.067550  0.749980  1
  O  O9  1  0.640072  0.359662  0.747310  1
  O  O10  1  0.308139  0.050564  0.543155  1
  O  O11  1  0.948191  0.690767  0.956948  1
  O  O12  1  0.631526  0.368723  0.253138  1
  O  O13  1  0.917327  0.671298  0.522960  1
  O  O14  1  0.327781  0.079510  0.976719  1
  O  O15  1  0.078904  0.327510  0.026474  1
  O  O16  1  0.671561  0.917923  0.473853  1
  O  O17  1  0.370032  0.630214  0.746802  1
  O  O18  1  0.692248  0.951814  0.047205  1
  O  O19  1  0.046856  0.306654  0.452691  1
  O  O20  1  0.357364  0.642296  0.252626  1
  O  O21  1  0.070040  0.929672  0.250020  1
