# generated using pymatgen
data_Ti6Al6Fe11Au
_symmetry_space_group_name_H-M   'P 1'
_cell_length_a   4.15532200
_cell_length_b   5.92734805
_cell_length_c   12.44101510
_cell_angle_alpha   90.01428731
_cell_angle_beta   90.00002758
_cell_angle_gamma   89.99997654
_symmetry_Int_Tables_number   1
_chemical_formula_structural   Ti6Al6Fe11Au
_chemical_formula_sum   'Ti6 Al6 Fe11 Au1'
_cell_volume   306.42268668
_cell_formula_units_Z   1
loop_
 _symmetry_equiv_pos_site_id
 _symmetry_equiv_pos_as_xyz
  1  'x, y, z'
loop_
 _atom_site_type_symbol
 _atom_site_label
 _atom_site_symmetry_multiplicity
 _atom_site_fract_x
 _atom_site_fract_y
 _atom_site_fract_z
 _atom_site_occupancy
  Ti  Ti0  1  0.000000  0.529159  0.000003  1
  Ti  Ti1  1  0.500004  0.989230  0.177377  1
  Ti  Ti2  1  0.000004  0.497825  0.333968  1
  Ti  Ti3  1  0.500000  0.001071  0.500055  1
  Ti  Ti4  1  0.999996  0.497850  0.666020  1
  Ti  Ti5  1  0.499996  0.989319  0.822547  1
  Al  Al6  1  0.000000  0.987400  0.000004  1
  Al  Al7  1  0.500005  0.507217  0.174266  1
  Al  Al8  1  0.000003  0.999781  0.334408  1
  Al  Al9  1  0.500000  0.498114  0.500027  1
  Al  Al10  1  0.999996  0.999892  0.665618  1
  Al  Al11  1  0.499995  0.507061  0.825687  1
  Fe  Fe12  1  0.500000  0.749491  0.999996  1
  Fe  Fe13  1  0.000005  0.249494  0.167783  1
  Fe  Fe14  1  0.000005  0.750960  0.167641  1
  Fe  Fe15  1  0.500004  0.249055  0.335080  1
  Fe  Fe16  1  0.500005  0.749895  0.337270  1
  Fe  Fe17  1  0.000000  0.248855  0.500020  1
  Fe  Fe18  1  0.000000  0.749560  0.499975  1
  Fe  Fe19  1  0.499995  0.249084  0.664866  1
  Fe  Fe20  1  0.499995  0.749865  0.662746  1
  Fe  Fe21  1  0.999995  0.249571  0.832304  1
  Fe  Fe22  1  0.999995  0.750899  0.832332  1
  Au  Au23  1  0.500000  0.249349  0.000007  1
