# generated using pymatgen
data_Tb2ScV(WO6)2
_symmetry_space_group_name_H-M   'P 1'
_cell_length_a   7.51155055
_cell_length_b   5.27028653
_cell_length_c   11.24384900
_cell_angle_alpha   89.99860725
_cell_angle_beta   89.99864967
_cell_angle_gamma   90.19289428
_symmetry_Int_Tables_number   1
_chemical_formula_structural   Tb2ScV(WO6)2
_chemical_formula_sum   'Tb4 Sc2 V2 W4 O24'
_cell_volume   445.11923797
_cell_formula_units_Z   2
loop_
 _symmetry_equiv_pos_site_id
 _symmetry_equiv_pos_as_xyz
  1  'x, y, z'
loop_
 _atom_site_type_symbol
 _atom_site_label
 _atom_site_symmetry_multiplicity
 _atom_site_fract_x
 _atom_site_fract_y
 _atom_site_fract_z
 _atom_site_occupancy
  Tb  Tb0  1  0.252705  0.206263  0.040671  1
  Tb  Tb1  1  0.752695  0.706253  0.459332  1
  Tb  Tb2  1  0.253255  0.795489  0.549979  1
  Tb  Tb3  1  0.753265  0.295478  0.950015  1
  Sc  Sc4  1  0.510065  0.706385  0.141190  1
  Sc  Sc5  1  0.010024  0.206385  0.358763  1
  V  V6  1  0.505287  0.300683  0.636196  1
  V  V7  1  0.005320  0.800685  0.863830  1
  W  W8  1  0.997846  0.696109  0.139188  1
  W  W9  1  0.497917  0.196083  0.360788  1
  W  W10  1  0.997618  0.305307  0.642133  1
  W  W11  1  0.497668  0.805276  0.857890  1
  O  O12  1  0.543115  0.996509  0.017035  1
  O  O13  1  0.956548  0.984686  0.027363  1
  O  O14  1  0.761003  0.564615  0.113436  1
  O  O15  1  0.241105  0.821536  0.141829  1
  O  O16  1  0.076067  0.377133  0.200348  1
  O  O17  1  0.435255  0.345557  0.215156  1
  O  O18  1  0.935197  0.845549  0.284832  1
  O  O19  1  0.576109  0.877129  0.299623  1
  O  O20  1  0.741137  0.321547  0.358145  1
  O  O21  1  0.261036  0.064614  0.386551  1
  O  O22  1  0.456583  0.484671  0.472642  1
  O  O23  1  0.043066  0.496500  0.482973  1
  O  O24  1  0.544955  0.009006  0.522931  1
  O  O25  1  0.959216  0.014671  0.530379  1
  O  O26  1  0.754827  0.423880  0.617418  1
  O  O27  1  0.244936  0.188637  0.643093  1
  O  O28  1  0.068895  0.621969  0.707688  1
  O  O29  1  0.437384  0.641601  0.714960  1
  O  O30  1  0.937343  0.141624  0.785061  1
  O  O31  1  0.568935  0.121955  0.792330  1
  O  O32  1  0.744975  0.688651  0.856934  1
  O  O33  1  0.254844  0.923877  0.882607  1
  O  O34  1  0.459265  0.514656  0.969636  1
  O  O35  1  0.044934  0.509011  0.977054  1
