# generated using pymatgen
data_PrLuFe5Co3B8
_symmetry_space_group_name_H-M   'P 1'
_cell_length_a   6.97308831
_cell_length_b   6.99715329
_cell_length_c   3.80993806
_cell_angle_alpha   90.04156107
_cell_angle_beta   89.92543273
_cell_angle_gamma   89.94414566
_symmetry_Int_Tables_number   1
_chemical_formula_structural   PrLuFe5Co3B8
_chemical_formula_sum   'Pr1 Lu1 Fe5 Co3 B8'
_cell_volume   185.89331818
_cell_formula_units_Z   1
loop_
 _symmetry_equiv_pos_site_id
 _symmetry_equiv_pos_as_xyz
  1  'x, y, z'
loop_
 _atom_site_type_symbol
 _atom_site_label
 _atom_site_symmetry_multiplicity
 _atom_site_fract_x
 _atom_site_fract_y
 _atom_site_fract_z
 _atom_site_occupancy
  Pr  Pr0  1  0.500980  0.500940  0.501338  1
  Lu  Lu1  1  0.000183  0.998595  0.001881  1
  Fe  Fe2  1  0.113129  0.635364  0.391309  1
  Fe  Fe3  1  0.364577  0.113278  0.606639  1
  Fe  Fe4  1  0.636339  0.887756  0.607153  1
  Fe  Fe5  1  0.617132  0.130987  0.107220  1
  Fe  Fe6  1  0.383671  0.870602  0.106550  1
  Co  Co7  1  0.131811  0.380567  0.891326  1
  Co  Co8  1  0.865132  0.616067  0.890841  1
  Co  Co9  1  0.886782  0.360596  0.390718  1
  B  B10  1  0.667933  0.807750  0.105527  1
  B  B11  1  0.331080  0.190326  0.105098  1
  B  B12  1  0.291713  0.837186  0.606352  1
  B  B13  1  0.705423  0.161902  0.608135  1
  B  B14  1  0.841788  0.713390  0.393720  1
  B  B15  1  0.163369  0.293356  0.393765  1
  B  B16  1  0.194694  0.670203  0.895658  1
  B  B17  1  0.804262  0.331135  0.896771  1
