# generated using pymatgen
data_YSi4P2(Pd10Pb)2
_symmetry_space_group_name_H-M   'P 1'
_cell_length_a   8.72586207
_cell_length_b   8.72586194
_cell_length_c   8.71801300
_cell_angle_alpha   60.02974708
_cell_angle_beta   60.02974758
_cell_angle_gamma   59.94049669
_symmetry_Int_Tables_number   1
_chemical_formula_structural   YSi4P2(Pd10Pb)2
_chemical_formula_sum   'Y1 Si4 P2 Pd20 Pb2'
_cell_volume   469.37339068
_cell_formula_units_Z   1
loop_
 _symmetry_equiv_pos_site_id
 _symmetry_equiv_pos_as_xyz
  1  'x, y, z'
loop_
 _atom_site_type_symbol
 _atom_site_label
 _atom_site_symmetry_multiplicity
 _atom_site_fract_x
 _atom_site_fract_y
 _atom_site_fract_z
 _atom_site_occupancy
  Y  Y0  1  0.000000  0.000000  0.000000  1
  Si  Si1  1  0.732489  0.267511  0.267511  1
  Si  Si2  1  0.267511  0.732489  0.732489  1
  Si  Si3  1  0.267511  0.732489  0.267511  1
  Si  Si4  1  0.732489  0.267511  0.732489  1
  P  P5  1  0.266498  0.266498  0.733502  1
  P  P6  1  0.733502  0.733502  0.266498  1
  Pd  Pd7  1  0.383760  0.383760  0.385713  1
  Pd  Pd8  1  0.616240  0.616240  0.614287  1
  Pd  Pd9  1  0.383760  0.383760  0.846769  1
  Pd  Pd10  1  0.385713  0.846769  0.383760  1
  Pd  Pd11  1  0.616240  0.616240  0.153231  1
  Pd  Pd12  1  0.614287  0.153231  0.616240  1
  Pd  Pd13  1  0.846769  0.385713  0.383760  1
  Pd  Pd14  1  0.153231  0.614287  0.616240  1
  Pd  Pd15  1  0.343599  0.001108  0.998892  1
  Pd  Pd16  1  0.656401  0.998892  0.001108  1
  Pd  Pd17  1  0.001108  0.343599  0.656401  1
  Pd  Pd18  1  0.998892  0.656401  0.343599  1
  Pd  Pd19  1  0.001108  0.343599  0.998892  1
  Pd  Pd20  1  0.656401  0.998892  0.343599  1
  Pd  Pd21  1  0.998892  0.656401  0.001108  1
  Pd  Pd22  1  0.343599  0.001108  0.656401  1
  Pd  Pd23  1  0.000000  0.000000  0.344685  1
  Pd  Pd24  1  0.000000  0.000000  0.655315  1
  Pd  Pd25  1  0.655315  0.344685  0.000000  1
  Pd  Pd26  1  0.344685  0.655315  0.000000  1
  Pb  Pb27  1  0.250000  0.250000  0.250000  1
  Pb  Pb28  1  0.750000  0.750000  0.750000  1
