# generated using pymatgen
data_Ca2ErNpN4
_symmetry_space_group_name_H-M   'P 1'
_cell_length_a   6.88092498
_cell_length_b   9.13495159
_cell_length_c   6.00834448
_cell_angle_alpha   29.14464828
_cell_angle_beta   55.06728824
_cell_angle_gamma   41.12709088
_symmetry_Int_Tables_number   1
_chemical_formula_structural   Ca2ErNpN4
_chemical_formula_sum   'Ca2 Er1 Np1 N4'
_cell_volume   116.61102613
_cell_formula_units_Z   1
loop_
 _symmetry_equiv_pos_site_id
 _symmetry_equiv_pos_as_xyz
  1  'x, y, z'
loop_
 _atom_site_type_symbol
 _atom_site_label
 _atom_site_symmetry_multiplicity
 _atom_site_fract_x
 _atom_site_fract_y
 _atom_site_fract_z
 _atom_site_occupancy
  Ca  Ca0  1  0.750000  0.500000  0.000000  1
  Ca  Ca1  1  0.500000  0.000000  0.000000  1
  Er  Er2  1  0.250000  0.500000  0.000000  1
  Np  Np3  1  0.000000  0.000000  0.000000  1
  N  N4  1  0.489487  0.500000  0.521027  1
  N  N5  1  0.213456  0.000000  0.573088  1
  N  N6  1  0.010513  0.500000  0.478973  1
  N  N7  1  0.786544  0.000000  0.426912  1
