# generated using pymatgen
data_TaNb2B4W
_symmetry_space_group_name_H-M   'P 1'
_cell_length_a   3.16403200
_cell_length_b   3.27748000
_cell_length_c   8.67224200
_cell_angle_alpha   90.00000000
_cell_angle_beta   90.00000000
_cell_angle_gamma   90.00000000
_symmetry_Int_Tables_number   1
_chemical_formula_structural   TaNb2B4W
_chemical_formula_sum   'Ta1 Nb2 B4 W1'
_cell_volume   89.93159702
_cell_formula_units_Z   1
loop_
 _symmetry_equiv_pos_site_id
 _symmetry_equiv_pos_as_xyz
  1  'x, y, z'
loop_
 _atom_site_type_symbol
 _atom_site_label
 _atom_site_symmetry_multiplicity
 _atom_site_fract_x
 _atom_site_fract_y
 _atom_site_fract_z
 _atom_site_occupancy
  Ta  Ta0  1  0.000000  0.000000  0.149474  1
  Nb  Nb1  1  0.000000  0.500000  0.643220  1
  Nb  Nb2  1  0.500000  0.000000  0.855636  1
  B  B3  1  0.000000  0.000000  0.436447  1
  B  B4  1  0.000000  0.500000  0.943066  1
  B  B5  1  0.500000  0.500000  0.063205  1
  B  B6  1  0.500000  0.000000  0.555906  1
  W  W7  1  0.500000  0.500000  0.353047  1
