# generated using pymatgen
data_ZnCo3SbRhO8
_symmetry_space_group_name_H-M   'P 1'
_cell_length_a   6.07744538
_cell_length_b   10.46940864
_cell_length_c   6.19317685
_cell_angle_alpha   73.84499937
_cell_angle_beta   60.60056213
_cell_angle_gamma   89.97736253
_symmetry_Int_Tables_number   1
_chemical_formula_structural   ZnCo3SbRhO8
_chemical_formula_sum   'Zn2 Co6 Sb2 Rh2 O16'
_cell_volume   325.35522532
_cell_formula_units_Z   2
loop_
 _symmetry_equiv_pos_site_id
 _symmetry_equiv_pos_as_xyz
  1  'x, y, z'
loop_
 _atom_site_type_symbol
 _atom_site_label
 _atom_site_symmetry_multiplicity
 _atom_site_fract_x
 _atom_site_fract_y
 _atom_site_fract_z
 _atom_site_occupancy
  Zn  Zn0  1  0.706811  0.570456  0.097473  1
  Zn  Zn1  1  0.793964  0.929569  0.902638  1
  Co  Co2  1  0.749695  0.250000  0.499830  1
  Co  Co3  1  0.996845  0.499859  0.500501  1
  Co  Co4  1  0.196801  0.069306  0.098789  1
  Co  Co5  1  0.302522  0.430758  0.900980  1
  Co  Co6  1  0.503048  0.000053  0.499644  1
  Co  Co7  1  0.750455  0.750040  0.500027  1
  Sb  Sb8  1  0.749510  0.249973  0.999947  1
  Sb  Sb9  1  0.250462  0.749973  0.000092  1
  Rh  Rh10  1  0.249629  0.250053  0.499923  1
  Rh  Rh11  1  0.250340  0.750051  0.500090  1
  O  O12  1  0.393294  0.130154  0.714197  1
  O  O13  1  0.892296  0.630193  0.713675  1
  O  O14  1  0.105930  0.369868  0.285573  1
  O  O15  1  0.608547  0.869752  0.286443  1
  O  O16  1  0.393907  0.136428  0.245494  1
  O  O17  1  0.903121  0.633807  0.241006  1
  O  O18  1  0.856800  0.134452  0.239519  1
  O  O19  1  0.359784  0.636159  0.246596  1
  O  O20  1  0.616871  0.363082  0.247383  1
  O  O21  1  0.135482  0.862736  0.247099  1
  O  O22  1  0.642373  0.365480  0.760218  1
  O  O23  1  0.140894  0.863805  0.753855  1
  O  O24  1  0.882445  0.136944  0.752409  1
  O  O25  1  0.365326  0.637334  0.752903  1
  O  O26  1  0.105105  0.363532  0.754646  1
  O  O27  1  0.597746  0.866180  0.759052  1
