# generated using pymatgen
data_SrTb5HoNiI12
_symmetry_space_group_name_H-M   'P 1'
_cell_length_a   9.83292714
_cell_length_b   9.83610583
_cell_length_c   9.83238041
_cell_angle_alpha   106.27336711
_cell_angle_beta   106.24071055
_cell_angle_gamma   106.27839433
_symmetry_Int_Tables_number   1
_chemical_formula_structural   SrTb5HoNiI12
_chemical_formula_sum   'Sr1 Tb5 Ho1 Ni1 I12'
_cell_volume   807.34292510
_cell_formula_units_Z   1
loop_
 _symmetry_equiv_pos_site_id
 _symmetry_equiv_pos_as_xyz
  1  'x, y, z'
loop_
 _atom_site_type_symbol
 _atom_site_label
 _atom_site_symmetry_multiplicity
 _atom_site_fract_x
 _atom_site_fract_y
 _atom_site_fract_z
 _atom_site_occupancy
  Sr  Sr0  1  0.499994  0.499997  0.499948  1
  Tb  Tb1  1  0.709657  0.907501  0.979034  1
  Tb  Tb2  1  0.979209  0.709803  0.907139  1
  Tb  Tb3  1  0.092428  0.020690  0.290232  1
  Tb  Tb4  1  0.290115  0.092494  0.020292  1
  Tb  Tb5  1  0.020530  0.290088  0.091968  1
  Ho  Ho6  1  0.908317  0.979288  0.712078  1
  Ni  Ni7  1  0.999939  0.999945  0.999813  1
  I  I8  1  0.925966  0.321282  0.776872  1
  I  I9  1  0.777885  0.926375  0.323336  1
  I  I10  1  0.322623  0.777605  0.926179  1
  I  I11  1  0.073790  0.677490  0.222321  1
  I  I12  1  0.220677  0.073290  0.677143  1
  I  I13  1  0.677378  0.222401  0.073796  1
  I  I14  1  0.552792  0.864199  0.630824  1
  I  I15  1  0.630896  0.551313  0.863635  1
  I  I16  1  0.863705  0.632108  0.551436  1
  I  I17  1  0.448664  0.136386  0.369059  1
  I  I18  1  0.369124  0.448695  0.136321  1
  I  I19  1  0.136311  0.369050  0.448576  1
