# generated using pymatgen
data_Nd4PdPt(PbAu)2
_symmetry_space_group_name_H-M   'P 1'
_cell_length_a   3.72988400
_cell_length_b   8.28689425
_cell_length_c   8.28689338
_cell_angle_alpha   89.61467608
_cell_angle_beta   90.00000000
_cell_angle_gamma   90.00000000
_symmetry_Int_Tables_number   1
_chemical_formula_structural   Nd4PdPt(PbAu)2
_chemical_formula_sum   'Nd4 Pd1 Pt1 Pb2 Au2'
_cell_volume   256.13507361
_cell_formula_units_Z   1
loop_
 _symmetry_equiv_pos_site_id
 _symmetry_equiv_pos_as_xyz
  1  'x, y, z'
loop_
 _atom_site_type_symbol
 _atom_site_label
 _atom_site_symmetry_multiplicity
 _atom_site_fract_x
 _atom_site_fract_y
 _atom_site_fract_z
 _atom_site_occupancy
  Nd  Nd0  1  0.500000  0.160600  0.666711  1
  Nd  Nd1  1  0.500000  0.833289  0.339400  1
  Nd  Nd2  1  0.500000  0.323074  0.176926  1
  Nd  Nd3  1  0.500000  0.681182  0.818818  1
  Pd  Pd4  1  0.000000  0.126835  0.373165  1
  Pt  Pt5  1  0.000000  0.878316  0.621684  1
  Pb  Pb6  1  0.000000  0.000242  0.004469  1
  Pb  Pb7  1  0.000000  0.495531  0.499758  1
  Au  Au8  1  0.000000  0.624783  0.123852  1
  Au  Au9  1  0.000000  0.376148  0.875217  1
