# generated using pymatgen
data_Ho5Bi2Te
_symmetry_space_group_name_H-M   'P 1'
_cell_length_a   8.13976100
_cell_length_b   9.43945100
_cell_length_c   11.88206600
_cell_angle_alpha   90.00000000
_cell_angle_beta   90.00000000
_cell_angle_gamma   90.00000000
_symmetry_Int_Tables_number   1
_chemical_formula_structural   Ho5Bi2Te
_chemical_formula_sum   'Ho20 Bi8 Te4'
_cell_volume   912.95705717
_cell_formula_units_Z   4
loop_
 _symmetry_equiv_pos_site_id
 _symmetry_equiv_pos_as_xyz
  1  'x, y, z'
loop_
 _atom_site_type_symbol
 _atom_site_label
 _atom_site_symmetry_multiplicity
 _atom_site_fract_x
 _atom_site_fract_y
 _atom_site_fract_z
 _atom_site_occupancy
  Ho  Ho0  1  0.354289  0.750000  0.214005  1
  Ho  Ho1  1  0.854289  0.750000  0.285995  1
  Ho  Ho2  1  0.645711  0.250000  0.785995  1
  Ho  Ho3  1  0.145711  0.250000  0.714005  1
  Ho  Ho4  1  0.689305  0.563038  0.057837  1
  Ho  Ho5  1  0.189305  0.936962  0.442163  1
  Ho  Ho6  1  0.310695  0.063038  0.942163  1
  Ho  Ho7  1  0.810695  0.436962  0.557837  1
  Ho  Ho8  1  0.310695  0.436962  0.942163  1
  Ho  Ho9  1  0.810695  0.063038  0.557837  1
  Ho  Ho10  1  0.689305  0.936962  0.057837  1
  Ho  Ho11  1  0.189305  0.563038  0.442163  1
  Ho  Ho12  1  0.476139  0.250000  0.489064  1
  Ho  Ho13  1  0.976139  0.250000  0.010936  1
  Ho  Ho14  1  0.523861  0.750000  0.510936  1
  Ho  Ho15  1  0.023861  0.750000  0.989064  1
  Ho  Ho16  1  0.318032  0.250000  0.217091  1
  Ho  Ho17  1  0.818032  0.250000  0.282909  1
  Ho  Ho18  1  0.681968  0.750000  0.782909  1
  Ho  Ho19  1  0.181968  0.750000  0.717091  1
  Bi  Bi20  1  0.567983  0.996161  0.325314  1
  Bi  Bi21  1  0.067983  0.503839  0.174686  1
  Bi  Bi22  1  0.432017  0.496161  0.674686  1
  Bi  Bi23  1  0.932017  0.003839  0.825314  1
  Bi  Bi24  1  0.432017  0.003839  0.674686  1
  Bi  Bi25  1  0.932017  0.496161  0.825314  1
  Bi  Bi26  1  0.567983  0.503839  0.325314  1
  Bi  Bi27  1  0.067983  0.996161  0.174686  1
  Te  Te28  1  0.405952  0.750000  0.957662  1
  Te  Te29  1  0.905952  0.750000  0.542338  1
  Te  Te30  1  0.594048  0.250000  0.042338  1
  Te  Te31  1  0.094048  0.250000  0.457662  1
