# generated using pymatgen
data_Y3Th(SiAu2)8
_symmetry_space_group_name_H-M   'P 1'
_cell_length_a   4.40943200
_cell_length_b   4.40943200
_cell_length_c   27.25591200
_cell_angle_alpha   90.00000000
_cell_angle_beta   90.00000000
_cell_angle_gamma   90.00000000
_symmetry_Int_Tables_number   1
_chemical_formula_structural   Y3Th(SiAu2)8
_chemical_formula_sum   'Y3 Th1 Si8 Au16'
_cell_volume   529.93916538
_cell_formula_units_Z   1
loop_
 _symmetry_equiv_pos_site_id
 _symmetry_equiv_pos_as_xyz
  1  'x, y, z'
loop_
 _atom_site_type_symbol
 _atom_site_label
 _atom_site_symmetry_multiplicity
 _atom_site_fract_x
 _atom_site_fract_y
 _atom_site_fract_z
 _atom_site_occupancy
  Y  Y0  1  0.000000  0.500000  0.749041  1
  Y  Y1  1  0.500000  0.000000  0.250959  1
  Y  Y2  1  0.500000  0.500000  0.500000  1
  Th  Th3  1  0.500000  0.500000  0.000000  1
  Si  Si4  1  0.000000  0.000000  0.956864  1
  Si  Si5  1  0.000000  0.000000  0.456836  1
  Si  Si6  1  0.500000  0.000000  0.792290  1
  Si  Si7  1  0.500000  0.000000  0.706303  1
  Si  Si8  1  0.000000  0.500000  0.207710  1
  Si  Si9  1  0.000000  0.500000  0.293697  1
  Si  Si10  1  0.000000  0.000000  0.043136  1
  Si  Si11  1  0.000000  0.000000  0.543164  1
  Au  Au12  1  0.500000  0.000000  0.088040  1
  Au  Au13  1  0.500000  0.500000  0.663396  1
  Au  Au14  1  0.500000  0.500000  0.835754  1
  Au  Au15  1  0.000000  0.500000  0.087470  1
  Au  Au16  1  0.500000  0.000000  0.912530  1
  Au  Au17  1  0.000000  0.000000  0.664156  1
  Au  Au18  1  0.000000  0.500000  0.414674  1
  Au  Au19  1  0.500000  0.500000  0.336604  1
  Au  Au20  1  0.500000  0.000000  0.414455  1
  Au  Au21  1  0.000000  0.000000  0.335844  1
  Au  Au22  1  0.000000  0.000000  0.166181  1
  Au  Au23  1  0.500000  0.000000  0.585326  1
  Au  Au24  1  0.000000  0.000000  0.833819  1
  Au  Au25  1  0.500000  0.500000  0.164246  1
  Au  Au26  1  0.000000  0.500000  0.585545  1
  Au  Au27  1  0.000000  0.500000  0.911960  1
