# generated using pymatgen
data_Ba2NbIO4
_symmetry_space_group_name_H-M   'P 1'
_cell_length_a   7.20476000
_cell_length_b   8.11353100
_cell_length_c   12.76704100
_cell_angle_alpha   90.00000000
_cell_angle_beta   90.00000000
_cell_angle_gamma   90.00000000
_symmetry_Int_Tables_number   1
_chemical_formula_structural   Ba2NbIO4
_chemical_formula_sum   'Ba8 Nb4 I4 O16'
_cell_volume   746.31070544
_cell_formula_units_Z   4
loop_
 _symmetry_equiv_pos_site_id
 _symmetry_equiv_pos_as_xyz
  1  'x, y, z'
loop_
 _atom_site_type_symbol
 _atom_site_label
 _atom_site_symmetry_multiplicity
 _atom_site_fract_x
 _atom_site_fract_y
 _atom_site_fract_z
 _atom_site_occupancy
  Ba  Ba0  1  0.618815  0.250000  0.000000  1
  Ba  Ba1  1  0.381185  0.750000  0.000000  1
  Ba  Ba2  1  0.381185  0.750000  0.500000  1
  Ba  Ba3  1  0.618815  0.250000  0.500000  1
  Ba  Ba4  1  0.102266  0.029722  0.250000  1
  Ba  Ba5  1  0.897734  0.970278  0.750000  1
  Ba  Ba6  1  0.897734  0.529722  0.250000  1
  Ba  Ba7  1  0.102266  0.470278  0.750000  1
  Nb  Nb8  1  0.119408  0.250000  0.000000  1
  Nb  Nb9  1  0.880592  0.750000  0.000000  1
  Nb  Nb10  1  0.880592  0.750000  0.500000  1
  Nb  Nb11  1  0.119408  0.250000  0.500000  1
  I  I12  1  0.413184  0.411503  0.250000  1
  I  I13  1  0.586816  0.588497  0.750000  1
  I  I14  1  0.586816  0.911503  0.250000  1
  I  I15  1  0.413184  0.088497  0.750000  1
  O  O16  1  0.040418  0.772730  0.116843  1
  O  O17  1  0.959582  0.227270  0.883157  1
  O  O18  1  0.959582  0.227270  0.616843  1
  O  O19  1  0.959582  0.272730  0.383157  1
  O  O20  1  0.040418  0.772730  0.383157  1
  O  O21  1  0.040418  0.727270  0.616843  1
  O  O22  1  0.040418  0.727270  0.883157  1
  O  O23  1  0.959582  0.272730  0.116843  1
  O  O24  1  0.275948  0.072684  0.032038  1
  O  O25  1  0.724052  0.927316  0.967962  1
  O  O26  1  0.724052  0.927316  0.532038  1
  O  O27  1  0.724052  0.572684  0.467962  1
  O  O28  1  0.275948  0.072684  0.467962  1
  O  O29  1  0.275948  0.427316  0.532038  1
  O  O30  1  0.275948  0.427316  0.967962  1
  O  O31  1  0.724052  0.572684  0.032038  1
