# generated using pymatgen
data_NdTh3(Al3Ir)6
_symmetry_space_group_name_H-M   'P 1'
_cell_length_a   7.66065583
_cell_length_b   7.66293831
_cell_length_c   9.52830100
_cell_angle_alpha   90.00000000
_cell_angle_beta   90.00000000
_cell_angle_gamma   119.49585092
_symmetry_Int_Tables_number   1
_chemical_formula_structural   NdTh3(Al3Ir)6
_chemical_formula_sum   'Nd1 Th3 Al18 Ir6'
_cell_volume   486.84567514
_cell_formula_units_Z   1
loop_
 _symmetry_equiv_pos_site_id
 _symmetry_equiv_pos_as_xyz
  1  'x, y, z'
loop_
 _atom_site_type_symbol
 _atom_site_label
 _atom_site_symmetry_multiplicity
 _atom_site_fract_x
 _atom_site_fract_y
 _atom_site_fract_z
 _atom_site_occupancy
  Nd  Nd0  1  0.329809  0.005694  0.750000  1
  Th  Th1  1  0.995129  0.670579  0.250000  1
  Th  Th2  1  0.004489  0.330013  0.750000  1
  Th  Th3  1  0.669879  0.994857  0.250000  1
  Al  Al4  1  0.133887  0.132696  0.250000  1
  Al  Al5  1  0.869526  0.869167  0.750000  1
  Al  Al6  1  0.005481  0.335426  0.074379  1
  Al  Al7  1  0.998499  0.668135  0.924596  1
  Al  Al8  1  0.998499  0.668135  0.575404  1
  Al  Al9  1  0.335044  0.004631  0.429054  1
  Al  Al10  1  0.005481  0.335426  0.425621  1
  Al  Al11  1  0.661714  0.995169  0.575438  1
  Al  Al12  1  0.661714  0.995169  0.924562  1
  Al  Al13  1  0.335044  0.004631  0.070946  1
  Al  Al14  1  0.336306  0.333963  0.550243  1
  Al  Al15  1  0.663059  0.663077  0.452796  1
  Al  Al16  1  0.663059  0.663077  0.047204  1
  Al  Al17  1  0.336306  0.333963  0.949757  1
  Al  Al18  1  0.340620  0.544154  0.250000  1
  Al  Al19  1  0.658915  0.452297  0.750000  1
  Al  Al20  1  0.544175  0.339535  0.250000  1
  Al  Al21  1  0.453948  0.660489  0.750000  1
  Ir  Ir22  1  0.674559  0.329176  0.001445  1
  Ir  Ir23  1  0.327499  0.671081  0.001409  1
  Ir  Ir24  1  0.327499  0.671081  0.498591  1
  Ir  Ir25  1  0.674559  0.329176  0.498555  1
  Ir  Ir26  1  0.997651  0.999601  0.001894  1
  Ir  Ir27  1  0.997651  0.999601  0.498106  1
