# generated using pymatgen
data_Zr12Si12Os3Pt
_symmetry_space_group_name_H-M   'P 1'
_cell_length_a   3.92880900
_cell_length_b   10.43476775
_cell_length_c   11.79612842
_cell_angle_alpha   90.11447255
_cell_angle_beta   90.00000000
_cell_angle_gamma   90.00000000
_symmetry_Int_Tables_number   1
_chemical_formula_structural   Zr12Si12Os3Pt
_chemical_formula_sum   'Zr12 Si12 Os3 Pt1'
_cell_volume   483.59558632
_cell_formula_units_Z   1
loop_
 _symmetry_equiv_pos_site_id
 _symmetry_equiv_pos_as_xyz
  1  'x, y, z'
loop_
 _atom_site_type_symbol
 _atom_site_label
 _atom_site_symmetry_multiplicity
 _atom_site_fract_x
 _atom_site_fract_y
 _atom_site_fract_z
 _atom_site_occupancy
  Zr  Zr0  1  0.250000  0.876786  0.022545  1
  Zr  Zr1  1  0.250000  0.623549  0.519581  1
  Zr  Zr2  1  0.750000  0.122936  0.979711  1
  Zr  Zr3  1  0.750000  0.377290  0.479345  1
  Zr  Zr4  1  0.250000  0.926746  0.594422  1
  Zr  Zr5  1  0.250000  0.572789  0.099046  1
  Zr  Zr6  1  0.750000  0.073434  0.401626  1
  Zr  Zr7  1  0.750000  0.425711  0.902426  1
  Zr  Zr8  1  0.250000  0.655566  0.800912  1
  Zr  Zr9  1  0.250000  0.842205  0.300558  1
  Zr  Zr10  1  0.750000  0.341095  0.199544  1
  Zr  Zr11  1  0.750000  0.161237  0.699205  1
  Si  Si12  1  0.250000  0.019972  0.824747  1
  Si  Si13  1  0.250000  0.485226  0.324183  1
  Si  Si14  1  0.750000  0.985076  0.175378  1
  Si  Si15  1  0.750000  0.514862  0.676114  1
  Si  Si16  1  0.250000  0.250434  0.843319  1
  Si  Si17  1  0.250000  0.250995  0.342812  1
  Si  Si18  1  0.750000  0.750598  0.156601  1
  Si  Si19  1  0.750000  0.747518  0.655003  1
  Si  Si20  1  0.250000  0.195676  0.542613  1
  Si  Si21  1  0.250000  0.305483  0.043853  1
  Si  Si22  1  0.750000  0.806604  0.456360  1
  Si  Si23  1  0.750000  0.687664  0.959479  1
  Os  Os24  1  0.250000  0.386092  0.680452  1
  Os  Os25  1  0.250000  0.114925  0.179354  1
  Os  Os26  1  0.750000  0.615618  0.321324  1
  Pt  Pt27  1  0.750000  0.883911  0.819488  1
