# generated using pymatgen
data_Tc2AgF9
_symmetry_space_group_name_H-M   'P 1'
_cell_length_a   5.42053117
_cell_length_b   9.84330681
_cell_length_c   9.60120200
_cell_angle_alpha   136.45218928
_cell_angle_beta   106.27057994
_cell_angle_gamma   80.81730575
_symmetry_Int_Tables_number   1
_chemical_formula_structural   Tc2AgF9
_chemical_formula_sum   'Tc4 Ag2 F18'
_cell_volume   338.07236442
_cell_formula_units_Z   2
loop_
 _symmetry_equiv_pos_site_id
 _symmetry_equiv_pos_as_xyz
  1  'x, y, z'
loop_
 _atom_site_type_symbol
 _atom_site_label
 _atom_site_symmetry_multiplicity
 _atom_site_fract_x
 _atom_site_fract_y
 _atom_site_fract_z
 _atom_site_occupancy
  Tc  Tc0  1  0.705742  0.818827  0.168904  1
  Tc  Tc1  1  0.294258  0.181173  0.831096  1
  Tc  Tc2  1  0.904742  0.477120  0.227205  1
  Tc  Tc3  1  0.095258  0.522880  0.772795  1
  Ag  Ag4  1  0.600368  0.778114  0.702645  1
  Ag  Ag5  1  0.399632  0.221886  0.297355  1
  F  F6  1  0.366562  0.656906  0.043248  1
  F  F7  1  0.633438  0.343094  0.956752  1
  F  F8  1  0.445821  0.119261  0.984226  1
  F  F9  1  0.554179  0.880739  0.015774  1
  F  F10  1  0.832808  0.564680  0.915566  1
  F  F11  1  0.167192  0.435320  0.084434  1
  F  F12  1  0.163861  0.615009  0.480585  1
  F  F13  1  0.836139  0.384991  0.519415  1
  F  F14  1  0.976846  0.232520  0.143117  1
  F  F15  1  0.023154  0.767480  0.856883  1
  F  F16  1  0.426994  0.953469  0.601847  1
  F  F17  1  0.573006  0.046531  0.398153  1
  F  F18  1  0.361334  0.471245  0.647182  1
  F  F19  1  0.638666  0.528755  0.352818  1
  F  F20  1  0.978243  0.049599  0.731982  1
  F  F21  1  0.021757  0.950401  0.268018  1
  F  F22  1  0.154630  0.261391  0.681833  1
  F  F23  1  0.845370  0.738609  0.318167  1
