# generated using pymatgen
data_Ac11(In3Si2)2
_symmetry_space_group_name_H-M   'P 1'
_cell_length_a   12.51843891
_cell_length_b   12.51843943
_cell_length_c   12.51843939
_cell_angle_alpha   119.51677273
_cell_angle_beta   119.51677830
_cell_angle_gamma   90.83902827
_symmetry_Int_Tables_number   1
_chemical_formula_structural   Ac11(In3Si2)2
_chemical_formula_sum   'Ac22 In12 Si8'
_cell_volume   1397.15849767
_cell_formula_units_Z   2
loop_
 _symmetry_equiv_pos_site_id
 _symmetry_equiv_pos_as_xyz
  1  'x, y, z'
loop_
 _atom_site_type_symbol
 _atom_site_label
 _atom_site_symmetry_multiplicity
 _atom_site_fract_x
 _atom_site_fract_y
 _atom_site_fract_z
 _atom_site_occupancy
  Ac  Ac0  1  0.686106  0.937640  0.251533  1
  Ac  Ac1  1  0.686106  0.434573  0.748467  1
  Ac  Ac2  1  0.937640  0.686106  0.251533  1
  Ac  Ac3  1  0.434573  0.686106  0.748467  1
  Ac  Ac4  1  0.313894  0.062360  0.748467  1
  Ac  Ac5  1  0.313894  0.565427  0.251533  1
  Ac  Ac6  1  0.062360  0.313894  0.748467  1
  Ac  Ac7  1  0.565427  0.313894  0.251533  1
  Ac  Ac8  1  0.900920  0.246837  0.345917  1
  Ac  Ac9  1  0.900920  0.555003  0.654083  1
  Ac  Ac10  1  0.246837  0.900920  0.345917  1
  Ac  Ac11  1  0.555003  0.900920  0.654083  1
  Ac  Ac12  1  0.099080  0.753163  0.654083  1
  Ac  Ac13  1  0.099080  0.444997  0.345917  1
  Ac  Ac14  1  0.753163  0.099080  0.654083  1
  Ac  Ac15  1  0.444997  0.099080  0.345917  1
  Ac  Ac16  1  0.331899  0.331899  0.663797  1
  Ac  Ac17  1  0.668101  0.668101  0.336203  1
  Ac  Ac18  1  0.331899  0.668101  0.000000  1
  Ac  Ac19  1  0.668101  0.331899  0.000000  1
  Ac  Ac20  1  0.839661  0.839661  0.000000  1
  Ac  Ac21  1  0.160339  0.160339  0.000000  1
  In  In22  1  0.034098  0.034098  0.414043  1
  In  In23  1  0.620055  0.620055  0.585957  1
  In  In24  1  0.034098  0.620055  0.000000  1
  In  In25  1  0.620055  0.034098  0.000000  1
  In  In26  1  0.965902  0.965902  0.585957  1
  In  In27  1  0.379945  0.379945  0.414043  1
  In  In28  1  0.965902  0.379945  0.000000  1
  In  In29  1  0.379945  0.965902  0.000000  1
  In  In30  1  0.125976  0.125976  0.251952  1
  In  In31  1  0.874024  0.874024  0.748048  1
  In  In32  1  0.125976  0.874024  0.000000  1
  In  In33  1  0.874024  0.125976  0.000000  1
  Si  Si34  1  0.153264  0.500000  0.653264  1
  Si  Si35  1  0.846736  0.500000  0.346736  1
  Si  Si36  1  0.500000  0.846736  0.346736  1
  Si  Si37  1  0.500000  0.153264  0.653264  1
  Si  Si38  1  0.621056  0.621056  0.000000  1
  Si  Si39  1  0.378944  0.378944  0.000000  1
  Si  Si40  1  0.750000  0.250000  0.500000  1
  Si  Si41  1  0.250000  0.750000  0.500000  1
