# generated using pymatgen
data_SrHoIn2Pt3
_symmetry_space_group_name_H-M   'P 1'
_cell_length_a   4.41470000
_cell_length_b   8.00013400
_cell_length_c   9.15447700
_cell_angle_alpha   90.00000000
_cell_angle_beta   90.00000000
_cell_angle_gamma   90.00000000
_symmetry_Int_Tables_number   1
_chemical_formula_structural   SrHoIn2Pt3
_chemical_formula_sum   'Sr2 Ho2 In4 Pt6'
_cell_volume   323.31957241
_cell_formula_units_Z   2
loop_
 _symmetry_equiv_pos_site_id
 _symmetry_equiv_pos_as_xyz
  1  'x, y, z'
loop_
 _atom_site_type_symbol
 _atom_site_label
 _atom_site_symmetry_multiplicity
 _atom_site_fract_x
 _atom_site_fract_y
 _atom_site_fract_z
 _atom_site_occupancy
  Sr  Sr0  1  0.000000  0.000000  0.279813  1
  Sr  Sr1  1  0.500001  0.500000  0.720188  1
  Ho  Ho2  1  0.000000  0.500000  0.353923  1
  Ho  Ho3  1  0.500001  0.000000  0.646078  1
  In  In4  1  0.500001  0.304898  0.114385  1
  In  In5  1  0.500001  0.695103  0.114385  1
  In  In6  1  0.000000  0.195102  0.885615  1
  In  In7  1  0.000000  0.804897  0.885615  1
  Pt  Pt8  1  0.000000  0.500000  0.029853  1
  Pt  Pt9  1  0.500001  0.268778  0.411747  1
  Pt  Pt10  1  0.500001  0.731222  0.411747  1
  Pt  Pt11  1  0.000000  0.231222  0.588254  1
  Pt  Pt12  1  0.000000  0.768778  0.588254  1
  Pt  Pt13  1  0.500001  0.000000  0.970148  1
