# generated using pymatgen
data_Yb4DyY5(CuPb3)2
_symmetry_space_group_name_H-M   'P 1'
_cell_length_a   9.22269100
_cell_length_b   9.22269039
_cell_length_c   6.80211600
_cell_angle_alpha   90.00000000
_cell_angle_beta   90.00000000
_cell_angle_gamma   120.01634260
_symmetry_Int_Tables_number   1
_chemical_formula_structural   Yb4DyY5(CuPb3)2
_chemical_formula_sum   'Yb4 Dy1 Y5 Cu2 Pb6'
_cell_volume   500.97771818
_cell_formula_units_Z   1
loop_
 _symmetry_equiv_pos_site_id
 _symmetry_equiv_pos_as_xyz
  1  'x, y, z'
loop_
 _atom_site_type_symbol
 _atom_site_label
 _atom_site_symmetry_multiplicity
 _atom_site_fract_x
 _atom_site_fract_y
 _atom_site_fract_z
 _atom_site_occupancy
  Yb  Yb0  1  0.333153  0.666358  0.499982  1
  Yb  Yb1  1  0.666358  0.333153  0.499982  1
  Yb  Yb2  1  0.666358  0.333153  0.000018  1
  Yb  Yb3  1  0.333153  0.666358  0.000018  1
  Dy  Dy4  1  0.259717  0.259717  0.250000  1
  Y  Y5  1  0.259147  0.999612  0.750000  1
  Y  Y6  1  0.739643  0.999128  0.250000  1
  Y  Y7  1  0.999612  0.259147  0.750000  1
  Y  Y8  1  0.999128  0.739643  0.250000  1
  Y  Y9  1  0.741893  0.741893  0.750000  1
  Cu  Cu10  1  0.002694  0.002694  0.496422  1
  Cu  Cu11  1  0.002694  0.002694  0.003578  1
  Pb  Pb12  1  0.613489  0.999550  0.750000  1
  Pb  Pb13  1  0.384946  0.000019  0.250000  1
  Pb  Pb14  1  0.999550  0.613489  0.750000  1
  Pb  Pb15  1  0.000019  0.384946  0.250000  1
  Pb  Pb16  1  0.385726  0.385726  0.750000  1
  Pb  Pb17  1  0.612720  0.612720  0.250000  1
