# generated using pymatgen
data_Dy4TmMoOsC7
_symmetry_space_group_name_H-M   'P 1'
_cell_length_a   8.28818165
_cell_length_b   8.26253864
_cell_length_c   3.47570700
_cell_angle_alpha   90.00000000
_cell_angle_beta   90.00000000
_cell_angle_gamma   122.29322255
_symmetry_Int_Tables_number   1
_chemical_formula_structural   Dy4TmMoOsC7
_chemical_formula_sum   'Dy4 Tm1 Mo1 Os1 C7'
_cell_volume   201.20541019
_cell_formula_units_Z   1
loop_
 _symmetry_equiv_pos_site_id
 _symmetry_equiv_pos_as_xyz
  1  'x, y, z'
loop_
 _atom_site_type_symbol
 _atom_site_label
 _atom_site_symmetry_multiplicity
 _atom_site_fract_x
 _atom_site_fract_y
 _atom_site_fract_z
 _atom_site_occupancy
  Dy  Dy0  1  0.500862  0.498286  0.000000  1
  Dy  Dy1  1  0.073690  0.333177  0.500000  1
  Dy  Dy2  1  0.923141  0.665547  0.500000  1
  Dy  Dy3  1  0.664018  0.927297  0.500000  1
  Tm  Tm4  1  0.339696  0.078927  0.500000  1
  Mo  Mo5  1  0.285474  0.713599  0.000000  1
  Os  Os6  1  0.710790  0.289402  0.000000  1
  C  C7  1  0.632395  0.367448  0.500000  1
  C  C8  1  0.374824  0.624044  0.500000  1
  C  C9  1  0.000445  0.999703  0.000000  1
  C  C10  1  0.172309  0.167745  0.000000  1
  C  C11  1  0.828964  0.831790  0.000000  1
  C  C12  1  0.996549  0.499930  0.000000  1
  C  C13  1  0.496844  0.003103  0.000000  1
