# generated using pymatgen
data_Dy2Er2LuPb4
_symmetry_space_group_name_H-M   'P 1'
_cell_length_a   8.15296800
_cell_length_b   8.23865600
_cell_length_c   15.58619100
_cell_angle_alpha   90.00000000
_cell_angle_beta   90.00000000
_cell_angle_gamma   90.00000000
_symmetry_Int_Tables_number   1
_chemical_formula_structural   Dy2Er2LuPb4
_chemical_formula_sum   'Dy8 Er8 Lu4 Pb16'
_cell_volume   1046.91663660
_cell_formula_units_Z   4
loop_
 _symmetry_equiv_pos_site_id
 _symmetry_equiv_pos_as_xyz
  1  'x, y, z'
loop_
 _atom_site_type_symbol
 _atom_site_label
 _atom_site_symmetry_multiplicity
 _atom_site_fract_x
 _atom_site_fract_y
 _atom_site_fract_z
 _atom_site_occupancy
  Dy  Dy0  1  0.536431  0.323649  0.900357  1
  Dy  Dy1  1  0.036431  0.176351  0.599643  1
  Dy  Dy2  1  0.463569  0.676351  0.400357  1
  Dy  Dy3  1  0.963569  0.823649  0.099643  1
  Dy  Dy4  1  0.463569  0.676351  0.099643  1
  Dy  Dy5  1  0.963569  0.823649  0.400357  1
  Dy  Dy6  1  0.536431  0.323649  0.599643  1
  Dy  Dy7  1  0.036431  0.176351  0.900357  1
  Er  Er8  1  0.376413  0.841878  0.878841  1
  Er  Er9  1  0.876413  0.658122  0.621159  1
  Er  Er10  1  0.623587  0.158122  0.378841  1
  Er  Er11  1  0.123587  0.341878  0.121159  1
  Er  Er12  1  0.623587  0.158122  0.121159  1
  Er  Er13  1  0.123587  0.341878  0.378841  1
  Er  Er14  1  0.376413  0.841878  0.621159  1
  Er  Er15  1  0.876413  0.658122  0.878841  1
  Lu  Lu16  1  0.208333  0.504794  0.750000  1
  Lu  Lu17  1  0.708333  0.995206  0.750000  1
  Lu  Lu18  1  0.791667  0.495206  0.250000  1
  Lu  Lu19  1  0.291667  0.004794  0.250000  1
  Pb  Pb20  1  0.281962  0.033648  0.043579  1
  Pb  Pb21  1  0.781962  0.466352  0.456421  1
  Pb  Pb22  1  0.718038  0.966352  0.543579  1
  Pb  Pb23  1  0.218038  0.533648  0.956421  1
  Pb  Pb24  1  0.718038  0.966352  0.956421  1
  Pb  Pb25  1  0.218038  0.533648  0.543579  1
  Pb  Pb26  1  0.281962  0.033648  0.456421  1
  Pb  Pb27  1  0.781962  0.466352  0.043579  1
  Pb  Pb28  1  0.570621  0.626954  0.750000  1
  Pb  Pb29  1  0.070621  0.873046  0.750000  1
  Pb  Pb30  1  0.429379  0.373046  0.250000  1
  Pb  Pb31  1  0.929379  0.126954  0.250000  1
  Pb  Pb32  1  0.348830  0.155462  0.750000  1
  Pb  Pb33  1  0.848830  0.344538  0.750000  1
  Pb  Pb34  1  0.651170  0.844538  0.250000  1
  Pb  Pb35  1  0.151170  0.655462  0.250000  1
