# generated using pymatgen
data_PrAl4Fe9
_symmetry_space_group_name_H-M   'P 1'
_cell_length_a   8.23081641
_cell_length_b   8.23081685
_cell_length_c   8.23081712
_cell_angle_alpha   120.37858158
_cell_angle_beta   120.37858054
_cell_angle_gamma   89.34552511
_symmetry_Int_Tables_number   1
_chemical_formula_structural   PrAl4Fe9
_chemical_formula_sum   'Pr2 Al8 Fe18'
_cell_volume   392.00426662
_cell_formula_units_Z   2
loop_
 _symmetry_equiv_pos_site_id
 _symmetry_equiv_pos_as_xyz
  1  'x, y, z'
loop_
 _atom_site_type_symbol
 _atom_site_label
 _atom_site_symmetry_multiplicity
 _atom_site_fract_x
 _atom_site_fract_y
 _atom_site_fract_z
 _atom_site_occupancy
  Pr  Pr0  1  0.250000  0.250000  0.000000  1
  Pr  Pr1  1  0.750000  0.750000  0.000000  1
  Al  Al2  1  0.439315  0.309617  0.500000  1
  Al  Al3  1  0.190383  0.060685  0.500000  1
  Al  Al4  1  0.060685  0.560685  0.870303  1
  Al  Al5  1  0.690383  0.190383  0.129697  1
  Al  Al6  1  0.809617  0.939315  0.500000  1
  Al  Al7  1  0.309617  0.809617  0.870303  1
  Al  Al8  1  0.560685  0.690383  0.500000  1
  Al  Al9  1  0.939315  0.439315  0.129697  1
  Fe  Fe10  1  0.702826  0.559460  0.262285  1
  Fe  Fe11  1  0.433623  0.933623  0.714606  1
  Fe  Fe12  1  0.500000  0.000000  0.500000  1
  Fe  Fe13  1  0.719017  0.433623  0.500000  1
  Fe  Fe14  1  0.066377  0.780983  0.500000  1
  Fe  Fe15  1  0.202826  0.940540  0.143366  1
  Fe  Fe16  1  0.566377  0.066377  0.285394  1
  Fe  Fe17  1  0.297174  0.440540  0.737715  1
  Fe  Fe18  1  0.780983  0.280983  0.714606  1
  Fe  Fe19  1  0.940540  0.797174  0.737715  1
  Fe  Fe20  1  0.933623  0.219017  0.500000  1
  Fe  Fe21  1  0.059460  0.202826  0.262285  1
  Fe  Fe22  1  0.797174  0.059460  0.856634  1
  Fe  Fe23  1  0.559460  0.297174  0.856634  1
  Fe  Fe24  1  0.000000  0.500000  0.500000  1
  Fe  Fe25  1  0.219017  0.719017  0.285394  1
  Fe  Fe26  1  0.280983  0.566377  0.500000  1
  Fe  Fe27  1  0.440540  0.702826  0.143366  1
