# generated using pymatgen
data_AcPr7Np4O24
_symmetry_space_group_name_H-M   'P 1'
_cell_length_a   5.64310937
_cell_length_b   9.61658854
_cell_length_c   10.61834000
_cell_angle_alpha   90.03205412
_cell_angle_beta   89.97934833
_cell_angle_gamma   90.00461114
_symmetry_Int_Tables_number   1
_chemical_formula_structural   AcPr7Np4O24
_chemical_formula_sum   'Ac1 Pr7 Np4 O24'
_cell_volume   576.23022069
_cell_formula_units_Z   1
loop_
 _symmetry_equiv_pos_site_id
 _symmetry_equiv_pos_as_xyz
  1  'x, y, z'
loop_
 _atom_site_type_symbol
 _atom_site_label
 _atom_site_symmetry_multiplicity
 _atom_site_fract_x
 _atom_site_fract_y
 _atom_site_fract_z
 _atom_site_occupancy
  Ac  Ac0  1  0.532915  0.217843  0.363647  1
  Pr  Pr1  1  0.474594  0.602740  0.537182  1
  Pr  Pr2  1  0.974910  0.897968  0.465046  1
  Pr  Pr3  1  0.524934  0.101787  0.962988  1
  Pr  Pr4  1  0.025929  0.398529  0.035196  1
  Pr  Pr5  1  0.960566  0.781632  0.867369  1
  Pr  Pr6  1  0.460508  0.716956  0.131486  1
  Pr  Pr7  1  0.037302  0.283281  0.634105  1
  Np  Np8  1  0.461017  0.993420  0.650605  1
  Np  Np9  1  0.962928  0.509033  0.351503  1
  Np  Np10  1  0.538297  0.495084  0.851571  1
  Np  Np11  1  0.037451  0.002121  0.145903  1
  O  O12  1  0.247838  0.085099  0.510099  1
  O  O13  1  0.755791  0.418198  0.495166  1
  O  O14  1  0.747114  0.586138  0.993797  1
  O  O15  1  0.245645  0.911865  0.003802  1
  O  O16  1  0.735010  0.113252  0.569647  1
  O  O17  1  0.229289  0.389124  0.438931  1
  O  O18  1  0.265507  0.615047  0.935197  1
  O  O19  1  0.764416  0.882970  0.063674  1
  O  O20  1  0.587547  0.842533  0.530650  1
  O  O21  1  0.088689  0.660136  0.469881  1
  O  O22  1  0.412912  0.342967  0.969506  1
  O  O23  1  0.908828  0.156894  0.030702  1
  O  O24  1  0.182060  0.856599  0.260167  1
  O  O25  1  0.678294  0.642950  0.738921  1
  O  O26  1  0.829782  0.360766  0.237143  1
  O  O27  1  0.321280  0.142560  0.762463  1
  O  O28  1  0.834273  0.045527  0.300870  1
  O  O29  1  0.328029  0.451164  0.699215  1
  O  O30  1  0.176281  0.548793  0.198376  1
  O  O31  1  0.672180  0.949653  0.802457  1
  O  O32  1  0.324666  0.134819  0.172002  1
  O  O33  1  0.828031  0.363262  0.819625  1
  O  O34  1  0.672051  0.638145  0.318956  1
  O  O35  1  0.173137  0.861147  0.682152  1
