# generated using pymatgen
data_DyY5Lu10(CdPt)4
_symmetry_space_group_name_H-M   'P 1'
_cell_length_a   9.56404481
_cell_length_b   9.56230478
_cell_length_c   9.56230427
_cell_angle_alpha   60.01915555
_cell_angle_beta   59.99398176
_cell_angle_gamma   59.99398434
_symmetry_Int_Tables_number   1
_chemical_formula_structural   DyY5Lu10(CdPt)4
_chemical_formula_sum   'Dy1 Y5 Lu10 Cd4 Pt4'
_cell_volume   618.40794829
_cell_formula_units_Z   1
loop_
 _symmetry_equiv_pos_site_id
 _symmetry_equiv_pos_as_xyz
  1  'x, y, z'
loop_
 _atom_site_type_symbol
 _atom_site_label
 _atom_site_symmetry_multiplicity
 _atom_site_fract_x
 _atom_site_fract_y
 _atom_site_fract_z
 _atom_site_occupancy
  Dy  Dy0  1  0.937749  0.562251  0.562251  1
  Y  Y1  1  0.562351  0.937649  0.937649  1
  Y  Y2  1  0.562613  0.937409  0.562312  1
  Y  Y3  1  0.937666  0.562312  0.937409  1
  Y  Y4  1  0.562613  0.562312  0.937409  1
  Y  Y5  1  0.937666  0.937409  0.562312  1
  Lu  Lu6  1  0.351438  0.351903  0.351903  1
  Lu  Lu7  1  0.351773  0.351743  0.944712  1
  Lu  Lu8  1  0.351773  0.944712  0.351743  1
  Lu  Lu9  1  0.944757  0.351903  0.351903  1
  Lu  Lu10  1  0.812051  0.187949  0.187949  1
  Lu  Lu11  1  0.188032  0.811968  0.811968  1
  Lu  Lu12  1  0.187802  0.811872  0.188268  1
  Lu  Lu13  1  0.812059  0.188268  0.811872  1
  Lu  Lu14  1  0.187802  0.188268  0.811872  1
  Lu  Lu15  1  0.812059  0.811872  0.188268  1
  Cd  Cd16  1  0.581344  0.580913  0.580913  1
  Cd  Cd17  1  0.580867  0.581091  0.257177  1
  Cd  Cd18  1  0.580867  0.257177  0.581091  1
  Cd  Cd19  1  0.256831  0.580913  0.580913  1
  Pt  Pt20  1  0.143328  0.142924  0.142924  1
  Pt  Pt21  1  0.142869  0.143383  0.570879  1
  Pt  Pt22  1  0.142869  0.570879  0.143383  1
  Pt  Pt23  1  0.570824  0.142924  0.142924  1
