# generated using pymatgen
data_Ni5B2
_symmetry_space_group_name_H-M   'P 1'
_cell_length_a   4.51461323
_cell_length_b   5.13464468
_cell_length_c   6.09649591
_cell_angle_alpha   96.90419650
_cell_angle_beta   111.73183200
_cell_angle_gamma   90.00000566
_symmetry_Int_Tables_number   1
_chemical_formula_structural   Ni5B2
_chemical_formula_sum   'Ni10 B4'
_cell_volume   130.17441920
_cell_formula_units_Z   2
loop_
 _symmetry_equiv_pos_site_id
 _symmetry_equiv_pos_as_xyz
  1  'x, y, z'
loop_
 _atom_site_type_symbol
 _atom_site_label
 _atom_site_symmetry_multiplicity
 _atom_site_fract_x
 _atom_site_fract_y
 _atom_site_fract_z
 _atom_site_occupancy
  Ni  Ni0  1  0.582723  0.250000  0.000003  1
  Ni  Ni1  1  0.417280  0.749999  0.000003  1
  Ni  Ni2  1  0.202385  0.426088  0.185638  1
  Ni  Ni3  1  0.983254  0.926090  0.185638  1
  Ni  Ni4  1  0.798483  0.313967  0.436454  1
  Ni  Ni5  1  0.637969  0.813967  0.436454  1
  Ni  Ni6  1  0.362057  0.186045  0.563555  1
  Ni  Ni7  1  0.201500  0.686046  0.563555  1
  Ni  Ni8  1  0.016816  0.073890  0.814361  1
  Ni  Ni9  1  0.797547  0.573890  0.814361  1
  B  B10  1  0.408412  0.080325  0.223725  1
  B  B11  1  0.815312  0.580325  0.223725  1
  B  B12  1  0.184711  0.419683  0.776261  1
  B  B13  1  0.591550  0.919682  0.776261  1
