# generated using pymatgen
data_Y5(MnB3)2
_symmetry_space_group_name_H-M   'P 1'
_cell_length_a   5.44810411
_cell_length_b   5.44810480
_cell_length_c   8.35386763
_cell_angle_alpha   70.96882013
_cell_angle_beta   70.96881775
_cell_angle_gamma   59.99998981
_symmetry_Int_Tables_number   1
_chemical_formula_structural   Y5(MnB3)2
_chemical_formula_sum   'Y5 Mn2 B6'
_cell_volume   198.93448101
_cell_formula_units_Z   1
loop_
 _symmetry_equiv_pos_site_id
 _symmetry_equiv_pos_as_xyz
  1  'x, y, z'
loop_
 _atom_site_type_symbol
 _atom_site_label
 _atom_site_symmetry_multiplicity
 _atom_site_fract_x
 _atom_site_fract_y
 _atom_site_fract_z
 _atom_site_occupancy
  Y  Y0  1  0.000000  0.000000  0.000000  1
  Y  Y1  1  0.250584  0.250584  0.248247  1
  Y  Y2  1  0.749416  0.749416  0.751753  1
  Y  Y3  1  0.416701  0.416701  0.749897  1
  Y  Y4  1  0.583299  0.583299  0.250103  1
  Mn  Mn5  1  0.115936  0.115936  0.652192  1
  Mn  Mn6  1  0.884064  0.884064  0.347808  1
  B  B7  1  0.166222  0.833778  0.500000  1
  B  B8  1  0.833778  0.500000  0.500000  1
  B  B9  1  0.500000  0.166222  0.500000  1
  B  B10  1  0.166222  0.500000  0.500000  1
  B  B11  1  0.500000  0.833778  0.500000  1
  B  B12  1  0.833778  0.166222  0.500000  1
