# generated using pymatgen
data_Ti6Al3GaO2
_symmetry_space_group_name_H-M   'P 1'
_cell_length_a   6.90585686
_cell_length_b   6.90587400
_cell_length_c   6.90534294
_cell_angle_alpha   90.00000000
_cell_angle_beta   89.96082524
_cell_angle_gamma   90.00000000
_symmetry_Int_Tables_number   1
_chemical_formula_structural   Ti6Al3GaO2
_chemical_formula_sum   'Ti12 Al6 Ga2 O4'
_cell_volume   329.32247669
_cell_formula_units_Z   2
loop_
 _symmetry_equiv_pos_site_id
 _symmetry_equiv_pos_as_xyz
  1  'x, y, z'
loop_
 _atom_site_type_symbol
 _atom_site_label
 _atom_site_symmetry_multiplicity
 _atom_site_fract_x
 _atom_site_fract_y
 _atom_site_fract_z
 _atom_site_occupancy
  Ti  Ti0  1  0.792542  0.958403  0.377448  1
  Ti  Ti1  1  0.707721  0.040793  0.873134  1
  Ti  Ti2  1  0.207458  0.458403  0.122552  1
  Ti  Ti3  1  0.292279  0.540793  0.626866  1
  Ti  Ti4  1  0.957962  0.375569  0.792564  1
  Ti  Ti5  1  0.042038  0.875569  0.707436  1
  Ti  Ti6  1  0.459770  0.124978  0.207442  1
  Ti  Ti7  1  0.540230  0.624978  0.292558  1
  Ti  Ti8  1  0.375769  0.792581  0.958684  1
  Ti  Ti9  1  0.874518  0.707508  0.040882  1
  Ti  Ti10  1  0.125482  0.207508  0.459118  1
  Ti  Ti11  1  0.624231  0.292581  0.541316  1
  Al  Al12  1  0.178095  0.820549  0.320023  1
  Al  Al13  1  0.319468  0.179196  0.821626  1
  Al  Al14  1  0.821905  0.320549  0.179977  1
  Al  Al15  1  0.680532  0.679196  0.678374  1
  Al  Al16  1  0.571430  0.428625  0.929145  1
  Al  Al17  1  0.428570  0.928625  0.570855  1
  Ga  Ga18  1  0.930595  0.569486  0.429731  1
  Ga  Ga19  1  0.069405  0.069486  0.070269  1
  O  O20  1  0.876174  0.126730  0.625264  1
  O  O21  1  0.627199  0.875584  0.125871  1
  O  O22  1  0.123826  0.626730  0.874736  1
  O  O23  1  0.372801  0.375584  0.374129  1
