# generated using pymatgen
data_Ta11Nb5(VTe4)4
_symmetry_space_group_name_H-M   'P 1'
_cell_length_a   4.93828400
_cell_length_b   11.10659430
_cell_length_c   19.44158853
_cell_angle_alpha   89.97327542
_cell_angle_beta   90.00000000
_cell_angle_gamma   90.00000000
_symmetry_Int_Tables_number   1
_chemical_formula_structural   Ta11Nb5(VTe4)4
_chemical_formula_sum   'Ta11 Nb5 V4 Te16'
_cell_volume   1066.32274010
_cell_formula_units_Z   1
loop_
 _symmetry_equiv_pos_site_id
 _symmetry_equiv_pos_as_xyz
  1  'x, y, z'
loop_
 _atom_site_type_symbol
 _atom_site_label
 _atom_site_symmetry_multiplicity
 _atom_site_fract_x
 _atom_site_fract_y
 _atom_site_fract_z
 _atom_site_occupancy
  Ta  Ta0  1  0.500000  0.435931  0.616132  1
  Ta  Ta1  1  0.500000  0.064100  0.116249  1
  Ta  Ta2  1  0.500000  0.935892  0.883744  1
  Ta  Ta3  1  0.500000  0.704473  0.536690  1
  Ta  Ta4  1  0.500000  0.295482  0.463566  1
  Ta  Ta5  1  0.500000  0.203984  0.963496  1
  Ta  Ta6  1  0.500000  0.796016  0.036509  1
  Ta  Ta7  1  0.000000  0.400157  0.390958  1
  Ta  Ta8  1  0.000000  0.599189  0.608680  1
  Ta  Ta9  1  0.000000  0.900537  0.108820  1
  Ta  Ta10  1  0.000000  0.099458  0.891182  1
  Nb  Nb11  1  0.500000  0.564596  0.382900  1
  Nb  Nb12  1  0.000000  0.691842  0.442898  1
  Nb  Nb13  1  0.000000  0.308987  0.557070  1
  Nb  Nb14  1  0.000000  0.191244  0.057052  1
  Nb  Nb15  1  0.000000  0.808749  0.942944  1
  V  V16  1  0.244337  0.500147  0.499752  1
  V  V17  1  0.755949  0.999998  0.999996  1
  V  V18  1  0.755663  0.500147  0.499752  1
  V  V19  1  0.244051  0.999998  0.999996  1
  Te  Te20  1  0.000000  0.843655  0.562315  1
  Te  Te21  1  0.000000  0.156300  0.437811  1
  Te  Te22  1  0.000000  0.343598  0.937683  1
  Te  Te23  1  0.000000  0.656407  0.062309  1
  Te  Te24  1  0.500000  0.332633  0.318029  1
  Te  Te25  1  0.500000  0.666224  0.682379  1
  Te  Te26  1  0.500000  0.833442  0.182265  1
  Te  Te27  1  0.500000  0.166529  0.817734  1
  Te  Te28  1  0.500000  0.819821  0.405308  1
  Te  Te29  1  0.500000  0.180692  0.595370  1
  Te  Te30  1  0.500000  0.319309  0.095130  1
  Te  Te31  1  0.500000  0.680695  0.904869  1
  Te  Te32  1  0.000000  0.606859  0.303878  1
  Te  Te33  1  0.000000  0.392908  0.696547  1
  Te  Te34  1  0.000000  0.106952  0.196487  1
  Te  Te35  1  0.000000  0.893049  0.803495  1
