# generated using pymatgen
data_Y5Ho3GePd24
_symmetry_space_group_name_H-M   'P 1'
_cell_length_a   8.35854806
_cell_length_b   8.35852106
_cell_length_c   8.35804401
_cell_angle_alpha   89.99590048
_cell_angle_beta   89.99573598
_cell_angle_gamma   89.98694845
_symmetry_Int_Tables_number   1
_chemical_formula_structural   Y5Ho3GePd24
_chemical_formula_sum   'Y5 Ho3 Ge1 Pd24'
_cell_volume   583.93556227
_cell_formula_units_Z   1
loop_
 _symmetry_equiv_pos_site_id
 _symmetry_equiv_pos_as_xyz
  1  'x, y, z'
loop_
 _atom_site_type_symbol
 _atom_site_label
 _atom_site_symmetry_multiplicity
 _atom_site_fract_x
 _atom_site_fract_y
 _atom_site_fract_z
 _atom_site_occupancy
  Y  Y0  1  0.746787  0.253217  0.746797  1
  Y  Y1  1  0.253202  0.253202  0.746779  1
  Y  Y2  1  0.253234  0.746757  0.253228  1
  Y  Y3  1  0.253219  0.746788  0.746798  1
  Y  Y4  1  0.746759  0.253235  0.253224  1
  Ho  Ho5  1  0.253323  0.253323  0.253337  1
  Ho  Ho6  1  0.746654  0.746655  0.746638  1
  Ho  Ho7  1  0.746660  0.746659  0.253368  1
  Ge  Ge8  1  0.000061  0.000062  0.999942  1
  Pd  Pd9  1  0.259803  0.499670  0.000363  1
  Pd  Pd10  1  0.740185  0.500669  0.000021  1
  Pd  Pd11  1  0.000321  0.259804  0.499658  1
  Pd  Pd12  1  0.499669  0.259803  0.000363  1
  Pd  Pd13  1  0.999303  0.740186  0.499994  1
  Pd  Pd14  1  0.500671  0.740186  0.000021  1
  Pd  Pd15  1  0.500004  0.999983  0.259813  1
  Pd  Pd16  1  0.259804  0.000322  0.499658  1
  Pd  Pd17  1  0.500338  0.999640  0.740195  1
  Pd  Pd18  1  0.740185  0.999304  0.499993  1
  Pd  Pd19  1  0.999982  0.500003  0.259812  1
  Pd  Pd20  1  0.999640  0.500338  0.740194  1
  Pd  Pd21  1  0.253304  0.499649  0.499612  1
  Pd  Pd22  1  0.746689  0.500759  0.499979  1
  Pd  Pd23  1  0.499649  0.253304  0.499611  1
  Pd  Pd24  1  0.500757  0.746688  0.499979  1
  Pd  Pd25  1  0.500017  0.500016  0.253315  1
  Pd  Pd26  1  0.500384  0.500385  0.746695  1
  Pd  Pd27  1  0.289242  0.000305  0.000324  1
  Pd  Pd28  1  0.710818  0.999363  0.000012  1
  Pd  Pd29  1  0.000304  0.289242  0.000326  1
  Pd  Pd30  1  0.999364  0.710817  0.000012  1
  Pd  Pd31  1  0.999991  0.999989  0.289183  1
  Pd  Pd32  1  0.999677  0.999677  0.710756  1
