# generated using pymatgen
data_Hf2Co12Si2P5
_symmetry_space_group_name_H-M   'P 1'
_cell_length_a   8.94277545
_cell_length_b   8.93433526
_cell_length_c   3.53411600
_cell_angle_alpha   90.00000000
_cell_angle_beta   90.00000000
_cell_angle_gamma   120.30160002
_symmetry_Int_Tables_number   1
_chemical_formula_structural   Hf2Co12Si2P5
_chemical_formula_sum   'Hf2 Co12 Si2 P5'
_cell_volume   243.79123659
_cell_formula_units_Z   1
loop_
 _symmetry_equiv_pos_site_id
 _symmetry_equiv_pos_as_xyz
  1  'x, y, z'
loop_
 _atom_site_type_symbol
 _atom_site_label
 _atom_site_symmetry_multiplicity
 _atom_site_fract_x
 _atom_site_fract_y
 _atom_site_fract_z
 _atom_site_occupancy
  Hf  Hf0  1  0.334442  0.666145  0.000000  1
  Hf  Hf1  1  0.667412  0.332973  0.500000  1
  Co  Co2  1  0.438403  0.057062  0.000000  1
  Co  Co3  1  0.934166  0.374616  0.000000  1
  Co  Co4  1  0.629643  0.566012  0.000000  1
  Co  Co5  1  0.385194  0.443925  0.500000  1
  Co  Co6  1  0.560348  0.944602  0.500000  1
  Co  Co7  1  0.053525  0.613078  0.500000  1
  Co  Co8  1  0.156204  0.285575  0.000000  1
  Co  Co9  1  0.716743  0.878679  0.000000  1
  Co  Co10  1  0.123227  0.836890  0.000000  1
  Co  Co11  1  0.230424  0.098298  0.500000  1
  Co  Co12  1  0.897808  0.133022  0.500000  1
  Co  Co13  1  0.871161  0.771007  0.500000  1
  Si  Si14  1  0.002124  0.000786  0.000000  1
  Si  Si15  1  0.406898  0.289251  0.000000  1
  P  P16  1  0.117235  0.407646  0.500000  1
  P  P17  1  0.595107  0.710807  0.500000  1
  P  P18  1  0.289983  0.882359  0.500000  1
  P  P19  1  0.707599  0.117236  0.000000  1
  P  P20  1  0.882352  0.590032  0.000000  1
