# generated using pymatgen
data_Y2Ga5Rh3
_symmetry_space_group_name_H-M   'P 1'
_cell_length_a   8.60241076
_cell_length_b   8.60241017
_cell_length_c   5.68767262
_cell_angle_alpha   70.68408053
_cell_angle_beta   70.68408411
_cell_angle_gamma   96.56559984
_symmetry_Int_Tables_number   1
_chemical_formula_structural   Y2Ga5Rh3
_chemical_formula_sum   'Y4 Ga10 Rh6'
_cell_volume   362.82102954
_cell_formula_units_Z   2
loop_
 _symmetry_equiv_pos_site_id
 _symmetry_equiv_pos_as_xyz
  1  'x, y, z'
loop_
 _atom_site_type_symbol
 _atom_site_label
 _atom_site_symmetry_multiplicity
 _atom_site_fract_x
 _atom_site_fract_y
 _atom_site_fract_z
 _atom_site_occupancy
  Y  Y0  1  0.867339  0.586333  0.773866  1
  Y  Y1  1  0.413667  0.132661  0.726134  1
  Y  Y2  1  0.132661  0.413667  0.226134  1
  Y  Y3  1  0.586333  0.867339  0.273866  1
  Ga  Ga4  1  0.090596  0.264708  0.821751  1
  Ga  Ga5  1  0.735292  0.909404  0.678249  1
  Ga  Ga6  1  0.909404  0.735292  0.178249  1
  Ga  Ga7  1  0.264708  0.090596  0.321751  1
  Ga  Ga8  1  0.202802  0.797198  0.750000  1
  Ga  Ga9  1  0.797198  0.202802  0.250000  1
  Ga  Ga10  1  0.500423  0.499577  0.750000  1
  Ga  Ga11  1  0.499577  0.500423  0.250000  1
  Ga  Ga12  1  0.796713  0.203287  0.750000  1
  Ga  Ga13  1  0.203287  0.796713  0.250000  1
  Rh  Rh14  1  0.262086  0.561852  0.589146  1
  Rh  Rh15  1  0.438148  0.737914  0.910854  1
  Rh  Rh16  1  0.737914  0.438148  0.410854  1
  Rh  Rh17  1  0.561852  0.262086  0.089146  1
  Rh  Rh18  1  0.999798  0.000202  0.750000  1
  Rh  Rh19  1  0.000202  0.999798  0.250000  1
