# generated using pymatgen
data_Lu2Co9Mo3P7
_symmetry_space_group_name_H-M   'P 1'
_cell_length_a   9.03404301
_cell_length_b   9.03378687
_cell_length_c   3.69597000
_cell_angle_alpha   90.00000000
_cell_angle_beta   90.00000000
_cell_angle_gamma   119.99890813
_symmetry_Int_Tables_number   1
_chemical_formula_structural   Lu2Co9Mo3P7
_chemical_formula_sum   'Lu2 Co9 Mo3 P7'
_cell_volume   261.22566355
_cell_formula_units_Z   1
loop_
 _symmetry_equiv_pos_site_id
 _symmetry_equiv_pos_as_xyz
  1  'x, y, z'
loop_
 _atom_site_type_symbol
 _atom_site_label
 _atom_site_symmetry_multiplicity
 _atom_site_fract_x
 _atom_site_fract_y
 _atom_site_fract_z
 _atom_site_occupancy
  Lu  Lu0  1  0.666657  0.333321  0.000000  1
  Lu  Lu1  1  0.000019  0.999994  0.500000  1
  Co  Co2  1  0.767374  0.729598  0.000000  1
  Co  Co3  1  0.270401  0.037768  0.000000  1
  Co  Co4  1  0.962246  0.232661  0.000000  1
  Co  Co5  1  0.494493  0.949775  0.000000  1
  Co  Co6  1  0.050187  0.544705  0.000000  1
  Co  Co7  1  0.455314  0.505509  0.000000  1
  Co  Co8  1  0.720414  0.106389  0.500000  1
  Co  Co9  1  0.893592  0.613994  0.500000  1
  Co  Co10  1  0.385947  0.279590  0.500000  1
  Mo  Mo11  1  0.555115  0.764002  0.500000  1
  Mo  Mo12  1  0.236001  0.791099  0.500000  1
  Mo  Mo13  1  0.208945  0.444958  0.500000  1
  P  P14  1  0.455467  0.078828  0.500000  1
  P  P15  1  0.921060  0.376607  0.500000  1
  P  P16  1  0.623365  0.544488  0.500000  1
  P  P17  1  0.748875  0.968730  0.000000  1
  P  P18  1  0.031267  0.780114  0.000000  1
  P  P19  1  0.219888  0.251178  0.000000  1
  P  P20  1  0.333370  0.666694  0.000000  1
