# generated using pymatgen
data_TcS27
_symmetry_space_group_name_H-M   'P 1'
_cell_length_a   15.08667254
_cell_length_b   15.07480709
_cell_length_c   15.08760226
_cell_angle_alpha   118.63286022
_cell_angle_beta   118.73875101
_cell_angle_gamma   118.66395574
_symmetry_Int_Tables_number   1
_chemical_formula_structural   TcS27
_chemical_formula_sum   'Tc1 S27'
_cell_volume   1018.27879543
_cell_formula_units_Z   1
loop_
 _symmetry_equiv_pos_site_id
 _symmetry_equiv_pos_as_xyz
  1  'x, y, z'
loop_
 _atom_site_type_symbol
 _atom_site_label
 _atom_site_symmetry_multiplicity
 _atom_site_fract_x
 _atom_site_fract_y
 _atom_site_fract_z
 _atom_site_occupancy
  Tc  Tc0  1  0.862189  0.862165  0.862047  1
  S  S1  1  0.801880  0.519807  0.519552  1
  S  S2  1  0.520479  0.520552  0.802659  1
  S  S3  1  0.520328  0.802217  0.520141  1
  S  S4  1  0.247854  0.377775  0.637080  1
  S  S5  1  0.349487  0.949010  0.349510  1
  S  S6  1  0.348966  0.348835  0.948125  1
  S  S7  1  0.949467  0.349870  0.350039  1
  S  S8  1  0.127067  0.739850  0.256539  1
  S  S9  1  0.256887  0.127264  0.739744  1
  S  S10  1  0.740062  0.256842  0.127568  1
  S  S11  1  0.740087  0.127226  0.256811  1
  S  S12  1  0.256881  0.740090  0.127610  1
  S  S13  1  0.127159  0.256743  0.739640  1
  S  S14  1  0.345122  0.877430  0.527996  1
  S  S15  1  0.528864  0.345598  0.877916  1
  S  S16  1  0.876609  0.527526  0.344418  1
  S  S17  1  0.877129  0.344664  0.527682  1
  S  S18  1  0.528077  0.877108  0.345041  1
  S  S19  1  0.345640  0.528838  0.877948  1
  S  S20  1  0.247674  0.636640  0.377203  1
  S  S21  1  0.377518  0.247830  0.636912  1
  S  S22  1  0.635393  0.376188  0.246449  1
  S  S23  1  0.636118  0.247079  0.376540  1
  S  S24  1  0.376698  0.635877  0.247102  1
  S  S25  1  0.875123  0.010350  0.010751  1
  S  S26  1  0.014208  0.014688  0.878948  1
  S  S27  1  0.012329  0.877230  0.013324  1
