# generated using pymatgen
data_Li4Pr8Si11Ge
_symmetry_space_group_name_H-M   'P 1'
_cell_length_a   11.10496755
_cell_length_b   9.38771948
_cell_length_c   8.36445806
_cell_angle_alpha   77.20910707
_cell_angle_beta   55.54620047
_cell_angle_gamma   47.34578695
_symmetry_Int_Tables_number   1
_chemical_formula_structural   Li4Pr8Si11Ge
_chemical_formula_sum   'Li4 Pr8 Si11 Ge1'
_cell_volume   509.61612229
_cell_formula_units_Z   1
loop_
 _symmetry_equiv_pos_site_id
 _symmetry_equiv_pos_as_xyz
  1  'x, y, z'
loop_
 _atom_site_type_symbol
 _atom_site_label
 _atom_site_symmetry_multiplicity
 _atom_site_fract_x
 _atom_site_fract_y
 _atom_site_fract_z
 _atom_site_occupancy
  Li  Li0  1  0.084232  0.415885  0.080113  1
  Li  Li1  1  0.832963  0.167454  0.832415  1
  Li  Li2  1  0.167001  0.832837  0.167391  1
  Li  Li3  1  0.417331  0.082487  0.416904  1
  Pr  Pr4  1  0.123946  0.123656  0.876222  1
  Pr  Pr5  1  0.876010  0.877067  0.123168  1
  Pr  Pr6  1  0.126751  0.124443  0.374218  1
  Pr  Pr7  1  0.375532  0.373286  0.124806  1
  Pr  Pr8  1  0.621913  0.623288  0.377087  1
  Pr  Pr9  1  0.376812  0.377156  0.622922  1
  Pr  Pr10  1  0.626494  0.627286  0.873870  1
  Pr  Pr11  1  0.872805  0.873735  0.627789  1
  Si  Si12  1  0.080340  0.412588  0.590647  1
  Si  Si13  1  0.415186  0.078166  0.919764  1
  Si  Si14  1  0.588158  0.918523  0.077565  1
  Si  Si15  1  0.331194  0.661957  0.834696  1
  Si  Si16  1  0.661713  0.331737  0.172650  1
  Si  Si17  1  0.834446  0.172167  0.331310  1
  Si  Si18  1  0.172022  0.834529  0.662219  1
  Si  Si19  1  0.915318  0.584286  0.917143  1
  Si  Si20  1  0.578757  0.921498  0.586311  1
  Si  Si21  1  0.333889  0.666263  0.333765  1
  Si  Si22  1  0.666075  0.333840  0.666261  1
  Ge  Ge23  1  0.921115  0.585871  0.410758  1
