# generated using pymatgen
data_Er6SbAuO14
_symmetry_space_group_name_H-M   'P 1'
_cell_length_a   6.43855788
_cell_length_b   6.43855709
_cell_length_c   7.42406125
_cell_angle_alpha   89.86033598
_cell_angle_beta   90.13966371
_cell_angle_gamma   109.13638346
_symmetry_Int_Tables_number   1
_chemical_formula_structural   Er6SbAuO14
_chemical_formula_sum   'Er6 Sb1 Au1 O14'
_cell_volume   290.75653948
_cell_formula_units_Z   1
loop_
 _symmetry_equiv_pos_site_id
 _symmetry_equiv_pos_as_xyz
  1  'x, y, z'
loop_
 _atom_site_type_symbol
 _atom_site_label
 _atom_site_symmetry_multiplicity
 _atom_site_fract_x
 _atom_site_fract_y
 _atom_site_fract_z
 _atom_site_occupancy
  Er  Er0  1  0.999029  0.469873  0.748218  1
  Er  Er1  1  0.998676  0.531575  0.248802  1
  Er  Er2  1  0.531575  0.998676  0.751198  1
  Er  Er3  1  0.469873  0.999029  0.251782  1
  Er  Er4  1  0.500484  0.500484  0.500000  1
  Er  Er5  1  0.486203  0.486203  0.000000  1
  Sb  Sb6  1  0.000379  0.000379  0.000000  1
  Au  Au7  1  0.000371  0.000371  0.500000  1
  O  O8  1  0.637008  0.361705  0.752745  1
  O  O9  1  0.361705  0.637008  0.247255  1
  O  O10  1  0.923197  0.078075  0.747822  1
  O  O11  1  0.078075  0.923197  0.252178  1
  O  O12  1  0.914903  0.665628  0.523470  1
  O  O13  1  0.076395  0.324147  0.028350  1
  O  O14  1  0.324147  0.076395  0.971650  1
  O  O15  1  0.665628  0.914903  0.476530  1
  O  O16  1  0.367566  0.631035  0.753056  1
  O  O17  1  0.631035  0.367566  0.246944  1
  O  O18  1  0.934372  0.680788  0.969189  1
  O  O19  1  0.084398  0.334193  0.474214  1
  O  O20  1  0.334193  0.084398  0.525786  1
  O  O21  1  0.680788  0.934372  0.030811  1
