# generated using pymatgen
data_TbDy7Sc12GaSi15
_symmetry_space_group_name_H-M   'P 1'
_cell_length_a   7.10912641
_cell_length_b   7.39506011
_cell_length_c   14.03351000
_cell_angle_alpha   89.93290365
_cell_angle_beta   89.95282793
_cell_angle_gamma   90.00598808
_symmetry_Int_Tables_number   1
_chemical_formula_structural   TbDy7Sc12GaSi15
_chemical_formula_sum   'Tb1 Dy7 Sc12 Ga1 Si15'
_cell_volume   737.77478163
_cell_formula_units_Z   1
loop_
 _symmetry_equiv_pos_site_id
 _symmetry_equiv_pos_as_xyz
  1  'x, y, z'
loop_
 _atom_site_type_symbol
 _atom_site_label
 _atom_site_symmetry_multiplicity
 _atom_site_fract_x
 _atom_site_fract_y
 _atom_site_fract_z
 _atom_site_occupancy
  Tb  Tb0  1  0.011923  0.175605  0.097365  1
  Dy  Dy1  1  0.987949  0.824739  0.903210  1
  Dy  Dy2  1  0.487659  0.676278  0.903031  1
  Dy  Dy3  1  0.987215  0.826523  0.597612  1
  Dy  Dy4  1  0.512279  0.323853  0.097247  1
  Dy  Dy5  1  0.011251  0.174145  0.401457  1
  Dy  Dy6  1  0.512947  0.323489  0.401361  1
  Dy  Dy7  1  0.489903  0.678033  0.597685  1
  Sc  Sc8  1  0.161309  0.502649  0.751603  1
  Sc  Sc9  1  0.838934  0.497684  0.249874  1
  Sc  Sc10  1  0.339077  0.002342  0.249636  1
  Sc  Sc11  1  0.661670  0.996573  0.750130  1
  Sc  Sc12  1  0.332432  0.173752  0.626101  1
  Sc  Sc13  1  0.668490  0.824154  0.374279  1
  Sc  Sc14  1  0.169968  0.677388  0.373404  1
  Sc  Sc15  1  0.669887  0.823932  0.125430  1
  Sc  Sc16  1  0.828206  0.323473  0.625600  1
  Sc  Sc17  1  0.329762  0.175562  0.874893  1
  Sc  Sc18  1  0.830371  0.323339  0.874917  1
  Sc  Sc19  1  0.169177  0.676596  0.125433  1
  Ga  Ga20  1  0.159737  0.462307  0.539076  1
  Si  Si21  1  0.033710  0.118224  0.750653  1
  Si  Si22  1  0.966651  0.882584  0.249689  1
  Si  Si23  1  0.467603  0.616990  0.249948  1
  Si  Si24  1  0.532348  0.384006  0.749757  1
  Si  Si25  1  0.284616  0.873512  0.750316  1
  Si  Si26  1  0.714243  0.126736  0.249602  1
  Si  Si27  1  0.214073  0.373019  0.249521  1
  Si  Si28  1  0.785771  0.626349  0.750697  1
  Si  Si29  1  0.841508  0.536247  0.460369  1
  Si  Si30  1  0.342172  0.964202  0.460218  1
  Si  Si31  1  0.842639  0.535525  0.038863  1
  Si  Si32  1  0.657234  0.035819  0.538901  1
  Si  Si33  1  0.157354  0.464286  0.961693  1
  Si  Si34  1  0.656928  0.035440  0.960816  1
  Si  Si35  1  0.343004  0.964645  0.039613  1
