# generated using pymatgen
data_Sr4Cr(BrN2)2
_symmetry_space_group_name_H-M   'P 1'
_cell_length_a   5.77010100
_cell_length_b   7.94760151
_cell_length_c   10.15283200
_cell_angle_alpha   81.67140017
_cell_angle_beta   90.00000000
_cell_angle_gamma   90.00000000
_symmetry_Int_Tables_number   1
_chemical_formula_structural   Sr4Cr(BrN2)2
_chemical_formula_sum   'Sr8 Cr2 Br4 N8'
_cell_volume   460.68294634
_cell_formula_units_Z   2
loop_
 _symmetry_equiv_pos_site_id
 _symmetry_equiv_pos_as_xyz
  1  'x, y, z'
loop_
 _atom_site_type_symbol
 _atom_site_label
 _atom_site_symmetry_multiplicity
 _atom_site_fract_x
 _atom_site_fract_y
 _atom_site_fract_z
 _atom_site_occupancy
  Sr  Sr0  1  0.750000  0.286037  0.288738  1
  Sr  Sr1  1  0.750000  0.005030  0.617901  1
  Sr  Sr2  1  0.750000  0.448510  0.610013  1
  Sr  Sr3  1  0.750000  0.810853  0.105871  1
  Sr  Sr4  1  0.250000  0.994970  0.382099  1
  Sr  Sr5  1  0.250000  0.551490  0.389987  1
  Sr  Sr6  1  0.250000  0.189147  0.894129  1
  Sr  Sr7  1  0.250000  0.713963  0.711262  1
  Cr  Cr8  1  0.750000  0.769317  0.405430  1
  Cr  Cr9  1  0.250000  0.230683  0.594570  1
  Br  Br10  1  0.250000  0.338487  0.153452  1
  Br  Br11  1  0.750000  0.661513  0.846548  1
  Br  Br12  1  0.250000  0.833862  0.084741  1
  Br  Br13  1  0.750000  0.166138  0.915259  1
  N  N14  1  0.250000  0.036718  0.699658  1
  N  N15  1  0.006946  0.246546  0.491459  1
  N  N16  1  0.506946  0.753454  0.508541  1
  N  N17  1  0.993054  0.753454  0.508541  1
  N  N18  1  0.750000  0.604040  0.308456  1
  N  N19  1  0.750000  0.963282  0.300342  1
  N  N20  1  0.493054  0.246546  0.491459  1
  N  N21  1  0.250000  0.395960  0.691544  1
