# generated using pymatgen
data_Y3Sc3Sn6PtRh5
_symmetry_space_group_name_H-M   'P 1'
_cell_length_a   7.60135100
_cell_length_b   7.60135082
_cell_length_c   7.32028200
_cell_angle_alpha   90.00000000
_cell_angle_beta   90.00000000
_cell_angle_gamma   120.00001382
_symmetry_Int_Tables_number   1
_chemical_formula_structural   Y3Sc3Sn6PtRh5
_chemical_formula_sum   'Y3 Sc3 Sn6 Pt1 Rh5'
_cell_volume   366.30255411
_cell_formula_units_Z   1
loop_
 _symmetry_equiv_pos_site_id
 _symmetry_equiv_pos_as_xyz
  1  'x, y, z'
loop_
 _atom_site_type_symbol
 _atom_site_label
 _atom_site_symmetry_multiplicity
 _atom_site_fract_x
 _atom_site_fract_y
 _atom_site_fract_z
 _atom_site_occupancy
  Y  Y0  1  0.403875  0.998883  0.751840  1
  Y  Y1  1  0.595009  0.596125  0.751840  1
  Y  Y2  1  0.001117  0.404991  0.751840  1
  Sc  Sc3  1  0.398428  0.998961  0.247873  1
  Sc  Sc4  1  0.600532  0.601572  0.247873  1
  Sc  Sc5  1  0.001039  0.399468  0.247873  1
  Sn  Sn6  1  0.269799  0.269875  0.009733  1
  Sn  Sn7  1  0.000075  0.730201  0.009733  1
  Sn  Sn8  1  0.005701  0.735500  0.490400  1
  Sn  Sn9  1  0.729799  0.994299  0.490400  1
  Sn  Sn10  1  0.264500  0.270201  0.490400  1
  Sn  Sn11  1  0.730125  0.999925  0.009733  1
  Pt  Pt12  1  0.666667  0.333333  0.477022  1
  Rh  Rh13  1  0.000000  0.000000  0.751568  1
  Rh  Rh14  1  0.000000  0.000000  0.248507  1
  Rh  Rh15  1  0.666667  0.333333  0.023739  1
  Rh  Rh16  1  0.333333  0.666667  0.471120  1
  Rh  Rh17  1  0.333333  0.666667  0.028507  1
