# generated using pymatgen
data_Ba2IN2
_symmetry_space_group_name_H-M   'P 1'
_cell_length_a   8.64750493
_cell_length_b   8.64750498
_cell_length_c   7.39887138
_cell_angle_alpha   98.97663487
_cell_angle_beta   98.97663450
_cell_angle_gamma   31.18080828
_symmetry_Int_Tables_number   1
_chemical_formula_structural   Ba2IN2
_chemical_formula_sum   'Ba4 I2 N4'
_cell_volume   282.67337196
_cell_formula_units_Z   2
loop_
 _symmetry_equiv_pos_site_id
 _symmetry_equiv_pos_as_xyz
  1  'x, y, z'
loop_
 _atom_site_type_symbol
 _atom_site_label
 _atom_site_symmetry_multiplicity
 _atom_site_fract_x
 _atom_site_fract_y
 _atom_site_fract_z
 _atom_site_occupancy
  Ba  Ba0  1  0.871159  0.443368  0.151774  1
  Ba  Ba1  1  0.556632  0.128841  0.348226  1
  Ba  Ba2  1  0.443368  0.871159  0.651774  1
  Ba  Ba3  1  0.128841  0.556632  0.848227  1
  I  I4  1  0.219365  0.780634  0.250000  1
  I  I5  1  0.780634  0.219365  0.750000  1
  N  N6  1  0.371888  0.088960  0.024818  1
  N  N7  1  0.911040  0.628113  0.475183  1
  N  N8  1  0.088960  0.371888  0.524818  1
  N  N9  1  0.628112  0.911040  0.975182  1
