# generated using pymatgen
data_NaDy4Si12Ir19
_symmetry_space_group_name_H-M   'P 1'
_cell_length_a   12.82610375
_cell_length_b   12.79870194
_cell_length_c   3.99358600
_cell_angle_alpha   90.00000000
_cell_angle_beta   90.00000000
_cell_angle_gamma   119.92935259
_symmetry_Int_Tables_number   1
_chemical_formula_structural   NaDy4Si12Ir19
_chemical_formula_sum   'Na1 Dy4 Si12 Ir19'
_cell_volume   568.15008599
_cell_formula_units_Z   1
loop_
 _symmetry_equiv_pos_site_id
 _symmetry_equiv_pos_as_xyz
  1  'x, y, z'
loop_
 _atom_site_type_symbol
 _atom_site_label
 _atom_site_symmetry_multiplicity
 _atom_site_fract_x
 _atom_site_fract_y
 _atom_site_fract_z
 _atom_site_occupancy
  Na  Na0  1  0.000000  0.814883  0.000000  1
  Dy  Dy1  1  0.334128  0.667047  0.500000  1
  Dy  Dy2  1  0.665872  0.332917  0.500000  1
  Dy  Dy3  1  0.182789  0.182297  0.000000  1
  Dy  Dy4  1  0.817211  0.999508  0.000000  1
  Si  Si5  1  0.000000  0.632906  0.500000  1
  Si  Si6  1  0.367968  0.368198  0.500000  1
  Si  Si7  1  0.632032  0.000230  0.500000  1
  Si  Si8  1  0.520545  0.687626  0.000000  1
  Si  Si9  1  0.310507  0.831691  0.000000  1
  Si  Si10  1  0.168167  0.480369  0.000000  1
  Si  Si11  1  0.479455  0.167081  0.000000  1
  Si  Si12  1  0.689493  0.521184  0.000000  1
  Si  Si13  1  0.831833  0.312202  0.000000  1
  Si  Si14  1  0.000000  0.181391  0.500000  1
  Si  Si15  1  0.818947  0.816980  0.500000  1
  Si  Si16  1  0.181053  0.998032  0.500000  1
  Ir  Ir17  1  0.510751  0.873017  0.000000  1
  Ir  Ir18  1  0.126108  0.637845  0.000000  1
  Ir  Ir19  1  0.360775  0.487944  0.000000  1
  Ir  Ir20  1  0.489249  0.362265  0.000000  1
  Ir  Ir21  1  0.873892  0.511736  0.000000  1
  Ir  Ir22  1  0.639225  0.127169  0.000000  1
  Ir  Ir23  1  0.000000  0.447196  0.500000  1
  Ir  Ir24  1  0.549970  0.553980  0.500000  1
  Ir  Ir25  1  0.450030  0.004010  0.500000  1
  Ir  Ir26  1  0.000000  0.282947  0.000000  1
  Ir  Ir27  1  0.717473  0.718785  0.000000  1
  Ir  Ir28  1  0.282527  0.001312  0.000000  1
  Ir  Ir29  1  0.623026  0.806696  0.500000  1
  Ir  Ir30  1  0.195493  0.815354  0.500000  1
  Ir  Ir31  1  0.182401  0.376116  0.500000  1
  Ir  Ir32  1  0.376974  0.183671  0.500000  1
  Ir  Ir33  1  0.804507  0.619862  0.500000  1
  Ir  Ir34  1  0.817599  0.193716  0.500000  1
  Ir  Ir35  1  0.000000  0.001836  0.500000  1
