# generated using pymatgen
data_LaHo2Th3Si4
_symmetry_space_group_name_H-M   'P 1'
_cell_length_a   7.66850176
_cell_length_b   7.66850126
_cell_length_c   4.30987400
_cell_angle_alpha   90.00000000
_cell_angle_beta   90.00000000
_cell_angle_gamma   90.57296989
_symmetry_Int_Tables_number   1
_chemical_formula_structural   LaHo2Th3Si4
_chemical_formula_sum   'La1 Ho2 Th3 Si4'
_cell_volume   253.43341306
_cell_formula_units_Z   1
loop_
 _symmetry_equiv_pos_site_id
 _symmetry_equiv_pos_as_xyz
  1  'x, y, z'
loop_
 _atom_site_type_symbol
 _atom_site_label
 _atom_site_symmetry_multiplicity
 _atom_site_fract_x
 _atom_site_fract_y
 _atom_site_fract_z
 _atom_site_occupancy
  La  La0  1  0.822397  0.677603  0.500000  1
  Ho  Ho1  1  0.999321  0.001434  0.000000  1
  Ho  Ho2  1  0.498566  0.500679  0.000000  1
  Th  Th3  1  0.677301  0.178867  0.500000  1
  Th  Th4  1  0.321133  0.822699  0.500000  1
  Th  Th5  1  0.179017  0.320983  0.500000  1
  Si  Si6  1  0.121565  0.613843  0.000000  1
  Si  Si7  1  0.886157  0.378435  0.000000  1
  Si  Si8  1  0.612298  0.887702  0.000000  1
  Si  Si9  1  0.382245  0.117755  0.000000  1
