# generated using pymatgen
data_Ti2Mo3As4
_symmetry_space_group_name_H-M   'P 1'
_cell_length_a   7.05243640
_cell_length_b   7.05243740
_cell_length_c   7.04805973
_cell_angle_alpha   93.18816442
_cell_angle_beta   93.44122623
_cell_angle_gamma   152.18178930
_symmetry_Int_Tables_number   1
_chemical_formula_structural   Ti2Mo3As4
_chemical_formula_sum   'Ti2 Mo3 As4'
_cell_volume   158.78636176
_cell_formula_units_Z   1
loop_
 _symmetry_equiv_pos_site_id
 _symmetry_equiv_pos_as_xyz
  1  'x, y, z'
loop_
 _atom_site_type_symbol
 _atom_site_label
 _atom_site_symmetry_multiplicity
 _atom_site_fract_x
 _atom_site_fract_y
 _atom_site_fract_z
 _atom_site_occupancy
  Ti  Ti0  1  0.370096  0.304598  0.674697  1
  Ti  Ti1  1  0.301714  0.626346  0.928060  1
  Mo  Mo2  1  0.692368  0.381080  0.073447  1
  Mo  Mo3  1  0.621789  0.688777  0.310565  1
  Mo  Mo4  1  0.001127  0.997653  0.998780  1
  As  As5  1  0.290219  0.057492  0.347711  1
  As  As6  1  0.057044  0.722725  0.779768  1
  As  As7  1  0.943274  0.277840  0.221113  1
  As  As8  1  0.722369  0.943490  0.665859  1
