# generated using pymatgen
data_TlCd4In(SbO6)2
_symmetry_space_group_name_H-M   'P 1'
_cell_length_a   6.55387596
_cell_length_b   6.57123559
_cell_length_c   6.59153676
_cell_angle_alpha   90.65961593
_cell_angle_beta   90.07523687
_cell_angle_gamma   90.27970388
_symmetry_Int_Tables_number   1
_chemical_formula_structural   TlCd4In(SbO6)2
_chemical_formula_sum   'Tl1 Cd4 In1 Sb2 O12'
_cell_volume   283.85566790
_cell_formula_units_Z   1
loop_
 _symmetry_equiv_pos_site_id
 _symmetry_equiv_pos_as_xyz
  1  'x, y, z'
loop_
 _atom_site_type_symbol
 _atom_site_label
 _atom_site_symmetry_multiplicity
 _atom_site_fract_x
 _atom_site_fract_y
 _atom_site_fract_z
 _atom_site_occupancy
  Tl  Tl0  1  0.057817  0.746625  0.564675  1
  Cd  Cd1  1  0.560768  0.051025  0.749477  1
  Cd  Cd2  1  0.945330  0.250057  0.437202  1
  Cd  Cd3  1  0.252907  0.430997  0.951998  1
  Cd  Cd4  1  0.437814  0.960851  0.252433  1
  In  In5  1  0.746312  0.565298  0.052971  1
  Sb  Sb6  1  0.504733  0.503500  0.500628  1
  Sb  Sb7  1  0.996142  0.999110  0.002340  1
  O  O8  1  0.033428  0.696884  0.925134  1
  O  O9  1  0.705273  0.903519  0.042762  1
  O  O10  1  0.922715  0.031634  0.706082  1
  O  O11  1  0.936930  0.292624  0.078279  1
  O  O12  1  0.286850  0.081626  0.957226  1
  O  O13  1  0.080431  0.957355  0.292961  1
  O  O14  1  0.797278  0.576854  0.411439  1
  O  O15  1  0.577747  0.445615  0.793793  1
  O  O16  1  0.419529  0.793695  0.560511  1
  O  O17  1  0.209173  0.436667  0.571570  1
  O  O18  1  0.449506  0.562688  0.204245  1
  O  O19  1  0.579315  0.213379  0.444272  1
