# generated using pymatgen
data_CaHg(PdAu)2
_symmetry_space_group_name_H-M   'P 1'
_cell_length_a   5.63988404
_cell_length_b   5.56712787
_cell_length_c   5.56712700
_cell_angle_alpha   59.61368150
_cell_angle_beta   59.56672919
_cell_angle_gamma   59.56673534
_symmetry_Int_Tables_number   1
_chemical_formula_structural   CaHg(PdAu)2
_chemical_formula_sum   'Ca1 Hg1 Pd2 Au2'
_cell_volume   122.42633753
_cell_formula_units_Z   1
loop_
 _symmetry_equiv_pos_site_id
 _symmetry_equiv_pos_as_xyz
  1  'x, y, z'
loop_
 _atom_site_type_symbol
 _atom_site_label
 _atom_site_symmetry_multiplicity
 _atom_site_fract_x
 _atom_site_fract_y
 _atom_site_fract_z
 _atom_site_occupancy
  Ca  Ca0  1  0.247715  0.252285  0.252285  1
  Hg  Hg1  1  0.001327  0.998673  0.998673  1
  Pd  Pd2  1  0.123958  0.624990  0.624990  1
  Pd  Pd3  1  0.626063  0.624990  0.624990  1
  Au  Au4  1  0.625469  0.624495  0.124567  1
  Au  Au5  1  0.625469  0.124567  0.624495  1
