# generated using pymatgen
data_Tb2Pr3(Co2Sn5)2
_symmetry_space_group_name_H-M   'P 1'
_cell_length_a   13.94252900
_cell_length_b   13.94252900
_cell_length_c   4.52890700
_cell_angle_alpha   90.00000000
_cell_angle_beta   90.00000000
_cell_angle_gamma   90.00000000
_symmetry_Int_Tables_number   1
_chemical_formula_structural   Tb2Pr3(Co2Sn5)2
_chemical_formula_sum   'Tb4 Pr6 Co8 Sn20'
_cell_volume   880.39286780
_cell_formula_units_Z   2
loop_
 _symmetry_equiv_pos_site_id
 _symmetry_equiv_pos_as_xyz
  1  'x, y, z'
loop_
 _atom_site_type_symbol
 _atom_site_label
 _atom_site_symmetry_multiplicity
 _atom_site_fract_x
 _atom_site_fract_y
 _atom_site_fract_z
 _atom_site_occupancy
  Tb  Tb0  1  0.678450  0.178450  0.500000  1
  Tb  Tb1  1  0.321550  0.821550  0.500000  1
  Tb  Tb2  1  0.178450  0.321550  0.500000  1
  Tb  Tb3  1  0.821550  0.678450  0.500000  1
  Pr  Pr4  1  0.500000  0.500000  0.000000  1
  Pr  Pr5  1  0.000000  0.000000  0.000000  1
  Pr  Pr6  1  0.889417  0.389417  0.500000  1
  Pr  Pr7  1  0.110583  0.610583  0.500000  1
  Pr  Pr8  1  0.389417  0.110583  0.500000  1
  Pr  Pr9  1  0.610583  0.889417  0.500000  1
  Co  Co10  1  0.745633  0.532323  0.000000  1
  Co  Co11  1  0.254367  0.467677  0.000000  1
  Co  Co12  1  0.245633  0.967677  0.000000  1
  Co  Co13  1  0.754367  0.032323  0.000000  1
  Co  Co14  1  0.467677  0.745633  0.000000  1
  Co  Co15  1  0.532323  0.254367  0.000000  1
  Co  Co16  1  0.032323  0.245633  0.000000  1
  Co  Co17  1  0.967677  0.754367  0.000000  1
  Sn  Sn18  1  0.572468  0.072468  0.000000  1
  Sn  Sn19  1  0.427532  0.927532  0.000000  1
  Sn  Sn20  1  0.072468  0.427532  0.000000  1
  Sn  Sn21  1  0.927532  0.572468  0.000000  1
  Sn  Sn22  1  0.650591  0.697681  0.000000  1
  Sn  Sn23  1  0.349409  0.302319  0.000000  1
  Sn  Sn24  1  0.150591  0.802319  0.000000  1
  Sn  Sn25  1  0.849409  0.197681  0.000000  1
  Sn  Sn26  1  0.302319  0.650591  0.000000  1
  Sn  Sn27  1  0.697681  0.349409  0.000000  1
  Sn  Sn28  1  0.197681  0.150591  0.000000  1
  Sn  Sn29  1  0.802319  0.849409  0.000000  1
  Sn  Sn30  1  0.670048  0.508686  0.500000  1
  Sn  Sn31  1  0.329952  0.491314  0.500000  1
  Sn  Sn32  1  0.170048  0.991314  0.500000  1
  Sn  Sn33  1  0.829952  0.008686  0.500000  1
  Sn  Sn34  1  0.491314  0.670048  0.500000  1
  Sn  Sn35  1  0.508686  0.329952  0.500000  1
  Sn  Sn36  1  0.008686  0.170048  0.500000  1
  Sn  Sn37  1  0.991314  0.829952  0.500000  1
