# generated using pymatgen
data_Er5Lu5(SiBi)4
_symmetry_space_group_name_H-M   'P 1'
_cell_length_a   8.53037197
_cell_length_b   8.55933016
_cell_length_c   7.80877785
_cell_angle_alpha   90.06210547
_cell_angle_beta   90.05428884
_cell_angle_gamma   125.75010785
_symmetry_Int_Tables_number   1
_chemical_formula_structural   Er5Lu5(SiBi)4
_chemical_formula_sum   'Er5 Lu5 Si4 Bi4'
_cell_volume   462.71892658
_cell_formula_units_Z   1
loop_
 _symmetry_equiv_pos_site_id
 _symmetry_equiv_pos_as_xyz
  1  'x, y, z'
loop_
 _atom_site_type_symbol
 _atom_site_label
 _atom_site_symmetry_multiplicity
 _atom_site_fract_x
 _atom_site_fract_y
 _atom_site_fract_z
 _atom_site_occupancy
  Er  Er0  1  0.785838  0.542780  0.163956  1
  Er  Er1  1  0.542274  0.784705  0.163608  1
  Er  Er2  1  0.214225  0.457120  0.835822  1
  Er  Er3  1  0.714314  0.956940  0.664037  1
  Er  Er4  1  0.285666  0.042592  0.336173  1
  Lu  Lu5  1  0.042915  0.282623  0.337066  1
  Lu  Lu6  1  0.957108  0.716938  0.662939  1
  Lu  Lu7  1  0.456995  0.216749  0.837014  1
  Lu  Lu8  1  0.000558  0.000355  0.999809  1
  Lu  Lu9  1  0.499981  0.499622  0.500451  1
  Si  Si10  1  0.362667  0.363405  0.134879  1
  Si  Si11  1  0.637029  0.635297  0.864377  1
  Si  Si12  1  0.136755  0.135431  0.634571  1
  Si  Si13  1  0.864487  0.864488  0.366025  1
  Bi  Bi14  1  0.792300  0.207103  0.001480  1
  Bi  Bi15  1  0.208090  0.794876  0.996687  1
  Bi  Bi16  1  0.709240  0.294413  0.502428  1
  Bi  Bi17  1  0.289559  0.704563  0.498677  1
