# generated using pymatgen
data_Tb5Lu11(AlPt)4
_symmetry_space_group_name_H-M   'P 1'
_cell_length_a   9.45366904
_cell_length_b   9.46230203
_cell_length_c   9.46230313
_cell_angle_alpha   60.06490445
_cell_angle_beta   60.03017600
_cell_angle_gamma   60.03017285
_symmetry_Int_Tables_number   1
_chemical_formula_structural   Tb5Lu11(AlPt)4
_chemical_formula_sum   'Tb5 Lu11 Al4 Pt4'
_cell_volume   599.08680563
_cell_formula_units_Z   1
loop_
 _symmetry_equiv_pos_site_id
 _symmetry_equiv_pos_as_xyz
  1  'x, y, z'
loop_
 _atom_site_type_symbol
 _atom_site_label
 _atom_site_symmetry_multiplicity
 _atom_site_fract_x
 _atom_site_fract_y
 _atom_site_fract_z
 _atom_site_occupancy
  Tb  Tb0  1  0.562157  0.937843  0.937843  1
  Tb  Tb1  1  0.565301  0.934882  0.563348  1
  Tb  Tb2  1  0.936470  0.563348  0.934882  1
  Tb  Tb3  1  0.565301  0.563348  0.934882  1
  Tb  Tb4  1  0.936470  0.934882  0.563348  1
  Lu  Lu5  1  0.354526  0.353060  0.353060  1
  Lu  Lu6  1  0.354117  0.354166  0.937600  1
  Lu  Lu7  1  0.354117  0.937600  0.354166  1
  Lu  Lu8  1  0.939353  0.353060  0.353060  1
  Lu  Lu9  1  0.808527  0.191473  0.191473  1
  Lu  Lu10  1  0.192018  0.807982  0.807982  1
  Lu  Lu11  1  0.190162  0.808206  0.193982  1
  Lu  Lu12  1  0.807650  0.193982  0.808206  1
  Lu  Lu13  1  0.190162  0.193982  0.808206  1
  Lu  Lu14  1  0.807650  0.808206  0.193982  1
  Lu  Lu15  1  0.939251  0.560749  0.560749  1
  Al  Al16  1  0.578177  0.577840  0.577840  1
  Al  Al17  1  0.576033  0.577272  0.270661  1
  Al  Al18  1  0.576033  0.270661  0.577272  1
  Al  Al19  1  0.266141  0.577840  0.577840  1
  Pt  Pt20  1  0.143757  0.142719  0.142719  1
  Pt  Pt21  1  0.142911  0.143363  0.570817  1
  Pt  Pt22  1  0.142911  0.570817  0.143363  1
  Pt  Pt23  1  0.570805  0.142719  0.142719  1
