# generated using pymatgen
data_Y3LuRu4F28
_symmetry_space_group_name_H-M   'P 1'
_cell_length_a   5.55703289
_cell_length_b   8.88932195
_cell_length_c   11.91053714
_cell_angle_alpha   63.78091826
_cell_angle_beta   89.93311702
_cell_angle_gamma   89.86421961
_symmetry_Int_Tables_number   1
_chemical_formula_structural   Y3LuRu4F28
_chemical_formula_sum   'Y3 Lu1 Ru4 F28'
_cell_volume   527.82267726
_cell_formula_units_Z   1
loop_
 _symmetry_equiv_pos_site_id
 _symmetry_equiv_pos_as_xyz
  1  'x, y, z'
loop_
 _atom_site_type_symbol
 _atom_site_label
 _atom_site_symmetry_multiplicity
 _atom_site_fract_x
 _atom_site_fract_y
 _atom_site_fract_z
 _atom_site_occupancy
  Y  Y0  1  0.742064  0.190626  0.729210  1
  Y  Y1  1  0.757313  0.186025  0.229861  1
  Y  Y2  1  0.241746  0.808173  0.771389  1
  Lu  Lu3  1  0.257993  0.806540  0.272473  1
  Ru  Ru4  1  0.755016  0.727924  0.049171  1
  Ru  Ru5  1  0.247161  0.271984  0.954730  1
  Ru  Ru6  1  0.254039  0.274780  0.452931  1
  Ru  Ru7  1  0.746138  0.727318  0.543286  1
  F  F8  1  0.956507  0.703685  0.419033  1
  F  F9  1  0.048699  0.297237  0.578930  1
  F  F10  1  0.452316  0.296446  0.080070  1
  F  F11  1  0.545756  0.704378  0.924672  1
  F  F12  1  0.471722  0.733539  0.147960  1
  F  F13  1  0.533803  0.270461  0.858206  1
  F  F14  1  0.969748  0.267730  0.356972  1
  F  F15  1  0.030082  0.731163  0.640437  1
  F  F16  1  0.964795  0.753060  0.174435  1
  F  F17  1  0.046320  0.250543  0.825999  1
  F  F18  1  0.455915  0.251481  0.325221  1
  F  F19  1  0.542482  0.750150  0.671168  1
  F  F20  1  0.765731  0.489588  0.144026  1
  F  F21  1  0.234863  0.511355  0.859458  1
  F  F22  1  0.262872  0.514000  0.357255  1
  F  F23  1  0.733887  0.489341  0.639728  1
  F  F24  1  0.954903  0.283441  0.045595  1
  F  F25  1  0.042887  0.715491  0.956213  1
  F  F26  1  0.453975  0.716434  0.450707  1
  F  F27  1  0.545455  0.286024  0.544076  1
  F  F28  1  0.746302  0.964726  0.451316  1
  F  F29  1  0.254901  0.037823  0.545130  1
  F  F30  1  0.248237  0.035840  0.045239  1
  F  F31  1  0.754652  0.964822  0.955776  1
  F  F32  1  0.560252  0.971037  0.235227  1
  F  F33  1  0.425068  0.026969  0.766252  1
  F  F34  1  0.071334  0.017770  0.264053  1
  F  F35  1  0.925065  0.972095  0.733792  1
