# generated using pymatgen
data_Pr3ZnIn3HgRh
_symmetry_space_group_name_H-M   'P 1'
_cell_length_a   8.04517600
_cell_length_b   8.04517568
_cell_length_c   4.01290900
_cell_angle_alpha   90.00000000
_cell_angle_beta   90.00000000
_cell_angle_gamma   119.99999310
_symmetry_Int_Tables_number   1
_chemical_formula_structural   Pr3ZnIn3HgRh
_chemical_formula_sum   'Pr3 Zn1 In3 Hg1 Rh1'
_cell_volume   224.93708084
_cell_formula_units_Z   1
loop_
 _symmetry_equiv_pos_site_id
 _symmetry_equiv_pos_as_xyz
  1  'x, y, z'
loop_
 _atom_site_type_symbol
 _atom_site_label
 _atom_site_symmetry_multiplicity
 _atom_site_fract_x
 _atom_site_fract_y
 _atom_site_fract_z
 _atom_site_occupancy
  Pr  Pr0  1  0.975102  0.581536  0.500000  1
  Pr  Pr1  1  0.418464  0.393567  0.500000  1
  Pr  Pr2  1  0.606433  0.024898  0.500000  1
  Zn  Zn3  1  0.000000  0.000000  0.500000  1
  In  In4  1  0.748647  0.744035  0.000000  1
  In  In5  1  0.995388  0.251353  0.000000  1
  In  In6  1  0.255965  0.004612  0.000000  1
  Hg  Hg7  1  0.333333  0.666667  0.000000  1
  Rh  Rh8  1  0.666667  0.333333  0.000000  1
