# generated using pymatgen
data_Mn11V6Si6Pt
_symmetry_space_group_name_H-M   'P 1'
_cell_length_a   4.03442000
_cell_length_b   5.71458800
_cell_length_c   12.08340600
_cell_angle_alpha   90.00000000
_cell_angle_beta   90.00000474
_cell_angle_gamma   90.00000000
_symmetry_Int_Tables_number   1
_chemical_formula_structural   Mn11V6Si6Pt
_chemical_formula_sum   'Mn11 V6 Si6 Pt1'
_cell_volume   278.58350677
_cell_formula_units_Z   1
loop_
 _symmetry_equiv_pos_site_id
 _symmetry_equiv_pos_as_xyz
  1  'x, y, z'
loop_
 _atom_site_type_symbol
 _atom_site_label
 _atom_site_symmetry_multiplicity
 _atom_site_fract_x
 _atom_site_fract_y
 _atom_site_fract_z
 _atom_site_occupancy
  Mn  Mn0  1  0.500000  0.752646  0.000000  1
  Mn  Mn1  1  0.999934  0.250156  0.166566  1
  Mn  Mn2  1  0.999929  0.749793  0.167427  1
  Mn  Mn3  1  0.499927  0.249848  0.334342  1
  Mn  Mn4  1  0.499927  0.749164  0.335397  1
  Mn  Mn5  1  0.000000  0.250580  0.500000  1
  Mn  Mn6  1  0.000000  0.750117  0.500000  1
  Mn  Mn7  1  0.500071  0.249848  0.665658  1
  Mn  Mn8  1  0.500071  0.749164  0.664603  1
  Mn  Mn9  1  0.000067  0.250156  0.833434  1
  Mn  Mn10  1  0.000072  0.749793  0.832573  1
  V  V11  1  0.000000  0.970017  0.000000  1
  V  V12  1  0.499912  0.510348  0.178089  1
  V  V13  1  0.999922  0.002463  0.334769  1
  V  V14  1  0.500000  0.499354  0.500000  1
  V  V15  1  0.000078  0.002463  0.665231  1
  V  V16  1  0.500088  0.510348  0.821911  1
  Si  Si17  1  0.000000  0.511055  0.000000  1
  Si  Si18  1  0.499923  0.995453  0.173183  1
  Si  Si19  1  0.999927  0.498958  0.334419  1
  Si  Si20  1  0.500000  0.000474  0.500000  1
  Si  Si21  1  0.000071  0.498958  0.665581  1
  Si  Si22  1  0.500077  0.995453  0.826817  1
  Pt  Pt23  1  0.500000  0.253393  0.000000  1
