# generated using pymatgen
data_Ca2Ce(MgIr)3
_symmetry_space_group_name_H-M   'P 1'
_cell_length_a   7.23678246
_cell_length_b   7.23678243
_cell_length_c   4.16973100
_cell_angle_alpha   90.00000000
_cell_angle_beta   90.00000000
_cell_angle_gamma   118.40148242
_symmetry_Int_Tables_number   1
_chemical_formula_structural   Ca2Ce(MgIr)3
_chemical_formula_sum   'Ca2 Ce1 Mg3 Ir3'
_cell_volume   192.08886872
_cell_formula_units_Z   1
loop_
 _symmetry_equiv_pos_site_id
 _symmetry_equiv_pos_as_xyz
  1  'x, y, z'
loop_
 _atom_site_type_symbol
 _atom_site_label
 _atom_site_symmetry_multiplicity
 _atom_site_fract_x
 _atom_site_fract_y
 _atom_site_fract_z
 _atom_site_occupancy
  Ca  Ca0  1  0.586925  0.002110  0.000000  1
  Ca  Ca1  1  0.002110  0.586925  0.000000  1
  Ce  Ce2  1  0.409972  0.409972  0.000000  1
  Mg  Mg3  1  0.244514  0.990367  0.500000  1
  Mg  Mg4  1  0.990367  0.244514  0.500000  1
  Mg  Mg5  1  0.768534  0.768534  0.500000  1
  Ir  Ir6  1  0.340753  0.641110  0.500000  1
  Ir  Ir7  1  0.641110  0.340753  0.500000  1
  Ir  Ir8  1  0.015715  0.015715  0.000000  1
