# generated using pymatgen
data_Dy5Tm7Tc3Ir
_symmetry_space_group_name_H-M   'P 1'
_cell_length_a   6.26805585
_cell_length_b   7.37395695
_cell_length_c   9.03674579
_cell_angle_alpha   89.96736438
_cell_angle_beta   89.88699204
_cell_angle_gamma   89.92194517
_symmetry_Int_Tables_number   1
_chemical_formula_structural   Dy5Tm7Tc3Ir
_chemical_formula_sum   'Dy5 Tm7 Tc3 Ir1'
_cell_volume   417.68050337
_cell_formula_units_Z   1
loop_
 _symmetry_equiv_pos_site_id
 _symmetry_equiv_pos_as_xyz
  1  'x, y, z'
loop_
 _atom_site_type_symbol
 _atom_site_label
 _atom_site_symmetry_multiplicity
 _atom_site_fract_x
 _atom_site_fract_y
 _atom_site_fract_z
 _atom_site_occupancy
  Dy  Dy0  1  0.161489  0.176330  0.063049  1
  Dy  Dy1  1  0.874893  0.541572  0.250507  1
  Dy  Dy2  1  0.624362  0.037991  0.250702  1
  Dy  Dy3  1  0.128677  0.458141  0.749431  1
  Dy  Dy4  1  0.373761  0.959488  0.749288  1
  Tm  Tm5  1  0.334746  0.675920  0.064060  1
  Tm  Tm6  1  0.161816  0.175603  0.437714  1
  Tm  Tm7  1  0.663035  0.322884  0.561818  1
  Tm  Tm8  1  0.836365  0.824537  0.937191  1
  Tm  Tm9  1  0.663484  0.323365  0.937826  1
  Tm  Tm10  1  0.837083  0.825399  0.562378  1
  Tm  Tm11  1  0.334399  0.676149  0.436104  1
  Tc  Tc12  1  0.040087  0.883257  0.250399  1
  Tc  Tc13  1  0.462589  0.387197  0.250732  1
  Tc  Tc14  1  0.957633  0.116458  0.748657  1
  Ir  Ir15  1  0.545583  0.615710  0.750145  1
