# generated using pymatgen
data_Lu12GaCo4Bi
_symmetry_space_group_name_H-M   'P 1'
_cell_length_a   8.17079005
_cell_length_b   8.17068374
_cell_length_c   8.17079008
_cell_angle_alpha   111.89136211
_cell_angle_beta   109.51147467
_cell_angle_gamma   107.04755464
_symmetry_Int_Tables_number   1
_chemical_formula_structural   Lu12GaCo4Bi
_chemical_formula_sum   'Lu12 Ga1 Co4 Bi1'
_cell_volume   419.16537917
_cell_formula_units_Z   1
loop_
 _symmetry_equiv_pos_site_id
 _symmetry_equiv_pos_as_xyz
  1  'x, y, z'
loop_
 _atom_site_type_symbol
 _atom_site_label
 _atom_site_symmetry_multiplicity
 _atom_site_fract_x
 _atom_site_fract_y
 _atom_site_fract_z
 _atom_site_occupancy
  Lu  Lu0  1  0.026498  0.730605  0.295897  1
  Lu  Lu1  1  0.973502  0.269395  0.704103  1
  Lu  Lu2  1  0.565291  0.269395  0.295893  1
  Lu  Lu3  1  0.434709  0.730605  0.704107  1
  Lu  Lu4  1  0.676590  0.860535  0.183946  1
  Lu  Lu5  1  0.323410  0.507366  0.183956  1
  Lu  Lu6  1  0.323410  0.139465  0.816054  1
  Lu  Lu7  1  0.676590  0.492634  0.816044  1
  Lu  Lu8  1  0.179010  0.220572  0.399592  1
  Lu  Lu9  1  0.820981  0.220572  0.041562  1
  Lu  Lu10  1  0.179019  0.779428  0.958438  1
  Lu  Lu11  1  0.820990  0.779428  0.600408  1
  Ga  Ga12  1  0.000000  0.500000  0.500000  1
  Co  Co13  1  0.658825  0.500000  0.158825  1
  Co  Co14  1  0.341175  0.500000  0.841175  1
  Co  Co15  1  0.884111  0.884113  0.000002  1
  Co  Co16  1  0.115889  0.115887  0.999998  1
  Bi  Bi17  1  0.500000  0.000000  0.500000  1
