# generated using pymatgen
data_Sm5P4Pt8Rh7
_symmetry_space_group_name_H-M   'P 1'
_cell_length_a   4.11821900
_cell_length_b   4.13911400
_cell_length_c   24.97844500
_cell_angle_alpha   90.00000000
_cell_angle_beta   90.00000000
_cell_angle_gamma   90.00000000
_symmetry_Int_Tables_number   1
_chemical_formula_structural   Sm5P4Pt8Rh7
_chemical_formula_sum   'Sm5 P4 Pt8 Rh7'
_cell_volume   425.77702621
_cell_formula_units_Z   1
loop_
 _symmetry_equiv_pos_site_id
 _symmetry_equiv_pos_as_xyz
  1  'x, y, z'
loop_
 _atom_site_type_symbol
 _atom_site_label
 _atom_site_symmetry_multiplicity
 _atom_site_fract_x
 _atom_site_fract_y
 _atom_site_fract_z
 _atom_site_occupancy
  Sm  Sm0  1  0.000000  0.000000  0.897519  1
  Sm  Sm1  1  0.000000  0.000000  0.098428  1
  Sm  Sm2  1  0.000000  0.000000  0.313804  1
  Sm  Sm3  1  0.000000  0.000000  0.501012  1
  Sm  Sm4  1  0.000000  0.000000  0.690304  1
  P  P5  1  0.500000  0.500000  0.160967  1
  P  P6  1  0.500000  0.500000  0.373282  1
  P  P7  1  0.500000  0.500000  0.627979  1
  P  P8  1  0.500000  0.500000  0.836368  1
  Pt  Pt9  1  0.500000  0.500000  0.926071  1
  Pt  Pt10  1  0.500000  0.500000  0.071740  1
  Pt  Pt11  1  0.500000  0.500000  0.282719  1
  Pt  Pt12  1  0.500000  0.500000  0.500834  1
  Pt  Pt13  1  0.500000  0.500000  0.718235  1
  Pt  Pt14  1  0.500000  0.000000  0.999250  1
  Pt  Pt15  1  0.500000  0.000000  0.206911  1
  Pt  Pt16  1  0.000000  0.500000  0.999157  1
  Rh  Rh17  1  0.500000  0.000000  0.414081  1
  Rh  Rh18  1  0.500000  0.000000  0.587750  1
  Rh  Rh19  1  0.500000  0.000000  0.793442  1
  Rh  Rh20  1  0.000000  0.500000  0.205267  1
  Rh  Rh21  1  0.000000  0.500000  0.414109  1
  Rh  Rh22  1  0.000000  0.500000  0.587491  1
  Rh  Rh23  1  0.000000  0.500000  0.793279  1
