# generated using pymatgen
data_Te14Ir
_symmetry_space_group_name_H-M   'P 1'
_cell_length_a   9.75671134
_cell_length_b   10.67999167
_cell_length_c   12.68084384
_cell_angle_alpha   98.05220691
_cell_angle_beta   114.89470688
_cell_angle_gamma   106.17403470
_symmetry_Int_Tables_number   1
_chemical_formula_structural   Te14Ir
_chemical_formula_sum   'Te28 Ir2'
_cell_volume   1099.78053913
_cell_formula_units_Z   2
loop_
 _symmetry_equiv_pos_site_id
 _symmetry_equiv_pos_as_xyz
  1  'x, y, z'
loop_
 _atom_site_type_symbol
 _atom_site_label
 _atom_site_symmetry_multiplicity
 _atom_site_fract_x
 _atom_site_fract_y
 _atom_site_fract_z
 _atom_site_occupancy
  Te  Te0  1  0.892678  0.046343  0.719024  1
  Te  Te1  1  0.107322  0.953657  0.280976  1
  Te  Te2  1  0.225314  0.270865  0.912604  1
  Te  Te3  1  0.774686  0.729135  0.087396  1
  Te  Te4  1  0.723445  0.170049  0.822644  1
  Te  Te5  1  0.276555  0.829951  0.177356  1
  Te  Te6  1  0.016563  0.326257  0.043398  1
  Te  Te7  1  0.983437  0.673743  0.956602  1
  Te  Te8  1  0.205384  0.049427  0.027463  1
  Te  Te9  1  0.794616  0.950573  0.972537  1
  Te  Te10  1  0.047934  0.784345  0.703613  1
  Te  Te11  1  0.952066  0.215655  0.296387  1
  Te  Te12  1  0.635217  0.669454  0.669189  1
  Te  Te13  1  0.364783  0.330546  0.330811  1
  Te  Te14  1  0.323247  0.733287  0.847457  1
  Te  Te15  1  0.676753  0.266713  0.152543  1
  Te  Te16  1  0.818999  0.505880  0.555805  1
  Te  Te17  1  0.181001  0.494120  0.444195  1
  Te  Te18  1  0.753439  0.689532  0.399996  1
  Te  Te19  1  0.246561  0.310468  0.600004  1
  Te  Te20  1  0.345205  0.140030  0.777030  1
  Te  Te21  1  0.654795  0.859970  0.222970  1
  Te  Te22  1  0.555676  0.484612  0.795085  1
  Te  Te23  1  0.444324  0.515388  0.204915  1
  Te  Te24  1  0.406541  0.800860  0.665064  1
  Te  Te25  1  0.593459  0.199140  0.334936  1
  Te  Te26  1  0.562332  0.894132  0.490126  1
  Te  Te27  1  0.437668  0.105868  0.509874  1
  Ir  Ir28  1  0.924082  0.860276  0.841581  1
  Ir  Ir29  1  0.075918  0.139724  0.158419  1
