# generated using pymatgen
data_KMn3FeO8
_symmetry_space_group_name_H-M   'P 1'
_cell_length_a   2.97020563
_cell_length_b   7.18882889
_cell_length_c   7.26353202
_cell_angle_alpha   92.30486283
_cell_angle_beta   101.79789858
_cell_angle_gamma   78.07770324
_symmetry_Int_Tables_number   1
_chemical_formula_structural   KMn3FeO8
_chemical_formula_sum   'K1 Mn3 Fe1 O8'
_cell_volume   148.54153487
_cell_formula_units_Z   1
loop_
 _symmetry_equiv_pos_site_id
 _symmetry_equiv_pos_as_xyz
  1  'x, y, z'
loop_
 _atom_site_type_symbol
 _atom_site_label
 _atom_site_symmetry_multiplicity
 _atom_site_fract_x
 _atom_site_fract_y
 _atom_site_fract_z
 _atom_site_occupancy
  K  K0  1  0.998868  0.004247  0.001984  1
  Mn  Mn1  1  0.334809  0.512905  0.182523  1
  Mn  Mn2  1  0.849160  0.814988  0.513307  1
  Mn  Mn3  1  0.150681  0.179840  0.481203  1
  Fe  Fe4  1  0.664895  0.485345  0.815137  1
  O  O5  1  0.958425  0.375275  0.292125  1
  O  O6  1  0.035745  0.632038  0.703529  1
  O  O7  1  0.667075  0.283874  0.618023  1
  O  O8  1  0.332619  0.711073  0.376311  1
  O  O9  1  0.707375  0.646490  0.061240  1
  O  O10  1  0.304959  0.353642  0.963560  1
  O  O11  1  0.652371  0.048081  0.352823  1
  O  O12  1  0.343019  0.952200  0.638239  1
