# generated using pymatgen
data_Tm4Lu8InCo5
_symmetry_space_group_name_H-M   'P 1'
_cell_length_a   8.10089908
_cell_length_b   8.10089948
_cell_length_c   8.10089860
_cell_angle_alpha   110.95430967
_cell_angle_beta   111.00044623
_cell_angle_gamma   106.49917303
_symmetry_Int_Tables_number   1
_chemical_formula_structural   Tm4Lu8InCo5
_chemical_formula_sum   'Tm4 Lu8 In1 Co5'
_cell_volume   408.41919831
_cell_formula_units_Z   1
loop_
 _symmetry_equiv_pos_site_id
 _symmetry_equiv_pos_as_xyz
  1  'x, y, z'
loop_
 _atom_site_type_symbol
 _atom_site_label
 _atom_site_symmetry_multiplicity
 _atom_site_fract_x
 _atom_site_fract_y
 _atom_site_fract_z
 _atom_site_occupancy
  Tm  Tm0  1  0.213547  0.406258  0.192712  1
  Tm  Tm1  1  0.786453  0.593742  0.807288  1
  Tm  Tm2  1  0.213547  0.020836  0.807288  1
  Tm  Tm3  1  0.786453  0.979164  0.192712  1
  Lu  Lu4  1  0.288148  0.185104  0.473250  1
  Lu  Lu5  1  0.711852  0.814896  0.526750  1
  Lu  Lu6  1  0.288148  0.814896  0.103043  1
  Lu  Lu7  1  0.711852  0.185104  0.896957  1
  Lu  Lu8  1  0.619564  0.314429  0.305135  1
  Lu  Lu9  1  0.380436  0.685571  0.694865  1
  Lu  Lu10  1  0.009292  0.314429  0.694865  1
  Lu  Lu11  1  0.990708  0.685571  0.305135  1
  In  In12  1  0.500000  0.500000  0.000000  1
  Co  Co13  1  0.000000  0.376579  0.376579  1
  Co  Co14  1  0.000000  0.623421  0.623421  1
  Co  Co15  1  0.386591  0.886591  0.500000  1
  Co  Co16  1  0.613409  0.113409  0.500000  1
  Co  Co17  1  0.000000  0.000000  0.000000  1
