# generated using pymatgen
data_LiDy9(GaTe)4
_symmetry_space_group_name_H-M   'P 1'
_cell_length_a   8.63314612
_cell_length_b   8.63314757
_cell_length_c   7.89352700
_cell_angle_alpha   90.00957015
_cell_angle_beta   90.00956351
_cell_angle_gamma   125.78329883
_symmetry_Int_Tables_number   1
_chemical_formula_structural   LiDy9(GaTe)4
_chemical_formula_sum   'Li1 Dy9 Ga4 Te4'
_cell_volume   477.26064895
_cell_formula_units_Z   1
loop_
 _symmetry_equiv_pos_site_id
 _symmetry_equiv_pos_as_xyz
  1  'x, y, z'
loop_
 _atom_site_type_symbol
 _atom_site_label
 _atom_site_symmetry_multiplicity
 _atom_site_fract_x
 _atom_site_fract_y
 _atom_site_fract_z
 _atom_site_occupancy
  Li  Li0  1  0.500000  0.500000  0.500000  1
  Dy  Dy1  1  0.000000  0.000000  0.000000  1
  Dy  Dy2  1  0.788075  0.539065  0.172174  1
  Dy  Dy3  1  0.460935  0.211925  0.827826  1
  Dy  Dy4  1  0.953421  0.702602  0.663248  1
  Dy  Dy5  1  0.297398  0.046579  0.336752  1
  Dy  Dy6  1  0.211925  0.460935  0.827826  1
  Dy  Dy7  1  0.539065  0.788075  0.172174  1
  Dy  Dy8  1  0.046579  0.297398  0.336752  1
  Dy  Dy9  1  0.702602  0.953421  0.663248  1
  Ga  Ga10  1  0.875735  0.875735  0.371114  1
  Ga  Ga11  1  0.124265  0.124265  0.628886  1
  Ga  Ga12  1  0.630590  0.630590  0.876031  1
  Ga  Ga13  1  0.369410  0.369410  0.123969  1
  Te  Te14  1  0.205479  0.794521  0.000000  1
  Te  Te15  1  0.704896  0.295104  0.500000  1
  Te  Te16  1  0.794521  0.205479  0.000000  1
  Te  Te17  1  0.295104  0.704896  0.500000  1
