# generated using pymatgen
data_Y3Pa3(Ni3Bi4)2
_symmetry_space_group_name_H-M   'P 1'
_cell_length_a   8.36051908
_cell_length_b   8.38505753
_cell_length_c   8.36051861
_cell_angle_alpha   109.47145888
_cell_angle_beta   109.29994085
_cell_angle_gamma   109.52329642
_symmetry_Int_Tables_number   1
_chemical_formula_structural   Y3Pa3(Ni3Bi4)2
_chemical_formula_sum   'Y3 Pa3 Ni6 Bi8'
_cell_volume   451.84060424
_cell_formula_units_Z   1
loop_
 _symmetry_equiv_pos_site_id
 _symmetry_equiv_pos_as_xyz
  1  'x, y, z'
loop_
 _atom_site_type_symbol
 _atom_site_label
 _atom_site_symmetry_multiplicity
 _atom_site_fract_x
 _atom_site_fract_y
 _atom_site_fract_z
 _atom_site_occupancy
  Y  Y0  1  0.627370  0.750000  0.377370  1
  Y  Y1  1  0.251670  0.126188  0.876602  1
  Y  Y2  1  0.750415  0.373812  0.625482  1
  Pa  Pa3  1  0.125899  0.878539  0.249887  1
  Pa  Pa4  1  0.371348  0.621461  0.747359  1
  Pa  Pa5  1  0.871819  0.250000  0.121819  1
  Ni  Ni6  1  0.639533  0.363559  0.240648  1
  Ni  Ni7  1  0.877089  0.136441  0.775974  1
  Ni  Ni8  1  0.368194  0.250000  0.618194  1
  Ni  Ni9  1  0.129728  0.750000  0.879728  1
  Ni  Ni10  1  0.234674  0.615151  0.371065  1
  Ni  Ni11  1  0.755913  0.884849  0.119523  1
  Bi  Bi12  1  0.339775  0.336798  0.332306  1
  Bi  Bi13  1  0.168226  0.501797  0.000829  1
  Bi  Bi14  1  0.995510  0.163202  0.502979  1
  Bi  Bi15  1  0.835143  0.831518  0.830502  1
  Bi  Bi16  1  0.499032  0.998203  0.166430  1
  Bi  Bi17  1  0.663274  0.502084  0.998489  1
  Bi  Bi18  1  0.496405  0.997916  0.661190  1
  Bi  Bi19  1  0.998984  0.668482  0.503624  1
