# generated using pymatgen
data_LiHf3H8
_symmetry_space_group_name_H-M   'P 1'
_cell_length_a   4.68754560
_cell_length_b   4.68754620
_cell_length_c   4.68754701
_cell_angle_alpha   89.96888139
_cell_angle_beta   90.03111963
_cell_angle_gamma   89.96889492
_symmetry_Int_Tables_number   1
_chemical_formula_structural   LiHf3H8
_chemical_formula_sum   'Li1 Hf3 H8'
_cell_volume   102.99983053
_cell_formula_units_Z   1
loop_
 _symmetry_equiv_pos_site_id
 _symmetry_equiv_pos_as_xyz
  1  'x, y, z'
loop_
 _atom_site_type_symbol
 _atom_site_label
 _atom_site_symmetry_multiplicity
 _atom_site_fract_x
 _atom_site_fract_y
 _atom_site_fract_z
 _atom_site_occupancy
  Li  Li0  1  0.000000  0.499999  0.500000  1
  Hf  Hf1  1  0.000000  0.000000  0.000000  1
  Hf  Hf2  1  0.500000  0.500000  0.000000  1
  Hf  Hf3  1  0.499999  0.000000  0.500000  1
  H  H4  1  0.250749  0.249242  0.249077  1
  H  H5  1  0.250921  0.750750  0.249243  1
  H  H6  1  0.749244  0.249077  0.249250  1
  H  H7  1  0.749190  0.750810  0.249192  1
  H  H8  1  0.250808  0.249191  0.750809  1
  H  H9  1  0.250759  0.750920  0.750751  1
  H  H10  1  0.749078  0.249252  0.750756  1
  H  H11  1  0.749249  0.750756  0.750921  1
