# generated using pymatgen
data_ThNpN3
_symmetry_space_group_name_H-M   'P 1'
_cell_length_a   5.88105600
_cell_length_b   6.04808400
_cell_length_c   8.48920800
_cell_angle_alpha   90.00000000
_cell_angle_beta   90.00000000
_cell_angle_gamma   90.00000000
_symmetry_Int_Tables_number   1
_chemical_formula_structural   ThNpN3
_chemical_formula_sum   'Th4 Np4 N12'
_cell_volume   301.95366397
_cell_formula_units_Z   4
loop_
 _symmetry_equiv_pos_site_id
 _symmetry_equiv_pos_as_xyz
  1  'x, y, z'
loop_
 _atom_site_type_symbol
 _atom_site_label
 _atom_site_symmetry_multiplicity
 _atom_site_fract_x
 _atom_site_fract_y
 _atom_site_fract_z
 _atom_site_occupancy
  Th  Th0  1  0.509495  0.550568  0.250000  1
  Th  Th1  1  0.990505  0.050568  0.250000  1
  Th  Th2  1  0.490505  0.449432  0.750000  1
  Th  Th3  1  0.009495  0.949432  0.750000  1
  Np  Np4  1  0.000000  0.500000  0.000000  1
  Np  Np5  1  0.500000  0.000000  0.500000  1
  Np  Np6  1  0.000000  0.500000  0.500000  1
  Np  Np7  1  0.500000  0.000000  0.000000  1
  N  N8  1  0.379787  0.949507  0.250000  1
  N  N9  1  0.120213  0.449507  0.250000  1
  N  N10  1  0.620213  0.050493  0.750000  1
  N  N11  1  0.879787  0.550493  0.750000  1
  N  N12  1  0.795955  0.812977  0.062120  1
  N  N13  1  0.704045  0.312977  0.437880  1
  N  N14  1  0.204045  0.187023  0.562120  1
  N  N15  1  0.295955  0.687023  0.937880  1
  N  N16  1  0.204045  0.187023  0.937880  1
  N  N17  1  0.295955  0.687023  0.562120  1
  N  N18  1  0.795955  0.812977  0.437880  1
  N  N19  1  0.704045  0.312977  0.062120  1
