# generated using pymatgen
data_RbHf2(PO4)3
_symmetry_space_group_name_H-M   'P 1'
_cell_length_a   8.75687559
_cell_length_b   8.75687570
_cell_length_c   9.46805800
_cell_angle_alpha   117.54487086
_cell_angle_beta   117.54486387
_cell_angle_gamma   59.99999614
_symmetry_Int_Tables_number   1
_chemical_formula_structural   RbHf2(PO4)3
_chemical_formula_sum   'Rb2 Hf4 P6 O24'
_cell_volume   531.61956925
_cell_formula_units_Z   2
loop_
 _symmetry_equiv_pos_site_id
 _symmetry_equiv_pos_as_xyz
  1  'x, y, z'
loop_
 _atom_site_type_symbol
 _atom_site_label
 _atom_site_symmetry_multiplicity
 _atom_site_fract_x
 _atom_site_fract_y
 _atom_site_fract_z
 _atom_site_occupancy
  Rb  Rb0  1  0.000000  0.000000  0.000000  1
  Rb  Rb1  1  0.499999  0.500000  0.499999  1
  Hf  Hf2  1  0.349962  0.349962  0.049888  1
  Hf  Hf3  1  0.150037  0.150037  0.450111  1
  Hf  Hf4  1  0.849963  0.849962  0.549889  1
  Hf  Hf5  1  0.650037  0.650038  0.950112  1
  P  P6  1  0.750000  0.035659  0.250000  1
  P  P7  1  0.464341  0.749999  0.250000  1
  P  P8  1  0.035659  0.464340  0.250000  1
  P  P9  1  0.964341  0.535659  0.750000  1
  P  P10  1  0.535659  0.250000  0.750000  1
  P  P11  1  0.250000  0.964341  0.750000  1
  O  O12  1  0.861711  0.487149  0.097551  1
  O  O13  1  0.748690  0.861711  0.097551  1
  O  O14  1  0.487149  0.748690  0.097551  1
  O  O15  1  0.575460  0.201896  0.205673  1
  O  O16  1  0.428316  0.575460  0.205673  1
  O  O17  1  0.201896  0.428315  0.205673  1
  O  O18  1  0.924539  0.071685  0.294328  1
  O  O19  1  0.298104  0.924541  0.294328  1
  O  O20  1  0.071685  0.298104  0.294328  1
  O  O21  1  0.751311  0.012851  0.402449  1
  O  O22  1  0.638288  0.751310  0.402449  1
  O  O23  1  0.012851  0.638288  0.402449  1
  O  O24  1  0.987149  0.361712  0.597551  1
  O  O25  1  0.361712  0.248690  0.597551  1
  O  O26  1  0.248690  0.987150  0.597551  1
  O  O27  1  0.928315  0.701896  0.705672  1
  O  O28  1  0.701896  0.075460  0.705672  1
  O  O29  1  0.075461  0.928315  0.705672  1
  O  O30  1  0.798105  0.571685  0.794328  1
  O  O31  1  0.571685  0.424540  0.794328  1
  O  O32  1  0.424540  0.798104  0.794328  1
  O  O33  1  0.512851  0.251311  0.902449  1
  O  O34  1  0.251310  0.138288  0.902449  1
  O  O35  1  0.138288  0.512851  0.902449  1
