# generated using pymatgen
data_MgGa5Co2
_symmetry_space_group_name_H-M   'P 1'
_cell_length_a   6.27842098
_cell_length_b   6.70592979
_cell_length_c   6.13898800
_cell_angle_alpha   90.00000000
_cell_angle_beta   90.00000000
_cell_angle_gamma   89.92730342
_symmetry_Int_Tables_number   1
_chemical_formula_structural   MgGa5Co2
_chemical_formula_sum   'Mg2 Ga10 Co4'
_cell_volume   258.46745672
_cell_formula_units_Z   2
loop_
 _symmetry_equiv_pos_site_id
 _symmetry_equiv_pos_as_xyz
  1  'x, y, z'
loop_
 _atom_site_type_symbol
 _atom_site_label
 _atom_site_symmetry_multiplicity
 _atom_site_fract_x
 _atom_site_fract_y
 _atom_site_fract_z
 _atom_site_occupancy
  Mg  Mg0  1  0.000000  0.500000  0.500000  1
  Mg  Mg1  1  0.500000  0.000000  0.000000  1
  Ga  Ga2  1  0.350943  0.658547  0.242166  1
  Ga  Ga3  1  0.649057  0.341453  0.242166  1
  Ga  Ga4  1  0.148472  0.157879  0.743172  1
  Ga  Ga5  1  0.851528  0.842121  0.743172  1
  Ga  Ga6  1  0.649057  0.341453  0.757834  1
  Ga  Ga7  1  0.350943  0.658547  0.757834  1
  Ga  Ga8  1  0.851528  0.842121  0.256828  1
  Ga  Ga9  1  0.148472  0.157879  0.256828  1
  Ga  Ga10  1  0.000000  0.500000  0.000000  1
  Ga  Ga11  1  0.500000  0.000000  0.500000  1
  Co  Co12  1  0.159595  0.859019  0.500000  1
  Co  Co13  1  0.840405  0.140981  0.500000  1
  Co  Co14  1  0.340618  0.359070  0.000000  1
  Co  Co15  1  0.659382  0.640930  0.000000  1
