# generated using pymatgen
data_K12Co2O9
_symmetry_space_group_name_H-M   'P 1'
_cell_length_a   7.17491053
_cell_length_b   9.75255515
_cell_length_c   9.94420200
_cell_angle_alpha   125.75151232
_cell_angle_beta   110.42375325
_cell_angle_gamma   89.46406693
_symmetry_Int_Tables_number   1
_chemical_formula_structural   K12Co2O9
_chemical_formula_sum   'K12 Co2 O9'
_cell_volume   511.60529639
_cell_formula_units_Z   1
loop_
 _symmetry_equiv_pos_site_id
 _symmetry_equiv_pos_as_xyz
  1  'x, y, z'
loop_
 _atom_site_type_symbol
 _atom_site_label
 _atom_site_symmetry_multiplicity
 _atom_site_fract_x
 _atom_site_fract_y
 _atom_site_fract_z
 _atom_site_occupancy
  K  K0  1  0.028721  0.277171  0.929927  1
  K  K1  1  0.018956  0.617160  0.351698  1
  K  K2  1  0.300922  0.986454  0.451431  1
  K  K3  1  0.428551  0.440922  0.625897  1
  K  K4  1  0.522093  0.897012  0.828631  1
  K  K5  1  0.542685  0.122068  0.265915  1
  K  K6  1  0.536443  0.526208  0.348326  1
  K  K7  1  0.840879  0.983341  0.486540  1
  K  K8  1  0.941596  0.444917  0.680284  1
  K  K9  1  0.824818  0.732636  0.033272  1
  K  K10  1  0.065650  0.884981  0.851035  1
  K  K11  1  0.525886  0.278600  0.894688  1
  Co  Co12  1  0.388699  0.667433  0.082723  1
  Co  Co13  1  0.979054  0.210196  0.241295  1
  O  O14  1  0.193636  0.973921  0.679146  1
  O  O15  1  0.359427  0.731390  0.942566  1
  O  O16  1  0.204825  0.273618  0.232831  1
  O  O17  1  0.185791  0.624422  0.128546  1
  O  O18  1  0.661955  0.230811  0.649456  1
  O  O19  1  0.720919  0.661896  0.694769  1
  O  O20  1  0.635808  0.646023  0.182949  1
  O  O21  1  0.750500  0.266885  0.164618  1
  O  O22  1  0.967883  0.097636  0.329754  1
