# generated using pymatgen
data_Dy3Tm2Bi3
_symmetry_space_group_name_H-M   'P 1'
_cell_length_a   8.23858500
_cell_length_b   9.46832300
_cell_length_c   12.01686800
_cell_angle_alpha   90.00000000
_cell_angle_beta   90.00000000
_cell_angle_gamma   90.00000000
_symmetry_Int_Tables_number   1
_chemical_formula_structural   Dy3Tm2Bi3
_chemical_formula_sum   'Dy12 Tm8 Bi12'
_cell_volume   937.38280430
_cell_formula_units_Z   4
loop_
 _symmetry_equiv_pos_site_id
 _symmetry_equiv_pos_as_xyz
  1  'x, y, z'
loop_
 _atom_site_type_symbol
 _atom_site_label
 _atom_site_symmetry_multiplicity
 _atom_site_fract_x
 _atom_site_fract_y
 _atom_site_fract_z
 _atom_site_occupancy
  Dy  Dy0  1  0.352324  0.750000  0.215389  1
  Dy  Dy1  1  0.852324  0.750000  0.284611  1
  Dy  Dy2  1  0.647676  0.250000  0.784611  1
  Dy  Dy3  1  0.147676  0.250000  0.715389  1
  Dy  Dy4  1  0.475900  0.250000  0.488396  1
  Dy  Dy5  1  0.975900  0.250000  0.011604  1
  Dy  Dy6  1  0.524100  0.750000  0.511604  1
  Dy  Dy7  1  0.024100  0.750000  0.988396  1
  Dy  Dy8  1  0.312471  0.250000  0.218614  1
  Dy  Dy9  1  0.812471  0.250000  0.281386  1
  Dy  Dy10  1  0.687529  0.750000  0.781386  1
  Dy  Dy11  1  0.187529  0.750000  0.718614  1
  Tm  Tm12  1  0.692712  0.564449  0.058385  1
  Tm  Tm13  1  0.192712  0.935551  0.441615  1
  Tm  Tm14  1  0.307288  0.064449  0.941615  1
  Tm  Tm15  1  0.807288  0.435551  0.558385  1
  Tm  Tm16  1  0.307288  0.435551  0.941615  1
  Tm  Tm17  1  0.807288  0.064449  0.558385  1
  Tm  Tm18  1  0.692712  0.935551  0.058385  1
  Tm  Tm19  1  0.192712  0.564449  0.441615  1
  Bi  Bi20  1  0.407414  0.750000  0.956790  1
  Bi  Bi21  1  0.907414  0.750000  0.543210  1
  Bi  Bi22  1  0.592586  0.250000  0.043210  1
  Bi  Bi23  1  0.092586  0.250000  0.456790  1
  Bi  Bi24  1  0.564883  0.995496  0.325279  1
  Bi  Bi25  1  0.064883  0.504504  0.174721  1
  Bi  Bi26  1  0.435117  0.495496  0.674721  1
  Bi  Bi27  1  0.935117  0.004504  0.825279  1
  Bi  Bi28  1  0.435117  0.004504  0.674721  1
  Bi  Bi29  1  0.935117  0.495496  0.825279  1
  Bi  Bi30  1  0.564883  0.504504  0.325279  1
  Bi  Bi31  1  0.064883  0.995496  0.174721  1
