# generated using pymatgen
data_ErTh3(B2Ir5)2
_symmetry_space_group_name_H-M   'P 1'
_cell_length_a   11.12080453
_cell_length_b   11.12080379
_cell_length_c   11.12080486
_cell_angle_alpha   28.78026338
_cell_angle_beta   28.78027159
_cell_angle_gamma   28.78026522
_symmetry_Int_Tables_number   1
_chemical_formula_structural   ErTh3(B2Ir5)2
_chemical_formula_sum   'Er1 Th3 B4 Ir10'
_cell_volume   281.88428230
_cell_formula_units_Z   1
loop_
 _symmetry_equiv_pos_site_id
 _symmetry_equiv_pos_as_xyz
  1  'x, y, z'
loop_
 _atom_site_type_symbol
 _atom_site_label
 _atom_site_symmetry_multiplicity
 _atom_site_fract_x
 _atom_site_fract_y
 _atom_site_fract_z
 _atom_site_occupancy
  Er  Er0  1  0.050802  0.050802  0.050802  1
  Th  Th1  1  0.150661  0.150661  0.150661  1
  Th  Th2  1  0.950119  0.950119  0.950119  1
  Th  Th3  1  0.847177  0.847177  0.847177  1
  B  B4  1  0.617551  0.617551  0.617551  1
  B  B5  1  0.717088  0.717088  0.717088  1
  B  B6  1  0.382929  0.382929  0.382929  1
  B  B7  1  0.283662  0.283662  0.283662  1
  Ir  Ir8  1  0.406700  0.900106  0.406700  1
  Ir  Ir9  1  0.900106  0.406700  0.406700  1
  Ir  Ir10  1  0.500638  0.500638  0.000631  1
  Ir  Ir11  1  0.500638  0.000631  0.500638  1
  Ir  Ir12  1  0.000631  0.500638  0.500638  1
  Ir  Ir13  1  0.499785  0.499785  0.499785  1
  Ir  Ir14  1  0.592917  0.098978  0.592917  1
  Ir  Ir15  1  0.592917  0.592917  0.098978  1
  Ir  Ir16  1  0.098978  0.592917  0.592917  1
  Ir  Ir17  1  0.406700  0.406700  0.900106  1
