# generated using pymatgen
data_Tb4ErSi10P2Ir19
_symmetry_space_group_name_H-M   'P 1'
_cell_length_a   12.84394021
_cell_length_b   12.84297632
_cell_length_c   3.96369700
_cell_angle_alpha   90.00000000
_cell_angle_beta   90.00000000
_cell_angle_gamma   120.14035036
_symmetry_Int_Tables_number   1
_chemical_formula_structural   Tb4ErSi10P2Ir19
_chemical_formula_sum   'Tb4 Er1 Si10 P2 Ir19'
_cell_volume   565.43031743
_cell_formula_units_Z   1
loop_
 _symmetry_equiv_pos_site_id
 _symmetry_equiv_pos_as_xyz
  1  'x, y, z'
loop_
 _atom_site_type_symbol
 _atom_site_label
 _atom_site_symmetry_multiplicity
 _atom_site_fract_x
 _atom_site_fract_y
 _atom_site_fract_z
 _atom_site_occupancy
  Tb  Tb0  1  0.666596  0.333649  0.000000  1
  Tb  Tb1  1  0.812795  0.812807  0.500000  1
  Tb  Tb2  1  0.186207  0.000983  0.500000  1
  Tb  Tb3  1  0.000975  0.186210  0.500000  1
  Er  Er4  1  0.333642  0.666585  0.000000  1
  Si  Si5  1  0.686406  0.167332  0.500000  1
  Si  Si6  1  0.832331  0.518778  0.500000  1
  Si  Si7  1  0.480640  0.312600  0.500000  1
  Si  Si8  1  0.168026  0.686426  0.500000  1
  Si  Si9  1  0.518081  0.831623  0.500000  1
  Si  Si10  1  0.312617  0.481344  0.500000  1
  Si  Si11  1  0.632597  0.632593  0.000000  1
  Si  Si12  1  0.367762  0.000188  0.000000  1
  Si  Si13  1  0.000171  0.367735  0.000000  1
  Si  Si14  1  0.179365  0.179484  0.000000  1
  P  P15  1  0.820232  0.000672  0.000000  1
  P  P16  1  0.000960  0.820384  0.000000  1
  Ir  Ir17  1  0.806212  0.179927  0.000000  1
  Ir  Ir18  1  0.820498  0.626751  0.000000  1
  Ir  Ir19  1  0.375883  0.194164  0.000000  1
  Ir  Ir20  1  0.180212  0.806024  0.000000  1
  Ir  Ir21  1  0.626256  0.820216  0.000000  1
  Ir  Ir22  1  0.194415  0.376427  0.000000  1
  Ir  Ir23  1  0.447792  0.447731  0.000000  1
  Ir  Ir24  1  0.552602  0.999028  0.000000  1
  Ir  Ir25  1  0.998974  0.552560  0.000000  1
  Ir  Ir26  1  0.281973  0.282187  0.500000  1
  Ir  Ir27  1  0.720571  0.000018  0.500000  1
  Ir  Ir28  1  0.000404  0.720773  0.500000  1
  Ir  Ir29  1  0.872788  0.359739  0.500000  1
  Ir  Ir30  1  0.640233  0.513158  0.500000  1
  Ir  Ir31  1  0.486969  0.125776  0.500000  1
  Ir  Ir32  1  0.359715  0.871900  0.500000  1
  Ir  Ir33  1  0.512300  0.640257  0.500000  1
  Ir  Ir34  1  0.126622  0.487773  0.500000  1
  Ir  Ir35  1  0.996181  0.996197  0.000000  1
