# generated using pymatgen
data_In2Co(SeO3)4
_symmetry_space_group_name_H-M   'P 1'
_cell_length_a   4.90739900
_cell_length_b   8.76431967
_cell_length_c   15.54047755
_cell_angle_alpha   69.28298815
_cell_angle_beta   90.00000000
_cell_angle_gamma   90.00000000
_symmetry_Int_Tables_number   1
_chemical_formula_structural   In2Co(SeO3)4
_chemical_formula_sum   'In4 Co2 Se8 O24'
_cell_volume   625.17701228
_cell_formula_units_Z   2
loop_
 _symmetry_equiv_pos_site_id
 _symmetry_equiv_pos_as_xyz
  1  'x, y, z'
loop_
 _atom_site_type_symbol
 _atom_site_label
 _atom_site_symmetry_multiplicity
 _atom_site_fract_x
 _atom_site_fract_y
 _atom_site_fract_z
 _atom_site_occupancy
  In  In0  1  0.536678  0.153539  0.787131  1
  In  In1  1  0.963322  0.153539  0.287131  1
  In  In2  1  0.463322  0.846461  0.212869  1
  In  In3  1  0.036678  0.846461  0.712869  1
  Co  Co4  1  0.000000  0.000000  0.000000  1
  Co  Co5  1  0.500000  0.000000  0.500000  1
  Se  Se6  1  0.578563  0.781539  0.891051  1
  Se  Se7  1  0.921437  0.781539  0.391051  1
  Se  Se8  1  0.421437  0.218461  0.108949  1
  Se  Se9  1  0.078563  0.218461  0.608949  1
  Se  Se10  1  0.005146  0.341493  0.872530  1
  Se  Se11  1  0.494854  0.341493  0.372530  1
  Se  Se12  1  0.994854  0.658507  0.127470  1
  Se  Se13  1  0.505146  0.658507  0.627470  1
  O  O14  1  0.769061  0.357736  0.786852  1
  O  O15  1  0.730939  0.357736  0.286852  1
  O  O16  1  0.230939  0.642264  0.213148  1
  O  O17  1  0.269061  0.642264  0.713148  1
  O  O18  1  0.828218  0.710685  0.837838  1
  O  O19  1  0.671782  0.710685  0.337838  1
  O  O20  1  0.171782  0.289315  0.162162  1
  O  O21  1  0.328218  0.289315  0.662162  1
  O  O22  1  0.205746  0.170723  0.876785  1
  O  O23  1  0.294254  0.170723  0.376785  1
  O  O24  1  0.794254  0.829277  0.123215  1
  O  O25  1  0.705746  0.829277  0.623215  1
  O  O26  1  0.719290  0.955746  0.904893  1
  O  O27  1  0.780710  0.955746  0.404893  1
  O  O28  1  0.280710  0.044254  0.095107  1
  O  O29  1  0.219290  0.044254  0.595107  1
  O  O30  1  0.373973  0.904703  0.799569  1
  O  O31  1  0.126027  0.904703  0.299569  1
  O  O32  1  0.626027  0.095297  0.200431  1
  O  O33  1  0.873973  0.095297  0.700431  1
  O  O34  1  0.838672  0.232012  0.972053  1
  O  O35  1  0.661328  0.232012  0.472053  1
  O  O36  1  0.161328  0.767988  0.027947  1
  O  O37  1  0.338672  0.767988  0.527947  1
