# generated using pymatgen
data_Sr4Sb4IrPt3
_symmetry_space_group_name_H-M   'P 1'
_cell_length_a   4.75196900
_cell_length_b   7.75842030
_cell_length_c   8.02971156
_cell_angle_alpha   90.12271462
_cell_angle_beta   90.00000000
_cell_angle_gamma   90.00000000
_symmetry_Int_Tables_number   1
_chemical_formula_structural   Sr4Sb4IrPt3
_chemical_formula_sum   'Sr4 Sb4 Ir1 Pt3'
_cell_volume   296.03690195
_cell_formula_units_Z   1
loop_
 _symmetry_equiv_pos_site_id
 _symmetry_equiv_pos_as_xyz
  1  'x, y, z'
loop_
 _atom_site_type_symbol
 _atom_site_label
 _atom_site_symmetry_multiplicity
 _atom_site_fract_x
 _atom_site_fract_y
 _atom_site_fract_z
 _atom_site_occupancy
  Sr  Sr0  1  0.750000  0.485751  0.804489  1
  Sr  Sr1  1  0.250000  0.008117  0.305816  1
  Sr  Sr2  1  0.750000  0.990355  0.690551  1
  Sr  Sr3  1  0.250000  0.513093  0.196264  1
  Sb  Sb4  1  0.250000  0.684669  0.596710  1
  Sb  Sb5  1  0.250000  0.172178  0.914198  1
  Sb  Sb6  1  0.750000  0.320734  0.411894  1
  Sb  Sb7  1  0.750000  0.818765  0.080384  1
  Ir  Ir8  1  0.250000  0.813394  0.912686  1
  Pt  Pt9  1  0.250000  0.302463  0.587479  1
  Pt  Pt10  1  0.750000  0.692763  0.412150  1
  Pt  Pt11  1  0.750000  0.197718  0.087382  1
