# generated using pymatgen
data_Yb2ErAl12CoRu3
_symmetry_space_group_name_H-M   'P 1'
_cell_length_a   8.77050000
_cell_length_b   8.77049995
_cell_length_c   9.45235300
_cell_angle_alpha   90.00000000
_cell_angle_beta   90.00000000
_cell_angle_gamma   119.93149118
_symmetry_Int_Tables_number   1
_chemical_formula_structural   Yb2ErAl12CoRu3
_chemical_formula_sum   'Yb4 Er2 Al24 Co2 Ru6'
_cell_volume   630.11332546
_cell_formula_units_Z   2
loop_
 _symmetry_equiv_pos_site_id
 _symmetry_equiv_pos_as_xyz
  1  'x, y, z'
loop_
 _atom_site_type_symbol
 _atom_site_label
 _atom_site_symmetry_multiplicity
 _atom_site_fract_x
 _atom_site_fract_y
 _atom_site_fract_z
 _atom_site_occupancy
  Yb  Yb0  1  0.197074  0.393435  0.250000  1
  Yb  Yb1  1  0.802926  0.606565  0.750000  1
  Yb  Yb2  1  0.606565  0.802926  0.250000  1
  Yb  Yb3  1  0.393435  0.197074  0.750000  1
  Er  Er4  1  0.190437  0.809563  0.250000  1
  Er  Er5  1  0.809563  0.190437  0.750000  1
  Al  Al6  1  0.331881  0.668119  0.000411  1
  Al  Al7  1  0.668119  0.331881  0.999589  1
  Al  Al8  1  0.668119  0.331881  0.500411  1
  Al  Al9  1  0.331881  0.668119  0.499589  1
  Al  Al10  1  0.157923  0.315740  0.576985  1
  Al  Al11  1  0.842077  0.684260  0.423015  1
  Al  Al12  1  0.684260  0.842077  0.576985  1
  Al  Al13  1  0.842077  0.684260  0.076985  1
  Al  Al14  1  0.315740  0.157923  0.423015  1
  Al  Al15  1  0.157923  0.315740  0.923015  1
  Al  Al16  1  0.157668  0.842332  0.577848  1
  Al  Al17  1  0.315740  0.157923  0.076985  1
  Al  Al18  1  0.842332  0.157668  0.422152  1
  Al  Al19  1  0.684260  0.842077  0.923015  1
  Al  Al20  1  0.842332  0.157668  0.077848  1
  Al  Al21  1  0.157668  0.842332  0.922152  1
  Al  Al22  1  0.558530  0.118516  0.250000  1
  Al  Al23  1  0.441470  0.881484  0.750000  1
  Al  Al24  1  0.881484  0.441470  0.250000  1
  Al  Al25  1  0.118516  0.558530  0.750000  1
  Al  Al26  1  0.561623  0.438377  0.250000  1
  Al  Al27  1  0.438377  0.561623  0.750000  1
  Al  Al28  1  0.997792  0.002208  0.250000  1
  Al  Al29  1  0.002208  0.997792  0.750000  1
  Co  Co30  1  0.000000  0.000000  0.000000  1
  Co  Co31  1  0.000000  0.000000  0.500000  1
  Ru  Ru32  1  0.500000  0.000000  0.000000  1
  Ru  Ru33  1  0.000000  0.500000  0.000000  1
  Ru  Ru34  1  0.500000  0.000000  0.500000  1
  Ru  Ru35  1  0.500000  0.500000  0.000000  1
  Ru  Ru36  1  0.000000  0.500000  0.500000  1
  Ru  Ru37  1  0.500000  0.500000  0.500000  1
