# generated using pymatgen
data_TmPa(BrN)2
_symmetry_space_group_name_H-M   'P 1'
_cell_length_a   10.79193132
_cell_length_b   10.79193172
_cell_length_c   10.79193190
_cell_angle_alpha   20.79860335
_cell_angle_beta   20.79859825
_cell_angle_gamma   20.79859645
_symmetry_Int_Tables_number   1
_chemical_formula_structural   TmPa(BrN)2
_chemical_formula_sum   'Tm1 Pa1 Br2 N2'
_cell_volume   138.74972274
_cell_formula_units_Z   1
loop_
 _symmetry_equiv_pos_site_id
 _symmetry_equiv_pos_as_xyz
  1  'x, y, z'
loop_
 _atom_site_type_symbol
 _atom_site_label
 _atom_site_symmetry_multiplicity
 _atom_site_fract_x
 _atom_site_fract_y
 _atom_site_fract_z
 _atom_site_occupancy
  Tm  Tm0  1  0.787234  0.787234  0.787234  1
  Pa  Pa1  1  0.207296  0.207296  0.207296  1
  Br  Br2  1  0.606430  0.606430  0.606430  1
  Br  Br3  1  0.394196  0.394196  0.394196  1
  N  N4  1  0.862785  0.862785  0.862785  1
  N  N5  1  0.142059  0.142059  0.142059  1
