# generated using pymatgen
data_Ho3ScAl2Rh3
_symmetry_space_group_name_H-M   'P 1'
_cell_length_a   7.12204800
_cell_length_b   7.11842010
_cell_length_c   4.10503900
_cell_angle_alpha   90.00000000
_cell_angle_beta   90.00000000
_cell_angle_gamma   120.01686051
_symmetry_Int_Tables_number   1
_chemical_formula_structural   Ho3ScAl2Rh3
_chemical_formula_sum   'Ho3 Sc1 Al2 Rh3'
_cell_volume   180.20325008
_cell_formula_units_Z   1
loop_
 _symmetry_equiv_pos_site_id
 _symmetry_equiv_pos_as_xyz
  1  'x, y, z'
loop_
 _atom_site_type_symbol
 _atom_site_label
 _atom_site_symmetry_multiplicity
 _atom_site_fract_x
 _atom_site_fract_y
 _atom_site_fract_z
 _atom_site_occupancy
  Ho  Ho0  1  0.607066  0.000000  0.500000  1
  Ho  Ho1  1  0.417228  0.433891  0.500000  1
  Ho  Ho2  1  0.983338  0.566110  0.500000  1
  Sc  Sc3  1  0.236945  0.000000  0.000000  1
  Al  Al4  1  0.999783  0.243592  0.000000  1
  Al  Al5  1  0.756190  0.756409  0.000000  1
  Rh  Rh6  1  0.669049  0.333357  0.000000  1
  Rh  Rh7  1  0.335692  0.666642  0.000000  1
  Rh  Rh8  1  0.994707  0.000000  0.500000  1
