# generated using pymatgen
data_Lu2AlGaRh2
_symmetry_space_group_name_H-M   'P 1'
_cell_length_a   4.21488500
_cell_length_b   6.74358630
_cell_length_c   7.81497106
_cell_angle_alpha   89.89630315
_cell_angle_beta   90.00000000
_cell_angle_gamma   90.00000000
_symmetry_Int_Tables_number   1
_chemical_formula_structural   Lu2AlGaRh2
_chemical_formula_sum   'Lu4 Al2 Ga2 Rh4'
_cell_volume   222.12800288
_cell_formula_units_Z   2
loop_
 _symmetry_equiv_pos_site_id
 _symmetry_equiv_pos_as_xyz
  1  'x, y, z'
loop_
 _atom_site_type_symbol
 _atom_site_label
 _atom_site_symmetry_multiplicity
 _atom_site_fract_x
 _atom_site_fract_y
 _atom_site_fract_z
 _atom_site_occupancy
  Lu  Lu0  1  0.250000  0.534335  0.185184  1
  Lu  Lu1  1  0.750000  0.465665  0.814816  1
  Lu  Lu2  1  0.250000  0.031858  0.320882  1
  Lu  Lu3  1  0.750000  0.968142  0.679118  1
  Al  Al4  1  0.250000  0.139989  0.937324  1
  Al  Al5  1  0.750000  0.860011  0.062676  1
  Ga  Ga6  1  0.250000  0.647954  0.564744  1
  Ga  Ga7  1  0.750000  0.352046  0.435256  1
  Rh  Rh8  1  0.750000  0.737476  0.378238  1
  Rh  Rh9  1  0.250000  0.262524  0.621762  1
  Rh  Rh10  1  0.750000  0.236621  0.114631  1
  Rh  Rh11  1  0.250000  0.763379  0.885369  1
