# generated using pymatgen
data_LaSmErTaO7
_symmetry_space_group_name_H-M   'P 1'
_cell_length_a   6.55981679
_cell_length_b   6.55981696
_cell_length_c   7.66380100
_cell_angle_alpha   90.00000000
_cell_angle_beta   90.00000000
_cell_angle_gamma   108.96358387
_symmetry_Int_Tables_number   1
_chemical_formula_structural   LaSmErTaO7
_chemical_formula_sum   'La2 Sm2 Er2 Ta2 O14'
_cell_volume   311.88368906
_cell_formula_units_Z   2
loop_
 _symmetry_equiv_pos_site_id
 _symmetry_equiv_pos_as_xyz
  1  'x, y, z'
loop_
 _atom_site_type_symbol
 _atom_site_label
 _atom_site_symmetry_multiplicity
 _atom_site_fract_x
 _atom_site_fract_y
 _atom_site_fract_z
 _atom_site_occupancy
  La  La0  1  0.504768  0.504768  0.500000  1
  La  La1  1  0.504768  0.504768  0.000000  1
  Sm  Sm2  1  0.465208  0.000610  0.250000  1
  Sm  Sm3  1  0.000610  0.465208  0.750000  1
  Er  Er4  1  0.531901  0.001540  0.750000  1
  Er  Er5  1  0.001540  0.531901  0.250000  1
  Ta  Ta6  1  0.000285  0.000285  0.500000  1
  Ta  Ta7  1  0.000285  0.000285  0.000000  1
  O  O8  1  0.680416  0.932490  0.474587  1
  O  O9  1  0.932490  0.680416  0.525413  1
  O  O10  1  0.680416  0.932490  0.025413  1
  O  O11  1  0.932490  0.680416  0.974587  1
  O  O12  1  0.314483  0.063565  0.538128  1
  O  O13  1  0.063565  0.314483  0.461872  1
  O  O14  1  0.314483  0.063565  0.961872  1
  O  O15  1  0.063565  0.314483  0.038128  1
  O  O16  1  0.939086  0.062274  0.750000  1
  O  O17  1  0.062274  0.939086  0.250000  1
  O  O18  1  0.371299  0.643712  0.750000  1
  O  O19  1  0.643712  0.371299  0.250000  1
  O  O20  1  0.638760  0.353595  0.750000  1
  O  O21  1  0.353595  0.638760  0.250000  1
