# generated using pymatgen
data_Nd8GaPbI12
_symmetry_space_group_name_H-M   'P 1'
_cell_length_a   4.36834800
_cell_length_b   14.48554701
_cell_length_c   15.29077900
_cell_angle_alpha   90.06024038
_cell_angle_beta   90.00000000
_cell_angle_gamma   90.00000000
_symmetry_Int_Tables_number   1
_chemical_formula_structural   Nd8GaPbI12
_chemical_formula_sum   'Nd8 Ga1 Pb1 I12'
_cell_volume   967.56800710
_cell_formula_units_Z   1
loop_
 _symmetry_equiv_pos_site_id
 _symmetry_equiv_pos_as_xyz
  1  'x, y, z'
loop_
 _atom_site_type_symbol
 _atom_site_label
 _atom_site_symmetry_multiplicity
 _atom_site_fract_x
 _atom_site_fract_y
 _atom_site_fract_z
 _atom_site_occupancy
  Nd  Nd0  1  0.500000  0.114760  0.346052  1
  Nd  Nd1  1  0.500000  0.885240  0.653948  1
  Nd  Nd2  1  0.500000  0.621541  0.163759  1
  Nd  Nd3  1  0.500000  0.378459  0.836241  1
  Nd  Nd4  1  0.000000  0.113359  0.576083  1
  Nd  Nd5  1  0.000000  0.886641  0.423917  1
  Nd  Nd6  1  0.000000  0.623453  0.917219  1
  Nd  Nd7  1  0.000000  0.376547  0.082781  1
  Ga  Ga8  1  0.500000  0.000000  0.500000  1
  Pb  Pb9  1  0.500000  0.500000  0.000000  1
  I  I10  1  0.500000  0.240516  0.165275  1
  I  I11  1  0.500000  0.759484  0.834725  1
  I  I12  1  0.500000  0.745945  0.337820  1
  I  I13  1  0.500000  0.254055  0.662180  1
  I  I14  1  0.000000  0.259707  0.415408  1
  I  I15  1  0.000000  0.740293  0.584592  1
  I  I16  1  0.000000  0.760662  0.085594  1
  I  I17  1  0.000000  0.239338  0.914406  1
  I  I18  1  0.000000  0.997977  0.239581  1
  I  I19  1  0.000000  0.002023  0.760419  1
  I  I20  1  0.000000  0.497746  0.262085  1
  I  I21  1  0.000000  0.502254  0.737915  1
