# generated using pymatgen
data_Ta6Ga2Co3NiN2
_symmetry_space_group_name_H-M   'P 1'
_cell_length_a   8.06283718
_cell_length_b   8.06283781
_cell_length_c   8.07842400
_cell_angle_alpha   59.93602506
_cell_angle_beta   59.93602248
_cell_angle_gamma   59.85824345
_symmetry_Int_Tables_number   1
_chemical_formula_structural   Ta6Ga2Co3NiN2
_chemical_formula_sum   'Ta12 Ga4 Co6 Ni2 N4'
_cell_volume   370.59562420
_cell_formula_units_Z   2
loop_
 _symmetry_equiv_pos_site_id
 _symmetry_equiv_pos_as_xyz
  1  'x, y, z'
loop_
 _atom_site_type_symbol
 _atom_site_label
 _atom_site_symmetry_multiplicity
 _atom_site_fract_x
 _atom_site_fract_y
 _atom_site_fract_z
 _atom_site_occupancy
  Ta  Ta0  1  0.805677  0.805677  0.194323  1
  Ta  Ta1  1  0.193241  0.193241  0.806759  1
  Ta  Ta2  1  0.805764  0.194898  0.806182  1
  Ta  Ta3  1  0.194898  0.805764  0.193157  1
  Ta  Ta4  1  0.194898  0.805764  0.806182  1
  Ta  Ta5  1  0.805764  0.194898  0.193157  1
  Ta  Ta6  1  0.444713  0.444713  0.055287  1
  Ta  Ta7  1  0.060733  0.060733  0.439267  1
  Ta  Ta8  1  0.442451  0.058320  0.441761  1
  Ta  Ta9  1  0.058320  0.442451  0.057468  1
  Ta  Ta10  1  0.058320  0.442451  0.441761  1
  Ta  Ta11  1  0.442451  0.058320  0.057468  1
  Ga  Ga12  1  0.124353  0.625203  0.625222  1
  Ga  Ga13  1  0.625203  0.124353  0.625222  1
  Ga  Ga14  1  0.625245  0.625245  0.124481  1
  Ga  Ga15  1  0.625245  0.625245  0.625030  1
  Co  Co16  1  0.755463  0.414402  0.415067  1
  Co  Co17  1  0.414402  0.755463  0.415067  1
  Co  Co18  1  0.414377  0.414377  0.756515  1
  Co  Co19  1  0.414377  0.414377  0.414731  1
  Co  Co20  1  0.490857  0.835147  0.836998  1
  Co  Co21  1  0.835147  0.490857  0.836998  1
  Ni  Ni22  1  0.834278  0.834278  0.495502  1
  Ni  Ni23  1  0.834278  0.834278  0.835943  1
  N  N24  1  0.625190  0.125120  0.124845  1
  N  N25  1  0.125120  0.625190  0.124845  1
  N  N26  1  0.124617  0.124617  0.626450  1
  N  N27  1  0.124617  0.124617  0.124316  1
