# generated using pymatgen
data_Gd4RuIO12
_symmetry_space_group_name_H-M   'P 1'
_cell_length_a   5.34910704
_cell_length_b   9.22496500
_cell_length_c   10.07244000
_cell_angle_alpha   90.00000000
_cell_angle_beta   89.42428047
_cell_angle_gamma   90.00000000
_symmetry_Int_Tables_number   1
_chemical_formula_structural   Gd4RuIO12
_chemical_formula_sum   'Gd8 Ru2 I2 O24'
_cell_volume   497.00273606
_cell_formula_units_Z   2
loop_
 _symmetry_equiv_pos_site_id
 _symmetry_equiv_pos_as_xyz
  1  'x, y, z'
loop_
 _atom_site_type_symbol
 _atom_site_label
 _atom_site_symmetry_multiplicity
 _atom_site_fract_x
 _atom_site_fract_y
 _atom_site_fract_z
 _atom_site_occupancy
  Gd  Gd0  1  0.476872  0.889662  0.050159  1
  Gd  Gd1  1  0.039640  0.222414  0.141000  1
  Gd  Gd2  1  0.960360  0.722414  0.359000  1
  Gd  Gd3  1  0.523126  0.389662  0.449841  1
  Gd  Gd4  1  0.021380  0.095858  0.525956  1
  Gd  Gd5  1  0.465054  0.788407  0.626327  1
  Gd  Gd6  1  0.534947  0.288407  0.873673  1
  Gd  Gd7  1  0.978620  0.595858  0.974045  1
  Ru  Ru8  1  0.458992  0.505264  0.146380  1
  Ru  Ru9  1  0.541009  0.005264  0.353620  1
  I  I10  1  0.042045  0.495991  0.647543  1
  I  I11  1  0.957955  0.995991  0.852458  1
  O  O12  1  0.251725  0.408081  0.003444  1
  O  O13  1  0.582029  0.654477  0.021532  1
  O  O14  1  0.734444  0.383289  0.063484  1
  O  O15  1  0.181026  0.646143  0.176563  1
  O  O16  1  0.330894  0.053290  0.204999  1
  O  O17  1  0.697831  0.861541  0.237067  1
  O  O18  1  0.302169  0.361541  0.262933  1
  O  O19  1  0.669107  0.553290  0.295001  1
  O  O20  1  0.818974  0.146143  0.323437  1
  O  O21  1  0.265557  0.883289  0.436516  1
  O  O22  1  0.417969  0.154477  0.478468  1
  O  O23  1  0.748275  0.908081  0.496555  1
  O  O24  1  0.245687  0.582066  0.508361  1
  O  O25  1  0.925692  0.349206  0.530684  1
  O  O26  1  0.776874  0.611245  0.574124  1
  O  O27  1  0.313344  0.368236  0.681878  1
  O  O28  1  0.162895  0.945281  0.707130  1
  O  O29  1  0.825135  0.139550  0.740402  1
  O  O30  1  0.174866  0.639551  0.759597  1
  O  O31  1  0.837105  0.445281  0.792869  1
  O  O32  1  0.686654  0.868236  0.818121  1
  O  O33  1  0.223125  0.111245  0.925876  1
  O  O34  1  0.074308  0.849206  0.969316  1
  O  O35  1  0.754314  0.082066  0.991638  1
