# generated using pymatgen
data_Gd7Dy(NiB14)2
_symmetry_space_group_name_H-M   'P 1'
_cell_length_a   7.27437213
_cell_length_b   7.27515313
_cell_length_c   7.57697500
_cell_angle_alpha   90.00000000
_cell_angle_beta   90.00000000
_cell_angle_gamma   90.06384258
_symmetry_Int_Tables_number   1
_chemical_formula_structural   Gd7Dy(NiB14)2
_chemical_formula_sum   'Gd7 Dy1 Ni2 B28'
_cell_volume   400.98971887
_cell_formula_units_Z   1
loop_
 _symmetry_equiv_pos_site_id
 _symmetry_equiv_pos_as_xyz
  1  'x, y, z'
loop_
 _atom_site_type_symbol
 _atom_site_label
 _atom_site_symmetry_multiplicity
 _atom_site_fract_x
 _atom_site_fract_y
 _atom_site_fract_z
 _atom_site_occupancy
  Gd  Gd0  1  0.193834  0.331477  0.000000  1
  Gd  Gd1  1  0.668787  0.193984  0.000000  1
  Gd  Gd2  1  0.331360  0.805964  0.000000  1
  Gd  Gd3  1  0.694248  0.168873  0.500000  1
  Gd  Gd4  1  0.305962  0.831177  0.500000  1
  Gd  Gd5  1  0.806012  0.668685  0.000000  1
  Gd  Gd6  1  0.831027  0.693920  0.500000  1
  Dy  Dy7  1  0.168227  0.306198  0.500000  1
  Ni  Ni8  1  0.000214  0.999997  0.000000  1
  Ni  Ni9  1  0.499144  0.499370  0.500000  1
  B  B10  1  0.174170  0.039946  0.233394  1
  B  B11  1  0.961218  0.174366  0.233614  1
  B  B12  1  0.039379  0.826162  0.233553  1
  B  B13  1  0.673828  0.460620  0.267042  1
  B  B14  1  0.325722  0.539003  0.267295  1
  B  B15  1  0.826249  0.960619  0.233453  1
  B  B16  1  0.539375  0.673802  0.266943  1
  B  B17  1  0.460129  0.325734  0.267292  1
  B  B18  1  0.826249  0.960619  0.766547  1
  B  B19  1  0.039379  0.826162  0.766447  1
  B  B20  1  0.961218  0.174366  0.766386  1
  B  B21  1  0.325722  0.539003  0.732705  1
  B  B22  1  0.673828  0.460620  0.732958  1
  B  B23  1  0.174170  0.039946  0.766606  1
  B  B24  1  0.460129  0.325734  0.732708  1
  B  B25  1  0.539375  0.673802  0.733057  1
  B  B26  1  0.089964  0.589781  0.250629  1
  B  B27  1  0.410357  0.089739  0.250243  1
  B  B28  1  0.589822  0.910201  0.250216  1
  B  B29  1  0.910306  0.410112  0.250764  1
  B  B30  1  0.910306  0.410112  0.749236  1
  B  B31  1  0.589822  0.910201  0.749784  1
  B  B32  1  0.410357  0.089739  0.749757  1
  B  B33  1  0.089964  0.589781  0.749371  1
  B  B34  1  0.000333  0.000440  0.388947  1
  B  B35  1  0.499743  0.499654  0.111415  1
  B  B36  1  0.000333  0.000440  0.611053  1
  B  B37  1  0.499743  0.499654  0.888585  1
