# generated using pymatgen
data_Ce4NbSi3
_symmetry_space_group_name_H-M   'P 1'
_cell_length_a   5.58667916
_cell_length_b   8.46328668
_cell_length_c   8.46328728
_cell_angle_alpha   83.75879724
_cell_angle_beta   70.75179129
_cell_angle_gamma   70.75178726
_symmetry_Int_Tables_number   1
_chemical_formula_structural   Ce4NbSi3
_chemical_formula_sum   'Ce8 Nb2 Si6'
_cell_volume   356.67053359
_cell_formula_units_Z   2
loop_
 _symmetry_equiv_pos_site_id
 _symmetry_equiv_pos_as_xyz
  1  'x, y, z'
loop_
 _atom_site_type_symbol
 _atom_site_label
 _atom_site_symmetry_multiplicity
 _atom_site_fract_x
 _atom_site_fract_y
 _atom_site_fract_z
 _atom_site_occupancy
  Ce  Ce0  1  0.094141  0.133976  0.677549  1
  Ce  Ce1  1  0.905859  0.866024  0.322451  1
  Ce  Ce2  1  0.771936  0.322345  0.133991  1
  Ce  Ce3  1  0.405859  0.322451  0.866024  1
  Ce  Ce4  1  0.228064  0.677655  0.866009  1
  Ce  Ce5  1  0.594141  0.677549  0.133976  1
  Ce  Ce6  1  0.728064  0.866009  0.677655  1
  Ce  Ce7  1  0.271936  0.133991  0.322345  1
  Nb  Nb8  1  0.250000  0.499849  0.500151  1
  Nb  Nb9  1  0.750000  0.500151  0.499849  1
  Si  Si10  1  0.144436  0.500011  0.211194  1
  Si  Si11  1  0.855564  0.499989  0.788806  1
  Si  Si12  1  0.355564  0.788806  0.499989  1
  Si  Si13  1  0.644436  0.211194  0.500011  1
  Si  Si14  1  0.250000  0.000008  0.999992  1
  Si  Si15  1  0.750000  0.999992  0.000008  1
