# generated using pymatgen
data_La11Zn2In9Rh2
_symmetry_space_group_name_H-M   'P 1'
_cell_length_a   13.80168498
_cell_length_b   13.63803790
_cell_length_c   3.91792200
_cell_angle_alpha   90.00000000
_cell_angle_beta   90.00000000
_cell_angle_gamma   111.67860554
_symmetry_Int_Tables_number   1
_chemical_formula_structural   La11Zn2In9Rh2
_chemical_formula_sum   'La11 Zn2 In9 Rh2'
_cell_volume   685.30195850
_cell_formula_units_Z   1
loop_
 _symmetry_equiv_pos_site_id
 _symmetry_equiv_pos_as_xyz
  1  'x, y, z'
loop_
 _atom_site_type_symbol
 _atom_site_label
 _atom_site_symmetry_multiplicity
 _atom_site_fract_x
 _atom_site_fract_y
 _atom_site_fract_z
 _atom_site_occupancy
  La  La0  1  0.315911  0.301890  0.000000  1
  La  La1  1  0.684089  0.698110  0.000000  1
  La  La2  1  0.000000  0.000000  0.000000  1
  La  La3  1  0.064504  0.416864  0.000000  1
  La  La4  1  0.935496  0.583136  0.000000  1
  La  La5  1  0.418249  0.072303  0.000000  1
  La  La6  1  0.581751  0.927697  0.000000  1
  La  La7  1  0.840482  0.163237  0.000000  1
  La  La8  1  0.159518  0.836763  0.000000  1
  La  La9  1  0.615361  0.360247  0.000000  1
  La  La10  1  0.384639  0.639753  0.000000  1
  Zn  Zn11  1  0.248071  0.451920  0.500000  1
  Zn  Zn12  1  0.751929  0.548080  0.500000  1
  In  In13  1  0.835513  0.367792  0.500000  1
  In  In14  1  0.164487  0.632208  0.500000  1
  In  In15  1  0.366439  0.839795  0.500000  1
  In  In16  1  0.633561  0.160205  0.500000  1
  In  In17  1  0.078620  0.220857  0.500000  1
  In  In18  1  0.921380  0.779143  0.500000  1
  In  In19  1  0.219454  0.076619  0.500000  1
  In  In20  1  0.780546  0.923381  0.500000  1
  In  In21  1  0.500000  0.500000  0.500000  1
  Rh  Rh22  1  0.446475  0.242233  0.500000  1
  Rh  Rh23  1  0.553525  0.757767  0.500000  1
