# generated using pymatgen
data_Rb6ReGeS8
_symmetry_space_group_name_H-M   'P 1'
_cell_length_a   9.63229400
_cell_length_b   9.70759800
_cell_length_c   11.18942400
_cell_angle_alpha   90.00000000
_cell_angle_beta   90.00000000
_cell_angle_gamma   90.00000000
_symmetry_Int_Tables_number   1
_chemical_formula_structural   Rb6ReGeS8
_chemical_formula_sum   'Rb12 Re2 Ge2 S16'
_cell_volume   1046.28318117
_cell_formula_units_Z   2
loop_
 _symmetry_equiv_pos_site_id
 _symmetry_equiv_pos_as_xyz
  1  'x, y, z'
loop_
 _atom_site_type_symbol
 _atom_site_label
 _atom_site_symmetry_multiplicity
 _atom_site_fract_x
 _atom_site_fract_y
 _atom_site_fract_z
 _atom_site_occupancy
  Rb  Rb0  1  0.545041  0.208230  0.060200  1
  Rb  Rb1  1  0.045041  0.291770  0.439800  1
  Rb  Rb2  1  0.453302  0.795351  0.524068  1
  Rb  Rb3  1  0.953302  0.704649  0.975932  1
  Rb  Rb4  1  0.453302  0.795351  0.975932  1
  Rb  Rb5  1  0.953302  0.704649  0.524068  1
  Rb  Rb6  1  0.545041  0.208230  0.439800  1
  Rb  Rb7  1  0.045041  0.291770  0.060200  1
  Rb  Rb8  1  0.649170  0.417434  0.750000  1
  Rb  Rb9  1  0.149170  0.082566  0.750000  1
  Rb  Rb10  1  0.357738  0.583191  0.250000  1
  Rb  Rb11  1  0.857738  0.916809  0.250000  1
  Re  Re12  1  0.722482  0.983861  0.750000  1
  Re  Re13  1  0.222482  0.516139  0.750000  1
  Ge  Ge14  1  0.275123  0.018385  0.250000  1
  Ge  Ge15  1  0.775123  0.481615  0.250000  1
  S  S16  1  0.833649  0.050013  0.589668  1
  S  S17  1  0.333649  0.449987  0.910332  1
  S  S18  1  0.164435  0.955273  0.080554  1
  S  S19  1  0.664435  0.544727  0.419446  1
  S  S20  1  0.164435  0.955273  0.419446  1
  S  S21  1  0.664435  0.544727  0.080554  1
  S  S22  1  0.833649  0.050013  0.910332  1
  S  S23  1  0.333649  0.449987  0.589668  1
  S  S24  1  0.512104  0.073779  0.750000  1
  S  S25  1  0.012104  0.426221  0.750000  1
  S  S26  1  0.488804  0.924701  0.250000  1
  S  S27  1  0.988804  0.575299  0.250000  1
  S  S28  1  0.707831  0.758140  0.750000  1
  S  S29  1  0.207831  0.741860  0.750000  1
  S  S30  1  0.293894  0.249717  0.250000  1
  S  S31  1  0.793894  0.250283  0.250000  1
