# generated using pymatgen
data_GdThCSe
_symmetry_space_group_name_H-M   'P 1'
_cell_length_a   7.13954934
_cell_length_b   7.13954885
_cell_length_c   7.13954917
_cell_angle_alpha   31.39357733
_cell_angle_beta   31.39358004
_cell_angle_gamma   31.39358825
_symmetry_Int_Tables_number   1
_chemical_formula_structural   GdThCSe
_chemical_formula_sum   'Gd1 Th1 C1 Se1'
_cell_volume   87.65726509
_cell_formula_units_Z   1
loop_
 _symmetry_equiv_pos_site_id
 _symmetry_equiv_pos_as_xyz
  1  'x, y, z'
loop_
 _atom_site_type_symbol
 _atom_site_label
 _atom_site_symmetry_multiplicity
 _atom_site_fract_x
 _atom_site_fract_y
 _atom_site_fract_z
 _atom_site_occupancy
  Gd  Gd0  1  0.986408  0.986408  0.986408  1
  Th  Th1  1  0.516985  0.516985  0.516985  1
  C  C2  1  0.248526  0.248526  0.248526  1
  Se  Se3  1  0.748081  0.748081  0.748081  1
