# generated using pymatgen
data_Y4HfTi(GaIr2)2
_symmetry_space_group_name_H-M   'P 1'
_cell_length_a   4.43719400
_cell_length_b   6.97548803
_cell_length_c   7.90527033
_cell_angle_alpha   90.77347215
_cell_angle_beta   90.00000000
_cell_angle_gamma   90.00000000
_symmetry_Int_Tables_number   1
_chemical_formula_structural   Y4HfTi(GaIr2)2
_chemical_formula_sum   'Y4 Hf1 Ti1 Ga2 Ir4'
_cell_volume   244.65841995
_cell_formula_units_Z   1
loop_
 _symmetry_equiv_pos_site_id
 _symmetry_equiv_pos_as_xyz
  1  'x, y, z'
loop_
 _atom_site_type_symbol
 _atom_site_label
 _atom_site_symmetry_multiplicity
 _atom_site_fract_x
 _atom_site_fract_y
 _atom_site_fract_z
 _atom_site_occupancy
  Y  Y0  1  0.250000  0.974228  0.299173  1
  Y  Y1  1  0.250000  0.482115  0.172544  1
  Y  Y2  1  0.750000  0.016834  0.697396  1
  Y  Y3  1  0.750000  0.527352  0.833964  1
  Hf  Hf4  1  0.250000  0.358502  0.576755  1
  Ti  Ti5  1  0.750000  0.636436  0.424230  1
  Ga  Ga6  1  0.250000  0.839960  0.923718  1
  Ga  Ga7  1  0.750000  0.159425  0.070766  1
  Ir  Ir8  1  0.250000  0.220328  0.890560  1
  Ir  Ir9  1  0.250000  0.728782  0.595373  1
  Ir  Ir10  1  0.750000  0.780154  0.119373  1
  Ir  Ir11  1  0.750000  0.275882  0.396151  1
