# generated using pymatgen
data_Tb4RuCl4
_symmetry_space_group_name_H-M   'P 1'
_cell_length_a   8.64429442
_cell_length_b   8.64429486
_cell_length_c   6.54316174
_cell_angle_alpha   89.95089333
_cell_angle_beta   89.95089826
_cell_angle_gamma   89.47141860
_symmetry_Int_Tables_number   1
_chemical_formula_structural   Tb4RuCl4
_chemical_formula_sum   'Tb8 Ru2 Cl8'
_cell_volume   488.90894220
_cell_formula_units_Z   2
loop_
 _symmetry_equiv_pos_site_id
 _symmetry_equiv_pos_as_xyz
  1  'x, y, z'
loop_
 _atom_site_type_symbol
 _atom_site_label
 _atom_site_symmetry_multiplicity
 _atom_site_fract_x
 _atom_site_fract_y
 _atom_site_fract_z
 _atom_site_occupancy
  Tb  Tb0  1  0.105133  0.741723  0.988350  1
  Tb  Tb1  1  0.258277  0.894867  0.511650  1
  Tb  Tb2  1  0.894867  0.258277  0.011650  1
  Tb  Tb3  1  0.741723  0.105133  0.488350  1
  Tb  Tb4  1  0.742553  0.895666  0.005166  1
  Tb  Tb5  1  0.104334  0.257447  0.494834  1
  Tb  Tb6  1  0.257447  0.104334  0.994834  1
  Tb  Tb7  1  0.895666  0.742553  0.505166  1
  Ru  Ru8  1  0.006489  0.993511  0.250000  1
  Ru  Ru9  1  0.993511  0.006489  0.750000  1
  Cl  Cl10  1  0.418120  0.821534  0.903644  1
  Cl  Cl11  1  0.178466  0.581880  0.596356  1
  Cl  Cl12  1  0.581880  0.178466  0.096356  1
  Cl  Cl13  1  0.821534  0.418120  0.403644  1
  Cl  Cl14  1  0.815513  0.584184  0.905015  1
  Cl  Cl15  1  0.415816  0.184487  0.594985  1
  Cl  Cl16  1  0.184487  0.415816  0.094985  1
  Cl  Cl17  1  0.584184  0.815513  0.405015  1
