# generated using pymatgen
data_Tb2Er4Al24Os5Pd3
_symmetry_space_group_name_H-M   'P 1'
_cell_length_a   8.82930060
_cell_length_b   8.85749227
_cell_length_c   9.55592839
_cell_angle_alpha   90.26398545
_cell_angle_beta   89.83419513
_cell_angle_gamma   119.95718564
_symmetry_Int_Tables_number   1
_chemical_formula_structural   Tb2Er4Al24Os5Pd3
_chemical_formula_sum   'Tb2 Er4 Al24 Os5 Pd3'
_cell_volume   647.47513698
_cell_formula_units_Z   1
loop_
 _symmetry_equiv_pos_site_id
 _symmetry_equiv_pos_as_xyz
  1  'x, y, z'
loop_
 _atom_site_type_symbol
 _atom_site_label
 _atom_site_symmetry_multiplicity
 _atom_site_fract_x
 _atom_site_fract_y
 _atom_site_fract_z
 _atom_site_occupancy
  Tb  Tb0  1  0.194045  0.811833  0.251392  1
  Tb  Tb1  1  0.805955  0.188167  0.748608  1
  Er  Er2  1  0.200017  0.386867  0.252121  1
  Er  Er3  1  0.799983  0.613133  0.747879  1
  Er  Er4  1  0.611086  0.803088  0.251016  1
  Er  Er5  1  0.388914  0.196912  0.748984  1
  Al  Al6  1  0.334710  0.664397  0.028869  1
  Al  Al7  1  0.665290  0.335603  0.971131  1
  Al  Al8  1  0.662470  0.330898  0.526207  1
  Al  Al9  1  0.337530  0.669102  0.473793  1
  Al  Al10  1  0.168076  0.325405  0.577742  1
  Al  Al11  1  0.831924  0.674595  0.422258  1
  Al  Al12  1  0.671003  0.835345  0.575231  1
  Al  Al13  1  0.831756  0.674744  0.077608  1
  Al  Al14  1  0.328997  0.164655  0.424769  1
  Al  Al15  1  0.168244  0.325256  0.922392  1
  Al  Al16  1  0.167592  0.843302  0.578891  1
  Al  Al17  1  0.326403  0.169292  0.079014  1
  Al  Al18  1  0.832408  0.156698  0.421109  1
  Al  Al19  1  0.673597  0.830708  0.920986  1
  Al  Al20  1  0.839554  0.162734  0.081910  1
  Al  Al21  1  0.160446  0.837266  0.918090  1
  Al  Al22  1  0.563176  0.125502  0.252153  1
  Al  Al23  1  0.436824  0.874498  0.747847  1
  Al  Al24  1  0.876182  0.437904  0.249959  1
  Al  Al25  1  0.123818  0.562096  0.750041  1
  Al  Al26  1  0.562217  0.438895  0.249641  1
  Al  Al27  1  0.437783  0.561105  0.750359  1
  Al  Al28  1  0.001194  0.001691  0.250269  1
  Al  Al29  1  0.998806  0.998309  0.749731  1
  Os  Os30  1  0.500000  0.000000  0.500000  1
  Os  Os31  1  0.500000  0.500000  0.000000  1
  Os  Os32  1  0.500000  0.500000  0.500000  1
  Os  Os33  1  0.000000  0.000000  0.000000  1
  Os  Os34  1  0.000000  0.000000  0.500000  1
  Pd  Pd35  1  0.500000  0.000000  0.000000  1
  Pd  Pd36  1  0.000000  0.500000  0.000000  1
  Pd  Pd37  1  0.000000  0.500000  0.500000  1
