# generated using pymatgen
data_Gd2Tm5LuMo3WO24
_symmetry_space_group_name_H-M   'P 1'
_cell_length_a   5.36744104
_cell_length_b   7.66895320
_cell_length_c   11.40768100
_cell_angle_alpha   75.31335279
_cell_angle_beta   90.00732284
_cell_angle_gamma   90.02136371
_symmetry_Int_Tables_number   1
_chemical_formula_structural   Gd2Tm5LuMo3WO24
_chemical_formula_sum   'Gd2 Tm5 Lu1 Mo3 W1 O24'
_cell_volume   454.22805821
_cell_formula_units_Z   1
loop_
 _symmetry_equiv_pos_site_id
 _symmetry_equiv_pos_as_xyz
  1  'x, y, z'
loop_
 _atom_site_type_symbol
 _atom_site_label
 _atom_site_symmetry_multiplicity
 _atom_site_fract_x
 _atom_site_fract_y
 _atom_site_fract_z
 _atom_site_occupancy
  Gd  Gd0  1  0.316437  0.500099  0.750380  1
  Gd  Gd1  1  0.682881  0.501941  0.250018  1
  Tm  Tm2  1  0.258540  0.999568  0.749228  1
  Tm  Tm3  1  0.184841  0.795768  0.078527  1
  Tm  Tm4  1  0.180233  0.201587  0.422809  1
  Tm  Tm5  1  0.741953  0.998812  0.250452  1
  Tm  Tm6  1  0.817258  0.202013  0.920927  1
  Lu  Lu7  1  0.817278  0.797748  0.579303  1
  Mo  Mo8  1  0.745246  0.725109  0.885486  1
  Mo  Mo9  1  0.255318  0.725206  0.386676  1
  Mo  Mo10  1  0.744122  0.275554  0.614350  1
  W  W11  1  0.255238  0.273125  0.115581  1
  O  O12  1  0.539673  0.154802  0.069381  1
  O  O13  1  0.043058  0.058251  0.104587  1
  O  O14  1  0.014748  0.718439  0.767093  1
  O  O15  1  0.463464  0.155409  0.569885  1
  O  O16  1  0.348686  0.491229  0.387091  1
  O  O17  1  0.959867  0.057397  0.602696  1
  O  O18  1  0.539296  0.794253  0.722408  1
  O  O19  1  0.461764  0.794620  0.224413  1
  O  O20  1  0.147699  0.638178  0.548115  1
  O  O21  1  0.038009  0.941088  0.397295  1
  O  O22  1  0.464986  0.845379  0.928684  1
  O  O23  1  0.456667  0.204176  0.275393  1
  O  O24  1  0.849535  0.362635  0.452222  1
  O  O25  1  0.650269  0.491480  0.886015  1
  O  O26  1  0.352565  0.510365  0.114015  1
  O  O27  1  0.963046  0.940910  0.897093  1
  O  O28  1  0.537119  0.844172  0.431206  1
  O  O29  1  0.981354  0.283667  0.231284  1
  O  O30  1  0.538012  0.206730  0.775636  1
  O  O31  1  0.850410  0.637602  0.047416  1
  O  O32  1  0.015904  0.281653  0.730669  1
  O  O33  1  0.147758  0.362649  0.951905  1
  O  O34  1  0.984706  0.718369  0.268260  1
  O  O35  1  0.652061  0.510022  0.613499  1
