# generated using pymatgen
data_Y3TlCd3GaAg
_symmetry_space_group_name_H-M   'P 1'
_cell_length_a   7.54234300
_cell_length_b   7.54234269
_cell_length_c   4.36883500
_cell_angle_alpha   90.00000000
_cell_angle_beta   90.00000000
_cell_angle_gamma   120.00000573
_symmetry_Int_Tables_number   1
_chemical_formula_structural   Y3TlCd3GaAg
_chemical_formula_sum   'Y3 Tl1 Cd3 Ga1 Ag1'
_cell_volume   215.23296541
_cell_formula_units_Z   1
loop_
 _symmetry_equiv_pos_site_id
 _symmetry_equiv_pos_as_xyz
  1  'x, y, z'
loop_
 _atom_site_type_symbol
 _atom_site_label
 _atom_site_symmetry_multiplicity
 _atom_site_fract_x
 _atom_site_fract_y
 _atom_site_fract_z
 _atom_site_occupancy
  Y  Y0  1  0.589505  0.012885  0.000000  1
  Y  Y1  1  0.987115  0.576621  0.000000  1
  Y  Y2  1  0.423379  0.410495  0.000000  1
  Tl  Tl3  1  0.333333  0.666667  0.500000  1
  Cd  Cd4  1  0.252159  0.012238  0.500000  1
  Cd  Cd5  1  0.987762  0.239922  0.500000  1
  Cd  Cd6  1  0.760078  0.747841  0.500000  1
  Ga  Ga7  1  0.666667  0.333333  0.500000  1
  Ag  Ag8  1  0.000000  0.000000  0.000000  1
