# generated using pymatgen
data_Y3Be2Ir5
_symmetry_space_group_name_H-M   'P 1'
_cell_length_a   9.86555200
_cell_length_b   9.86555200
_cell_length_c   3.39311800
_cell_angle_alpha   90.00000000
_cell_angle_beta   90.00000000
_cell_angle_gamma   90.00000000
_symmetry_Int_Tables_number   1
_chemical_formula_structural   Y3Be2Ir5
_chemical_formula_sum   'Y6 Be4 Ir10'
_cell_volume   330.24917632
_cell_formula_units_Z   2
loop_
 _symmetry_equiv_pos_site_id
 _symmetry_equiv_pos_as_xyz
  1  'x, y, z'
loop_
 _atom_site_type_symbol
 _atom_site_label
 _atom_site_symmetry_multiplicity
 _atom_site_fract_x
 _atom_site_fract_y
 _atom_site_fract_z
 _atom_site_occupancy
  Y  Y0  1  0.176305  0.676305  0.000000  1
  Y  Y1  1  0.323695  0.176305  0.000000  1
  Y  Y2  1  0.823695  0.323695  0.000000  1
  Y  Y3  1  0.500000  0.500000  0.000000  1
  Y  Y4  1  0.676305  0.823695  0.000000  1
  Y  Y5  1  0.000000  0.000000  0.000000  1
  Be  Be6  1  0.380131  0.880131  0.000000  1
  Be  Be7  1  0.119869  0.380131  0.000000  1
  Be  Be8  1  0.880131  0.619869  0.000000  1
  Be  Be9  1  0.619869  0.119869  0.000000  1
  Ir  Ir10  1  0.224719  0.930311  0.500000  1
  Ir  Ir11  1  0.930311  0.775281  0.500000  1
  Ir  Ir12  1  0.430311  0.724719  0.500000  1
  Ir  Ir13  1  0.569689  0.275281  0.500000  1
  Ir  Ir14  1  0.724719  0.569689  0.500000  1
  Ir  Ir15  1  0.275281  0.430311  0.500000  1
  Ir  Ir16  1  0.069689  0.224719  0.500000  1
  Ir  Ir17  1  0.000000  0.500000  0.500000  1
  Ir  Ir18  1  0.500000  0.000000  0.500000  1
  Ir  Ir19  1  0.775281  0.069689  0.500000  1
