# generated using pymatgen
data_Dy12ZnSi4Pb
_symmetry_space_group_name_H-M   'P 1'
_cell_length_a   8.47678640
_cell_length_b   8.47678688
_cell_length_c   8.47678700
_cell_angle_alpha   112.12691502
_cell_angle_beta   111.53899004
_cell_angle_gamma   104.84506807
_symmetry_Int_Tables_number   1
_chemical_formula_structural   Dy12ZnSi4Pb
_chemical_formula_sum   'Dy12 Zn1 Si4 Pb1'
_cell_volume   466.60944425
_cell_formula_units_Z   1
loop_
 _symmetry_equiv_pos_site_id
 _symmetry_equiv_pos_as_xyz
  1  'x, y, z'
loop_
 _atom_site_type_symbol
 _atom_site_label
 _atom_site_symmetry_multiplicity
 _atom_site_fract_x
 _atom_site_fract_y
 _atom_site_fract_z
 _atom_site_occupancy
  Dy  Dy0  1  0.432608  0.233609  0.198999  1
  Dy  Dy1  1  0.567392  0.766391  0.801001  1
  Dy  Dy2  1  0.034609  0.233609  0.801001  1
  Dy  Dy3  1  0.965391  0.766391  0.198999  1
  Dy  Dy4  1  0.180030  0.270219  0.450248  1
  Dy  Dy5  1  0.819970  0.729781  0.549752  1
  Dy  Dy6  1  0.180030  0.729781  0.909811  1
  Dy  Dy7  1  0.819970  0.270219  0.090189  1
  Dy  Dy8  1  0.319444  0.618874  0.299430  1
  Dy  Dy9  1  0.680556  0.381126  0.700570  1
  Dy  Dy10  1  0.319444  0.020013  0.700570  1
  Dy  Dy11  1  0.680556  0.979987  0.299430  1
  Zn  Zn12  1  0.000000  0.000000  0.000000  1
  Si  Si13  1  0.366363  0.000000  0.366363  1
  Si  Si14  1  0.633637  0.000000  0.633637  1
  Si  Si15  1  0.115369  0.615369  0.500000  1
  Si  Si16  1  0.884631  0.384631  0.500000  1
  Pb  Pb17  1  0.500000  0.500000  0.000000  1
