# generated using pymatgen
data_Al3Fe(PbI8)2
_symmetry_space_group_name_H-M   'P 1'
_cell_length_a   8.34413602
_cell_length_b   8.57856370
_cell_length_c   15.74836200
_cell_angle_alpha   87.48478209
_cell_angle_beta   90.00357063
_cell_angle_gamma   90.00977438
_symmetry_Int_Tables_number   1
_chemical_formula_structural   Al3Fe(PbI8)2
_chemical_formula_sum   'Al3 Fe1 Pb2 I16'
_cell_volume   1126.19277533
_cell_formula_units_Z   1
loop_
 _symmetry_equiv_pos_site_id
 _symmetry_equiv_pos_as_xyz
  1  'x, y, z'
loop_
 _atom_site_type_symbol
 _atom_site_label
 _atom_site_symmetry_multiplicity
 _atom_site_fract_x
 _atom_site_fract_y
 _atom_site_fract_z
 _atom_site_occupancy
  Al  Al0  1  0.064717  0.219617  0.079242  1
  Al  Al1  1  0.570197  0.641914  0.778575  1
  Al  Al2  1  0.429895  0.642097  0.278330  1
  Fe  Fe3  1  0.934824  0.218741  0.580185  1
  Pb  Pb4  1  0.756075  0.077124  0.809348  1
  Pb  Pb5  1  0.244698  0.074408  0.311687  1
  I  I6  1  0.426429  0.615668  0.640367  1
  I  I7  1  0.574032  0.615748  0.140591  1
  I  I8  1  0.867833  0.728072  0.759966  1
  I  I9  1  0.132070  0.727698  0.260255  1
  I  I10  1  0.938872  0.473066  0.498119  1
  I  I11  1  0.060661  0.475193  0.996730  1
  I  I12  1  0.923034  0.996755  0.002327  1
  I  I13  1  0.077346  0.001010  0.500032  1
  I  I14  1  0.643349  0.130725  0.615439  1
  I  I15  1  0.356019  0.128552  0.114612  1
  I  I16  1  0.560161  0.389075  0.875092  1
  I  I17  1  0.439635  0.389826  0.375677  1
  I  I18  1  0.442729  0.859818  0.866562  1
  I  I19  1  0.558504  0.859386  0.366670  1
  I  I20  1  0.926545  0.233954  0.227356  1
  I  I21  1  0.072375  0.236346  0.727244  1
