# generated using pymatgen
data_CeHoGaRu2
_symmetry_space_group_name_H-M   'P 1'
_cell_length_a   5.65808827
_cell_length_b   5.65808809
_cell_length_c   7.02110900
_cell_angle_alpha   86.03712443
_cell_angle_beta   93.96287545
_cell_angle_gamma   117.00084231
_symmetry_Int_Tables_number   1
_chemical_formula_structural   CeHoGaRu2
_chemical_formula_sum   'Ce2 Ho2 Ga2 Ru4'
_cell_volume   199.61421444
_cell_formula_units_Z   2
loop_
 _symmetry_equiv_pos_site_id
 _symmetry_equiv_pos_as_xyz
  1  'x, y, z'
loop_
 _atom_site_type_symbol
 _atom_site_label
 _atom_site_symmetry_multiplicity
 _atom_site_fract_x
 _atom_site_fract_y
 _atom_site_fract_z
 _atom_site_occupancy
  Ce  Ce0  1  0.168060  0.831940  0.587510  1
  Ce  Ce1  1  0.831940  0.168060  0.412490  1
  Ho  Ho2  1  0.344018  0.655982  0.088658  1
  Ho  Ho3  1  0.655982  0.344018  0.911342  1
  Ga  Ga4  1  0.000000  0.000000  0.000000  1
  Ga  Ga5  1  0.500000  0.500000  0.500000  1
  Ru  Ru6  1  0.864170  0.635912  0.262732  1
  Ru  Ru7  1  0.635912  0.864170  0.737268  1
  Ru  Ru8  1  0.135830  0.364088  0.737268  1
  Ru  Ru9  1  0.364088  0.135830  0.262732  1
