# generated using pymatgen
data_La9Pr7MgHg3Ir4
_symmetry_space_group_name_H-M   'P 1'
_cell_length_a   10.04483660
_cell_length_b   10.09799452
_cell_length_c   10.11267000
_cell_angle_alpha   59.95191992
_cell_angle_beta   59.77636457
_cell_angle_gamma   60.24784445
_symmetry_Int_Tables_number   1
_chemical_formula_structural   La9Pr7MgHg3Ir4
_chemical_formula_sum   'La9 Pr7 Mg1 Hg3 Ir4'
_cell_volume   725.16267036
_cell_formula_units_Z   1
loop_
 _symmetry_equiv_pos_site_id
 _symmetry_equiv_pos_as_xyz
  1  'x, y, z'
loop_
 _atom_site_type_symbol
 _atom_site_label
 _atom_site_symmetry_multiplicity
 _atom_site_fract_x
 _atom_site_fract_y
 _atom_site_fract_z
 _atom_site_occupancy
  La  La0  1  0.347106  0.346493  0.347459  1
  La  La1  1  0.347106  0.346493  0.958943  1
  La  La2  1  0.348421  0.960506  0.345538  1
  La  La3  1  0.951899  0.351779  0.348162  1
  La  La4  1  0.805102  0.191473  0.194385  1
  La  La5  1  0.185389  0.809934  0.812713  1
  La  La6  1  0.185389  0.809934  0.191965  1
  La  La7  1  0.805102  0.191473  0.809042  1
  La  La8  1  0.187912  0.188804  0.811642  1
  Pr  Pr9  1  0.801015  0.803891  0.197547  1
  Pr  Pr10  1  0.938369  0.563407  0.564419  1
  Pr  Pr11  1  0.561061  0.937481  0.937077  1
  Pr  Pr12  1  0.561061  0.937481  0.564381  1
  Pr  Pr13  1  0.938369  0.563407  0.933806  1
  Pr  Pr14  1  0.559899  0.562755  0.938673  1
  Pr  Pr15  1  0.938772  0.937358  0.561935  1
  Mg  Mg16  1  0.292164  0.568726  0.569555  1
  Hg  Hg17  1  0.582056  0.588302  0.585484  1
  Hg  Hg18  1  0.582056  0.588302  0.244157  1
  Hg  Hg19  1  0.582245  0.243806  0.586974  1
  Ir  Ir20  1  0.138868  0.141575  0.141567  1
  Ir  Ir21  1  0.138868  0.141575  0.577990  1
  Ir  Ir22  1  0.146164  0.577659  0.138088  1
  Ir  Ir23  1  0.575608  0.147389  0.138501  1
