# generated using pymatgen
data_Dy4VOsRu6
_symmetry_space_group_name_H-M   'P 1'
_cell_length_a   5.44949900
_cell_length_b   5.19155077
_cell_length_c   8.87369200
_cell_angle_alpha   90.00000000
_cell_angle_beta   90.00000000
_cell_angle_gamma   121.65323948
_symmetry_Int_Tables_number   1
_chemical_formula_structural   Dy4VOsRu6
_chemical_formula_sum   'Dy4 V1 Os1 Ru6'
_cell_volume   213.70264205
_cell_formula_units_Z   1
loop_
 _symmetry_equiv_pos_site_id
 _symmetry_equiv_pos_as_xyz
  1  'x, y, z'
loop_
 _atom_site_type_symbol
 _atom_site_label
 _atom_site_symmetry_multiplicity
 _atom_site_fract_x
 _atom_site_fract_y
 _atom_site_fract_z
 _atom_site_occupancy
  Dy  Dy0  1  0.667620  0.335237  0.567898  1
  Dy  Dy1  1  0.333131  0.665602  0.436611  1
  Dy  Dy2  1  0.333131  0.665602  0.063389  1
  Dy  Dy3  1  0.667620  0.335237  0.932102  1
  V  V4  1  0.831378  0.661445  0.250000  1
  Os  Os5  1  0.163032  0.325997  0.750000  1
  Ru  Ru6  1  0.997834  0.997202  0.496411  1
  Ru  Ru7  1  0.997834  0.997202  0.003589  1
  Ru  Ru8  1  0.167747  0.819491  0.750000  1
  Ru  Ru9  1  0.652468  0.819401  0.750000  1
  Ru  Ru10  1  0.836124  0.189492  0.250000  1
  Ru  Ru11  1  0.352082  0.188096  0.250000  1
