# generated using pymatgen
data_Hf8Ti9Nb3(Ge3P)4
_symmetry_space_group_name_H-M   'P 1'
_cell_length_a   6.68266680
_cell_length_b   6.82910229
_cell_length_c   13.10898600
_cell_angle_alpha   90.00000000
_cell_angle_beta   90.00000000
_cell_angle_gamma   90.02968612
_symmetry_Int_Tables_number   1
_chemical_formula_structural   Hf8Ti9Nb3(Ge3P)4
_chemical_formula_sum   'Hf8 Ti9 Nb3 Ge12 P4'
_cell_volume   598.24966866
_cell_formula_units_Z   1
loop_
 _symmetry_equiv_pos_site_id
 _symmetry_equiv_pos_as_xyz
  1  'x, y, z'
loop_
 _atom_site_type_symbol
 _atom_site_label
 _atom_site_symmetry_multiplicity
 _atom_site_fract_x
 _atom_site_fract_y
 _atom_site_fract_z
 _atom_site_occupancy
  Hf  Hf0  1  0.488723  0.669725  0.595213  1
  Hf  Hf1  1  0.990974  0.831289  0.905331  1
  Hf  Hf2  1  0.510266  0.331603  0.094252  1
  Hf  Hf3  1  0.010520  0.169392  0.405470  1
  Hf  Hf4  1  0.510266  0.331603  0.405748  1
  Hf  Hf5  1  0.010520  0.169392  0.094530  1
  Hf  Hf6  1  0.488723  0.669725  0.904787  1
  Hf  Hf7  1  0.990974  0.831289  0.594669  1
  Ti  Ti8  1  0.660987  0.170498  0.628367  1
  Ti  Ti9  1  0.162026  0.328999  0.872126  1
  Ti  Ti10  1  0.339223  0.830158  0.127407  1
  Ti  Ti11  1  0.839023  0.669591  0.372863  1
  Ti  Ti12  1  0.339223  0.830158  0.372593  1
  Ti  Ti13  1  0.839023  0.669591  0.127137  1
  Ti  Ti14  1  0.660987  0.170498  0.871633  1
  Ti  Ti15  1  0.162026  0.328999  0.627874  1
  Ti  Ti16  1  0.826361  0.486195  0.750000  1
  Nb  Nb17  1  0.327123  0.009782  0.750000  1
  Nb  Nb18  1  0.173079  0.511284  0.250000  1
  Nb  Nb19  1  0.673178  0.988482  0.250000  1
  Ge  Ge20  1  0.679847  0.960597  0.463895  1
  Ge  Ge21  1  0.179618  0.539944  0.036095  1
  Ge  Ge22  1  0.320129  0.040275  0.963563  1
  Ge  Ge23  1  0.820034  0.460869  0.538211  1
  Ge  Ge24  1  0.320129  0.040275  0.536437  1
  Ge  Ge25  1  0.820034  0.460869  0.961789  1
  Ge  Ge26  1  0.679847  0.960597  0.036105  1
  Ge  Ge27  1  0.179618  0.539944  0.463905  1
  Ge  Ge28  1  0.693117  0.851362  0.750000  1
  Ge  Ge29  1  0.183461  0.641256  0.750000  1
  Ge  Ge30  1  0.309872  0.143748  0.250000  1
  Ge  Ge31  1  0.809401  0.356255  0.250000  1
  P  P32  1  0.459422  0.378509  0.750000  1
  P  P33  1  0.955519  0.127117  0.750000  1
  P  P34  1  0.543384  0.623503  0.250000  1
  P  P35  1  0.043343  0.876627  0.250000  1
