# generated using pymatgen
data_SrZrCo9Mo3As7
_symmetry_space_group_name_H-M   'P 1'
_cell_length_a   3.83998300
_cell_length_b   9.41156889
_cell_length_c   9.41156900
_cell_angle_alpha   119.99999689
_cell_angle_beta   90.00000000
_cell_angle_gamma   90.00000000
_symmetry_Int_Tables_number   1
_chemical_formula_structural   SrZrCo9Mo3As7
_chemical_formula_sum   'Sr1 Zr1 Co9 Mo3 As7'
_cell_volume   294.56693975
_cell_formula_units_Z   1
loop_
 _symmetry_equiv_pos_site_id
 _symmetry_equiv_pos_as_xyz
  1  'x, y, z'
loop_
 _atom_site_type_symbol
 _atom_site_label
 _atom_site_symmetry_multiplicity
 _atom_site_fract_x
 _atom_site_fract_y
 _atom_site_fract_z
 _atom_site_occupancy
  Sr  Sr0  1  0.500000  0.333333  0.666667  1
  Zr  Zr1  1  0.000000  0.666667  0.333333  1
  Co  Co2  1  0.000000  0.572241  0.948882  1
  Co  Co3  1  0.000000  0.376640  0.427759  1
  Co  Co4  1  0.000000  0.051118  0.623360  1
  Co  Co5  1  0.000000  0.875646  0.159134  1
  Co  Co6  1  0.000000  0.283487  0.124354  1
  Co  Co7  1  0.000000  0.840866  0.716513  1
  Co  Co8  1  0.500000  0.939216  0.375836  1
  Co  Co9  1  0.500000  0.436619  0.060784  1
  Co  Co10  1  0.500000  0.624164  0.563381  1
  Mo  Mo11  1  0.500000  0.782211  0.902803  1
  Mo  Mo12  1  0.500000  0.120592  0.217789  1
  Mo  Mo13  1  0.500000  0.097197  0.879408  1
  As  As14  1  0.000000  0.000000  0.000000  1
  As  As15  1  0.500000  0.704166  0.119138  1
  As  As16  1  0.500000  0.414974  0.295834  1
  As  As17  1  0.500000  0.880862  0.585026  1
  As  As18  1  0.000000  0.589512  0.701717  1
  As  As19  1  0.000000  0.112206  0.410488  1
  As  As20  1  0.000000  0.298283  0.887794  1
