# generated using pymatgen
data_LaTh3(Ni12P5)2
_symmetry_space_group_name_H-M   'P 1'
_cell_length_a   3.70117800
_cell_length_b   10.84695615
_cell_length_c   13.14637544
_cell_angle_alpha   71.95194575
_cell_angle_beta   90.00000000
_cell_angle_gamma   90.00000000
_symmetry_Int_Tables_number   1
_chemical_formula_structural   LaTh3(Ni12P5)2
_chemical_formula_sum   'La1 Th3 Ni24 P10'
_cell_volume   501.81275253
_cell_formula_units_Z   1
loop_
 _symmetry_equiv_pos_site_id
 _symmetry_equiv_pos_as_xyz
  1  'x, y, z'
loop_
 _atom_site_type_symbol
 _atom_site_label
 _atom_site_symmetry_multiplicity
 _atom_site_fract_x
 _atom_site_fract_y
 _atom_site_fract_z
 _atom_site_occupancy
  La  La0  1  0.750000  0.752319  0.812426  1
  Th  Th1  1  0.250000  0.279778  0.682615  1
  Th  Th2  1  0.750000  0.720719  0.316944  1
  Th  Th3  1  0.250000  0.245319  0.188285  1
  Ni  Ni4  1  0.250000  0.837904  0.139987  1
  Ni  Ni5  1  0.750000  0.161997  0.861470  1
  Ni  Ni6  1  0.250000  0.286168  0.438974  1
  Ni  Ni7  1  0.750000  0.714194  0.559433  1
  Ni  Ni8  1  0.250000  0.070132  0.017016  1
  Ni  Ni9  1  0.750000  0.929679  0.984261  1
  Ni  Ni10  1  0.250000  0.064476  0.445412  1
  Ni  Ni11  1  0.750000  0.935871  0.553276  1
  Ni  Ni12  1  0.250000  0.595658  0.695522  1
  Ni  Ni13  1  0.750000  0.402858  0.303356  1
  Ni  Ni14  1  0.250000  0.581459  0.009394  1
  Ni  Ni15  1  0.750000  0.417181  0.991655  1
  Ni  Ni16  1  0.250000  0.580095  0.508135  1
  Ni  Ni17  1  0.750000  0.420514  0.491241  1
  Ni  Ni18  1  0.250000  0.297500  0.918934  1
  Ni  Ni19  1  0.750000  0.702370  0.082943  1
  Ni  Ni20  1  0.250000  0.995494  0.658739  1
  Ni  Ni21  1  0.750000  0.006233  0.340033  1
  Ni  Ni22  1  0.250000  0.840049  0.435781  1
  Ni  Ni23  1  0.750000  0.160482  0.562922  1
  Ni  Ni24  1  0.250000  0.989676  0.849184  1
  Ni  Ni25  1  0.750000  0.011314  0.151784  1
  Ni  Ni26  1  0.250000  0.564777  0.203759  1
  Ni  Ni27  1  0.750000  0.433644  0.796722  1
  P  P28  1  0.250000  0.507702  0.871462  1
  P  P29  1  0.750000  0.491612  0.128368  1
  P  P30  1  0.250000  0.800463  0.985568  1
  P  P31  1  0.750000  0.199403  0.016756  1
  P  P32  1  0.250000  0.493295  0.378019  1
  P  P33  1  0.750000  0.506807  0.622080  1
  P  P34  1  0.250000  0.812600  0.609134  1
  P  P35  1  0.750000  0.187719  0.388814  1
  P  P36  1  0.250000  0.953522  0.257957  1
  P  P37  1  0.750000  0.049022  0.741636  1
