# generated using pymatgen
data_CuHg3(BrO3)8
_symmetry_space_group_name_H-M   'P 1'
_cell_length_a   5.84960578
_cell_length_b   11.04075606
_cell_length_c   11.21440500
_cell_angle_alpha   119.63328726
_cell_angle_beta   89.74979077
_cell_angle_gamma   90.79217497
_symmetry_Int_Tables_number   1
_chemical_formula_structural   CuHg3(BrO3)8
_chemical_formula_sum   'Cu1 Hg3 Br8 O24'
_cell_volume   629.48010500
_cell_formula_units_Z   1
loop_
 _symmetry_equiv_pos_site_id
 _symmetry_equiv_pos_as_xyz
  1  'x, y, z'
loop_
 _atom_site_type_symbol
 _atom_site_label
 _atom_site_symmetry_multiplicity
 _atom_site_fract_x
 _atom_site_fract_y
 _atom_site_fract_z
 _atom_site_occupancy
  Cu  Cu0  1  0.145104  0.765143  0.512062  1
  Hg  Hg1  1  0.645479  0.236484  0.490462  1
  Hg  Hg2  1  0.146479  0.270007  0.011349  1
  Hg  Hg3  1  0.636479  0.726676  0.992618  1
  Br  Br4  1  0.257750  0.439912  0.365101  1
  Br  Br5  1  0.783632  0.596440  0.646933  1
  Br  Br6  1  0.274071  0.918436  0.850296  1
  Br  Br7  1  0.755015  0.079835  0.147949  1
  Br  Br8  1  0.802335  0.057912  0.666902  1
  Br  Br9  1  0.268532  0.896887  0.317371  1
  Br  Br10  1  0.282696  0.410549  0.799126  1
  Br  Br11  1  0.779041  0.583438  0.194225  1
  O  O12  1  0.418329  0.896789  0.969762  1
  O  O13  1  0.901726  0.101488  0.030593  1
  O  O14  1  0.390981  0.809687  0.698330  1
  O  O15  1  0.868570  0.201637  0.302642  1
  O  O16  1  0.386728  0.336540  0.212931  1
  O  O17  1  0.889771  0.706257  0.804481  1
  O  O18  1  0.916364  0.202292  0.798910  1
  O  O19  1  0.409677  0.761583  0.190683  1
  O  O20  1  0.962631  0.921115  0.652029  1
  O  O21  1  0.403083  0.042457  0.337792  1
  O  O22  1  0.372521  0.079217  0.881141  1
  O  O23  1  0.857862  0.928545  0.130721  1
  O  O24  1  0.417352  0.267991  0.675448  1
  O  O25  1  0.908472  0.721756  0.322823  1
  O  O26  1  0.355779  0.415608  0.947436  1
  O  O27  1  0.857191  0.586216  0.048084  1
  O  O28  1  0.419618  0.552094  0.809481  1
  O  O29  1  0.919593  0.441017  0.178272  1
  O  O30  1  0.342064  0.604310  0.396005  1
  O  O31  1  0.880969  0.438814  0.616448  1
  O  O32  1  0.411986  0.417392  0.478813  1
  O  O33  1  0.938893  0.625768  0.533814  1
  O  O34  1  0.865839  0.071675  0.526561  1
  O  O35  1  0.336989  0.888035  0.462404  1
