# generated using pymatgen
data_Y2Ho13Er(In3Co)2
_symmetry_space_group_name_H-M   'P 1'
_cell_length_a   10.32088000
_cell_length_b   10.32088113
_cell_length_c   7.01060600
_cell_angle_alpha   90.00000000
_cell_angle_beta   90.00000000
_cell_angle_gamma   120.00000278
_symmetry_Int_Tables_number   1
_chemical_formula_structural   Y2Ho13Er(In3Co)2
_chemical_formula_sum   'Y2 Ho13 Er1 In6 Co2'
_cell_volume   646.72505220
_cell_formula_units_Z   1
loop_
 _symmetry_equiv_pos_site_id
 _symmetry_equiv_pos_as_xyz
  1  'x, y, z'
loop_
 _atom_site_type_symbol
 _atom_site_label
 _atom_site_symmetry_multiplicity
 _atom_site_fract_x
 _atom_site_fract_y
 _atom_site_fract_z
 _atom_site_occupancy
  Y  Y0  1  0.000000  0.000000  0.494490  1
  Y  Y1  1  0.000000  0.000000  0.995262  1
  Ho  Ho2  1  0.464730  0.535270  0.483025  1
  Ho  Ho3  1  0.070540  0.535270  0.483025  1
  Ho  Ho4  1  0.464730  0.929460  0.483025  1
  Ho  Ho5  1  0.535745  0.464255  0.982256  1
  Ho  Ho6  1  0.928511  0.464255  0.982256  1
  Ho  Ho7  1  0.535745  0.071489  0.982256  1
  Ho  Ho8  1  0.821141  0.178859  0.276313  1
  Ho  Ho9  1  0.357717  0.178859  0.276313  1
  Ho  Ho10  1  0.821141  0.642283  0.276313  1
  Ho  Ho11  1  0.178466  0.821534  0.776004  1
  Ho  Ho12  1  0.643068  0.821534  0.776004  1
  Ho  Ho13  1  0.178466  0.356932  0.776004  1
  Ho  Ho14  1  0.333333  0.666667  0.092615  1
  Er  Er15  1  0.666667  0.333333  0.590301  1
  In  In16  1  0.162887  0.837113  0.234777  1
  In  In17  1  0.674223  0.837113  0.234777  1
  In  In18  1  0.162887  0.325777  0.234777  1
  In  In19  1  0.836613  0.163387  0.733680  1
  In  In20  1  0.326773  0.163387  0.733680  1
  In  In21  1  0.836613  0.673227  0.733680  1
  Co  Co22  1  0.333333  0.666667  0.707524  1
  Co  Co23  1  0.666667  0.333333  0.206194  1
