# generated using pymatgen
data_Ta6Ti3WN12
_symmetry_space_group_name_H-M   'P 1'
_cell_length_a   5.17377543
_cell_length_b   5.17180989
_cell_length_c   10.25229420
_cell_angle_alpha   89.98424255
_cell_angle_beta   89.99347007
_cell_angle_gamma   119.90163118
_symmetry_Int_Tables_number   1
_chemical_formula_structural   Ta6Ti3WN12
_chemical_formula_sum   'Ta6 Ti3 W1 N12'
_cell_volume   237.81071405
_cell_formula_units_Z   1
loop_
 _symmetry_equiv_pos_site_id
 _symmetry_equiv_pos_as_xyz
  1  'x, y, z'
loop_
 _atom_site_type_symbol
 _atom_site_label
 _atom_site_symmetry_multiplicity
 _atom_site_fract_x
 _atom_site_fract_y
 _atom_site_fract_z
 _atom_site_occupancy
  Ta  Ta0  1  0.323030  0.998172  0.751832  1
  Ta  Ta1  1  0.000301  0.324142  0.751886  1
  Ta  Ta2  1  0.322108  0.323229  0.248479  1
  Ta  Ta3  1  0.676575  0.998758  0.248424  1
  Ta  Ta4  1  0.001043  0.677705  0.248419  1
  Ta  Ta5  1  0.666755  0.333020  0.498386  1
  Ti  Ti6  1  0.666852  0.333574  0.001963  1
  Ti  Ti7  1  0.333601  0.666810  0.001798  1
  Ti  Ti8  1  0.333140  0.666691  0.497144  1
  W  W9  1  0.675402  0.676576  0.751205  1
  N  N10  1  0.657142  0.658836  0.380035  1
  N  N11  1  0.340906  0.998362  0.379488  1
  N  N12  1  0.001886  0.342567  0.379466  1
  N  N13  1  0.343719  0.345465  0.622363  1
  N  N14  1  0.656678  0.997247  0.622275  1
  N  N15  1  0.000044  0.658090  0.622335  1
  N  N16  1  0.347515  0.347269  0.878647  1
  N  N17  1  0.655176  0.998529  0.878626  1
  N  N18  1  0.998135  0.654995  0.878653  1
  N  N19  1  0.654435  0.654291  0.119139  1
  N  N20  1  0.345565  0.000256  0.119721  1
  N  N21  1  0.999992  0.345417  0.119716  1
