# generated using pymatgen
data_Pr2Ga9Pd2Ru
_symmetry_space_group_name_H-M   'P 1'
_cell_length_a   7.72354896
_cell_length_b   7.72354930
_cell_length_c   9.75230613
_cell_angle_alpha   89.91195891
_cell_angle_beta   89.91196154
_cell_angle_gamma   119.85164073
_symmetry_Int_Tables_number   1
_chemical_formula_structural   Pr2Ga9Pd2Ru
_chemical_formula_sum   'Pr4 Ga18 Pd4 Ru2'
_cell_volume   504.56492720
_cell_formula_units_Z   2
loop_
 _symmetry_equiv_pos_site_id
 _symmetry_equiv_pos_as_xyz
  1  'x, y, z'
loop_
 _atom_site_type_symbol
 _atom_site_label
 _atom_site_symmetry_multiplicity
 _atom_site_fract_x
 _atom_site_fract_y
 _atom_site_fract_z
 _atom_site_occupancy
  Pr  Pr0  1  0.996318  0.668700  0.248648  1
  Pr  Pr1  1  0.003682  0.331300  0.751352  1
  Pr  Pr2  1  0.668700  0.996318  0.248648  1
  Pr  Pr3  1  0.331300  0.003682  0.751352  1
  Ga  Ga4  1  0.132264  0.132264  0.251416  1
  Ga  Ga5  1  0.867736  0.867736  0.748584  1
  Ga  Ga6  1  0.004846  0.334108  0.080428  1
  Ga  Ga7  1  0.995154  0.665892  0.919572  1
  Ga  Ga8  1  0.998986  0.659929  0.573284  1
  Ga  Ga9  1  0.340071  0.001014  0.426716  1
  Ga  Ga10  1  0.001014  0.340071  0.426716  1
  Ga  Ga11  1  0.659929  0.998986  0.573284  1
  Ga  Ga12  1  0.665892  0.995154  0.919572  1
  Ga  Ga13  1  0.334108  0.004846  0.080428  1
  Ga  Ga14  1  0.338875  0.338875  0.556985  1
  Ga  Ga15  1  0.661125  0.661125  0.443015  1
  Ga  Ga16  1  0.661817  0.661817  0.067083  1
  Ga  Ga17  1  0.338183  0.338183  0.932917  1
  Ga  Ga18  1  0.337023  0.543523  0.255809  1
  Ga  Ga19  1  0.662977  0.456477  0.744191  1
  Ga  Ga20  1  0.543523  0.337023  0.255809  1
  Ga  Ga21  1  0.456477  0.662977  0.744191  1
  Pd  Pd22  1  0.670296  0.329704  0.000000  1
  Pd  Pd23  1  0.329704  0.670296  0.000000  1
  Pd  Pd24  1  0.000000  0.000000  0.000000  1
  Pd  Pd25  1  0.000000  0.000000  0.500000  1
  Ru  Ru26  1  0.328632  0.671368  0.500000  1
  Ru  Ru27  1  0.671368  0.328632  0.500000  1
