# generated using pymatgen
data_Cs3Lu(PO4)2
_symmetry_space_group_name_H-M   'P 1'
_cell_length_a   5.74778000
_cell_length_b   5.74777870
_cell_length_c   8.71268900
_cell_angle_alpha   90.00000000
_cell_angle_beta   90.00000000
_cell_angle_gamma   120.00000745
_symmetry_Int_Tables_number   1
_chemical_formula_structural   Cs3Lu(PO4)2
_chemical_formula_sum   'Cs3 Lu1 P2 O8'
_cell_volume   249.27744642
_cell_formula_units_Z   1
loop_
 _symmetry_equiv_pos_site_id
 _symmetry_equiv_pos_as_xyz
  1  'x, y, z'
loop_
 _atom_site_type_symbol
 _atom_site_label
 _atom_site_symmetry_multiplicity
 _atom_site_fract_x
 _atom_site_fract_y
 _atom_site_fract_z
 _atom_site_occupancy
  Cs  Cs0  1  0.333333  0.666667  0.771105  1
  Cs  Cs1  1  0.666667  0.333333  0.228895  1
  Cs  Cs2  1  0.000000  0.000000  0.000000  1
  Lu  Lu3  1  0.000000  0.000000  0.500000  1
  P  P4  1  0.333333  0.666667  0.298481  1
  P  P5  1  0.666667  0.333333  0.701519  1
  O  O6  1  0.333333  0.666667  0.121448  1
  O  O7  1  0.666667  0.333333  0.878552  1
  O  O8  1  0.184864  0.815136  0.358053  1
  O  O9  1  0.815136  0.184864  0.641947  1
  O  O10  1  0.184864  0.369727  0.358053  1
  O  O11  1  0.815136  0.630273  0.641947  1
  O  O12  1  0.630273  0.815136  0.358053  1
  O  O13  1  0.369727  0.184864  0.641947  1
