# generated using pymatgen
data_HoErTm2(Al3Rh)6
_symmetry_space_group_name_H-M   'P 1'
_cell_length_a   7.52615904
_cell_length_b   7.52680398
_cell_length_c   9.42562400
_cell_angle_alpha   90.00000000
_cell_angle_beta   90.00000000
_cell_angle_gamma   119.28860313
_symmetry_Int_Tables_number   1
_chemical_formula_structural   HoErTm2(Al3Rh)6
_chemical_formula_sum   'Ho1 Er1 Tm2 Al18 Rh6'
_cell_volume   465.68640485
_cell_formula_units_Z   1
loop_
 _symmetry_equiv_pos_site_id
 _symmetry_equiv_pos_as_xyz
  1  'x, y, z'
loop_
 _atom_site_type_symbol
 _atom_site_label
 _atom_site_symmetry_multiplicity
 _atom_site_fract_x
 _atom_site_fract_y
 _atom_site_fract_z
 _atom_site_occupancy
  Ho  Ho0  1  0.994281  0.672280  0.250000  1
  Er  Er1  1  0.672425  0.994376  0.250000  1
  Tm  Tm2  1  0.005631  0.327505  0.750000  1
  Tm  Tm3  1  0.327603  0.005712  0.750000  1
  Al  Al4  1  0.128333  0.128494  0.250000  1
  Al  Al5  1  0.871815  0.872015  0.750000  1
  Al  Al6  1  0.000731  0.335653  0.074636  1
  Al  Al7  1  0.999513  0.663980  0.924000  1
  Al  Al8  1  0.999513  0.663980  0.576000  1
  Al  Al9  1  0.335950  0.000832  0.425281  1
  Al  Al10  1  0.000731  0.335653  0.425364  1
  Al  Al11  1  0.663993  0.999594  0.575612  1
  Al  Al12  1  0.663993  0.999594  0.924388  1
  Al  Al13  1  0.335950  0.000832  0.074719  1
  Al  Al14  1  0.332526  0.332495  0.550651  1
  Al  Al15  1  0.667172  0.667314  0.451186  1
  Al  Al16  1  0.667172  0.667314  0.048814  1
  Al  Al17  1  0.332526  0.332495  0.949349  1
  Al  Al18  1  0.339932  0.550829  0.250000  1
  Al  Al19  1  0.660145  0.449183  0.750000  1
  Al  Al20  1  0.550654  0.339423  0.250000  1
  Al  Al21  1  0.449274  0.660323  0.750000  1
  Rh  Rh22  1  0.671991  0.327675  0.999544  1
  Rh  Rh23  1  0.327626  0.671958  0.999548  1
  Rh  Rh24  1  0.327626  0.671958  0.500452  1
  Rh  Rh25  1  0.671991  0.327675  0.500456  1
  Rh  Rh26  1  0.000450  0.000432  0.999288  1
  Rh  Rh27  1  0.000450  0.000432  0.500712  1
