# generated using pymatgen
data_Yb3Y(Al3Ir)2
_symmetry_space_group_name_H-M   'P 1'
_cell_length_a   5.53616700
_cell_length_b   5.53616976
_cell_length_c   8.73994000
_cell_angle_alpha   89.99985656
_cell_angle_beta   90.00016802
_cell_angle_gamma   120.00004446
_symmetry_Int_Tables_number   1
_chemical_formula_structural   Yb3Y(Al3Ir)2
_chemical_formula_sum   'Yb3 Y1 Al6 Ir2'
_cell_volume   231.98369899
_cell_formula_units_Z   1
loop_
 _symmetry_equiv_pos_site_id
 _symmetry_equiv_pos_as_xyz
  1  'x, y, z'
loop_
 _atom_site_type_symbol
 _atom_site_label
 _atom_site_symmetry_multiplicity
 _atom_site_fract_x
 _atom_site_fract_y
 _atom_site_fract_z
 _atom_site_occupancy
  Yb  Yb0  1  0.666666  0.333334  0.446864  1
  Yb  Yb1  1  0.333333  0.666667  0.555015  1
  Yb  Yb2  1  0.333333  0.666666  0.944700  1
  Y  Y3  1  0.666667  0.333333  0.050685  1
  Al  Al4  1  0.161473  0.322945  0.249527  1
  Al  Al5  1  0.161473  0.838528  0.249527  1
  Al  Al6  1  0.677055  0.838528  0.249527  1
  Al  Al7  1  0.323293  0.161646  0.751139  1
  Al  Al8  1  0.838353  0.161646  0.751139  1
  Al  Al9  1  0.838353  0.676707  0.751139  1
  Ir  Ir10  1  0.999999  0.000001  0.000177  1
  Ir  Ir11  1  0.999999  0.999998  0.500562  1
