# generated using pymatgen
data_Sm8Ho12Si15Ir
_symmetry_space_group_name_H-M   'P 1'
_cell_length_a   7.39610800
_cell_length_b   7.80130844
_cell_length_c   14.64244100
_cell_angle_alpha   90.00000000
_cell_angle_beta   90.00000000
_cell_angle_gamma   90.14633695
_symmetry_Int_Tables_number   1
_chemical_formula_structural   Sm8Ho12Si15Ir
_chemical_formula_sum   'Sm8 Ho12 Si15 Ir1'
_cell_volume   844.85613030
_cell_formula_units_Z   1
loop_
 _symmetry_equiv_pos_site_id
 _symmetry_equiv_pos_as_xyz
  1  'x, y, z'
loop_
 _atom_site_type_symbol
 _atom_site_label
 _atom_site_symmetry_multiplicity
 _atom_site_fract_x
 _atom_site_fract_y
 _atom_site_fract_z
 _atom_site_occupancy
  Sm  Sm0  1  0.020031  0.184125  0.097264  1
  Sm  Sm1  1  0.983829  0.824959  0.904478  1
  Sm  Sm2  1  0.481563  0.680154  0.904216  1
  Sm  Sm3  1  0.983829  0.824959  0.595522  1
  Sm  Sm4  1  0.519027  0.319411  0.096355  1
  Sm  Sm5  1  0.020031  0.184125  0.402736  1
  Sm  Sm6  1  0.519027  0.319411  0.403645  1
  Sm  Sm7  1  0.481563  0.680154  0.595784  1
  Ho  Ho8  1  0.153347  0.512480  0.750000  1
  Ho  Ho9  1  0.842438  0.487350  0.250000  1
  Ho  Ho10  1  0.342024  0.014935  0.250000  1
  Ho  Ho11  1  0.664862  0.988507  0.750000  1
  Ho  Ho12  1  0.313502  0.174340  0.626579  1
  Ho  Ho13  1  0.677273  0.823571  0.375466  1
  Ho  Ho14  1  0.177224  0.679900  0.375659  1
  Ho  Ho15  1  0.677273  0.823571  0.124534  1
  Ho  Ho16  1  0.832597  0.315125  0.625572  1
  Ho  Ho17  1  0.313502  0.174340  0.873421  1
  Ho  Ho18  1  0.832597  0.315125  0.874428  1
  Ho  Ho19  1  0.177224  0.679900  0.124341  1
  Si  Si20  1  0.971101  0.891927  0.250000  1
  Si  Si21  1  0.472741  0.608123  0.250000  1
  Si  Si22  1  0.527856  0.394631  0.750000  1
  Si  Si23  1  0.275810  0.868448  0.750000  1
  Si  Si24  1  0.723017  0.126648  0.250000  1
  Si  Si25  1  0.224960  0.374723  0.250000  1
  Si  Si26  1  0.767709  0.620974  0.750000  1
  Si  Si27  1  0.153733  0.472517  0.537822  1
  Si  Si28  1  0.850342  0.532591  0.461965  1
  Si  Si29  1  0.349117  0.968972  0.461347  1
  Si  Si30  1  0.850342  0.532591  0.038035  1
  Si  Si31  1  0.646779  0.030832  0.538346  1
  Si  Si32  1  0.153733  0.472517  0.962178  1
  Si  Si33  1  0.646779  0.030832  0.961654  1
  Si  Si34  1  0.349117  0.968972  0.038653  1
  Ir  Ir35  1  0.024100  0.098256  0.750000  1
