# generated using pymatgen
data_PaMn2CoP2
_symmetry_space_group_name_H-M   'P 1'
_cell_length_a   3.76523300
_cell_length_b   10.64216500
_cell_length_c   12.24868400
_cell_angle_alpha   90.00000000
_cell_angle_beta   90.00000000
_cell_angle_gamma   90.00000000
_symmetry_Int_Tables_number   1
_chemical_formula_structural   PaMn2CoP2
_chemical_formula_sum   'Pa6 Mn12 Co6 P12'
_cell_volume   490.80759548
_cell_formula_units_Z   6
loop_
 _symmetry_equiv_pos_site_id
 _symmetry_equiv_pos_as_xyz
  1  'x, y, z'
loop_
 _atom_site_type_symbol
 _atom_site_label
 _atom_site_symmetry_multiplicity
 _atom_site_fract_x
 _atom_site_fract_y
 _atom_site_fract_z
 _atom_site_occupancy
  Pa  Pa0  1  0.000000  0.500000  0.528491  1
  Pa  Pa1  1  0.500000  0.000000  0.471509  1
  Pa  Pa2  1  0.500000  0.820114  0.204569  1
  Pa  Pa3  1  0.500000  0.179886  0.204569  1
  Pa  Pa4  1  0.000000  0.679886  0.795431  1
  Pa  Pa5  1  0.000000  0.320114  0.795431  1
  Mn  Mn6  1  0.000000  0.500000  0.985584  1
  Mn  Mn7  1  0.500000  0.000000  0.014416  1
  Mn  Mn8  1  0.500000  0.300951  0.427119  1
  Mn  Mn9  1  0.500000  0.699049  0.427119  1
  Mn  Mn10  1  0.000000  0.199049  0.572881  1
  Mn  Mn11  1  0.000000  0.800951  0.572881  1
  Mn  Mn12  1  0.500000  0.883510  0.710919  1
  Mn  Mn13  1  0.500000  0.116490  0.710919  1
  Mn  Mn14  1  0.000000  0.616490  0.289081  1
  Mn  Mn15  1  0.000000  0.383510  0.289081  1
  Mn  Mn16  1  0.500000  0.500000  0.151185  1
  Mn  Mn17  1  0.000000  0.000000  0.848815  1
  Co  Co18  1  0.500000  0.331625  0.993097  1
  Co  Co19  1  0.500000  0.668375  0.993097  1
  Co  Co20  1  0.000000  0.168375  0.006903  1
  Co  Co21  1  0.000000  0.831625  0.006903  1
  Co  Co22  1  0.500000  0.500000  0.702514  1
  Co  Co23  1  0.000000  0.000000  0.297486  1
  P  P24  1  0.500000  0.310036  0.614345  1
  P  P25  1  0.500000  0.689964  0.614345  1
  P  P26  1  0.000000  0.189964  0.385655  1
  P  P27  1  0.000000  0.810036  0.385655  1
  P  P28  1  0.500000  0.500000  0.885049  1
  P  P29  1  0.000000  0.000000  0.114951  1
  P  P30  1  0.500000  0.846941  0.896032  1
  P  P31  1  0.500000  0.153059  0.896032  1
  P  P32  1  0.000000  0.653059  0.103968  1
  P  P33  1  0.000000  0.346941  0.103968  1
  P  P34  1  0.500000  0.500000  0.349018  1
  P  P35  1  0.000000  0.000000  0.650982  1
