# generated using pymatgen
data_Np3VAs5
_symmetry_space_group_name_H-M   'P 1'
_cell_length_a   8.50248800
_cell_length_b   8.50248748
_cell_length_c   5.65067300
_cell_angle_alpha   90.00000000
_cell_angle_beta   90.00000000
_cell_angle_gamma   120.00000203
_symmetry_Int_Tables_number   1
_chemical_formula_structural   Np3VAs5
_chemical_formula_sum   'Np6 V2 As10'
_cell_volume   353.77148710
_cell_formula_units_Z   2
loop_
 _symmetry_equiv_pos_site_id
 _symmetry_equiv_pos_as_xyz
  1  'x, y, z'
loop_
 _atom_site_type_symbol
 _atom_site_label
 _atom_site_symmetry_multiplicity
 _atom_site_fract_x
 _atom_site_fract_y
 _atom_site_fract_z
 _atom_site_occupancy
  Np  Np0  1  0.385962  0.385962  0.750000  1
  Np  Np1  1  0.614038  0.000000  0.750000  1
  Np  Np2  1  0.000000  0.614038  0.750000  1
  Np  Np3  1  0.614038  0.614038  0.250000  1
  Np  Np4  1  0.385962  0.000000  0.250000  1
  Np  Np5  1  0.000000  0.385962  0.250000  1
  V  V6  1  0.000000  0.000000  0.000000  1
  V  V7  1  0.000000  0.000000  0.500000  1
  As  As8  1  0.745503  0.745503  0.750000  1
  As  As9  1  0.254497  0.000000  0.750000  1
  As  As10  1  0.000000  0.254497  0.750000  1
  As  As11  1  0.254497  0.254497  0.250000  1
  As  As12  1  0.745503  0.000000  0.250000  1
  As  As13  1  0.000000  0.745503  0.250000  1
  As  As14  1  0.666667  0.333333  0.000000  1
  As  As15  1  0.333333  0.666667  0.000000  1
  As  As16  1  0.333333  0.666667  0.500000  1
  As  As17  1  0.666667  0.333333  0.500000  1
