# generated using pymatgen
data_Th2FeP4Rh3
_symmetry_space_group_name_H-M   'P 1'
_cell_length_a   4.14745300
_cell_length_b   4.14745300
_cell_length_c   9.46935800
_cell_angle_alpha   90.00000000
_cell_angle_beta   90.00000000
_cell_angle_gamma   90.00000000
_symmetry_Int_Tables_number   1
_chemical_formula_structural   Th2FeP4Rh3
_chemical_formula_sum   'Th2 Fe1 P4 Rh3'
_cell_volume   162.88589641
_cell_formula_units_Z   1
loop_
 _symmetry_equiv_pos_site_id
 _symmetry_equiv_pos_as_xyz
  1  'x, y, z'
loop_
 _atom_site_type_symbol
 _atom_site_label
 _atom_site_symmetry_multiplicity
 _atom_site_fract_x
 _atom_site_fract_y
 _atom_site_fract_z
 _atom_site_occupancy
  Th  Th0  1  0.500000  0.000000  0.743796  1
  Th  Th1  1  0.000000  0.500000  0.258441  1
  Fe  Fe2  1  0.000000  0.500000  0.609329  1
  P  P3  1  0.500000  0.500000  0.509245  1
  P  P4  1  0.500000  0.000000  0.138857  1
  P  P5  1  0.000000  0.000000  0.509245  1
  P  P6  1  0.000000  0.500000  0.845817  1
  Rh  Rh7  1  0.500000  0.000000  0.390749  1
  Rh  Rh8  1  0.000000  0.000000  0.997260  1
  Rh  Rh9  1  0.500000  0.500000  0.997260  1
