# generated using pymatgen
data_KBe3NiF9
_symmetry_space_group_name_H-M   'P 1'
_cell_length_a   6.65014000
_cell_length_b   6.65013935
_cell_length_c   9.70685600
_cell_angle_alpha   90.00000000
_cell_angle_beta   90.00000000
_cell_angle_gamma   119.99999331
_symmetry_Int_Tables_number   1
_chemical_formula_structural   KBe3NiF9
_chemical_formula_sum   'K2 Be6 Ni2 F18'
_cell_volume   371.76695275
_cell_formula_units_Z   2
loop_
 _symmetry_equiv_pos_site_id
 _symmetry_equiv_pos_as_xyz
  1  'x, y, z'
loop_
 _atom_site_type_symbol
 _atom_site_label
 _atom_site_symmetry_multiplicity
 _atom_site_fract_x
 _atom_site_fract_y
 _atom_site_fract_z
 _atom_site_occupancy
  K  K0  1  0.666667  0.333333  0.000000  1
  K  K1  1  0.666667  0.333333  0.500000  1
  Be  Be2  1  0.218215  0.940639  0.250000  1
  Be  Be3  1  0.218215  0.277576  0.750000  1
  Be  Be4  1  0.722424  0.940639  0.750000  1
  Be  Be5  1  0.059361  0.781785  0.750000  1
  Be  Be6  1  0.059361  0.277576  0.250000  1
  Be  Be7  1  0.722424  0.781785  0.250000  1
  Ni  Ni8  1  0.333333  0.666667  0.000000  1
  Ni  Ni9  1  0.333333  0.666667  0.500000  1
  F  F10  1  0.077880  0.662817  0.617534  1
  F  F11  1  0.584937  0.922120  0.617534  1
  F  F12  1  0.337183  0.415063  0.617534  1
  F  F13  1  0.337183  0.922120  0.382466  1
  F  F14  1  0.242491  0.191651  0.250000  1
  F  F15  1  0.949160  0.757509  0.250000  1
  F  F16  1  0.808349  0.050840  0.250000  1
  F  F17  1  0.808349  0.757509  0.750000  1
  F  F18  1  0.949160  0.191651  0.750000  1
  F  F19  1  0.242491  0.050840  0.750000  1
  F  F20  1  0.337183  0.922120  0.117533  1
  F  F21  1  0.584937  0.662817  0.382466  1
  F  F22  1  0.077880  0.415063  0.382466  1
  F  F23  1  0.077880  0.415063  0.117533  1
  F  F24  1  0.584937  0.662817  0.117533  1
  F  F25  1  0.077880  0.662817  0.882466  1
  F  F26  1  0.584937  0.922120  0.882466  1
  F  F27  1  0.337183  0.415063  0.882466  1
