# generated using pymatgen
data_Pr6Ir17Rh
_symmetry_space_group_name_H-M   'P 1'
_cell_length_a   5.40255400
_cell_length_b   5.40255399
_cell_length_c   17.68287800
_cell_angle_alpha   90.00000000
_cell_angle_beta   90.00000000
_cell_angle_gamma   120.00000005
_symmetry_Int_Tables_number   1
_chemical_formula_structural   Pr6Ir17Rh
_chemical_formula_sum   'Pr6 Ir17 Rh1'
_cell_volume   446.97353989
_cell_formula_units_Z   1
loop_
 _symmetry_equiv_pos_site_id
 _symmetry_equiv_pos_as_xyz
  1  'x, y, z'
loop_
 _atom_site_type_symbol
 _atom_site_label
 _atom_site_symmetry_multiplicity
 _atom_site_fract_x
 _atom_site_fract_y
 _atom_site_fract_z
 _atom_site_occupancy
  Pr  Pr0  1  0.333333  0.666667  0.959834  1
  Pr  Pr1  1  0.666667  0.333333  0.040839  1
  Pr  Pr2  1  0.666667  0.333333  0.459161  1
  Pr  Pr3  1  0.333333  0.666667  0.540166  1
  Pr  Pr4  1  0.333333  0.666667  0.750000  1
  Pr  Pr5  1  0.666667  0.333333  0.250000  1
  Ir  Ir6  1  0.165992  0.834008  0.371400  1
  Ir  Ir7  1  0.165992  0.331983  0.371400  1
  Ir  Ir8  1  0.668017  0.834008  0.371400  1
  Ir  Ir9  1  0.833852  0.166148  0.628229  1
  Ir  Ir10  1  0.833852  0.667702  0.628229  1
  Ir  Ir11  1  0.332298  0.166148  0.628229  1
  Ir  Ir12  1  0.833852  0.166148  0.871771  1
  Ir  Ir13  1  0.833852  0.667702  0.871771  1
  Ir  Ir14  1  0.332298  0.166148  0.871771  1
  Ir  Ir15  1  0.165992  0.834008  0.128600  1
  Ir  Ir16  1  0.165992  0.331983  0.128600  1
  Ir  Ir17  1  0.668017  0.834008  0.128600  1
  Ir  Ir18  1  0.333333  0.666667  0.250000  1
  Ir  Ir19  1  0.666667  0.333333  0.750000  1
  Ir  Ir20  1  0.000000  0.000000  0.250000  1
  Ir  Ir21  1  0.000000  0.000000  0.500057  1
  Ir  Ir22  1  0.000000  0.000000  0.999943  1
  Rh  Rh23  1  0.000000  0.000000  0.750000  1
