# generated using pymatgen
data_DyEr3BI5
_symmetry_space_group_name_H-M   'P 1'
_cell_length_a   9.61098432
_cell_length_b   9.61098477
_cell_length_c   8.53920033
_cell_angle_alpha   102.39641789
_cell_angle_beta   102.39641813
_cell_angle_gamma   24.50946649
_symmetry_Int_Tables_number   1
_chemical_formula_structural   DyEr3BI5
_chemical_formula_sum   'Dy1 Er3 B1 I5'
_cell_volume   319.22482450
_cell_formula_units_Z   1
loop_
 _symmetry_equiv_pos_site_id
 _symmetry_equiv_pos_as_xyz
  1  'x, y, z'
loop_
 _atom_site_type_symbol
 _atom_site_label
 _atom_site_symmetry_multiplicity
 _atom_site_fract_x
 _atom_site_fract_y
 _atom_site_fract_z
 _atom_site_occupancy
  Dy  Dy0  1  0.364161  0.364161  0.930383  1
  Er  Er1  1  0.635275  0.635275  0.069404  1
  Er  Er2  1  0.999500  0.999500  0.190933  1
  Er  Er3  1  0.000622  0.000622  0.809143  1
  B  B4  1  0.500496  0.500496  0.000262  1
  I  I5  1  0.828146  0.828146  0.175333  1
  I  I6  1  0.165870  0.165870  0.342257  1
  I  I7  1  0.500071  0.500071  0.500009  1
  I  I8  1  0.834226  0.834226  0.655842  1
  I  I9  1  0.171634  0.171634  0.826434  1
