# generated using pymatgen
data_Er2CuSi2Ru
_symmetry_space_group_name_H-M   'P 1'
_cell_length_a   4.21284000
_cell_length_b   6.90294216
_cell_length_c   7.31082383
_cell_angle_alpha   91.27563117
_cell_angle_beta   90.00000000
_cell_angle_gamma   90.00000000
_symmetry_Int_Tables_number   1
_chemical_formula_structural   Er2CuSi2Ru
_chemical_formula_sum   'Er4 Cu2 Si4 Ru2'
_cell_volume   212.55331042
_cell_formula_units_Z   2
loop_
 _symmetry_equiv_pos_site_id
 _symmetry_equiv_pos_as_xyz
  1  'x, y, z'
loop_
 _atom_site_type_symbol
 _atom_site_label
 _atom_site_symmetry_multiplicity
 _atom_site_fract_x
 _atom_site_fract_y
 _atom_site_fract_z
 _atom_site_occupancy
  Er  Er0  1  0.250000  0.993119  0.799190  1
  Er  Er1  1  0.750000  0.006881  0.200810  1
  Er  Er2  1  0.250000  0.491152  0.687895  1
  Er  Er3  1  0.750000  0.508848  0.312105  1
  Cu  Cu4  1  0.750000  0.836530  0.573116  1
  Cu  Cu5  1  0.250000  0.163470  0.426884  1
  Si  Si6  1  0.250000  0.298777  0.092888  1
  Si  Si7  1  0.750000  0.701223  0.907112  1
  Si  Si8  1  0.250000  0.795697  0.388621  1
  Si  Si9  1  0.750000  0.204303  0.611379  1
  Ru  Ru10  1  0.750000  0.345640  0.936302  1
  Ru  Ru11  1  0.250000  0.654360  0.063698  1
