# generated using pymatgen
data_K2H9Os
_symmetry_space_group_name_H-M   'P 1'
_cell_length_a   9.73783500
_cell_length_b   9.73783483
_cell_length_c   5.30638100
_cell_angle_alpha   90.00000000
_cell_angle_beta   90.00000000
_cell_angle_gamma   120.00000398
_symmetry_Int_Tables_number   1
_chemical_formula_structural   K2H9Os
_chemical_formula_sum   'K6 H27 Os3'
_cell_volume   435.76651852
_cell_formula_units_Z   3
loop_
 _symmetry_equiv_pos_site_id
 _symmetry_equiv_pos_as_xyz
  1  'x, y, z'
loop_
 _atom_site_type_symbol
 _atom_site_label
 _atom_site_symmetry_multiplicity
 _atom_site_fract_x
 _atom_site_fract_y
 _atom_site_fract_z
 _atom_site_occupancy
  K  K0  1  0.000000  0.272684  0.500000  1
  K  K1  1  0.727316  0.727316  0.500000  1
  K  K2  1  0.272684  0.000000  0.500000  1
  K  K3  1  0.000000  0.615895  0.000000  1
  K  K4  1  0.384105  0.384105  0.000000  1
  K  K5  1  0.615895  0.000000  0.000000  1
  H  H6  1  0.781643  0.324315  0.729757  1
  H  H7  1  0.675685  0.457327  0.729757  1
  H  H8  1  0.542673  0.218357  0.729757  1
  H  H9  1  0.218357  0.542673  0.270243  1
  H  H10  1  0.542673  0.218357  0.270243  1
  H  H11  1  0.781643  0.324315  0.270243  1
  H  H12  1  0.675685  0.457327  0.270243  1
  H  H13  1  0.324315  0.781643  0.729757  1
  H  H14  1  0.457327  0.675685  0.729757  1
  H  H15  1  0.173746  0.000000  0.000000  1
  H  H16  1  0.826254  0.826254  0.000000  1
  H  H17  1  0.000000  0.173746  0.000000  1
  H  H18  1  0.876815  0.000000  0.226082  1
  H  H19  1  0.123185  0.123185  0.773918  1
  H  H20  1  0.000000  0.876815  0.773918  1
  H  H21  1  0.000000  0.876815  0.226082  1
  H  H22  1  0.123185  0.123185  0.226082  1
  H  H23  1  0.876815  0.000000  0.773918  1
  H  H24  1  0.155316  0.654065  0.500000  1
  H  H25  1  0.498749  0.844684  0.500000  1
  H  H26  1  0.345935  0.501251  0.500000  1
  H  H27  1  0.501251  0.345935  0.500000  1
  H  H28  1  0.844684  0.498749  0.500000  1
  H  H29  1  0.654065  0.155316  0.500000  1
  H  H30  1  0.218357  0.542673  0.729757  1
  H  H31  1  0.324315  0.781643  0.270243  1
  H  H32  1  0.457327  0.675685  0.270243  1
  Os  Os33  1  0.666667  0.333333  0.500000  1
  Os  Os34  1  0.333333  0.666667  0.500000  1
  Os  Os35  1  0.000000  0.000000  0.000000  1
