# generated using pymatgen
data_Tm4Mn3CoOs4
_symmetry_space_group_name_H-M   'P 1'
_cell_length_a   5.22522218
_cell_length_b   5.26971454
_cell_length_c   8.47367500
_cell_angle_alpha   90.00000000
_cell_angle_beta   90.00000000
_cell_angle_gamma   119.74848443
_symmetry_Int_Tables_number   1
_chemical_formula_structural   Tm4Mn3CoOs4
_chemical_formula_sum   'Tm4 Mn3 Co1 Os4'
_cell_volume   202.57666120
_cell_formula_units_Z   1
loop_
 _symmetry_equiv_pos_site_id
 _symmetry_equiv_pos_as_xyz
  1  'x, y, z'
loop_
 _atom_site_type_symbol
 _atom_site_label
 _atom_site_symmetry_multiplicity
 _atom_site_fract_x
 _atom_site_fract_y
 _atom_site_fract_z
 _atom_site_occupancy
  Tm  Tm0  1  0.667672  0.335406  0.562312  1
  Tm  Tm1  1  0.332951  0.665678  0.432941  1
  Tm  Tm2  1  0.332951  0.665678  0.067059  1
  Tm  Tm3  1  0.667672  0.335406  0.937688  1
  Mn  Mn4  1  0.997428  0.995104  0.494296  1
  Mn  Mn5  1  0.997428  0.995104  0.005704  1
  Mn  Mn6  1  0.164219  0.328493  0.750000  1
  Co  Co7  1  0.835167  0.670269  0.250000  1
  Os  Os8  1  0.173650  0.834463  0.750000  1
  Os  Os9  1  0.660664  0.834316  0.750000  1
  Os  Os10  1  0.827107  0.170072  0.250000  1
  Os  Os11  1  0.343090  0.170013  0.250000  1
