# generated using pymatgen
data_Y6Zn18PIr5
_symmetry_space_group_name_H-M   'P 1'
_cell_length_a   8.95619141
_cell_length_b   8.96620830
_cell_length_c   8.95632000
_cell_angle_alpha   59.96073834
_cell_angle_beta   60.03589218
_cell_angle_gamma   59.96321715
_symmetry_Int_Tables_number   1
_chemical_formula_structural   Y6Zn18PIr5
_chemical_formula_sum   'Y6 Zn18 P1 Ir5'
_cell_volume   508.41047936
_cell_formula_units_Z   1
loop_
 _symmetry_equiv_pos_site_id
 _symmetry_equiv_pos_as_xyz
  1  'x, y, z'
loop_
 _atom_site_type_symbol
 _atom_site_label
 _atom_site_symmetry_multiplicity
 _atom_site_fract_x
 _atom_site_fract_y
 _atom_site_fract_z
 _atom_site_occupancy
  Y  Y0  1  0.714515  0.277813  0.285487  1
  Y  Y1  1  0.715782  0.284228  0.715770  1
  Y  Y2  1  0.714511  0.722187  0.285488  1
  Y  Y3  1  0.285485  0.722187  0.714513  1
  Y  Y4  1  0.284218  0.715772  0.284230  1
  Y  Y5  1  0.285489  0.277813  0.714512  1
  Zn  Zn6  1  0.622515  0.126452  0.124588  1
  Zn  Zn7  1  0.125938  0.626208  0.125928  1
  Zn  Zn8  1  0.124600  0.126446  0.622505  1
  Zn  Zn9  1  0.125939  0.121920  0.125931  1
  Zn  Zn10  1  0.377485  0.873548  0.875412  1
  Zn  Zn11  1  0.874062  0.373792  0.874072  1
  Zn  Zn12  1  0.875400  0.873554  0.377495  1
  Zn  Zn13  1  0.874061  0.878080  0.874069  1
  Zn  Zn14  1  0.000000  0.500000  0.000000  1
  Zn  Zn15  1  0.000000  0.000000  0.000000  1
  Zn  Zn16  1  0.999319  0.333587  0.333511  1
  Zn  Zn17  1  0.330322  0.006316  0.330313  1
  Zn  Zn18  1  0.333524  0.333584  0.999303  1
  Zn  Zn19  1  0.330322  0.333045  0.330315  1
  Zn  Zn20  1  0.000681  0.666413  0.666489  1
  Zn  Zn21  1  0.669678  0.993684  0.669687  1
  Zn  Zn22  1  0.666476  0.666416  0.000697  1
  Zn  Zn23  1  0.669678  0.666955  0.669685  1
  P  P24  1  0.500000  0.500000  0.500000  1
  Ir  Ir25  1  0.500000  0.000000  0.000000  1
  Ir  Ir26  1  0.500000  0.000000  0.500000  1
  Ir  Ir27  1  0.500000  0.500000  0.000000  1
  Ir  Ir28  1  0.000000  0.500000  0.500000  1
  Ir  Ir29  1  0.000000  0.000000  0.500000  1
