# generated using pymatgen
data_Nd3IO4
_symmetry_space_group_name_H-M   'P 1'
_cell_length_a   6.60311419
_cell_length_b   6.60311298
_cell_length_c   12.27916300
_cell_angle_alpha   90.00000000
_cell_angle_beta   90.00000000
_cell_angle_gamma   142.06953573
_symmetry_Int_Tables_number   1
_chemical_formula_structural   Nd3IO4
_chemical_formula_sum   'Nd6 I2 O8'
_cell_volume   329.10373673
_cell_formula_units_Z   2
loop_
 _symmetry_equiv_pos_site_id
 _symmetry_equiv_pos_as_xyz
  1  'x, y, z'
loop_
 _atom_site_type_symbol
 _atom_site_label
 _atom_site_symmetry_multiplicity
 _atom_site_fract_x
 _atom_site_fract_y
 _atom_site_fract_z
 _atom_site_occupancy
  Nd  Nd0  1  0.309639  0.690361  0.104744  1
  Nd  Nd1  1  0.690361  0.309639  0.895256  1
  Nd  Nd2  1  0.690361  0.309639  0.604744  1
  Nd  Nd3  1  0.309639  0.690361  0.395256  1
  Nd  Nd4  1  0.613369  0.386631  0.250000  1
  Nd  Nd5  1  0.386631  0.613369  0.750000  1
  I  I6  1  0.000000  0.000000  0.000000  1
  I  I7  1  0.000000  0.000000  0.500000  1
  O  O8  1  0.188111  0.811889  0.250000  1
  O  O9  1  0.272819  0.727181  0.591458  1
  O  O10  1  0.272819  0.727181  0.908542  1
  O  O11  1  0.811889  0.188111  0.750000  1
  O  O12  1  0.727181  0.272819  0.408542  1
  O  O13  1  0.428522  0.571478  0.250000  1
  O  O14  1  0.571478  0.428522  0.750000  1
  O  O15  1  0.727181  0.272819  0.091458  1
