# generated using pymatgen
data_Er3Tm5B24(IrRu)2
_symmetry_space_group_name_H-M   'P 1'
_cell_length_a   3.62008800
_cell_length_b   9.11545441
_cell_length_c   11.43864700
_cell_angle_alpha   90.06326729
_cell_angle_beta   90.00000000
_cell_angle_gamma   90.00000000
_symmetry_Int_Tables_number   1
_chemical_formula_structural   Er3Tm5B24(IrRu)2
_chemical_formula_sum   'Er3 Tm5 B24 Ir2 Ru2'
_cell_volume   377.46078984
_cell_formula_units_Z   1
loop_
 _symmetry_equiv_pos_site_id
 _symmetry_equiv_pos_as_xyz
  1  'x, y, z'
loop_
 _atom_site_type_symbol
 _atom_site_label
 _atom_site_symmetry_multiplicity
 _atom_site_fract_x
 _atom_site_fract_y
 _atom_site_fract_z
 _atom_site_occupancy
  Er  Er0  1  0.000000  0.318543  0.411925  1
  Er  Er1  1  0.000000  0.681435  0.588100  1
  Er  Er2  1  0.000000  0.822812  0.085152  1
  Tm  Tm3  1  0.000000  0.177247  0.914950  1
  Tm  Tm4  1  0.000000  0.945828  0.373062  1
  Tm  Tm5  1  0.000000  0.054224  0.626954  1
  Tm  Tm6  1  0.000000  0.442255  0.125470  1
  Tm  Tm7  1  0.000000  0.557617  0.874482  1
  B  B8  1  0.500000  0.553060  0.434078  1
  B  B9  1  0.500000  0.446924  0.565930  1
  B  B10  1  0.500000  0.054024  0.066469  1
  B  B11  1  0.500000  0.946218  0.933403  1
  B  B12  1  0.500000  0.750705  0.420523  1
  B  B13  1  0.500000  0.249305  0.579502  1
  B  B14  1  0.500000  0.248418  0.079597  1
  B  B15  1  0.500000  0.751545  0.920206  1
  B  B16  1  0.500000  0.793210  0.265496  1
  B  B17  1  0.500000  0.206748  0.734659  1
  B  B18  1  0.500000  0.292291  0.234261  1
  B  B19  1  0.500000  0.707726  0.765712  1
  B  B20  1  0.500000  0.631528  0.183807  1
  B  B21  1  0.500000  0.368298  0.816278  1
  B  B22  1  0.500000  0.131776  0.315012  1
  B  B23  1  0.500000  0.868255  0.684986  1
  B  B24  1  0.500000  0.983037  0.212935  1
  B  B25  1  0.500000  0.017184  0.787142  1
  B  B26  1  0.500000  0.481343  0.286493  1
  B  B27  1  0.500000  0.518607  0.713494  1
  B  B28  1  0.500000  0.608910  0.030218  1
  B  B29  1  0.500000  0.390808  0.969708  1
  B  B30  1  0.500000  0.108637  0.470507  1
  B  B31  1  0.500000  0.891374  0.529496  1
  Ir  Ir32  1  0.000000  0.637498  0.321783  1
  Ir  Ir33  1  0.000000  0.362436  0.678262  1
  Ru  Ru34  1  0.000000  0.138167  0.179125  1
  Ru  Ru35  1  0.000000  0.862006  0.820824  1
