# generated using pymatgen
data_TbNd3Si4(Ag2Sn)2
_symmetry_space_group_name_H-M   'P 1'
_cell_length_a   9.79924845
_cell_length_b   9.79924879
_cell_length_c   7.09611200
_cell_angle_alpha   90.00000000
_cell_angle_beta   90.00000000
_cell_angle_gamma   153.34088498
_symmetry_Int_Tables_number   1
_chemical_formula_structural   TbNd3Si4(Ag2Sn)2
_chemical_formula_sum   'Tb1 Nd3 Si4 Ag4 Sn2'
_cell_volume   305.73423732
_cell_formula_units_Z   1
loop_
 _symmetry_equiv_pos_site_id
 _symmetry_equiv_pos_as_xyz
  1  'x, y, z'
loop_
 _atom_site_type_symbol
 _atom_site_label
 _atom_site_symmetry_multiplicity
 _atom_site_fract_x
 _atom_site_fract_y
 _atom_site_fract_z
 _atom_site_occupancy
  Tb  Tb0  1  0.353962  0.646038  0.250000  1
  Nd  Nd1  1  0.647305  0.352695  0.750000  1
  Nd  Nd2  1  0.547948  0.452052  0.250000  1
  Nd  Nd3  1  0.450909  0.549091  0.750000  1
  Si  Si4  1  0.054085  0.945915  0.920032  1
  Si  Si5  1  0.944756  0.055244  0.081353  1
  Si  Si6  1  0.944756  0.055244  0.418647  1
  Si  Si7  1  0.054085  0.945915  0.579968  1
  Ag  Ag8  1  0.177507  0.822493  0.052428  1
  Ag  Ag9  1  0.177507  0.822493  0.447572  1
  Ag  Ag10  1  0.822894  0.177106  0.950261  1
  Ag  Ag11  1  0.822894  0.177106  0.549739  1
  Sn  Sn12  1  0.723830  0.276170  0.250000  1
  Sn  Sn13  1  0.277559  0.722441  0.750000  1
