# generated using pymatgen
data_Hf6TaNb3(Si3N)2
_symmetry_space_group_name_H-M   'P 1'
_cell_length_a   7.73624400
_cell_length_b   7.73624328
_cell_length_c   5.41268100
_cell_angle_alpha   90.00000000
_cell_angle_beta   90.00000000
_cell_angle_gamma   120.00000309
_symmetry_Int_Tables_number   1
_chemical_formula_structural   Hf6TaNb3(Si3N)2
_chemical_formula_sum   'Hf6 Ta1 Nb3 Si6 N2'
_cell_volume   280.54551348
_cell_formula_units_Z   1
loop_
 _symmetry_equiv_pos_site_id
 _symmetry_equiv_pos_as_xyz
  1  'x, y, z'
loop_
 _atom_site_type_symbol
 _atom_site_label
 _atom_site_symmetry_multiplicity
 _atom_site_fract_x
 _atom_site_fract_y
 _atom_site_fract_z
 _atom_site_occupancy
  Hf  Hf0  1  0.236095  0.999725  0.249644  1
  Hf  Hf1  1  0.763630  0.999725  0.750356  1
  Hf  Hf2  1  0.000275  0.236370  0.249644  1
  Hf  Hf3  1  0.000275  0.763905  0.750356  1
  Hf  Hf4  1  0.763630  0.763905  0.249644  1
  Hf  Hf5  1  0.236095  0.236370  0.750356  1
  Ta  Ta6  1  0.333333  0.666667  0.500000  1
  Nb  Nb7  1  0.333333  0.666667  0.000000  1
  Nb  Nb8  1  0.666667  0.333333  0.000000  1
  Nb  Nb9  1  0.666667  0.333333  0.500000  1
  Si  Si10  1  0.591994  0.999824  0.249916  1
  Si  Si11  1  0.407830  0.999824  0.750084  1
  Si  Si12  1  0.000176  0.592170  0.249916  1
  Si  Si13  1  0.000176  0.408006  0.750084  1
  Si  Si14  1  0.407830  0.408006  0.249916  1
  Si  Si15  1  0.591994  0.592170  0.750084  1
  N  N16  1  0.000000  0.000000  0.000000  1
  N  N17  1  0.000000  0.000000  0.500000  1
