# generated using pymatgen
data_Sc12Mn(Si4Au)3
_symmetry_space_group_name_H-M   'P 1'
_cell_length_a   4.02746900
_cell_length_b   10.43904286
_cell_length_c   11.79053711
_cell_angle_alpha   90.12654641
_cell_angle_beta   90.00000000
_cell_angle_gamma   90.00000000
_symmetry_Int_Tables_number   1
_chemical_formula_structural   Sc12Mn(Si4Au)3
_chemical_formula_sum   'Sc12 Mn1 Si12 Au3'
_cell_volume   495.70741681
_cell_formula_units_Z   1
loop_
 _symmetry_equiv_pos_site_id
 _symmetry_equiv_pos_as_xyz
  1  'x, y, z'
loop_
 _atom_site_type_symbol
 _atom_site_label
 _atom_site_symmetry_multiplicity
 _atom_site_fract_x
 _atom_site_fract_y
 _atom_site_fract_z
 _atom_site_occupancy
  Sc  Sc0  1  0.250000  0.873005  0.018494  1
  Sc  Sc1  1  0.250000  0.626648  0.522829  1
  Sc  Sc2  1  0.750000  0.121819  0.974765  1
  Sc  Sc3  1  0.750000  0.372909  0.479231  1
  Sc  Sc4  1  0.250000  0.922050  0.600891  1
  Sc  Sc5  1  0.250000  0.577868  0.097911  1
  Sc  Sc6  1  0.750000  0.077740  0.400394  1
  Sc  Sc7  1  0.750000  0.421487  0.900149  1
  Sc  Sc8  1  0.250000  0.664397  0.800071  1
  Sc  Sc9  1  0.250000  0.840737  0.301917  1
  Sc  Sc10  1  0.750000  0.340421  0.198522  1
  Sc  Sc11  1  0.750000  0.152886  0.701844  1
  Mn  Mn12  1  0.750000  0.887510  0.824334  1
  Si  Si13  1  0.250000  0.013012  0.824676  1
  Si  Si14  1  0.250000  0.475116  0.327490  1
  Si  Si15  1  0.750000  0.975309  0.174675  1
  Si  Si16  1  0.750000  0.527046  0.670980  1
  Si  Si17  1  0.250000  0.244038  0.848499  1
  Si  Si18  1  0.250000  0.251787  0.348913  1
  Si  Si19  1  0.750000  0.752305  0.149809  1
  Si  Si20  1  0.750000  0.755422  0.660295  1
  Si  Si21  1  0.250000  0.180706  0.541622  1
  Si  Si22  1  0.250000  0.320311  0.039042  1
  Si  Si23  1  0.750000  0.818079  0.462473  1
  Si  Si24  1  0.750000  0.692584  0.953352  1
  Au  Au25  1  0.250000  0.384395  0.678702  1
  Au  Au26  1  0.250000  0.114708  0.176617  1
  Au  Au27  1  0.750000  0.615704  0.321503  1
