# generated using pymatgen
data_Tb9Dy7MgCo4Au3
_symmetry_space_group_name_H-M   'P 1'
_cell_length_a   9.41026653
_cell_length_b   9.44719471
_cell_length_c   9.44719604
_cell_angle_alpha   60.00455975
_cell_angle_beta   59.88067745
_cell_angle_gamma   59.88066556
_symmetry_Int_Tables_number   1
_chemical_formula_structural   Tb9Dy7MgCo4Au3
_chemical_formula_sum   'Tb9 Dy7 Mg1 Co4 Au3'
_cell_volume   592.81878346
_cell_formula_units_Z   1
loop_
 _symmetry_equiv_pos_site_id
 _symmetry_equiv_pos_as_xyz
  1  'x, y, z'
loop_
 _atom_site_type_symbol
 _atom_site_label
 _atom_site_symmetry_multiplicity
 _atom_site_fract_x
 _atom_site_fract_y
 _atom_site_fract_z
 _atom_site_occupancy
  Tb  Tb0  1  0.563224  0.936678  0.936679  1
  Tb  Tb1  1  0.563563  0.936298  0.563377  1
  Tb  Tb2  1  0.936838  0.562068  0.938782  1
  Tb  Tb3  1  0.563563  0.563376  0.936299  1
  Tb  Tb4  1  0.936838  0.938781  0.562069  1
  Tb  Tb5  1  0.348106  0.346932  0.346932  1
  Tb  Tb6  1  0.348340  0.346597  0.958315  1
  Tb  Tb7  1  0.348340  0.958315  0.346597  1
  Tb  Tb8  1  0.931742  0.356300  0.356300  1
  Dy  Dy9  1  0.807963  0.190321  0.190321  1
  Dy  Dy10  1  0.186802  0.814026  0.814026  1
  Dy  Dy11  1  0.186362  0.813934  0.185638  1
  Dy  Dy12  1  0.808075  0.190625  0.811283  1
  Dy  Dy13  1  0.186362  0.185638  0.813934  1
  Dy  Dy14  1  0.808075  0.811283  0.190625  1
  Dy  Dy15  1  0.936644  0.561976  0.561977  1
  Mg  Mg16  1  0.310702  0.563200  0.563200  1
  Co  Co17  1  0.134395  0.144264  0.144264  1
  Co  Co18  1  0.133840  0.144683  0.577151  1
  Co  Co19  1  0.133840  0.577151  0.144683  1
  Co  Co20  1  0.574920  0.141545  0.141545  1
  Au  Au21  1  0.584383  0.591053  0.591053  1
  Au  Au22  1  0.583542  0.591195  0.233754  1
  Au  Au23  1  0.583542  0.233754  0.591195  1
