# generated using pymatgen
data_BaSrLu2(Ge4N7)2
_symmetry_space_group_name_H-M   'P 1'
_cell_length_a   6.28432800
_cell_length_b   6.28432690
_cell_length_c   10.25758900
_cell_angle_alpha   90.00000000
_cell_angle_beta   90.00000000
_cell_angle_gamma   119.99999527
_symmetry_Int_Tables_number   1
_chemical_formula_structural   BaSrLu2(Ge4N7)2
_chemical_formula_sum   'Ba1 Sr1 Lu2 Ge8 N14'
_cell_volume   350.82744340
_cell_formula_units_Z   1
loop_
 _symmetry_equiv_pos_site_id
 _symmetry_equiv_pos_as_xyz
  1  'x, y, z'
loop_
 _atom_site_type_symbol
 _atom_site_label
 _atom_site_symmetry_multiplicity
 _atom_site_fract_x
 _atom_site_fract_y
 _atom_site_fract_z
 _atom_site_occupancy
  Ba  Ba0  1  0.666667  0.333333  0.579464  1
  Sr  Sr1  1  0.333333  0.666667  0.082708  1
  Lu  Lu2  1  0.666667  0.333333  0.951391  1
  Lu  Lu3  1  0.333333  0.666667  0.450143  1
  Ge  Ge4  1  0.173897  0.347794  0.761482  1
  Ge  Ge5  1  0.826520  0.173480  0.259921  1
  Ge  Ge6  1  0.346961  0.173480  0.259921  1
  Ge  Ge7  1  0.652206  0.826103  0.761482  1
  Ge  Ge8  1  0.173897  0.826103  0.761482  1
  Ge  Ge9  1  0.826520  0.653039  0.259921  1
  Ge  Ge10  1  0.000000  0.000000  0.024625  1
  Ge  Ge11  1  0.000000  0.000000  0.525283  1
  N  N12  1  0.000000  0.000000  0.832597  1
  N  N13  1  0.000000  0.000000  0.332627  1
  N  N14  1  0.839690  0.679379  0.080583  1
  N  N15  1  0.160654  0.839346  0.581168  1
  N  N16  1  0.678692  0.839346  0.581168  1
  N  N17  1  0.320621  0.160310  0.080583  1
  N  N18  1  0.839690  0.160310  0.080583  1
  N  N19  1  0.160654  0.321308  0.581168  1
  N  N20  1  0.495085  0.504915  0.821477  1
  N  N21  1  0.993339  0.496669  0.317637  1
  N  N22  1  0.503331  0.006661  0.317637  1
  N  N23  1  0.495085  0.990170  0.821477  1
  N  N24  1  0.503331  0.496669  0.317637  1
  N  N25  1  0.009830  0.504915  0.821477  1
