# generated using pymatgen
data_Hf8Fe3Co4Si14Au
_symmetry_space_group_name_H-M   'P 1'
_cell_length_a   9.54413228
_cell_length_b   9.50575945
_cell_length_c   9.48902091
_cell_angle_alpha   94.07295578
_cell_angle_beta   94.28875389
_cell_angle_gamma   148.73052993
_symmetry_Int_Tables_number   1
_chemical_formula_structural   Hf8Fe3Co4Si14Au
_chemical_formula_sum   'Hf8 Fe3 Co4 Si14 Au1'
_cell_volume   430.19221248
_cell_formula_units_Z   1
loop_
 _symmetry_equiv_pos_site_id
 _symmetry_equiv_pos_as_xyz
  1  'x, y, z'
loop_
 _atom_site_type_symbol
 _atom_site_label
 _atom_site_symmetry_multiplicity
 _atom_site_fract_x
 _atom_site_fract_y
 _atom_site_fract_z
 _atom_site_occupancy
  Hf  Hf0  1  0.136716  0.136715  0.273425  1
  Hf  Hf1  1  0.861357  0.861348  0.722700  1
  Hf  Hf2  1  0.132560  0.859978  0.998083  1
  Hf  Hf3  1  0.865515  0.138099  0.998095  1
  Hf  Hf4  1  0.305035  0.499408  0.801958  1
  Hf  Hf5  1  0.697547  0.504082  0.195572  1
  Hf  Hf6  1  0.498011  0.691472  0.195569  1
  Hf  Hf7  1  0.496924  0.302531  0.801949  1
  Fe  Fe8  1  0.392168  0.892187  0.784360  1
  Fe  Fe9  1  0.907368  0.103841  0.507458  1
  Fe  Fe10  1  0.600157  0.403622  0.507472  1
  Co  Co11  1  0.603808  0.103800  0.207605  1
  Co  Co12  1  0.901824  0.401820  0.803650  1
  Co  Co13  1  0.100617  0.891900  0.495537  1
  Co  Co14  1  0.394921  0.603687  0.495535  1
  Si  Si15  1  0.289886  0.289869  0.579606  1
  Si  Si16  1  0.710003  0.709982  0.420099  1
  Si  Si17  1  0.314169  0.730162  0.990043  1
  Si  Si18  1  0.675861  0.259882  0.990047  1
  Si  Si19  1  0.089275  0.495485  0.590242  1
  Si  Si20  1  0.864901  0.465498  0.421064  1
  Si  Si21  1  0.556165  0.955585  0.421062  1
  Si  Si22  1  0.500920  0.094740  0.590233  1
  Si  Si23  1  0.250339  0.250365  0.998581  1
  Si  Si24  1  0.748243  0.748212  0.998597  1
  Si  Si25  1  0.317790  0.030142  0.303174  1
  Si  Si26  1  0.703504  0.003361  0.700602  1
  Si  Si27  1  0.997080  0.697209  0.700569  1
  Si  Si28  1  0.985357  0.273022  0.303145  1
  Au  Au29  1  0.101980  0.601999  0.203968  1
