# generated using pymatgen
data_Ho3Tm5Sc12Ga7Si9
_symmetry_space_group_name_H-M   'P 1'
_cell_length_a   7.13266792
_cell_length_b   7.38857215
_cell_length_c   14.19737631
_cell_angle_alpha   90.01675239
_cell_angle_beta   89.94433215
_cell_angle_gamma   90.04053176
_symmetry_Int_Tables_number   1
_chemical_formula_structural   Ho3Tm5Sc12Ga7Si9
_chemical_formula_sum   'Ho3 Tm5 Sc12 Ga7 Si9'
_cell_volume   748.20444693
_cell_formula_units_Z   1
loop_
 _symmetry_equiv_pos_site_id
 _symmetry_equiv_pos_as_xyz
  1  'x, y, z'
loop_
 _atom_site_type_symbol
 _atom_site_label
 _atom_site_symmetry_multiplicity
 _atom_site_fract_x
 _atom_site_fract_y
 _atom_site_fract_z
 _atom_site_occupancy
  Ho  Ho0  1  0.012324  0.174583  0.098562  1
  Ho  Ho1  1  0.989794  0.823079  0.901813  1
  Ho  Ho2  1  0.488506  0.676879  0.901978  1
  Tm  Tm3  1  0.989580  0.823269  0.599347  1
  Tm  Tm4  1  0.510282  0.322231  0.098848  1
  Tm  Tm5  1  0.010168  0.176311  0.400433  1
  Tm  Tm6  1  0.510549  0.323063  0.400425  1
  Tm  Tm7  1  0.489613  0.676676  0.599275  1
  Sc  Sc8  1  0.163876  0.503092  0.749786  1
  Sc  Sc9  1  0.836743  0.497745  0.249913  1
  Sc  Sc10  1  0.336095  0.003114  0.249079  1
  Sc  Sc11  1  0.663410  0.997352  0.749550  1
  Sc  Sc12  1  0.330314  0.173536  0.625783  1
  Sc  Sc13  1  0.669248  0.826766  0.373932  1
  Sc  Sc14  1  0.169471  0.673808  0.373838  1
  Sc  Sc15  1  0.668029  0.825281  0.126257  1
  Sc  Sc16  1  0.830143  0.326396  0.625984  1
  Sc  Sc17  1  0.329881  0.174145  0.874915  1
  Sc  Sc18  1  0.829226  0.326531  0.874324  1
  Sc  Sc19  1  0.171995  0.675510  0.125157  1
  Ga  Ga20  1  0.161838  0.464068  0.539573  1
  Ga  Ga21  1  0.838153  0.535881  0.460255  1
  Ga  Ga22  1  0.337922  0.963714  0.460400  1
  Ga  Ga23  1  0.838261  0.537193  0.040230  1
  Ga  Ga24  1  0.661943  0.036094  0.539377  1
  Ga  Ga25  1  0.161006  0.462951  0.960760  1
  Ga  Ga26  1  0.660276  0.037285  0.961125  1
  Si  Si27  1  0.031855  0.112266  0.750650  1
  Si  Si28  1  0.967771  0.886829  0.249685  1
  Si  Si29  1  0.467586  0.611811  0.249576  1
  Si  Si30  1  0.532039  0.387337  0.750084  1
  Si  Si31  1  0.284333  0.872884  0.750322  1
  Si  Si32  1  0.715775  0.127700  0.249333  1
  Si  Si33  1  0.215469  0.372110  0.249686  1
  Si  Si34  1  0.784255  0.627654  0.750168  1
  Si  Si35  1  0.342273  0.964859  0.039576  1
