# generated using pymatgen
data_LaCe(As2Au)2
_symmetry_space_group_name_H-M   'P 1'
_cell_length_a   4.14743300
_cell_length_b   4.14743300
_cell_length_c   10.19191400
_cell_angle_alpha   90.00000000
_cell_angle_beta   90.00000000
_cell_angle_gamma   90.00000000
_symmetry_Int_Tables_number   1
_chemical_formula_structural   LaCe(As2Au)2
_chemical_formula_sum   'La1 Ce1 As4 Au2'
_cell_volume   175.31315609
_cell_formula_units_Z   1
loop_
 _symmetry_equiv_pos_site_id
 _symmetry_equiv_pos_as_xyz
  1  'x, y, z'
loop_
 _atom_site_type_symbol
 _atom_site_label
 _atom_site_symmetry_multiplicity
 _atom_site_fract_x
 _atom_site_fract_y
 _atom_site_fract_z
 _atom_site_occupancy
  La  La0  1  0.500000  0.000000  0.770971  1
  Ce  Ce1  1  0.000000  0.500000  0.232715  1
  As  As2  1  0.500000  0.000000  0.307390  1
  As  As3  1  0.000000  0.500000  0.675917  1
  As  As4  1  0.500000  0.500000  0.010126  1
  As  As5  1  0.000000  0.000000  0.010126  1
  Au  Au6  1  0.500000  0.500000  0.496378  1
  Au  Au7  1  0.000000  0.000000  0.496378  1
