# generated using pymatgen
data_Yb2SiSnPd13
_symmetry_space_group_name_H-M   'P 1'
_cell_length_a   9.04918772
_cell_length_b   9.02429300
_cell_length_c   6.97045530
_cell_angle_alpha   90.00000000
_cell_angle_beta   90.44407309
_cell_angle_gamma   90.00000000
_symmetry_Int_Tables_number   1
_chemical_formula_structural   Yb2SiSnPd13
_chemical_formula_sum   'Yb4 Si2 Sn2 Pd26'
_cell_volume   569.20785788
_cell_formula_units_Z   2
loop_
 _symmetry_equiv_pos_site_id
 _symmetry_equiv_pos_as_xyz
  1  'x, y, z'
loop_
 _atom_site_type_symbol
 _atom_site_label
 _atom_site_symmetry_multiplicity
 _atom_site_fract_x
 _atom_site_fract_y
 _atom_site_fract_z
 _atom_site_occupancy
  Yb  Yb0  1  0.521369  0.000000  0.930833  1
  Yb  Yb1  1  0.978631  0.500000  0.069167  1
  Yb  Yb2  1  0.999585  0.000000  0.498516  1
  Yb  Yb3  1  0.500415  0.500000  0.501484  1
  Si  Si4  1  0.506387  0.000000  0.441695  1
  Si  Si5  1  0.993613  0.500000  0.558305  1
  Sn  Sn6  1  0.250000  0.750000  0.000000  1
  Sn  Sn7  1  0.250000  0.250000  0.000000  1
  Pd  Pd8  1  0.339611  0.836482  0.608905  1
  Pd  Pd9  1  0.339611  0.163518  0.608905  1
  Pd  Pd10  1  0.667477  0.834117  0.616518  1
  Pd  Pd11  1  0.667477  0.165883  0.616518  1
  Pd  Pd12  1  0.160389  0.663518  0.391095  1
  Pd  Pd13  1  0.160389  0.336482  0.391095  1
  Pd  Pd14  1  0.832523  0.665883  0.383482  1
  Pd  Pd15  1  0.832523  0.334117  0.383482  1
  Pd  Pd16  1  0.502249  0.769596  0.253559  1
  Pd  Pd17  1  0.502249  0.230404  0.253559  1
  Pd  Pd18  1  0.272872  0.000000  0.253852  1
  Pd  Pd19  1  0.733590  0.000000  0.254418  1
  Pd  Pd20  1  0.997751  0.730404  0.746441  1
  Pd  Pd21  1  0.997751  0.269596  0.746441  1
  Pd  Pd22  1  0.227128  0.500000  0.746148  1
  Pd  Pd23  1  0.766410  0.500000  0.745582  1
  Pd  Pd24  1  0.498020  0.345620  0.855927  1
  Pd  Pd25  1  0.498020  0.654380  0.855927  1
  Pd  Pd26  1  0.851556  0.000000  0.854055  1
  Pd  Pd27  1  0.158548  0.000000  0.852200  1
  Pd  Pd28  1  0.001980  0.154380  0.144073  1
  Pd  Pd29  1  0.001980  0.845620  0.144073  1
  Pd  Pd30  1  0.648444  0.500000  0.145945  1
  Pd  Pd31  1  0.341452  0.500000  0.147800  1
  Pd  Pd32  1  0.750000  0.750000  0.000000  1
  Pd  Pd33  1  0.750000  0.250000  0.000000  1
