# generated using pymatgen
data_DyTm3HgPd
_symmetry_space_group_name_H-M   'P 1'
_cell_length_a   9.55763997
_cell_length_b   9.55764050
_cell_length_c   9.55764000
_cell_angle_alpha   60.00000173
_cell_angle_beta   59.99999988
_cell_angle_gamma   60.00000177
_symmetry_Int_Tables_number   1
_chemical_formula_structural   DyTm3HgPd
_chemical_formula_sum   'Dy4 Tm12 Hg4 Pd4'
_cell_volume   617.35794168
_cell_formula_units_Z   4
loop_
 _symmetry_equiv_pos_site_id
 _symmetry_equiv_pos_as_xyz
  1  'x, y, z'
loop_
 _atom_site_type_symbol
 _atom_site_label
 _atom_site_symmetry_multiplicity
 _atom_site_fract_x
 _atom_site_fract_y
 _atom_site_fract_z
 _atom_site_occupancy
  Dy  Dy0  1  0.358567  0.358567  0.358567  1
  Dy  Dy1  1  0.358567  0.358567  0.924299  1
  Dy  Dy2  1  0.358567  0.924299  0.358567  1
  Dy  Dy3  1  0.924299  0.358567  0.358567  1
  Tm  Tm4  1  0.813031  0.186969  0.186969  1
  Tm  Tm5  1  0.186969  0.813031  0.813031  1
  Tm  Tm6  1  0.186969  0.813031  0.186969  1
  Tm  Tm7  1  0.813031  0.186969  0.813031  1
  Tm  Tm8  1  0.186969  0.186969  0.813031  1
  Tm  Tm9  1  0.813031  0.813031  0.186969  1
  Tm  Tm10  1  0.934466  0.565534  0.565534  1
  Tm  Tm11  1  0.565534  0.934466  0.934466  1
  Tm  Tm12  1  0.565534  0.934466  0.565534  1
  Tm  Tm13  1  0.934466  0.565534  0.934466  1
  Tm  Tm14  1  0.565534  0.565534  0.934466  1
  Tm  Tm15  1  0.934466  0.934466  0.565534  1
  Hg  Hg16  1  0.588446  0.588446  0.588446  1
  Hg  Hg17  1  0.588446  0.588446  0.234662  1
  Hg  Hg18  1  0.588446  0.234662  0.588446  1
  Hg  Hg19  1  0.234662  0.588446  0.588446  1
  Pd  Pd20  1  0.145346  0.145346  0.145346  1
  Pd  Pd21  1  0.145346  0.145346  0.563964  1
  Pd  Pd22  1  0.145346  0.563964  0.145346  1
  Pd  Pd23  1  0.563964  0.145346  0.145346  1
