# generated using pymatgen
data_DyTm(MoN3)2
_symmetry_space_group_name_H-M   'P 1'
_cell_length_a   7.36224618
_cell_length_b   7.36215667
_cell_length_c   6.27235200
_cell_angle_alpha   72.65421222
_cell_angle_beta   72.65282363
_cell_angle_gamma   81.69446082
_symmetry_Int_Tables_number   1
_chemical_formula_structural   DyTm(MoN3)2
_chemical_formula_sum   'Dy2 Tm2 Mo4 N12'
_cell_volume   309.17631484
_cell_formula_units_Z   2
loop_
 _symmetry_equiv_pos_site_id
 _symmetry_equiv_pos_as_xyz
  1  'x, y, z'
loop_
 _atom_site_type_symbol
 _atom_site_label
 _atom_site_symmetry_multiplicity
 _atom_site_fract_x
 _atom_site_fract_y
 _atom_site_fract_z
 _atom_site_occupancy
  Dy  Dy0  1  0.714633  0.285375  0.250001  1
  Dy  Dy1  1  0.285367  0.714625  0.749999  1
  Tm  Tm2  1  0.911316  0.088682  0.750001  1
  Tm  Tm3  1  0.088684  0.911318  0.249999  1
  Mo  Mo4  1  0.620881  0.798673  0.276309  1
  Mo  Mo5  1  0.201330  0.379119  0.223697  1
  Mo  Mo6  1  0.379119  0.201327  0.723691  1
  Mo  Mo7  1  0.798670  0.620881  0.776303  1
  N  N8  1  0.666091  0.624703  0.081461  1
  N  N9  1  0.376291  0.884031  0.328409  1
  N  N10  1  0.375299  0.333910  0.418537  1
  N  N11  1  0.115961  0.623707  0.171596  1
  N  N12  1  0.003143  0.212965  0.347496  1
  N  N13  1  0.787032  0.996861  0.152505  1
  N  N14  1  0.212968  0.003139  0.847495  1
  N  N15  1  0.623709  0.115969  0.671591  1
  N  N16  1  0.333909  0.375297  0.918539  1
  N  N17  1  0.884039  0.376293  0.828404  1
  N  N18  1  0.624701  0.666090  0.581463  1
  N  N19  1  0.996857  0.787035  0.652504  1
