# generated using pymatgen
data_Pr6SiGeI6
_symmetry_space_group_name_H-M   'P 1'
_cell_length_a   10.92414569
_cell_length_b   10.92414739
_cell_length_c   10.94934927
_cell_angle_alpha   109.47343602
_cell_angle_beta   109.47344397
_cell_angle_gamma   109.37335458
_symmetry_Int_Tables_number   1
_chemical_formula_structural   Pr6SiGeI6
_chemical_formula_sum   'Pr12 Si2 Ge2 I12'
_cell_volume   1007.02641595
_cell_formula_units_Z   2
loop_
 _symmetry_equiv_pos_site_id
 _symmetry_equiv_pos_as_xyz
  1  'x, y, z'
loop_
 _atom_site_type_symbol
 _atom_site_label
 _atom_site_symmetry_multiplicity
 _atom_site_fract_x
 _atom_site_fract_y
 _atom_site_fract_z
 _atom_site_occupancy
  Pr  Pr0  1  0.467018  0.480874  0.235289  1
  Pr  Pr1  1  0.745584  0.231728  0.264710  1
  Pr  Pr2  1  0.745524  0.014636  0.480162  1
  Pr  Pr3  1  0.234637  0.465528  0.480162  1
  Pr  Pr4  1  0.268272  0.754415  0.235289  1
  Pr  Pr5  1  0.034474  0.265363  0.019837  1
  Pr  Pr6  1  0.019127  0.032983  0.264711  1
  Pr  Pr7  1  0.485364  0.754475  0.019837  1
  Pr  Pr8  1  0.482523  0.232523  0.465046  1
  Pr  Pr9  1  0.016106  0.483893  0.750000  1
  Pr  Pr10  1  0.267476  0.017476  0.034953  1
  Pr  Pr11  1  0.233893  0.266107  0.750000  1
  Si  Si12  1  0.250432  0.249567  0.250000  1
  Si  Si13  1  0.499568  0.000432  0.250000  1
  Ge  Ge14  1  0.999682  0.249682  0.499364  1
  Ge  Ge15  1  0.250318  0.500318  0.000637  1
  I  I16  1  0.249685  0.755656  0.742983  1
  I  I17  1  0.512672  0.506702  0.757017  1
  I  I18  1  0.985958  0.742346  0.992508  1
  I  I19  1  0.744344  0.250315  0.757017  1
  I  I20  1  0.993298  0.987328  0.742983  1
  I  I21  1  0.249839  0.993449  0.507493  1
  I  I22  1  0.757654  0.514042  0.507493  1
  I  I23  1  0.506551  0.250162  0.992508  1
  I  I24  1  0.756568  0.743432  0.250000  1
  I  I25  1  0.743153  0.993153  0.986306  1
  I  I26  1  0.993432  0.506568  0.250000  1
  I  I27  1  0.506847  0.756847  0.513694  1
