# generated using pymatgen
data_YbCe3(Al3Ir)6
_symmetry_space_group_name_H-M   'P 1'
_cell_length_a   7.60860822
_cell_length_b   7.59761062
_cell_length_c   9.47797000
_cell_angle_alpha   90.00000000
_cell_angle_beta   90.00000000
_cell_angle_gamma   119.52957169
_symmetry_Int_Tables_number   1
_chemical_formula_structural   YbCe3(Al3Ir)6
_chemical_formula_sum   'Yb1 Ce3 Al18 Ir6'
_cell_volume   476.72449291
_cell_formula_units_Z   1
loop_
 _symmetry_equiv_pos_site_id
 _symmetry_equiv_pos_as_xyz
  1  'x, y, z'
loop_
 _atom_site_type_symbol
 _atom_site_label
 _atom_site_symmetry_multiplicity
 _atom_site_fract_x
 _atom_site_fract_y
 _atom_site_fract_z
 _atom_site_occupancy
  Yb  Yb0  1  0.995002  0.671464  0.250000  1
  Ce  Ce1  1  0.004480  0.329277  0.750000  1
  Ce  Ce2  1  0.671087  0.997603  0.250000  1
  Ce  Ce3  1  0.328942  0.003111  0.750000  1
  Al  Al4  1  0.127888  0.128802  0.250000  1
  Al  Al5  1  0.870211  0.867966  0.750000  1
  Al  Al6  1  0.003436  0.338977  0.076549  1
  Al  Al7  1  0.997446  0.664527  0.927948  1
  Al  Al8  1  0.997446  0.664527  0.572052  1
  Al  Al9  1  0.332100  0.000208  0.423530  1
  Al  Al10  1  0.003436  0.338977  0.423451  1
  Al  Al11  1  0.664418  0.996757  0.576139  1
  Al  Al12  1  0.664418  0.996757  0.923861  1
  Al  Al13  1  0.332100  0.000208  0.076470  1
  Al  Al14  1  0.334943  0.334359  0.550084  1
  Al  Al15  1  0.667353  0.665360  0.447340  1
  Al  Al16  1  0.667353  0.665360  0.052660  1
  Al  Al17  1  0.334943  0.334359  0.949916  1
  Al  Al18  1  0.341356  0.549489  0.250000  1
  Al  Al19  1  0.659899  0.452726  0.750000  1
  Al  Al20  1  0.548254  0.340597  0.250000  1
  Al  Al21  1  0.453084  0.658065  0.750000  1
  Ir  Ir22  1  0.671063  0.326800  0.998969  1
  Ir  Ir23  1  0.328973  0.672204  0.998367  1
  Ir  Ir24  1  0.328973  0.672204  0.501633  1
  Ir  Ir25  1  0.671063  0.326800  0.501031  1
  Ir  Ir26  1  0.000166  0.001257  0.998577  1
  Ir  Ir27  1  0.000166  0.001257  0.501423  1
