# generated using pymatgen
data_Hf18Re5As2W3
_symmetry_space_group_name_H-M   'P 1'
_cell_length_a   8.66693181
_cell_length_b   8.68583766
_cell_length_c   8.63721600
_cell_angle_alpha   90.00000000
_cell_angle_beta   90.00000000
_cell_angle_gamma   119.92464457
_symmetry_Int_Tables_number   1
_chemical_formula_structural   Hf18Re5As2W3
_chemical_formula_sum   'Hf18 Re5 As2 W3'
_cell_volume   563.52186636
_cell_formula_units_Z   1
loop_
 _symmetry_equiv_pos_site_id
 _symmetry_equiv_pos_as_xyz
  1  'x, y, z'
loop_
 _atom_site_type_symbol
 _atom_site_label
 _atom_site_symmetry_multiplicity
 _atom_site_fract_x
 _atom_site_fract_y
 _atom_site_fract_z
 _atom_site_occupancy
  Hf  Hf0  1  0.805532  0.610974  0.545685  1
  Hf  Hf1  1  0.805393  0.194606  0.545067  1
  Hf  Hf2  1  0.388549  0.194216  0.545404  1
  Hf  Hf3  1  0.194527  0.389134  0.452569  1
  Hf  Hf4  1  0.194770  0.805508  0.453969  1
  Hf  Hf5  1  0.611388  0.805864  0.453643  1
  Hf  Hf6  1  0.194527  0.389134  0.047431  1
  Hf  Hf7  1  0.194770  0.805508  0.046031  1
  Hf  Hf8  1  0.611388  0.805864  0.046357  1
  Hf  Hf9  1  0.805532  0.610974  0.954315  1
  Hf  Hf10  1  0.805393  0.194606  0.954933  1
  Hf  Hf11  1  0.388549  0.194216  0.954596  1
  Hf  Hf12  1  0.459978  0.919646  0.750000  1
  Hf  Hf13  1  0.460034  0.540731  0.750000  1
  Hf  Hf14  1  0.080507  0.540500  0.750000  1
  Hf  Hf15  1  0.540589  0.081494  0.250000  1
  Hf  Hf16  1  0.541196  0.459394  0.250000  1
  Hf  Hf17  1  0.918384  0.459658  0.250000  1
  Re  Re18  1  0.110874  0.890135  0.750000  1
  Re  Re19  1  0.779413  0.890328  0.750000  1
  Re  Re20  1  0.890248  0.780216  0.250000  1
  Re  Re21  1  0.889380  0.109932  0.250000  1
  Re  Re22  1  0.220408  0.109753  0.250000  1
  As  As23  1  0.666899  0.334161  0.750000  1
  As  As24  1  0.333649  0.666878  0.250000  1
  W  W25  1  0.109284  0.218896  0.750000  1
  W  W26  1  0.999419  0.998837  0.499196  1
  W  W27  1  0.999419  0.998837  0.000804  1
