# generated using pymatgen
data_Ho2Tm2OsWC4
_symmetry_space_group_name_H-M   'P 1'
_cell_length_a   5.06347800
_cell_length_b   6.56319755
_cell_length_c   9.81819029
_cell_angle_alpha   89.25247634
_cell_angle_beta   90.00000000
_cell_angle_gamma   90.00000000
_symmetry_Int_Tables_number   1
_chemical_formula_structural   Ho2Tm2OsWC4
_chemical_formula_sum   'Ho4 Tm4 Os2 W2 C8'
_cell_volume   326.25628400
_cell_formula_units_Z   2
loop_
 _symmetry_equiv_pos_site_id
 _symmetry_equiv_pos_as_xyz
  1  'x, y, z'
loop_
 _atom_site_type_symbol
 _atom_site_label
 _atom_site_symmetry_multiplicity
 _atom_site_fract_x
 _atom_site_fract_y
 _atom_site_fract_z
 _atom_site_occupancy
  Ho  Ho0  1  0.250000  0.539472  0.218401  1
  Ho  Ho1  1  0.750000  0.460528  0.781599  1
  Ho  Ho2  1  0.750000  0.967916  0.716737  1
  Ho  Ho3  1  0.250000  0.032084  0.283263  1
  Tm  Tm4  1  0.250000  0.675898  0.558568  1
  Tm  Tm5  1  0.750000  0.324102  0.441432  1
  Tm  Tm6  1  0.750000  0.825577  0.059046  1
  Tm  Tm7  1  0.250000  0.174423  0.940954  1
  Os  Os8  1  0.750000  0.779483  0.367714  1
  Os  Os9  1  0.250000  0.220517  0.632286  1
  W  W10  1  0.250000  0.716165  0.868784  1
  W  W11  1  0.750000  0.283835  0.131216  1
  C  C12  1  0.250000  0.449116  0.758506  1
  C  C13  1  0.750000  0.550884  0.241494  1
  C  C14  1  0.750000  0.047387  0.260306  1
  C  C15  1  0.250000  0.952613  0.739694  1
  C  C16  1  0.250000  0.828076  0.054580  1
  C  C17  1  0.750000  0.171924  0.945420  1
  C  C18  1  0.750000  0.673519  0.550222  1
  C  C19  1  0.250000  0.326481  0.449778  1
