# generated using pymatgen
data_Tb(Ho3Se4)2
_symmetry_space_group_name_H-M   'P 1'
_cell_length_a   8.15081304
_cell_length_b   8.15002214
_cell_length_c   8.15081300
_cell_angle_alpha   119.99678488
_cell_angle_beta   89.99428505
_cell_angle_gamma   119.99678814
_symmetry_Int_Tables_number   1
_chemical_formula_structural   Tb(Ho3Se4)2
_chemical_formula_sum   'Tb1 Ho6 Se8'
_cell_volume   382.92126120
_cell_formula_units_Z   1
loop_
 _symmetry_equiv_pos_site_id
 _symmetry_equiv_pos_as_xyz
  1  'x, y, z'
loop_
 _atom_site_type_symbol
 _atom_site_label
 _atom_site_symmetry_multiplicity
 _atom_site_fract_x
 _atom_site_fract_y
 _atom_site_fract_z
 _atom_site_occupancy
  Tb  Tb0  1  0.750004  0.000000  0.249997  1
  Ho  Ho1  1  0.249998  0.999985  0.249990  1
  Ho  Ho2  1  0.249998  0.500003  0.249990  1
  Ho  Ho3  1  0.250000  0.500001  0.750003  1
  Ho  Ho4  1  0.250006  0.000000  0.749995  1
  Ho  Ho5  1  0.750010  0.000015  0.750002  1
  Ho  Ho6  1  0.750010  0.499996  0.750002  1
  Se  Se7  1  0.001080  0.000000  0.998920  1
  Se  Se8  1  0.498913  0.000000  0.501087  1
  Se  Se9  1  0.999574  0.996965  0.499583  1
  Se  Se10  1  0.999574  0.502192  0.499583  1
  Se  Se11  1  0.501701  0.500001  0.498302  1
  Se  Se12  1  0.998299  0.500001  0.001703  1
  Se  Se13  1  0.500418  0.497810  0.000426  1
  Se  Se14  1  0.500418  0.003034  0.000426  1
