# generated using pymatgen
data_CdRh4Pb3O14
_symmetry_space_group_name_H-M   'P 1'
_cell_length_a   7.30503722
_cell_length_b   7.24606842
_cell_length_c   7.30503700
_cell_angle_alpha   59.73041595
_cell_angle_beta   59.99998739
_cell_angle_gamma   59.73042284
_symmetry_Int_Tables_number   1
_chemical_formula_structural   CdRh4Pb3O14
_chemical_formula_sum   'Cd1 Rh4 Pb3 O14'
_cell_volume   272.30182396
_cell_formula_units_Z   1
loop_
 _symmetry_equiv_pos_site_id
 _symmetry_equiv_pos_as_xyz
  1  'x, y, z'
loop_
 _atom_site_type_symbol
 _atom_site_label
 _atom_site_symmetry_multiplicity
 _atom_site_fract_x
 _atom_site_fract_y
 _atom_site_fract_z
 _atom_site_occupancy
  Cd  Cd0  1  0.125000  0.625000  0.125000  1
  Rh  Rh1  1  0.625000  0.625000  0.125000  1
  Rh  Rh2  1  0.625000  0.625000  0.625000  1
  Rh  Rh3  1  0.625000  0.125000  0.625000  1
  Rh  Rh4  1  0.125000  0.625000  0.625000  1
  Pb  Pb5  1  0.125000  0.125000  0.125000  1
  Pb  Pb6  1  0.625000  0.125000  0.125000  1
  Pb  Pb7  1  0.125000  0.125000  0.625000  1
  O  O8  1  0.708628  0.289761  0.292984  1
  O  O9  1  0.708628  0.289761  0.708628  1
  O  O10  1  0.004667  0.985999  0.004667  1
  O  O11  1  0.297931  0.710074  0.297931  1
  O  O12  1  0.694065  0.710074  0.297931  1
  O  O13  1  0.952069  0.539926  0.555935  1
  O  O14  1  0.297931  0.710074  0.694065  1
  O  O15  1  0.245333  0.264001  0.245333  1
  O  O16  1  0.952069  0.539926  0.952069  1
  O  O17  1  0.541372  0.960239  0.541372  1
  O  O18  1  0.555935  0.539926  0.952069  1
  O  O19  1  0.957016  0.960239  0.541372  1
  O  O20  1  0.541372  0.960239  0.957016  1
  O  O21  1  0.292984  0.289761  0.708628  1
