# generated using pymatgen
data_Hf2Co9Si7Ir3
_symmetry_space_group_name_H-M   'P 1'
_cell_length_a   3.64151300
_cell_length_b   9.01148667
_cell_length_c   9.01148700
_cell_angle_alpha   120.00000488
_cell_angle_beta   90.00000000
_cell_angle_gamma   90.00000000
_symmetry_Int_Tables_number   1
_chemical_formula_structural   Hf2Co9Si7Ir3
_chemical_formula_sum   'Hf2 Co9 Si7 Ir3'
_cell_volume   256.09752437
_cell_formula_units_Z   1
loop_
 _symmetry_equiv_pos_site_id
 _symmetry_equiv_pos_as_xyz
  1  'x, y, z'
loop_
 _atom_site_type_symbol
 _atom_site_label
 _atom_site_symmetry_multiplicity
 _atom_site_fract_x
 _atom_site_fract_y
 _atom_site_fract_z
 _atom_site_occupancy
  Hf  Hf0  1  0.000000  0.666667  0.333333  1
  Hf  Hf1  1  0.500000  0.333333  0.666667  1
  Co  Co2  1  0.000000  0.563415  0.939700  1
  Co  Co3  1  0.000000  0.376285  0.436585  1
  Co  Co4  1  0.000000  0.060300  0.623715  1
  Co  Co5  1  0.000000  0.871594  0.157656  1
  Co  Co6  1  0.000000  0.286062  0.128406  1
  Co  Co7  1  0.000000  0.842344  0.713938  1
  Co  Co8  1  0.500000  0.944005  0.383029  1
  Co  Co9  1  0.500000  0.439024  0.055995  1
  Co  Co10  1  0.500000  0.616971  0.560976  1
  Si  Si11  1  0.000000  0.000000  0.000000  1
  Si  Si12  1  0.500000  0.706572  0.121020  1
  Si  Si13  1  0.500000  0.414449  0.293428  1
  Si  Si14  1  0.500000  0.878980  0.585551  1
  Si  Si15  1  0.000000  0.587793  0.703089  1
  Si  Si16  1  0.000000  0.115298  0.412207  1
  Si  Si17  1  0.000000  0.296911  0.884702  1
  Ir  Ir18  1  0.500000  0.765540  0.893176  1
  Ir  Ir19  1  0.500000  0.127636  0.234460  1
  Ir  Ir20  1  0.500000  0.106824  0.872364  1
