# generated using pymatgen
data_Li4(GaCu2)3
_symmetry_space_group_name_H-M   'P 1'
_cell_length_a   4.91564500
_cell_length_b   4.91564523
_cell_length_c   17.34197900
_cell_angle_alpha   90.00000000
_cell_angle_beta   90.00000000
_cell_angle_gamma   119.99999172
_symmetry_Int_Tables_number   1
_chemical_formula_structural   Li4(GaCu2)3
_chemical_formula_sum   'Li8 Ga6 Cu12'
_cell_volume   362.90283990
_cell_formula_units_Z   2
loop_
 _symmetry_equiv_pos_site_id
 _symmetry_equiv_pos_as_xyz
  1  'x, y, z'
loop_
 _atom_site_type_symbol
 _atom_site_label
 _atom_site_symmetry_multiplicity
 _atom_site_fract_x
 _atom_site_fract_y
 _atom_site_fract_z
 _atom_site_occupancy
  Li  Li0  1  0.333333  0.666667  0.521662  1
  Li  Li1  1  0.666667  0.333333  0.478338  1
  Li  Li2  1  0.666667  0.333333  0.021662  1
  Li  Li3  1  0.333333  0.666667  0.978338  1
  Li  Li4  1  0.333333  0.666667  0.250000  1
  Li  Li5  1  0.666667  0.333333  0.750000  1
  Li  Li6  1  0.000000  0.000000  0.250000  1
  Li  Li7  1  0.000000  0.000000  0.750000  1
  Ga  Ga8  1  0.000000  0.000000  0.000000  1
  Ga  Ga9  1  0.000000  0.000000  0.500000  1
  Ga  Ga10  1  0.333333  0.666667  0.673068  1
  Ga  Ga11  1  0.666667  0.333333  0.326932  1
  Ga  Ga12  1  0.666667  0.333333  0.173068  1
  Ga  Ga13  1  0.333333  0.666667  0.826932  1
  Cu  Cu14  1  0.168795  0.337591  0.117212  1
  Cu  Cu15  1  0.831205  0.662409  0.882789  1
  Cu  Cu16  1  0.662409  0.831205  0.117212  1
  Cu  Cu17  1  0.831205  0.662409  0.617211  1
  Cu  Cu18  1  0.337591  0.168795  0.882789  1
  Cu  Cu19  1  0.168795  0.337591  0.382788  1
  Cu  Cu20  1  0.168795  0.831205  0.117212  1
  Cu  Cu21  1  0.337591  0.168795  0.617211  1
  Cu  Cu22  1  0.831205  0.168795  0.882789  1
  Cu  Cu23  1  0.662409  0.831205  0.382788  1
  Cu  Cu24  1  0.831205  0.168795  0.617211  1
  Cu  Cu25  1  0.168795  0.831205  0.382788  1
