# generated using pymatgen
data_Yb7Sc(Ge4Mo3)4
_symmetry_space_group_name_H-M   'P 1'
_cell_length_a   6.82637540
_cell_length_b   7.01081092
_cell_length_c   13.21154361
_cell_angle_alpha   90.13430964
_cell_angle_beta   90.07250454
_cell_angle_gamma   90.06269593
_symmetry_Int_Tables_number   1
_chemical_formula_structural   Yb7Sc(Ge4Mo3)4
_chemical_formula_sum   'Yb7 Sc1 Ge16 Mo12'
_cell_volume   632.28107394
_cell_formula_units_Z   1
loop_
 _symmetry_equiv_pos_site_id
 _symmetry_equiv_pos_as_xyz
  1  'x, y, z'
loop_
 _atom_site_type_symbol
 _atom_site_label
 _atom_site_symmetry_multiplicity
 _atom_site_fract_x
 _atom_site_fract_y
 _atom_site_fract_z
 _atom_site_occupancy
  Yb  Yb0  1  0.492020  0.671629  0.589774  1
  Yb  Yb1  1  0.992329  0.828645  0.910259  1
  Yb  Yb2  1  0.507689  0.328767  0.090233  1
  Yb  Yb3  1  0.007390  0.172368  0.409631  1
  Yb  Yb4  1  0.506986  0.327741  0.410382  1
  Yb  Yb5  1  0.007625  0.171812  0.090067  1
  Yb  Yb6  1  0.491927  0.671649  0.909289  1
  Sc  Sc7  1  0.990225  0.822861  0.593020  1
  Ge  Ge8  1  0.674031  0.956070  0.456285  1
  Ge  Ge9  1  0.170839  0.544218  0.045215  1
  Ge  Ge10  1  0.329644  0.045278  0.954419  1
  Ge  Ge11  1  0.829762  0.457992  0.545157  1
  Ge  Ge12  1  0.323218  0.041399  0.545507  1
  Ge  Ge13  1  0.829009  0.454940  0.954553  1
  Ge  Ge14  1  0.670331  0.955262  0.045473  1
  Ge  Ge15  1  0.170944  0.546096  0.456337  1
  Ge  Ge16  1  0.465816  0.378324  0.748863  1
  Ge  Ge17  1  0.965312  0.119684  0.748972  1
  Ge  Ge18  1  0.535343  0.619600  0.250487  1
  Ge  Ge19  1  0.034838  0.881460  0.249612  1
  Ge  Ge20  1  0.690326  0.852722  0.749593  1
  Ge  Ge21  1  0.189140  0.648341  0.749223  1
  Ge  Ge22  1  0.309793  0.146421  0.250080  1
  Ge  Ge23  1  0.809607  0.354762  0.250320  1
  Mo  Mo24  1  0.663950  0.160475  0.627422  1
  Mo  Mo25  1  0.161091  0.336922  0.869863  1
  Mo  Mo26  1  0.339434  0.836493  0.128945  1
  Mo  Mo27  1  0.841409  0.666233  0.373079  1
  Mo  Mo28  1  0.339097  0.836225  0.371449  1
  Mo  Mo29  1  0.839432  0.663636  0.129338  1
  Mo  Mo30  1  0.661728  0.162834  0.870504  1
  Mo  Mo31  1  0.161555  0.337466  0.627840  1
  Mo  Mo32  1  0.837089  0.487004  0.748587  1
  Mo  Mo33  1  0.335594  0.013589  0.748598  1
  Mo  Mo34  1  0.162768  0.515963  0.250689  1
  Mo  Mo35  1  0.662705  0.985119  0.250934  1
