# generated using pymatgen
data_Ho14Er6CoBi8Ru3
_symmetry_space_group_name_H-M   'P 1'
_cell_length_a   7.94185690
_cell_length_b   8.97329914
_cell_length_c   12.39023414
_cell_angle_alpha   89.98476220
_cell_angle_beta   89.79102310
_cell_angle_gamma   90.01348642
_symmetry_Int_Tables_number   1
_chemical_formula_structural   Ho14Er6CoBi8Ru3
_chemical_formula_sum   'Ho14 Er6 Co1 Bi8 Ru3'
_cell_volume   882.97986559
_cell_formula_units_Z   1
loop_
 _symmetry_equiv_pos_site_id
 _symmetry_equiv_pos_as_xyz
  1  'x, y, z'
loop_
 _atom_site_type_symbol
 _atom_site_label
 _atom_site_symmetry_multiplicity
 _atom_site_fract_x
 _atom_site_fract_y
 _atom_site_fract_z
 _atom_site_occupancy
  Ho  Ho0  1  0.345019  0.749944  0.701538  1
  Ho  Ho1  1  0.656663  0.250067  0.293360  1
  Ho  Ho2  1  0.843262  0.250106  0.792219  1
  Ho  Ho3  1  0.155370  0.749889  0.205992  1
  Ho  Ho4  1  0.879656  0.749775  0.806643  1
  Ho  Ho5  1  0.119788  0.250227  0.192775  1
  Ho  Ho6  1  0.379460  0.250061  0.691888  1
  Ho  Ho7  1  0.616303  0.749955  0.312454  1
  Ho  Ho8  1  0.823679  0.957072  0.064528  1
  Ho  Ho9  1  0.175889  0.042125  0.935686  1
  Ho  Ho10  1  0.054921  0.749980  0.496987  1
  Ho  Ho11  1  0.947184  0.250021  0.503287  1
  Ho  Ho12  1  0.554693  0.250230  0.003466  1
  Ho  Ho13  1  0.445480  0.749764  0.995842  1
  Er  Er14  1  0.674932  0.543733  0.563709  1
  Er  Er15  1  0.325858  0.461849  0.437094  1
  Er  Er16  1  0.175034  0.457870  0.935832  1
  Er  Er17  1  0.325861  0.038186  0.437111  1
  Er  Er18  1  0.824549  0.542885  0.064360  1
  Er  Er19  1  0.674922  0.956219  0.563689  1
  Co  Co20  1  0.429594  0.750021  0.491125  1
  Bi  Bi21  1  0.570705  0.508534  0.826968  1
  Bi  Bi22  1  0.428950  0.492176  0.173026  1
  Bi  Bi23  1  0.071703  0.491803  0.672170  1
  Bi  Bi24  1  0.428706  0.007860  0.173086  1
  Bi  Bi25  1  0.928883  0.508737  0.328231  1
  Bi  Bi26  1  0.570931  0.991445  0.826898  1
  Bi  Bi27  1  0.928942  0.991262  0.328273  1
  Bi  Bi28  1  0.071661  0.008206  0.672122  1
  Ru  Ru29  1  0.073506  0.749490  0.989117  1
  Ru  Ru30  1  0.925616  0.250536  0.010516  1
  Ru  Ru31  1  0.572278  0.249969  0.510006  1
