# generated using pymatgen
data_Y3Ho2SnBi2
_symmetry_space_group_name_H-M   'P 1'
_cell_length_a   9.11852557
_cell_length_b   9.07857805
_cell_length_c   6.44746000
_cell_angle_alpha   90.00000000
_cell_angle_beta   90.00000000
_cell_angle_gamma   119.85517883
_symmetry_Int_Tables_number   1
_chemical_formula_structural   Y3Ho2SnBi2
_chemical_formula_sum   'Y6 Ho4 Sn2 Bi4'
_cell_volume   462.90691086
_cell_formula_units_Z   2
loop_
 _symmetry_equiv_pos_site_id
 _symmetry_equiv_pos_as_xyz
  1  'x, y, z'
loop_
 _atom_site_type_symbol
 _atom_site_label
 _atom_site_symmetry_multiplicity
 _atom_site_fract_x
 _atom_site_fract_y
 _atom_site_fract_z
 _atom_site_occupancy
  Y  Y0  1  0.994554  0.758120  0.750000  1
  Y  Y1  1  0.994554  0.236434  0.250000  1
  Y  Y2  1  0.756059  0.760859  0.250000  1
  Y  Y3  1  0.756059  0.995200  0.750000  1
  Y  Y4  1  0.245434  0.245714  0.750000  1
  Y  Y5  1  0.245434  0.999720  0.250000  1
  Ho  Ho6  1  0.340747  0.670374  0.500000  1
  Ho  Ho7  1  0.664896  0.332447  0.000000  1
  Ho  Ho8  1  0.664896  0.332447  0.500000  1
  Ho  Ho9  1  0.340747  0.670374  0.000000  1
  Sn  Sn10  1  0.608525  0.606281  0.750000  1
  Sn  Sn11  1  0.608525  0.002244  0.250000  1
  Bi  Bi12  1  0.388717  0.998889  0.750000  1
  Bi  Bi13  1  0.388717  0.389828  0.250000  1
  Bi  Bi14  1  0.001068  0.609156  0.250000  1
  Bi  Bi15  1  0.001068  0.391912  0.750000  1
