# generated using pymatgen
data_Tb3Cd3Sn2Pt
_symmetry_space_group_name_H-M   'P 1'
_cell_length_a   7.44855000
_cell_length_b   7.44854955
_cell_length_c   4.57302600
_cell_angle_alpha   90.00000000
_cell_angle_beta   90.00000000
_cell_angle_gamma   120.00000201
_symmetry_Int_Tables_number   1
_chemical_formula_structural   Tb3Cd3Sn2Pt
_chemical_formula_sum   'Tb3 Cd3 Sn2 Pt1'
_cell_volume   219.72412415
_cell_formula_units_Z   1
loop_
 _symmetry_equiv_pos_site_id
 _symmetry_equiv_pos_as_xyz
  1  'x, y, z'
loop_
 _atom_site_type_symbol
 _atom_site_label
 _atom_site_symmetry_multiplicity
 _atom_site_fract_x
 _atom_site_fract_y
 _atom_site_fract_z
 _atom_site_occupancy
  Tb  Tb0  1  0.603838  0.000000  0.000000  1
  Tb  Tb1  1  0.000000  0.603838  0.000000  1
  Tb  Tb2  1  0.396162  0.396162  0.000000  1
  Cd  Cd3  1  0.235947  0.000000  0.500000  1
  Cd  Cd4  1  0.000000  0.235947  0.500000  1
  Cd  Cd5  1  0.764053  0.764053  0.500000  1
  Sn  Sn6  1  0.333333  0.666667  0.500000  1
  Sn  Sn7  1  0.666667  0.333333  0.500000  1
  Pt  Pt8  1  0.000000  0.000000  0.000000  1
