# generated using pymatgen
data_Nb13Ni8Mo2WN4
_symmetry_space_group_name_H-M   'P 1'
_cell_length_a   8.16050522
_cell_length_b   8.16185040
_cell_length_c   8.16188303
_cell_angle_alpha   60.23002892
_cell_angle_beta   60.22191749
_cell_angle_gamma   60.22178052
_symmetry_Int_Tables_number   1
_chemical_formula_structural   Nb13Ni8Mo2WN4
_chemical_formula_sum   'Nb13 Ni8 Mo2 W1 N4'
_cell_volume   386.35237537
_cell_formula_units_Z   1
loop_
 _symmetry_equiv_pos_site_id
 _symmetry_equiv_pos_as_xyz
  1  'x, y, z'
loop_
 _atom_site_type_symbol
 _atom_site_label
 _atom_site_symmetry_multiplicity
 _atom_site_fract_x
 _atom_site_fract_y
 _atom_site_fract_z
 _atom_site_occupancy
  Nb  Nb0  1  0.312688  0.687062  0.687055  1
  Nb  Nb1  1  0.562860  0.562882  0.937297  1
  Nb  Nb2  1  0.314534  0.683823  0.314723  1
  Nb  Nb3  1  0.314548  0.314739  0.683814  1
  Nb  Nb4  1  0.683991  0.314466  0.314463  1
  Nb  Nb5  1  0.935452  0.935261  0.566186  1
  Nb  Nb6  1  0.935466  0.566177  0.935277  1
  Nb  Nb7  1  0.937312  0.562938  0.562945  1
  Nb  Nb8  1  0.566009  0.935534  0.935537  1
  Nb  Nb9  1  0.125000  0.125000  0.125000  1
  Nb  Nb10  1  0.687140  0.687118  0.312703  1
  Nb  Nb11  1  0.687150  0.312690  0.687119  1
  Nb  Nb12  1  0.562850  0.937310  0.562881  1
  Ni  Ni13  1  0.010581  0.331419  0.331428  1
  Ni  Ni14  1  0.921498  0.921594  0.921597  1
  Ni  Ni15  1  0.331509  0.331387  0.010547  1
  Ni  Ni16  1  0.918491  0.918613  0.239453  1
  Ni  Ni17  1  0.239419  0.918581  0.918572  1
  Ni  Ni18  1  0.331504  0.010534  0.331395  1
  Ni  Ni19  1  0.918496  0.239466  0.918605  1
  Ni  Ni20  1  0.328502  0.328406  0.328403  1
  Mo  Mo21  1  0.125000  0.125000  0.625000  1
  Mo  Mo22  1  0.125000  0.625000  0.125000  1
  W  W23  1  0.625000  0.125000  0.125000  1
  N  N24  1  0.625000  0.125000  0.625000  1
  N  N25  1  0.625000  0.625000  0.125000  1
  N  N26  1  0.125000  0.625000  0.625000  1
  N  N27  1  0.625000  0.625000  0.625000  1
