# generated using pymatgen
data_Lu3Zr(CoB4)4
_symmetry_space_group_name_H-M   'P 1'
_cell_length_a   3.31058600
_cell_length_b   5.83374615
_cell_length_c   11.31529129
_cell_angle_alpha   90.02583175
_cell_angle_beta   90.00000000
_cell_angle_gamma   90.00000000
_symmetry_Int_Tables_number   1
_chemical_formula_structural   Lu3Zr(CoB4)4
_chemical_formula_sum   'Lu3 Zr1 Co4 B16'
_cell_volume   218.53353732
_cell_formula_units_Z   1
loop_
 _symmetry_equiv_pos_site_id
 _symmetry_equiv_pos_as_xyz
  1  'x, y, z'
loop_
 _atom_site_type_symbol
 _atom_site_label
 _atom_site_symmetry_multiplicity
 _atom_site_fract_x
 _atom_site_fract_y
 _atom_site_fract_z
 _atom_site_occupancy
  Lu  Lu0  1  0.500000  0.628125  0.851275  1
  Lu  Lu1  1  0.500000  0.128848  0.650104  1
  Lu  Lu2  1  0.500000  0.869642  0.348861  1
  Zr  Zr3  1  0.500000  0.372531  0.149555  1
  Co  Co4  1  0.500000  0.363014  0.408918  1
  Co  Co5  1  0.500000  0.635705  0.588988  1
  Co  Co6  1  0.500000  0.135718  0.911684  1
  Co  Co7  1  0.500000  0.866459  0.090767  1
  B  B8  1  0.000000  0.113886  0.047273  1
  B  B9  1  0.000000  0.887298  0.953838  1
  B  B10  1  0.000000  0.388130  0.546617  1
  B  B11  1  0.000000  0.611771  0.452725  1
  B  B12  1  0.000000  0.137520  0.467611  1
  B  B13  1  0.000000  0.863110  0.531593  1
  B  B14  1  0.000000  0.364948  0.967764  1
  B  B15  1  0.000000  0.634465  0.033528  1
  B  B16  1  0.000000  0.024025  0.192513  1
  B  B17  1  0.000000  0.976514  0.808844  1
  B  B18  1  0.000000  0.477561  0.691957  1
  B  B19  1  0.000000  0.522670  0.306522  1
  B  B20  1  0.000000  0.214834  0.313135  1
  B  B21  1  0.000000  0.785107  0.685215  1
  B  B22  1  0.000000  0.285631  0.815112  1
  B  B23  1  0.000000  0.712490  0.185602  1
