# generated using pymatgen
data_Zr8Co7Si14Ir
_symmetry_space_group_name_H-M   'P 1'
_cell_length_a   9.57670224
_cell_length_b   9.57724555
_cell_length_c   9.57539663
_cell_angle_alpha   94.16581250
_cell_angle_beta   94.15866269
_cell_angle_gamma   148.74767777
_symmetry_Int_Tables_number   1
_chemical_formula_structural   Zr8Co7Si14Ir
_chemical_formula_sum   'Zr8 Co7 Si14 Ir1'
_cell_volume   438.78505858
_cell_formula_units_Z   1
loop_
 _symmetry_equiv_pos_site_id
 _symmetry_equiv_pos_as_xyz
  1  'x, y, z'
loop_
 _atom_site_type_symbol
 _atom_site_label
 _atom_site_symmetry_multiplicity
 _atom_site_fract_x
 _atom_site_fract_y
 _atom_site_fract_z
 _atom_site_occupancy
  Zr  Zr0  1  0.137789  0.137815  0.275543  1
  Zr  Zr1  1  0.862605  0.862628  0.725289  1
  Zr  Zr2  1  0.861837  0.136212  0.000675  1
  Zr  Zr3  1  0.138822  0.864442  0.000665  1
  Zr  Zr4  1  0.498713  0.303383  0.803723  1
  Zr  Zr5  1  0.501638  0.697181  0.197820  1
  Zr  Zr6  1  0.696118  0.500572  0.197755  1
  Zr  Zr7  1  0.305054  0.500374  0.803673  1
  Co  Co8  1  0.104400  0.604408  0.208814  1
  Co  Co9  1  0.101719  0.896560  0.499814  1
  Co  Co10  1  0.398100  0.603270  0.499820  1
  Co  Co11  1  0.599768  0.396130  0.497953  1
  Co  Co12  1  0.898181  0.101831  0.497962  1
  Co  Co13  1  0.897581  0.397577  0.795141  1
  Co  Co14  1  0.602109  0.102122  0.204258  1
  Si  Si15  1  0.511007  0.105266  0.585771  1
  Si  Si16  1  0.500435  0.908391  0.408244  1
  Si  Si17  1  0.907759  0.499699  0.408226  1
  Si  Si18  1  0.074894  0.480525  0.585757  1
  Si  Si19  1  0.748700  0.748889  0.000576  1
  Si  Si20  1  0.251869  0.251677  0.000555  1
  Si  Si21  1  0.289303  0.289418  0.578528  1
  Si  Si22  1  0.710590  0.710708  0.421488  1
  Si  Si23  1  0.724591  0.305210  0.005775  1
  Si  Si24  1  0.281183  0.700572  0.005782  1
  Si  Si25  1  0.000183  0.301919  0.301380  1
  Si  Si26  1  0.987033  0.691648  0.697040  1
  Si  Si27  1  0.709932  0.005249  0.696941  1
  Si  Si28  1  0.301212  0.999438  0.301252  1
  Ir  Ir29  1  0.396876  0.896887  0.793783  1
