# generated using pymatgen
data_Na14SrSn4
_symmetry_space_group_name_H-M   'P 1'
_cell_length_a   11.47861009
_cell_length_b   11.47434202
_cell_length_c   11.45944191
_cell_angle_alpha   109.49239572
_cell_angle_beta   109.34252198
_cell_angle_gamma   109.55998871
_symmetry_Int_Tables_number   1
_chemical_formula_structural   Na14SrSn4
_chemical_formula_sum   'Na28 Sr2 Sn8'
_cell_volume   1162.13860279
_cell_formula_units_Z   2
loop_
 _symmetry_equiv_pos_site_id
 _symmetry_equiv_pos_as_xyz
  1  'x, y, z'
loop_
 _atom_site_type_symbol
 _atom_site_label
 _atom_site_symmetry_multiplicity
 _atom_site_fract_x
 _atom_site_fract_y
 _atom_site_fract_z
 _atom_site_occupancy
  Na  Na0  1  0.751096  0.875633  0.124580  1
  Na  Na1  1  0.123998  0.750105  0.876167  1
  Na  Na2  1  0.373893  0.249895  0.626062  1
  Na  Na3  1  0.875463  0.124367  0.748947  1
  Na  Na4  1  0.077779  0.262508  0.102404  1
  Na  Na5  1  0.691980  0.029478  0.915890  1
  Na  Na6  1  0.881563  0.467936  0.149603  1
  Na  Na7  1  0.159866  0.897805  0.474324  1
  Na  Na8  1  0.339537  0.814822  0.736247  1
  Na  Na9  1  0.722918  0.335635  0.807703  1
  Na  Na10  1  0.028706  0.917201  0.692150  1
  Na  Na11  1  0.223636  0.306752  0.837694  1
  Na  Na12  1  0.190218  0.406378  0.534928  1
  Na  Na13  1  0.970195  0.384538  0.663150  1
  Na  Na14  1  0.309501  0.845645  0.218049  1
  Na  Na15  1  0.524715  0.185178  0.421426  1
  Na  Na16  1  0.387284  0.664365  0.972069  1
  Na  Na17  1  0.111506  0.082799  0.274950  1
  Na  Na18  1  0.262061  0.102195  0.076518  1
  Na  Na19  1  0.846900  0.216907  0.310002  1
  Na  Na20  1  0.413628  0.532064  0.181667  1
  Na  Na21  1  0.662502  0.970522  0.386411  1
  Na  Na22  1  0.629993  0.783093  0.593094  1
  Na  Na23  1  0.585656  0.615462  0.778612  1
  Na  Na24  1  0.783841  0.593622  0.628551  1
  Na  Na25  1  0.815273  0.737492  0.339896  1
  Na  Na26  1  0.916885  0.693248  0.030941  1
  Na  Na27  1  0.463856  0.154355  0.872404  1
  Sr  Sr28  1  0.625000  0.373558  0.250059  1
  Sr  Sr29  1  0.251441  0.626442  0.376501  1
  Sn  Sn30  1  0.421630  0.423951  0.416167  1
  Sn  Sn31  1  0.493452  0.990842  0.576419  1
  Sn  Sn32  1  0.581134  0.496400  0.002891  1
  Sn  Sn33  1  0.997679  0.576049  0.492216  1
  Sn  Sn34  1  0.084734  0.503600  0.006491  1
  Sn  Sn35  1  0.001192  0.084512  0.501875  1
  Sn  Sn36  1  0.502610  0.009158  0.085577  1
  Sn  Sn37  1  0.916680  0.915488  0.917363  1
