# generated using pymatgen
data_Pd7Pb
_symmetry_space_group_name_H-M   'P 1'
_cell_length_a   4.94756194
_cell_length_b   4.94759997
_cell_length_c   6.36986345
_cell_angle_alpha   75.18400959
_cell_angle_beta   104.80944441
_cell_angle_gamma   70.04578098
_symmetry_Int_Tables_number   1
_chemical_formula_structural   Pd7Pb
_chemical_formula_sum   'Pd7 Pb1'
_cell_volume   131.21802574
_cell_formula_units_Z   1
loop_
 _symmetry_equiv_pos_site_id
 _symmetry_equiv_pos_as_xyz
  1  'x, y, z'
loop_
 _atom_site_type_symbol
 _atom_site_label
 _atom_site_symmetry_multiplicity
 _atom_site_fract_x
 _atom_site_fract_y
 _atom_site_fract_z
 _atom_site_occupancy
  Pd  Pd0  1  0.719711  0.004713  0.535419  1
  Pd  Pd1  1  0.219063  0.503638  0.535703  1
  Pd  Pd2  1  0.093176  0.130608  0.283220  1
  Pd  Pd3  1  0.972540  0.750388  0.045716  1
  Pd  Pd4  1  0.600175  0.623757  0.298278  1
  Pd  Pd5  1  0.473523  0.251098  0.045974  1
  Pd  Pd6  1  0.845697  0.377934  0.790729  1
  Pb  Pb7  1  0.346057  0.877977  0.790497  1
