# generated using pymatgen
data_NaU7P2O25
_symmetry_space_group_name_H-M   'P 1'
_cell_length_a   5.77525726
_cell_length_b   7.23755482
_cell_length_c   15.11027786
_cell_angle_alpha   96.19960789
_cell_angle_beta   100.86603771
_cell_angle_gamma   90.27042136
_symmetry_Int_Tables_number   1
_chemical_formula_structural   NaU7P2O25
_chemical_formula_sum   'Na1 U7 P2 O25'
_cell_volume   616.43561372
_cell_formula_units_Z   1
loop_
 _symmetry_equiv_pos_site_id
 _symmetry_equiv_pos_as_xyz
  1  'x, y, z'
loop_
 _atom_site_type_symbol
 _atom_site_label
 _atom_site_symmetry_multiplicity
 _atom_site_fract_x
 _atom_site_fract_y
 _atom_site_fract_z
 _atom_site_occupancy
  Na  Na0  1  0.251056  0.353271  0.465879  1
  U  U1  1  0.554362  0.690116  0.114905  1
  U  U2  1  0.446163  0.309495  0.884099  1
  U  U3  1  0.999808  0.997987  0.998880  1
  U  U4  1  0.110273  0.381386  0.232854  1
  U  U5  1  0.886818  0.615565  0.764778  1
  U  U6  1  0.665684  0.065792  0.346684  1
  U  U7  1  0.335891  0.930155  0.653103  1
  P  P8  1  0.809867  0.209746  0.584099  1
  P  P9  1  0.189853  0.786436  0.417108  1
  O  O10  1  0.184816  0.594258  0.361294  1
  O  O11  1  0.819600  0.396507  0.643866  1
  O  O12  1  0.799447  0.812878  0.066747  1
  O  O13  1  0.201303  0.184249  0.931085  1
  O  O14  1  0.407790  0.260519  0.296855  1
  O  O15  1  0.592032  0.735525  0.711254  1
  O  O16  1  0.711630  0.244504  0.483393  1
  O  O17  1  0.261981  0.751370  0.518916  1
  O  O18  1  0.930224  0.228012  0.316196  1
  O  O19  1  0.082080  0.784772  0.694999  1
  O  O20  1  0.312492  0.560789  0.166068  1
  O  O21  1  0.688925  0.439857  0.834099  1
  O  O22  1  0.292260  0.864040  0.044541  1
  O  O23  1  0.708890  0.133100  0.953564  1
  O  O24  1  0.059720  0.176384  0.116552  1
  O  O25  1  0.939042  0.816788  0.882360  1
  O  O26  1  0.818831  0.513502  0.184646  1
  O  O27  1  0.174144  0.489368  0.813250  1
  O  O28  1  0.607136  0.899986  0.226493  1
  O  O29  1  0.393542  0.107252  0.770099  1
  O  O30  1  0.062330  0.131126  0.589143  1
  O  O31  1  0.943061  0.874269  0.402041  1
  O  O32  1  0.635295  0.071345  0.610745  1
  O  O33  1  0.373347  0.921809  0.394111  1
  O  O34  1  0.499110  0.497838  0.998898  1
