# generated using pymatgen
data_Pu3Pa(ReB4)4
_symmetry_space_group_name_H-M   'P 1'
_cell_length_a   3.61785500
_cell_length_b   5.98485968
_cell_length_c   11.59544932
_cell_angle_alpha   89.94537552
_cell_angle_beta   90.00000000
_cell_angle_gamma   90.00000000
_symmetry_Int_Tables_number   1
_chemical_formula_structural   Pu3Pa(ReB4)4
_chemical_formula_sum   'Pu3 Pa1 Re4 B16'
_cell_volume   251.06866531
_cell_formula_units_Z   1
loop_
 _symmetry_equiv_pos_site_id
 _symmetry_equiv_pos_as_xyz
  1  'x, y, z'
loop_
 _atom_site_type_symbol
 _atom_site_label
 _atom_site_symmetry_multiplicity
 _atom_site_fract_x
 _atom_site_fract_y
 _atom_site_fract_z
 _atom_site_occupancy
  Pu  Pu0  1  0.000000  0.373048  0.650781  1
  Pu  Pu1  1  0.000000  0.126269  0.149727  1
  Pu  Pu2  1  0.000000  0.873298  0.849398  1
  Pa  Pa3  1  0.000000  0.626950  0.350031  1
  Re  Re4  1  0.000000  0.634540  0.091308  1
  Re  Re5  1  0.000000  0.365206  0.909482  1
  Re  Re6  1  0.000000  0.137221  0.406707  1
  Re  Re7  1  0.000000  0.862432  0.591449  1
  B  B8  1  0.500000  0.787726  0.186460  1
  B  B9  1  0.500000  0.212265  0.813774  1
  B  B10  1  0.500000  0.288543  0.313252  1
  B  B11  1  0.500000  0.712616  0.687055  1
  B  B12  1  0.500000  0.864473  0.031445  1
  B  B13  1  0.500000  0.134873  0.968469  1
  B  B14  1  0.500000  0.365117  0.468437  1
  B  B15  1  0.500000  0.635602  0.531524  1
  B  B16  1  0.500000  0.888016  0.454057  1
  B  B17  1  0.500000  0.114591  0.547539  1
  B  B18  1  0.500000  0.385319  0.046354  1
  B  B19  1  0.500000  0.613988  0.952763  1
  B  B20  1  0.500000  0.972433  0.308168  1
  B  B21  1  0.500000  0.025862  0.692281  1
  B  B22  1  0.500000  0.474876  0.191693  1
  B  B23  1  0.500000  0.524737  0.807844  1
