# generated using pymatgen
data_Sc2InB2IrRh4
_symmetry_space_group_name_H-M   'P 1'
_cell_length_a   9.51209800
_cell_length_b   9.51209800
_cell_length_c   3.14402700
_cell_angle_alpha   90.00000000
_cell_angle_beta   90.00000000
_cell_angle_gamma   90.00000000
_symmetry_Int_Tables_number   1
_chemical_formula_structural   Sc2InB2IrRh4
_chemical_formula_sum   'Sc4 In2 B4 Ir2 Rh8'
_cell_volume   284.47158925
_cell_formula_units_Z   2
loop_
 _symmetry_equiv_pos_site_id
 _symmetry_equiv_pos_as_xyz
  1  'x, y, z'
loop_
 _atom_site_type_symbol
 _atom_site_label
 _atom_site_symmetry_multiplicity
 _atom_site_fract_x
 _atom_site_fract_y
 _atom_site_fract_z
 _atom_site_occupancy
  Sc  Sc0  1  0.823721  0.323721  0.000000  1
  Sc  Sc1  1  0.323721  0.176279  0.000000  1
  Sc  Sc2  1  0.676279  0.823721  0.000000  1
  Sc  Sc3  1  0.176279  0.676279  0.000000  1
  In  In4  1  0.000000  0.000000  0.000000  1
  In  In5  1  0.500000  0.500000  0.000000  1
  B  B6  1  0.622460  0.122460  0.000000  1
  B  B7  1  0.122460  0.377540  0.000000  1
  B  B8  1  0.877540  0.622460  0.000000  1
  B  B9  1  0.377540  0.877540  0.000000  1
  Ir  Ir10  1  0.500000  0.000000  0.500000  1
  Ir  Ir11  1  0.000000  0.500000  0.500000  1
  Rh  Rh12  1  0.072103  0.223823  0.500000  1
  Rh  Rh13  1  0.223823  0.927897  0.500000  1
  Rh  Rh14  1  0.776177  0.072103  0.500000  1
  Rh  Rh15  1  0.927897  0.776177  0.500000  1
  Rh  Rh16  1  0.427897  0.723823  0.500000  1
  Rh  Rh17  1  0.572103  0.276177  0.500000  1
  Rh  Rh18  1  0.723823  0.572103  0.500000  1
  Rh  Rh19  1  0.276177  0.427897  0.500000  1
