# generated using pymatgen
data_Tb5Y5Sn6
_symmetry_space_group_name_H-M   'P 1'
_cell_length_a   9.00854610
_cell_length_b   9.00854627
_cell_length_c   6.58592000
_cell_angle_alpha   90.00000000
_cell_angle_beta   90.00000000
_cell_angle_gamma   120.01706853
_symmetry_Int_Tables_number   1
_chemical_formula_structural   Tb5Y5Sn6
_chemical_formula_sum   'Tb5 Y5 Sn6'
_cell_volume   462.78767017
_cell_formula_units_Z   1
loop_
 _symmetry_equiv_pos_site_id
 _symmetry_equiv_pos_as_xyz
  1  'x, y, z'
loop_
 _atom_site_type_symbol
 _atom_site_label
 _atom_site_symmetry_multiplicity
 _atom_site_fract_x
 _atom_site_fract_y
 _atom_site_fract_z
 _atom_site_occupancy
  Tb  Tb0  1  0.760070  0.760070  0.250000  1
  Tb  Tb1  1  0.333320  0.666669  0.500012  1
  Tb  Tb2  1  0.666669  0.333320  0.500012  1
  Tb  Tb3  1  0.333320  0.666669  0.999988  1
  Tb  Tb4  1  0.666669  0.333320  0.999988  1
  Y  Y5  1  0.000013  0.239968  0.250000  1
  Y  Y6  1  0.760015  0.999985  0.750000  1
  Y  Y7  1  0.239968  0.000013  0.250000  1
  Y  Y8  1  0.999985  0.760015  0.750000  1
  Y  Y9  1  0.239947  0.239947  0.750000  1
  Sn  Sn10  1  0.606036  0.606036  0.750000  1
  Sn  Sn11  1  0.394010  0.000011  0.750000  1
  Sn  Sn12  1  0.605951  0.000056  0.250000  1
  Sn  Sn13  1  0.000011  0.394010  0.750000  1
  Sn  Sn14  1  0.393961  0.393961  0.250000  1
  Sn  Sn15  1  0.000056  0.605951  0.250000  1
