# generated using pymatgen
data_Mn3Cd(AsO2)8
_symmetry_space_group_name_H-M   'P 1'
_cell_length_a   5.25638701
_cell_length_b   4.69108819
_cell_length_c   18.58557600
_cell_angle_alpha   90.00280916
_cell_angle_beta   89.88817456
_cell_angle_gamma   90.30436078
_symmetry_Int_Tables_number   1
_chemical_formula_structural   Mn3Cd(AsO2)8
_chemical_formula_sum   'Mn3 Cd1 As8 O16'
_cell_volume   458.27904692
_cell_formula_units_Z   1
loop_
 _symmetry_equiv_pos_site_id
 _symmetry_equiv_pos_as_xyz
  1  'x, y, z'
loop_
 _atom_site_type_symbol
 _atom_site_label
 _atom_site_symmetry_multiplicity
 _atom_site_fract_x
 _atom_site_fract_y
 _atom_site_fract_z
 _atom_site_occupancy
  Mn  Mn0  1  0.491893  0.253253  0.247177  1
  Mn  Mn1  1  0.009421  0.254510  0.748293  1
  Mn  Mn2  1  0.509588  0.745387  0.750617  1
  Cd  Cd3  1  0.993528  0.740783  0.251631  1
  As  As4  1  0.283063  0.513003  0.410600  1
  As  As5  1  0.779770  0.483488  0.088940  1
  As  As6  1  0.719625  0.482188  0.593706  1
  As  As7  1  0.218132  0.518319  0.905982  1
  As  As8  1  0.705365  0.015496  0.407634  1
  As  As9  1  0.205412  0.989029  0.091161  1
  As  As10  1  0.294989  0.983056  0.595858  1
  As  As11  1  0.792860  0.013320  0.903943  1
  O  O12  1  0.253208  0.479235  0.314875  1
  O  O13  1  0.720582  0.504823  0.183608  1
  O  O14  1  0.764038  0.506286  0.689129  1
  O  O15  1  0.262541  0.494092  0.810623  1
  O  O16  1  0.725799  0.009827  0.311576  1
  O  O17  1  0.240565  0.021080  0.186302  1
  O  O18  1  0.265332  0.005719  0.691520  1
  O  O19  1  0.765455  0.993069  0.808246  1
  O  O20  1  0.372310  0.890972  0.417244  1
  O  O21  1  0.871850  0.106564  0.082802  1
  O  O22  1  0.629179  0.103817  0.587237  1
  O  O23  1  0.126605  0.895030  0.912997  1
  O  O24  1  0.884210  0.392247  0.908216  1
  O  O25  1  0.385468  0.604453  0.592543  1
  O  O26  1  0.113625  0.609625  0.090586  1
  O  O27  1  0.615589  0.391334  0.416957  1
