# generated using pymatgen
data_ZnCd4Cu3
_symmetry_space_group_name_H-M   'P 1'
_cell_length_a   8.34799051
_cell_length_b   8.33977044
_cell_length_c   8.34799100
_cell_angle_alpha   59.96739174
_cell_angle_beta   60.00000202
_cell_angle_gamma   59.96739335
_symmetry_Int_Tables_number   1
_chemical_formula_structural   ZnCd4Cu3
_chemical_formula_sum   'Zn3 Cd12 Cu9'
_cell_volume   410.76062063
_cell_formula_units_Z   3
loop_
 _symmetry_equiv_pos_site_id
 _symmetry_equiv_pos_as_xyz
  1  'x, y, z'
loop_
 _atom_site_type_symbol
 _atom_site_label
 _atom_site_symmetry_multiplicity
 _atom_site_fract_x
 _atom_site_fract_y
 _atom_site_fract_z
 _atom_site_occupancy
  Zn  Zn0  1  0.125000  0.625000  0.625000  1
  Zn  Zn1  1  0.625000  0.625000  0.125000  1
  Zn  Zn2  1  0.625000  0.625000  0.625000  1
  Cd  Cd3  1  0.808374  0.807706  0.191960  1
  Cd  Cd4  1  0.196100  0.192706  0.805597  1
  Cd  Cd5  1  0.805597  0.192706  0.805597  1
  Cd  Cd6  1  0.191960  0.807706  0.191960  1
  Cd  Cd7  1  0.191960  0.807706  0.808374  1
  Cd  Cd8  1  0.805597  0.192706  0.196100  1
  Cd  Cd9  1  0.441626  0.442294  0.058040  1
  Cd  Cd10  1  0.053900  0.057294  0.444403  1
  Cd  Cd11  1  0.444403  0.057294  0.444403  1
  Cd  Cd12  1  0.058040  0.442294  0.058040  1
  Cd  Cd13  1  0.058040  0.442294  0.441626  1
  Cd  Cd14  1  0.444403  0.057294  0.053900  1
  Cu  Cu15  1  0.625000  0.125000  0.625000  1
  Cu  Cu16  1  0.740728  0.418850  0.420211  1
  Cu  Cu17  1  0.418692  0.743925  0.418692  1
  Cu  Cu18  1  0.420211  0.418850  0.740728  1
  Cu  Cu19  1  0.420211  0.418850  0.420211  1
  Cu  Cu20  1  0.509272  0.831150  0.829789  1
  Cu  Cu21  1  0.831308  0.506075  0.831308  1
  Cu  Cu22  1  0.829789  0.831150  0.509272  1
  Cu  Cu23  1  0.829789  0.831150  0.829789  1
