# generated using pymatgen
data_Er8Cd2CoRu
_symmetry_space_group_name_H-M   'P 1'
_cell_length_a   9.55610261
_cell_length_b   9.48009342
_cell_length_c   9.48009414
_cell_angle_alpha   59.49511607
_cell_angle_beta   59.73441839
_cell_angle_gamma   59.73442435
_symmetry_Int_Tables_number   1
_chemical_formula_structural   Er8Cd2CoRu
_chemical_formula_sum   'Er16 Cd4 Co2 Ru2'
_cell_volume   602.51068692
_cell_formula_units_Z   2
loop_
 _symmetry_equiv_pos_site_id
 _symmetry_equiv_pos_as_xyz
  1  'x, y, z'
loop_
 _atom_site_type_symbol
 _atom_site_label
 _atom_site_symmetry_multiplicity
 _atom_site_fract_x
 _atom_site_fract_y
 _atom_site_fract_z
 _atom_site_occupancy
  Er  Er0  1  0.938123  0.938643  0.559459  1
  Er  Er1  1  0.811618  0.188382  0.188382  1
  Er  Er2  1  0.937028  0.562972  0.562972  1
  Er  Er3  1  0.938123  0.559459  0.938643  1
  Er  Er4  1  0.815967  0.807542  0.187049  1
  Er  Er5  1  0.340035  0.348753  0.348753  1
  Er  Er6  1  0.559576  0.940424  0.940424  1
  Er  Er7  1  0.563774  0.938643  0.559459  1
  Er  Er8  1  0.189173  0.810827  0.810827  1
  Er  Er9  1  0.189443  0.187049  0.807542  1
  Er  Er10  1  0.343707  0.352299  0.960287  1
  Er  Er11  1  0.343707  0.960287  0.352299  1
  Er  Er12  1  0.815967  0.187049  0.807542  1
  Er  Er13  1  0.563774  0.559459  0.938643  1
  Er  Er14  1  0.189443  0.807542  0.187049  1
  Er  Er15  1  0.962460  0.348753  0.348753  1
  Cd  Cd16  1  0.581187  0.580029  0.257597  1
  Cd  Cd17  1  0.258083  0.580186  0.580186  1
  Cd  Cd18  1  0.581546  0.580186  0.580186  1
  Cd  Cd19  1  0.581187  0.257597  0.580029  1
  Co  Co20  1  0.139056  0.579102  0.142787  1
  Co  Co21  1  0.139056  0.142787  0.579102  1
  Ru  Ru22  1  0.579151  0.141017  0.141017  1
  Ru  Ru23  1  0.138815  0.141017  0.141017  1
