# generated using pymatgen
data_Nd2NiSn4
_symmetry_space_group_name_H-M   'P 1'
_cell_length_a   4.52943200
_cell_length_b   9.04826400
_cell_length_c   17.21198000
_cell_angle_alpha   90.00000000
_cell_angle_beta   90.00000000
_cell_angle_gamma   90.00000000
_symmetry_Int_Tables_number   1
_chemical_formula_structural   Nd2NiSn4
_chemical_formula_sum   'Nd8 Ni4 Sn16'
_cell_volume   705.40712219
_cell_formula_units_Z   4
loop_
 _symmetry_equiv_pos_site_id
 _symmetry_equiv_pos_as_xyz
  1  'x, y, z'
loop_
 _atom_site_type_symbol
 _atom_site_label
 _atom_site_symmetry_multiplicity
 _atom_site_fract_x
 _atom_site_fract_y
 _atom_site_fract_z
 _atom_site_occupancy
  Nd  Nd0  1  0.250000  0.609084  0.646721  1
  Nd  Nd1  1  0.250000  0.367032  0.147772  1
  Nd  Nd2  1  0.250000  0.890916  0.146721  1
  Nd  Nd3  1  0.750000  0.109084  0.853279  1
  Nd  Nd4  1  0.750000  0.632968  0.852228  1
  Nd  Nd5  1  0.250000  0.132968  0.647772  1
  Nd  Nd6  1  0.750000  0.867032  0.352228  1
  Nd  Nd7  1  0.750000  0.390916  0.353279  1
  Ni  Ni8  1  0.750000  0.355899  0.561418  1
  Ni  Ni9  1  0.250000  0.644101  0.438582  1
  Ni  Ni10  1  0.750000  0.144101  0.061418  1
  Ni  Ni11  1  0.250000  0.855899  0.938582  1
  Sn  Sn12  1  0.250000  0.608630  0.007904  1
  Sn  Sn13  1  0.750000  0.871803  0.007856  1
  Sn  Sn14  1  0.750000  0.627832  0.175646  1
  Sn  Sn15  1  0.250000  0.127832  0.324354  1
  Sn  Sn16  1  0.750000  0.391370  0.992096  1
  Sn  Sn17  1  0.750000  0.369031  0.709785  1
  Sn  Sn18  1  0.750000  0.628197  0.507856  1
  Sn  Sn19  1  0.250000  0.869031  0.790215  1
  Sn  Sn20  1  0.750000  0.108630  0.492096  1
  Sn  Sn21  1  0.250000  0.372168  0.824354  1
  Sn  Sn22  1  0.750000  0.130969  0.209785  1
  Sn  Sn23  1  0.250000  0.371803  0.492144  1
  Sn  Sn24  1  0.250000  0.630969  0.290215  1
  Sn  Sn25  1  0.750000  0.872168  0.675646  1
  Sn  Sn26  1  0.250000  0.891370  0.507904  1
  Sn  Sn27  1  0.250000  0.128197  0.992144  1
