# generated using pymatgen
data_CsIn2(H6Ir)2
_symmetry_space_group_name_H-M   'P 1'
_cell_length_a   4.97958900
_cell_length_b   4.97958998
_cell_length_c   9.40885800
_cell_angle_alpha   90.00000000
_cell_angle_beta   90.00000000
_cell_angle_gamma   119.99998682
_symmetry_Int_Tables_number   1
_chemical_formula_structural   CsIn2(H6Ir)2
_chemical_formula_sum   'Cs1 In2 H12 Ir2'
_cell_volume   202.04806110
_cell_formula_units_Z   1
loop_
 _symmetry_equiv_pos_site_id
 _symmetry_equiv_pos_as_xyz
  1  'x, y, z'
loop_
 _atom_site_type_symbol
 _atom_site_label
 _atom_site_symmetry_multiplicity
 _atom_site_fract_x
 _atom_site_fract_y
 _atom_site_fract_z
 _atom_site_occupancy
  Cs  Cs0  1  0.000000  0.000000  0.000000  1
  In  In1  1  0.666667  0.333333  0.386131  1
  In  In2  1  0.333333  0.666667  0.613869  1
  H  H3  1  0.155602  0.844398  0.386395  1
  H  H4  1  0.688795  0.844398  0.386395  1
  H  H5  1  0.155602  0.311205  0.386395  1
  H  H6  1  0.844398  0.155602  0.613605  1
  H  H7  1  0.311205  0.155602  0.613605  1
  H  H8  1  0.844398  0.688795  0.613605  1
  H  H9  1  0.519886  0.039772  0.801940  1
  H  H10  1  0.519886  0.480114  0.801940  1
  H  H11  1  0.960228  0.480114  0.801940  1
  H  H12  1  0.480114  0.960228  0.198060  1
  H  H13  1  0.480114  0.519886  0.198060  1
  H  H14  1  0.039772  0.519886  0.198060  1
  Ir  Ir15  1  0.666667  0.333333  0.687140  1
  Ir  Ir16  1  0.333333  0.666667  0.312860  1
