# generated using pymatgen
data_Dy9Er(Pb3O)2
_symmetry_space_group_name_H-M   'P 1'
_cell_length_a   9.10580353
_cell_length_b   9.10373605
_cell_length_c   9.10954103
_cell_angle_alpha   125.71521289
_cell_angle_beta   125.72018179
_cell_angle_gamma   80.32257293
_symmetry_Int_Tables_number   1
_chemical_formula_structural   Dy9Er(Pb3O)2
_chemical_formula_sum   'Dy9 Er1 Pb6 O2'
_cell_volume   480.39656243
_cell_formula_units_Z   1
loop_
 _symmetry_equiv_pos_site_id
 _symmetry_equiv_pos_as_xyz
  1  'x, y, z'
loop_
 _atom_site_type_symbol
 _atom_site_label
 _atom_site_symmetry_multiplicity
 _atom_site_fract_x
 _atom_site_fract_y
 _atom_site_fract_z
 _atom_site_occupancy
  Dy  Dy0  1  0.998359  0.199518  0.500002  1
  Dy  Dy1  1  0.800395  0.300514  0.798828  1
  Dy  Dy2  1  0.498492  0.998135  0.798690  1
  Dy  Dy3  1  0.501566  0.001686  0.201173  1
  Dy  Dy4  1  0.001696  0.800353  0.500002  1
  Dy  Dy5  1  0.500056  0.500213  0.999845  1
  Dy  Dy6  1  0.199802  0.699445  0.201308  1
  Dy  Dy7  1  0.699117  0.498525  0.500006  1
  Dy  Dy8  1  0.000217  0.000374  0.000168  1
  Er  Er9  1  0.299142  0.502550  0.499982  1
  Pb  Pb10  1  0.852042  0.351735  0.203467  1
  Pb  Pb11  1  0.148578  0.648279  0.796551  1
  Pb  Pb12  1  0.351468  0.149480  0.500008  1
  Pb  Pb13  1  0.749738  0.749839  0.999620  1
  Pb  Pb14  1  0.648527  0.851515  0.500007  1
  Pb  Pb15  1  0.250117  0.250202  0.000348  1
  O  O16  1  0.749946  0.250025  0.499999  1
  O  O17  1  0.250741  0.747610  0.499995  1
