# generated using pymatgen
data_Tb2Y2(Al8Pt3)3
_symmetry_space_group_name_H-M   'P 1'
_cell_length_a   7.52980565
_cell_length_b   7.55136634
_cell_length_c   13.18644186
_cell_angle_alpha   84.57207919
_cell_angle_beta   79.12919260
_cell_angle_gamma   59.97054955
_symmetry_Int_Tables_number   1
_chemical_formula_structural   Tb2Y2(Al8Pt3)3
_chemical_formula_sum   'Tb2 Y2 Al24 Pt9'
_cell_volume   637.49145948
_cell_formula_units_Z   1
loop_
 _symmetry_equiv_pos_site_id
 _symmetry_equiv_pos_as_xyz
  1  'x, y, z'
loop_
 _atom_site_type_symbol
 _atom_site_label
 _atom_site_symmetry_multiplicity
 _atom_site_fract_x
 _atom_site_fract_y
 _atom_site_fract_z
 _atom_site_occupancy
  Tb  Tb0  1  0.734081  0.498459  0.807706  1
  Tb  Tb1  1  0.265919  0.501541  0.192294  1
  Y  Y2  1  0.393360  0.168432  0.807968  1
  Y  Y3  1  0.606640  0.831568  0.192032  1
  Al  Al4  1  0.684559  0.833775  0.944627  1
  Al  Al5  1  0.315441  0.166225  0.055373  1
  Al  Al6  1  0.146883  0.832355  0.561166  1
  Al  Al7  1  0.853117  0.167645  0.438834  1
  Al  Al8  1  0.479732  0.166805  0.558600  1
  Al  Al9  1  0.520268  0.833195  0.441400  1
  Al  Al10  1  0.217027  0.165184  0.330224  1
  Al  Al11  1  0.782973  0.834816  0.669776  1
  Al  Al12  1  0.437888  0.506151  0.669777  1
  Al  Al13  1  0.562112  0.493849  0.330223  1
  Al  Al14  1  0.109859  0.159934  0.668981  1
  Al  Al15  1  0.890141  0.840066  0.331019  1
  Al  Al16  1  0.352966  0.499218  0.944772  1
  Al  Al17  1  0.647034  0.500782  0.055228  1
  Al  Al18  1  0.014966  0.167658  0.953329  1
  Al  Al19  1  0.985034  0.832342  0.046671  1
  Al  Al20  1  0.186723  0.498925  0.441314  1
  Al  Al21  1  0.813277  0.501075  0.558686  1
  Al  Al22  1  0.734455  0.163897  0.183420  1
  Al  Al23  1  0.265545  0.836103  0.816580  1
  Al  Al24  1  0.061867  0.631644  0.815365  1
  Al  Al25  1  0.938133  0.368356  0.184635  1
  Al  Al26  1  0.855131  0.041432  0.815916  1
  Al  Al27  1  0.144869  0.958568  0.184085  1
  Pt  Pt28  1  0.120198  0.492337  0.638572  1
  Pt  Pt29  1  0.879802  0.507663  0.361428  1
  Pt  Pt30  1  0.657343  0.171117  0.999958  1
  Pt  Pt31  1  0.342657  0.828883  0.000042  1
  Pt  Pt32  1  0.538191  0.166694  0.361393  1
  Pt  Pt33  1  0.461809  0.833306  0.638607  1
  Pt  Pt34  1  0.779166  0.174734  0.637102  1
  Pt  Pt35  1  0.220834  0.825266  0.362898  1
  Pt  Pt36  1  0.000000  0.500000  0.000000  1
