# generated using pymatgen
data_K3Rb5Sr4(ZrAs4)2
_symmetry_space_group_name_H-M   'P 1'
_cell_length_a   10.67831438
_cell_length_b   10.76657786
_cell_length_c   7.89876110
_cell_angle_alpha   87.93199015
_cell_angle_beta   87.92046317
_cell_angle_gamma   119.65581678
_symmetry_Int_Tables_number   1
_chemical_formula_structural   K3Rb5Sr4(ZrAs4)2
_chemical_formula_sum   'K3 Rb5 Sr4 Zr2 As8'
_cell_volume   787.11326954
_cell_formula_units_Z   1
loop_
 _symmetry_equiv_pos_site_id
 _symmetry_equiv_pos_as_xyz
  1  'x, y, z'
loop_
 _atom_site_type_symbol
 _atom_site_label
 _atom_site_symmetry_multiplicity
 _atom_site_fract_x
 _atom_site_fract_y
 _atom_site_fract_z
 _atom_site_occupancy
  K  K0  1  0.473838  0.938681  0.384241  1
  K  K1  1  0.939838  0.475707  0.884031  1
  K  K2  1  0.863826  0.713322  0.168639  1
  Rb  Rb3  1  0.261423  0.124010  0.235072  1
  Rb  Rb4  1  0.856289  0.140453  0.190292  1
  Rb  Rb5  1  0.124489  0.263797  0.736394  1
  Rb  Rb6  1  0.721916  0.867821  0.660286  1
  Rb  Rb7  1  0.139519  0.855339  0.690167  1
  Sr  Sr8  1  0.073447  0.533393  0.394526  1
  Sr  Sr9  1  0.475515  0.532043  0.377701  1
  Sr  Sr10  1  0.533408  0.076702  0.893509  1
  Sr  Sr11  1  0.532672  0.475687  0.877249  1
  Zr  Zr12  1  0.664905  0.337115  0.489236  1
  Zr  Zr13  1  0.337774  0.666088  0.992147  1
  As  As14  1  0.641121  0.330266  0.154744  1
  As  As15  1  0.329401  0.640463  0.657831  1
  As  As16  1  0.213142  0.406366  0.137717  1
  As  As17  1  0.607217  0.792534  0.081872  1
  As  As18  1  0.207255  0.801379  0.104694  1
  As  As19  1  0.795432  0.603967  0.574736  1
  As  As20  1  0.404205  0.212533  0.638848  1
  As  As21  1  0.803490  0.212452  0.604129  1
