# generated using pymatgen
data_Tm10Tl6CuP
_symmetry_space_group_name_H-M   'P 1'
_cell_length_a   9.04473400
_cell_length_b   9.04473314
_cell_length_c   6.62490600
_cell_angle_alpha   90.00000000
_cell_angle_beta   90.00000000
_cell_angle_gamma   119.99999583
_symmetry_Int_Tables_number   1
_chemical_formula_structural   Tm10Tl6CuP
_chemical_formula_sum   'Tm10 Tl6 Cu1 P1'
_cell_volume   469.35551723
_cell_formula_units_Z   1
loop_
 _symmetry_equiv_pos_site_id
 _symmetry_equiv_pos_as_xyz
  1  'x, y, z'
loop_
 _atom_site_type_symbol
 _atom_site_label
 _atom_site_symmetry_multiplicity
 _atom_site_fract_x
 _atom_site_fract_y
 _atom_site_fract_z
 _atom_site_occupancy
  Tm  Tm0  1  0.752688  0.752688  0.237897  1
  Tm  Tm1  1  0.247312  0.000000  0.237897  1
  Tm  Tm2  1  0.000000  0.247312  0.237897  1
  Tm  Tm3  1  0.247312  0.247312  0.762103  1
  Tm  Tm4  1  0.752688  0.000000  0.762103  1
  Tm  Tm5  1  0.000000  0.752688  0.762103  1
  Tm  Tm6  1  0.666667  0.333333  0.500000  1
  Tm  Tm7  1  0.333333  0.666667  0.500000  1
  Tm  Tm8  1  0.333333  0.666667  0.000000  1
  Tm  Tm9  1  0.666667  0.333333  0.000000  1
  Tl  Tl10  1  0.399352  0.399352  0.249623  1
  Tl  Tl11  1  0.600648  0.000000  0.249623  1
  Tl  Tl12  1  0.000000  0.600648  0.249623  1
  Tl  Tl13  1  0.600648  0.600648  0.750377  1
  Tl  Tl14  1  0.399352  0.000000  0.750377  1
  Tl  Tl15  1  0.000000  0.399352  0.750377  1
  Cu  Cu16  1  0.000000  0.000000  0.500000  1
  P  P17  1  0.000000  0.000000  0.000000  1
