# generated using pymatgen
data_Rb4Zr5O12
_symmetry_space_group_name_H-M   'P 1'
_cell_length_a   5.96470300
_cell_length_b   5.96470384
_cell_length_c   10.62785000
_cell_angle_alpha   90.00000000
_cell_angle_beta   90.00000000
_cell_angle_gamma   120.00000091
_symmetry_Int_Tables_number   1
_chemical_formula_structural   Rb4Zr5O12
_chemical_formula_sum   'Rb4 Zr5 O12'
_cell_volume   327.45660304
_cell_formula_units_Z   1
loop_
 _symmetry_equiv_pos_site_id
 _symmetry_equiv_pos_as_xyz
  1  'x, y, z'
loop_
 _atom_site_type_symbol
 _atom_site_label
 _atom_site_symmetry_multiplicity
 _atom_site_fract_x
 _atom_site_fract_y
 _atom_site_fract_z
 _atom_site_occupancy
  Rb  Rb0  1  0.666667  0.333333  0.617846  1
  Rb  Rb1  1  0.333333  0.666667  0.382154  1
  Rb  Rb2  1  0.000000  0.000000  0.830661  1
  Rb  Rb3  1  0.000000  0.000000  0.169339  1
  Zr  Zr4  1  0.666667  0.333333  0.284716  1
  Zr  Zr5  1  0.333333  0.666667  0.715284  1
  Zr  Zr6  1  0.666667  0.333333  0.976473  1
  Zr  Zr7  1  0.333333  0.666667  0.023527  1
  Zr  Zr8  1  0.000000  0.000000  0.500000  1
  O  O9  1  0.980050  0.490025  0.121487  1
  O  O10  1  0.509975  0.490025  0.121487  1
  O  O11  1  0.509975  0.019950  0.121487  1
  O  O12  1  0.490025  0.509975  0.878513  1
  O  O13  1  0.019950  0.509975  0.878513  1
  O  O14  1  0.490025  0.980050  0.878513  1
  O  O15  1  0.331097  0.165548  0.379318  1
  O  O16  1  0.834452  0.165548  0.379318  1
  O  O17  1  0.834452  0.668903  0.379318  1
  O  O18  1  0.165548  0.331097  0.620682  1
  O  O19  1  0.668903  0.834452  0.620682  1
  O  O20  1  0.165548  0.834452  0.620682  1
