# generated using pymatgen
data_TbPa3(TcB4)4
_symmetry_space_group_name_H-M   'P 1'
_cell_length_a   3.64884700
_cell_length_b   5.97419175
_cell_length_c   11.56120505
_cell_angle_alpha   90.03381465
_cell_angle_beta   90.00005861
_cell_angle_gamma   90.00006207
_symmetry_Int_Tables_number   1
_chemical_formula_structural   TbPa3(TcB4)4
_chemical_formula_sum   'Tb1 Pa3 Tc4 B16'
_cell_volume   252.02164337
_cell_formula_units_Z   1
loop_
 _symmetry_equiv_pos_site_id
 _symmetry_equiv_pos_as_xyz
  1  'x, y, z'
loop_
 _atom_site_type_symbol
 _atom_site_label
 _atom_site_symmetry_multiplicity
 _atom_site_fract_x
 _atom_site_fract_y
 _atom_site_fract_z
 _atom_site_occupancy
  Tb  Tb0  1  0.000001  0.627705  0.350547  1
  Pa  Pa1  1  0.999999  0.372397  0.648691  1
  Pa  Pa2  1  0.000000  0.127876  0.151474  1
  Pa  Pa3  1  0.999999  0.871761  0.849964  1
  Tc  Tc4  1  0.000000  0.638303  0.091641  1
  Tc  Tc5  1  0.000000  0.361351  0.905863  1
  Tc  Tc6  1  0.000000  0.138164  0.409209  1
  Tc  Tc7  1  0.000001  0.862814  0.594421  1
  B  B8  1  0.500001  0.789109  0.185462  1
  B  B9  1  0.499999  0.210784  0.812796  1
  B  B10  1  0.500001  0.285824  0.313327  1
  B  B11  1  0.500000  0.710746  0.686401  1
  B  B12  1  0.499999  0.865748  0.031788  1
  B  B13  1  0.499999  0.135884  0.968261  1
  B  B14  1  0.500000  0.362544  0.468613  1
  B  B15  1  0.500001  0.636029  0.532508  1
  B  B16  1  0.500001  0.886901  0.453510  1
  B  B17  1  0.500000  0.112087  0.545665  1
  B  B18  1  0.500000  0.387831  0.046548  1
  B  B19  1  0.499999  0.612797  0.954063  1
  B  B20  1  0.500000  0.976103  0.308426  1
  B  B21  1  0.500000  0.027357  0.691424  1
  B  B22  1  0.500001  0.472766  0.190939  1
  B  B23  1  0.500000  0.527122  0.808457  1
