# generated using pymatgen
data_Ti10VSb5
_symmetry_space_group_name_H-M   'P 1'
_cell_length_a   5.28694467
_cell_length_b   7.90429724
_cell_length_c   7.90429791
_cell_angle_alpha   96.42177504
_cell_angle_beta   109.53817541
_cell_angle_gamma   70.46182712
_symmetry_Int_Tables_number   1
_chemical_formula_structural   Ti10VSb5
_chemical_formula_sum   'Ti10 V1 Sb5'
_cell_volume   293.37242009
_cell_formula_units_Z   1
loop_
 _symmetry_equiv_pos_site_id
 _symmetry_equiv_pos_as_xyz
  1  'x, y, z'
loop_
 _atom_site_type_symbol
 _atom_site_label
 _atom_site_symmetry_multiplicity
 _atom_site_fract_x
 _atom_site_fract_y
 _atom_site_fract_z
 _atom_site_occupancy
  Ti  Ti0  1  0.439791  0.857808  0.706414  1
  Ti  Ti1  1  0.591185  0.142192  0.293586  1
  Ti  Ti2  1  0.908815  0.293586  0.142192  1
  Ti  Ti3  1  0.060209  0.706414  0.857808  1
  Ti  Ti4  1  0.733377  0.706414  0.142192  1
  Ti  Ti5  1  0.297598  0.293586  0.857808  1
  Ti  Ti6  1  0.766623  0.142192  0.706414  1
  Ti  Ti7  1  0.202402  0.857808  0.293586  1
  Ti  Ti8  1  0.250000  0.500000  0.500000  1
  Ti  Ti9  1  0.750000  0.500000  0.500000  1
  V  V10  1  0.750000  0.000000  0.000000  1
  Sb  Sb11  1  0.336686  0.500000  0.173371  1
  Sb  Sb12  1  0.663314  0.500000  0.826629  1
  Sb  Sb13  1  0.836686  0.826629  0.500000  1
  Sb  Sb14  1  0.163314  0.173371  0.500000  1
  Sb  Sb15  1  0.250000  0.000000  0.000000  1
