# generated using pymatgen
data_Tb4GdDyC3Cl5
_symmetry_space_group_name_H-M   'P 1'
_cell_length_a   3.67855705
_cell_length_b   8.37926671
_cell_length_c   10.38763247
_cell_angle_alpha   85.52725630
_cell_angle_beta   80.03113152
_cell_angle_gamma   77.25460331
_symmetry_Int_Tables_number   1
_chemical_formula_structural   Tb4GdDyC3Cl5
_chemical_formula_sum   'Tb4 Gd1 Dy1 C3 Cl5'
_cell_volume   307.31596719
_cell_formula_units_Z   1
loop_
 _symmetry_equiv_pos_site_id
 _symmetry_equiv_pos_as_xyz
  1  'x, y, z'
loop_
 _atom_site_type_symbol
 _atom_site_label
 _atom_site_symmetry_multiplicity
 _atom_site_fract_x
 _atom_site_fract_y
 _atom_site_fract_z
 _atom_site_occupancy
  Tb  Tb0  1  0.575266  0.073566  0.779065  1
  Tb  Tb1  1  0.958718  0.429254  0.657213  1
  Tb  Tb2  1  0.683155  0.180096  0.456000  1
  Tb  Tb3  1  0.045821  0.568530  0.342944  1
  Gd  Gd4  1  0.430916  0.923792  0.218514  1
  Dy  Dy5  1  0.321183  0.818949  0.542561  1
  C  C6  1  0.128192  0.122268  0.624900  1
  C  C7  1  0.876641  0.875184  0.374122  1
  C  C8  1  0.501729  0.499842  0.500159  1
  Cl  Cl9  1  0.753898  0.745895  0.751115  1
  Cl  Cl10  1  0.380926  0.378486  0.865157  1
  Cl  Cl11  1  0.250151  0.253528  0.246750  1
  Cl  Cl12  1  0.626419  0.615719  0.134283  1
  Cl  Cl13  1  0.004205  0.998481  0.996532  1
