# generated using pymatgen
data_Er4Al18Pd4RuRh
_symmetry_space_group_name_H-M   'P 1'
_cell_length_a   7.59087365
_cell_length_b   7.59087258
_cell_length_c   9.42423949
_cell_angle_alpha   89.87111500
_cell_angle_beta   89.87111512
_cell_angle_gamma   119.44546857
_symmetry_Int_Tables_number   1
_chemical_formula_structural   Er4Al18Pd4RuRh
_chemical_formula_sum   'Er4 Al18 Pd4 Ru1 Rh1'
_cell_volume   472.88531698
_cell_formula_units_Z   1
loop_
 _symmetry_equiv_pos_site_id
 _symmetry_equiv_pos_as_xyz
  1  'x, y, z'
loop_
 _atom_site_type_symbol
 _atom_site_label
 _atom_site_symmetry_multiplicity
 _atom_site_fract_x
 _atom_site_fract_y
 _atom_site_fract_z
 _atom_site_occupancy
  Er  Er0  1  0.994933  0.670078  0.749634  1
  Er  Er1  1  0.005067  0.329922  0.250366  1
  Er  Er2  1  0.670078  0.994933  0.749634  1
  Er  Er3  1  0.329922  0.005067  0.250366  1
  Al  Al4  1  0.125324  0.125324  0.748765  1
  Al  Al5  1  0.874676  0.874676  0.251235  1
  Al  Al6  1  0.999533  0.329207  0.575947  1
  Al  Al7  1  0.000467  0.670793  0.424053  1
  Al  Al8  1  0.999935  0.668272  0.076569  1
  Al  Al9  1  0.331728  0.000065  0.923431  1
  Al  Al10  1  0.000065  0.331728  0.923431  1
  Al  Al11  1  0.668272  0.999935  0.076569  1
  Al  Al12  1  0.670793  0.000467  0.424053  1
  Al  Al13  1  0.329207  0.999533  0.575947  1
  Al  Al14  1  0.329862  0.329862  0.055580  1
  Al  Al15  1  0.670138  0.670138  0.944420  1
  Al  Al16  1  0.671757  0.671757  0.555244  1
  Al  Al17  1  0.328243  0.328243  0.444756  1
  Al  Al18  1  0.340467  0.547272  0.749940  1
  Al  Al19  1  0.659533  0.452728  0.250060  1
  Al  Al20  1  0.547272  0.340467  0.749940  1
  Al  Al21  1  0.452728  0.659533  0.250060  1
  Pd  Pd22  1  0.672516  0.327484  0.500000  1
  Pd  Pd23  1  0.327484  0.672516  0.500000  1
  Pd  Pd24  1  0.327366  0.672634  0.000000  1
  Pd  Pd25  1  0.672634  0.327366  0.000000  1
  Ru  Ru26  1  0.000000  0.000000  0.500000  1
  Rh  Rh27  1  0.000000  0.000000  0.000000  1
