# generated using pymatgen
data_YLu(Re2Si)4
_symmetry_space_group_name_H-M   'P 1'
_cell_length_a   7.40029417
_cell_length_b   7.40029417
_cell_length_c   4.13077800
_cell_angle_alpha   90.00000000
_cell_angle_beta   90.00000000
_cell_angle_gamma   90.60802627
_symmetry_Int_Tables_number   1
_chemical_formula_structural   YLu(Re2Si)4
_chemical_formula_sum   'Y1 Lu1 Re8 Si4'
_cell_volume   226.20665027
_cell_formula_units_Z   1
loop_
 _symmetry_equiv_pos_site_id
 _symmetry_equiv_pos_as_xyz
  1  'x, y, z'
loop_
 _atom_site_type_symbol
 _atom_site_label
 _atom_site_symmetry_multiplicity
 _atom_site_fract_x
 _atom_site_fract_y
 _atom_site_fract_z
 _atom_site_occupancy
  Y  Y0  1  0.000000  0.000000  0.500000  1
  Lu  Lu1  1  0.500000  0.500000  0.000000  1
  Re  Re2  1  0.656758  0.903708  0.000000  1
  Re  Re3  1  0.160995  0.591321  0.500000  1
  Re  Re4  1  0.096292  0.343242  0.000000  1
  Re  Re5  1  0.903708  0.656758  0.000000  1
  Re  Re6  1  0.408679  0.839005  0.500000  1
  Re  Re7  1  0.591321  0.160995  0.500000  1
  Re  Re8  1  0.343242  0.096292  0.000000  1
  Re  Re9  1  0.839005  0.408679  0.500000  1
  Si  Si10  1  0.209958  0.790042  0.000000  1
  Si  Si11  1  0.790042  0.209958  0.000000  1
  Si  Si12  1  0.706644  0.706644  0.500000  1
  Si  Si13  1  0.293356  0.293356  0.500000  1
