# generated using pymatgen
data_HoTm4Tl2Bi
_symmetry_space_group_name_H-M   'P 1'
_cell_length_a   6.56947500
_cell_length_b   8.93010062
_cell_length_c   8.89641500
_cell_angle_alpha   119.68091721
_cell_angle_beta   89.99940694
_cell_angle_gamma   90.00237246
_symmetry_Int_Tables_number   1
_chemical_formula_structural   HoTm4Tl2Bi
_chemical_formula_sum   'Ho2 Tm8 Tl4 Bi2'
_cell_volume   453.44028738
_cell_formula_units_Z   2
loop_
 _symmetry_equiv_pos_site_id
 _symmetry_equiv_pos_as_xyz
  1  'x, y, z'
loop_
 _atom_site_type_symbol
 _atom_site_label
 _atom_site_symmetry_multiplicity
 _atom_site_fract_x
 _atom_site_fract_y
 _atom_site_fract_z
 _atom_site_occupancy
  Ho  Ho0  1  0.749990  0.228519  0.990921  1
  Ho  Ho1  1  0.750011  0.770954  0.761084  1
  Tm  Tm2  1  0.492516  0.328645  0.667271  1
  Tm  Tm3  1  0.492650  0.671534  0.338696  1
  Tm  Tm4  1  0.007340  0.671522  0.338669  1
  Tm  Tm5  1  0.007487  0.328655  0.667297  1
  Tm  Tm6  1  0.749998  0.999804  0.237947  1
  Tm  Tm7  1  0.250007  0.765676  0.001039  1
  Tm  Tm8  1  0.250005  0.233915  0.234870  1
  Tm  Tm9  1  0.249986  0.000171  0.763673  1
  Tl  Tl10  1  0.750033  0.000382  0.595019  1
  Tl  Tl11  1  0.250036  0.397651  0.004331  1
  Tl  Tl12  1  0.249961  0.601922  0.605559  1
  Tl  Tl13  1  0.249990  0.000231  0.397127  1
  Bi  Bi14  1  0.749991  0.604415  0.000226  1
  Bi  Bi15  1  0.750000  0.396006  0.396273  1
