# generated using pymatgen
data_Re4TcIr2Os
_symmetry_space_group_name_H-M   'P 1'
_cell_length_a   5.55772268
_cell_length_b   5.56368163
_cell_length_c   4.40295400
_cell_angle_alpha   90.00000000
_cell_angle_beta   90.00000000
_cell_angle_gamma   120.14197426
_symmetry_Int_Tables_number   1
_chemical_formula_structural   Re4TcIr2Os
_chemical_formula_sum   'Re4 Tc1 Ir2 Os1'
_cell_volume   117.73642094
_cell_formula_units_Z   1
loop_
 _symmetry_equiv_pos_site_id
 _symmetry_equiv_pos_as_xyz
  1  'x, y, z'
loop_
 _atom_site_type_symbol
 _atom_site_label
 _atom_site_symmetry_multiplicity
 _atom_site_fract_x
 _atom_site_fract_y
 _atom_site_fract_z
 _atom_site_occupancy
  Re  Re0  1  0.839356  0.162949  0.750000  1
  Re  Re1  1  0.324215  0.161466  0.750000  1
  Re  Re2  1  0.839262  0.675532  0.750000  1
  Re  Re3  1  0.675669  0.838321  0.250000  1
  Tc  Tc4  1  0.162326  0.323099  0.250000  1
  Ir  Ir5  1  0.665019  0.332655  0.250000  1
  Ir  Ir6  1  0.331282  0.666503  0.750000  1
  Os  Os7  1  0.162871  0.839474  0.250000  1
