# generated using pymatgen
data_MgGa7Rh8
_symmetry_space_group_name_H-M   'P 1'
_cell_length_a   6.05561400
_cell_length_b   6.05520300
_cell_length_c   6.07411100
_cell_angle_alpha   90.00000000
_cell_angle_beta   90.00000000
_cell_angle_gamma   90.00000000
_symmetry_Int_Tables_number   1
_chemical_formula_structural   MgGa7Rh8
_chemical_formula_sum   'Mg1 Ga7 Rh8'
_cell_volume   222.72533244
_cell_formula_units_Z   1
loop_
 _symmetry_equiv_pos_site_id
 _symmetry_equiv_pos_as_xyz
  1  'x, y, z'
loop_
 _atom_site_type_symbol
 _atom_site_label
 _atom_site_symmetry_multiplicity
 _atom_site_fract_x
 _atom_site_fract_y
 _atom_site_fract_z
 _atom_site_occupancy
  Mg  Mg0  1  0.249972  0.750029  0.499989  1
  Ga  Ga1  1  0.749727  0.249990  0.000018  1
  Ga  Ga2  1  0.250253  0.750004  0.999969  1
  Ga  Ga3  1  0.750100  0.249990  0.499990  1
  Ga  Ga4  1  0.250268  0.249988  0.999985  1
  Ga  Ga5  1  0.749763  0.750006  0.999990  1
  Ga  Ga6  1  0.749979  0.750000  0.500017  1
  Ga  Ga7  1  0.249938  0.250001  0.500017  1
  Rh  Rh8  1  0.996595  0.003373  0.246554  1
  Rh  Rh9  1  0.996628  0.496633  0.246509  1
  Rh  Rh10  1  0.503419  0.003428  0.246577  1
  Rh  Rh11  1  0.503386  0.496613  0.246654  1
  Rh  Rh12  1  0.503387  0.003371  0.753403  1
  Rh  Rh13  1  0.503414  0.496616  0.753314  1
  Rh  Rh14  1  0.996626  0.003430  0.753441  1
  Rh  Rh15  1  0.996546  0.496529  0.753575  1
