# generated using pymatgen
data_HoTm4(In2Ir)2
_symmetry_space_group_name_H-M   'P 1'
_cell_length_a   3.56637500
_cell_length_b   7.99674700
_cell_length_c   18.20084900
_cell_angle_alpha   90.00000000
_cell_angle_beta   90.00000000
_cell_angle_gamma   90.00000000
_symmetry_Int_Tables_number   1
_chemical_formula_structural   HoTm4(In2Ir)2
_chemical_formula_sum   'Ho2 Tm8 In8 Ir4'
_cell_volume   519.07726716
_cell_formula_units_Z   2
loop_
 _symmetry_equiv_pos_site_id
 _symmetry_equiv_pos_as_xyz
  1  'x, y, z'
loop_
 _atom_site_type_symbol
 _atom_site_label
 _atom_site_symmetry_multiplicity
 _atom_site_fract_x
 _atom_site_fract_y
 _atom_site_fract_z
 _atom_site_occupancy
  Ho  Ho0  1  0.000000  0.500000  0.500000  1
  Ho  Ho1  1  0.000000  0.000000  0.000000  1
  Tm  Tm2  1  0.000000  0.745151  0.278424  1
  Tm  Tm3  1  0.000000  0.254849  0.721576  1
  Tm  Tm4  1  0.000000  0.754849  0.778424  1
  Tm  Tm5  1  0.000000  0.245151  0.221576  1
  Tm  Tm6  1  0.000000  0.618035  0.087269  1
  Tm  Tm7  1  0.000000  0.381965  0.912731  1
  Tm  Tm8  1  0.000000  0.881965  0.587269  1
  Tm  Tm9  1  0.000000  0.118035  0.412731  1
  In  In10  1  0.500000  0.705947  0.931890  1
  In  In11  1  0.500000  0.294053  0.068110  1
  In  In12  1  0.500000  0.794053  0.431890  1
  In  In13  1  0.500000  0.205947  0.568110  1
  In  In14  1  0.500000  0.572569  0.650277  1
  In  In15  1  0.500000  0.427431  0.349723  1
  In  In16  1  0.500000  0.927431  0.150277  1
  In  In17  1  0.500000  0.072569  0.849723  1
  Ir  Ir18  1  0.500000  0.524334  0.195968  1
  Ir  Ir19  1  0.500000  0.475666  0.804032  1
  Ir  Ir20  1  0.500000  0.975666  0.695968  1
  Ir  Ir21  1  0.500000  0.024334  0.304032  1
