# generated using pymatgen
data_Er4Lu8In2Fe2Re
_symmetry_space_group_name_H-M   'P 1'
_cell_length_a   8.24048159
_cell_length_b   8.24048199
_cell_length_c   8.24048078
_cell_angle_alpha   108.87238954
_cell_angle_beta   108.87240216
_cell_angle_gamma   110.67562387
_symmetry_Int_Tables_number   1
_chemical_formula_structural   Er4Lu8In2Fe2Re
_chemical_formula_sum   'Er4 Lu8 In2 Fe2 Re1'
_cell_volume   430.61740344
_cell_formula_units_Z   1
loop_
 _symmetry_equiv_pos_site_id
 _symmetry_equiv_pos_as_xyz
  1  'x, y, z'
loop_
 _atom_site_type_symbol
 _atom_site_label
 _atom_site_symmetry_multiplicity
 _atom_site_fract_x
 _atom_site_fract_y
 _atom_site_fract_z
 _atom_site_occupancy
  Er  Er0  1  0.306596  0.306596  0.613192  1
  Er  Er1  1  0.693404  0.693404  0.386808  1
  Er  Er2  1  0.693404  0.306596  0.000000  1
  Er  Er3  1  0.306596  0.693404  0.000000  1
  Lu  Lu4  1  0.192119  0.429889  0.237770  1
  Lu  Lu5  1  0.807881  0.570111  0.762230  1
  Lu  Lu6  1  0.192119  0.954350  0.762230  1
  Lu  Lu7  1  0.954350  0.192119  0.762230  1
  Lu  Lu8  1  0.807881  0.045650  0.237770  1
  Lu  Lu9  1  0.045650  0.807881  0.237770  1
  Lu  Lu10  1  0.429889  0.192119  0.237770  1
  Lu  Lu11  1  0.570111  0.807881  0.762230  1
  In  In12  1  0.000000  0.500000  0.500000  1
  In  In13  1  0.500000  0.000000  0.500000  1
  Fe  Fe14  1  0.383831  0.383831  0.000000  1
  Fe  Fe15  1  0.616169  0.616169  0.000000  1
  Re  Re16  1  0.000000  0.000000  0.000000  1
