# generated using pymatgen
data_K4Li2HoTmAs4
_symmetry_space_group_name_H-M   'P 1'
_cell_length_a   10.29180189
_cell_length_b   10.29180296
_cell_length_c   6.72563300
_cell_angle_alpha   90.00000000
_cell_angle_beta   90.00000000
_cell_angle_gamma   98.41889588
_symmetry_Int_Tables_number   1
_chemical_formula_structural   K4Li2HoTmAs4
_chemical_formula_sum   'K8 Li4 Ho2 Tm2 As8'
_cell_volume   704.71048821
_cell_formula_units_Z   2
loop_
 _symmetry_equiv_pos_site_id
 _symmetry_equiv_pos_as_xyz
  1  'x, y, z'
loop_
 _atom_site_type_symbol
 _atom_site_label
 _atom_site_symmetry_multiplicity
 _atom_site_fract_x
 _atom_site_fract_y
 _atom_site_fract_z
 _atom_site_occupancy
  K  K0  1  0.566642  0.933358  0.750000  1
  K  K1  1  0.933358  0.566642  0.250000  1
  K  K2  1  0.433789  0.066211  0.250000  1
  K  K3  1  0.066211  0.433789  0.750000  1
  K  K4  1  0.680034  0.320263  0.792622  1
  K  K5  1  0.819966  0.179737  0.292622  1
  K  K6  1  0.320263  0.680034  0.207378  1
  K  K7  1  0.179737  0.819966  0.707378  1
  Li  Li8  1  0.617650  0.617650  0.000000  1
  Li  Li9  1  0.882350  0.882350  0.500000  1
  Li  Li10  1  0.382917  0.382917  0.000000  1
  Li  Li11  1  0.117083  0.117083  0.500000  1
  Ho  Ho12  1  0.131816  0.131816  0.000000  1
  Ho  Ho13  1  0.368184  0.368184  0.500000  1
  Tm  Tm14  1  0.867748  0.867748  0.000000  1
  Tm  Tm15  1  0.632252  0.632252  0.500000  1
  As  As16  1  0.349156  0.150844  0.750000  1
  As  As17  1  0.150844  0.349156  0.250000  1
  As  As18  1  0.652356  0.847644  0.250000  1
  As  As19  1  0.847644  0.652356  0.750000  1
  As  As20  1  0.904450  0.093567  0.763269  1
  As  As21  1  0.595550  0.406433  0.263269  1
  As  As22  1  0.093567  0.904450  0.236731  1
  As  As23  1  0.406433  0.595550  0.736731  1
