# generated using pymatgen
data_LiGd3In3NiPd
_symmetry_space_group_name_H-M   'P 1'
_cell_length_a   7.77308200
_cell_length_b   7.77308185
_cell_length_c   3.79986400
_cell_angle_alpha   90.00000000
_cell_angle_beta   90.00000000
_cell_angle_gamma   119.99999781
_symmetry_Int_Tables_number   1
_chemical_formula_structural   LiGd3In3NiPd
_chemical_formula_sum   'Li1 Gd3 In3 Ni1 Pd1'
_cell_volume   198.83149809
_cell_formula_units_Z   1
loop_
 _symmetry_equiv_pos_site_id
 _symmetry_equiv_pos_as_xyz
  1  'x, y, z'
loop_
 _atom_site_type_symbol
 _atom_site_label
 _atom_site_symmetry_multiplicity
 _atom_site_fract_x
 _atom_site_fract_y
 _atom_site_fract_z
 _atom_site_occupancy
  Li  Li0  1  0.000000  0.000000  0.500000  1
  Gd  Gd1  1  0.010941  0.589040  0.500000  1
  Gd  Gd2  1  0.410960  0.421901  0.500000  1
  Gd  Gd3  1  0.578099  0.989059  0.500000  1
  In  In4  1  0.744459  0.747183  0.000000  1
  In  In5  1  0.002723  0.255541  0.000000  1
  In  In6  1  0.252817  0.997277  0.000000  1
  Ni  Ni7  1  0.333333  0.666667  0.000000  1
  Pd  Pd8  1  0.666667  0.333333  0.000000  1
