# generated using pymatgen
data_Tb4Ho4Tm4Co5Bi
_symmetry_space_group_name_H-M   'P 1'
_cell_length_a   8.26813198
_cell_length_b   8.26808517
_cell_length_c   8.26813234
_cell_angle_alpha   110.73238431
_cell_angle_beta   110.73901122
_cell_angle_gamma   106.97104502
_symmetry_Int_Tables_number   1
_chemical_formula_structural   Tb4Ho4Tm4Co5Bi
_chemical_formula_sum   'Tb4 Ho4 Tm4 Co5 Bi1'
_cell_volume   434.48962489
_cell_formula_units_Z   1
loop_
 _symmetry_equiv_pos_site_id
 _symmetry_equiv_pos_as_xyz
  1  'x, y, z'
loop_
 _atom_site_type_symbol
 _atom_site_label
 _atom_site_symmetry_multiplicity
 _atom_site_fract_x
 _atom_site_fract_y
 _atom_site_fract_z
 _atom_site_occupancy
  Tb  Tb0  1  0.815599  0.711567  0.527164  1
  Tb  Tb1  1  0.184401  0.288433  0.472836  1
  Tb  Tb2  1  0.184404  0.711567  0.895967  1
  Tb  Tb3  1  0.815596  0.288433  0.104033  1
  Ho  Ho4  1  0.598334  0.792651  0.805685  1
  Ho  Ho5  1  0.401666  0.207349  0.194315  1
  Ho  Ho6  1  0.986966  0.792651  0.194317  1
  Ho  Ho7  1  0.013034  0.207349  0.805683  1
  Tm  Tm8  1  0.687718  0.377112  0.689396  1
  Tm  Tm9  1  0.312282  0.622888  0.310604  1
  Tm  Tm10  1  0.687719  0.998331  0.310613  1
  Tm  Tm11  1  0.312281  0.001669  0.689387  1
  Co  Co12  1  0.623746  0.000000  0.623746  1
  Co  Co13  1  0.376254  0.000000  0.376254  1
  Co  Co14  1  0.112302  0.612299  0.499997  1
  Co  Co15  1  0.887698  0.387701  0.500003  1
  Co  Co16  1  0.000000  0.000000  0.000000  1
  Bi  Bi17  1  0.500000  0.500000  0.000000  1
