# generated using pymatgen
data_CaCeYAs3
_symmetry_space_group_name_H-M   'P 1'
_cell_length_a   7.25159249
_cell_length_b   7.25159180
_cell_length_c   7.25159148
_cell_angle_alpha   146.22633513
_cell_angle_beta   131.98650293
_cell_angle_gamma   59.98705173
_symmetry_Int_Tables_number   1
_chemical_formula_structural   CaCeYAs3
_chemical_formula_sum   'Ca1 Ce1 Y1 As3'
_cell_volume   156.12298989
_cell_formula_units_Z   1
loop_
 _symmetry_equiv_pos_site_id
 _symmetry_equiv_pos_as_xyz
  1  'x, y, z'
loop_
 _atom_site_type_symbol
 _atom_site_label
 _atom_site_symmetry_multiplicity
 _atom_site_fract_x
 _atom_site_fract_y
 _atom_site_fract_z
 _atom_site_occupancy
  Ca  Ca0  1  0.667437  0.667437  0.000000  1
  Ce  Ce1  1  0.001634  0.001634  0.000000  1
  Y  Y2  1  0.332429  0.332429  0.000000  1
  As  As3  1  0.491969  0.991969  0.500000  1
  As  As4  1  0.164559  0.664559  0.500000  1
  As  As5  1  0.841972  0.341972  0.500000  1
