# generated using pymatgen
data_Ca2PPt8
_symmetry_space_group_name_H-M   'P 1'
_cell_length_a   9.17390694
_cell_length_b   9.17390655
_cell_length_c   4.29232600
_cell_angle_alpha   90.00000000
_cell_angle_beta   90.00000000
_cell_angle_gamma   145.63654470
_symmetry_Int_Tables_number   1
_chemical_formula_structural   Ca2PPt8
_chemical_formula_sum   'Ca2 P1 Pt8'
_cell_volume   203.90111192
_cell_formula_units_Z   1
loop_
 _symmetry_equiv_pos_site_id
 _symmetry_equiv_pos_as_xyz
  1  'x, y, z'
loop_
 _atom_site_type_symbol
 _atom_site_label
 _atom_site_symmetry_multiplicity
 _atom_site_fract_x
 _atom_site_fract_y
 _atom_site_fract_z
 _atom_site_occupancy
  Ca  Ca0  1  0.618179  0.372533  0.500000  1
  Ca  Ca1  1  0.372533  0.618179  0.500000  1
  P  P2  1  0.222649  0.222649  0.000000  1
  Pt  Pt3  1  0.109644  0.890294  0.000000  1
  Pt  Pt4  1  0.890294  0.109644  0.000000  1
  Pt  Pt5  1  0.490054  0.986016  0.000000  1
  Pt  Pt6  1  0.986016  0.490054  0.000000  1
  Pt  Pt7  1  0.194264  0.792075  0.500000  1
  Pt  Pt8  1  0.792075  0.194264  0.500000  1
  Pt  Pt9  1  0.008566  0.008566  0.500000  1
  Pt  Pt10  1  0.629324  0.629324  0.000000  1
