# generated using pymatgen
data_Li2La2ThAl7
_symmetry_space_group_name_H-M   'P 1'
_cell_length_a   9.46464153
_cell_length_b   9.46464262
_cell_length_c   9.46464129
_cell_angle_alpha   35.01016505
_cell_angle_beta   35.01016770
_cell_angle_gamma   35.01016031
_symmetry_Int_Tables_number   1
_chemical_formula_structural   Li2La2ThAl7
_chemical_formula_sum   'Li2 La2 Th1 Al7'
_cell_volume   249.18169831
_cell_formula_units_Z   1
loop_
 _symmetry_equiv_pos_site_id
 _symmetry_equiv_pos_as_xyz
  1  'x, y, z'
loop_
 _atom_site_type_symbol
 _atom_site_label
 _atom_site_symmetry_multiplicity
 _atom_site_fract_x
 _atom_site_fract_y
 _atom_site_fract_z
 _atom_site_occupancy
  Li  Li0  1  0.664701  0.664701  0.664701  1
  Li  Li1  1  0.335187  0.335187  0.335187  1
  La  La2  1  0.000033  0.000033  0.000033  1
  La  La3  1  0.858977  0.858977  0.858977  1
  Th  Th4  1  0.141072  0.141072  0.141072  1
  Al  Al5  1  0.415474  0.415474  0.925015  1
  Al  Al6  1  0.925015  0.415474  0.415474  1
  Al  Al7  1  0.499996  0.499996  0.499996  1
  Al  Al8  1  0.584390  0.584390  0.075290  1
  Al  Al9  1  0.415474  0.925015  0.415474  1
  Al  Al10  1  0.075290  0.584390  0.584390  1
  Al  Al11  1  0.584390  0.075290  0.584390  1
