# generated using pymatgen
data_Zr3Ta6NbN12
_symmetry_space_group_name_H-M   'P 1'
_cell_length_a   5.31462401
_cell_length_b   5.31622014
_cell_length_c   10.58120203
_cell_angle_alpha   89.99488418
_cell_angle_beta   89.99637522
_cell_angle_gamma   120.10640385
_symmetry_Int_Tables_number   1
_chemical_formula_structural   Zr3Ta6NbN12
_chemical_formula_sum   'Zr3 Ta6 Nb1 N12'
_cell_volume   258.62737235
_cell_formula_units_Z   1
loop_
 _symmetry_equiv_pos_site_id
 _symmetry_equiv_pos_as_xyz
  1  'x, y, z'
loop_
 _atom_site_type_symbol
 _atom_site_label
 _atom_site_symmetry_multiplicity
 _atom_site_fract_x
 _atom_site_fract_y
 _atom_site_fract_z
 _atom_site_occupancy
  Zr  Zr0  1  0.666949  0.334700  0.999779  1
  Zr  Zr1  1  0.334898  0.666984  0.999766  1
  Zr  Zr2  1  0.334663  0.666779  0.499821  1
  Ta  Ta3  1  0.320769  0.997389  0.747636  1
  Ta  Ta4  1  0.001144  0.322727  0.747614  1
  Ta  Ta5  1  0.321133  0.322932  0.252492  1
  Ta  Ta6  1  0.677853  0.998672  0.252512  1
  Ta  Ta7  1  0.002496  0.679653  0.252571  1
  Ta  Ta8  1  0.666490  0.334237  0.500527  1
  Nb  Nb9  1  0.674847  0.676817  0.747132  1
  N  N10  1  0.663845  0.653438  0.376843  1
  N  N11  1  0.348425  0.010752  0.376785  1
  N  N12  1  0.989904  0.338068  0.376843  1
  N  N13  1  0.342368  0.332164  0.621930  1
  N  N14  1  0.661426  0.014028  0.622645  1
  N  N15  1  0.993042  0.651313  0.622684  1
  N  N16  1  0.336187  0.335740  0.870753  1
  N  N17  1  0.657760  0.004111  0.870050  1
  N  N18  1  0.003342  0.657267  0.870107  1
  N  N19  1  0.659781  0.659155  0.130518  1
  N  N20  1  0.342649  0.000895  0.130487  1
  N  N21  1  0.000031  0.342178  0.130507  1
