# generated using pymatgen
data_Ca9Er(Si3H)2
_symmetry_space_group_name_H-M   'P 1'
_cell_length_a   9.01847410
_cell_length_b   9.01847338
_cell_length_c   9.01847363
_cell_angle_alpha   130.11237293
_cell_angle_beta   130.11237609
_cell_angle_gamma   73.22717865
_symmetry_Int_Tables_number   1
_chemical_formula_structural   Ca9Er(Si3H)2
_chemical_formula_sum   'Ca9 Er1 Si6 H2'
_cell_volume   418.85812249
_cell_formula_units_Z   1
loop_
 _symmetry_equiv_pos_site_id
 _symmetry_equiv_pos_as_xyz
  1  'x, y, z'
loop_
 _atom_site_type_symbol
 _atom_site_label
 _atom_site_symmetry_multiplicity
 _atom_site_fract_x
 _atom_site_fract_y
 _atom_site_fract_z
 _atom_site_occupancy
  Ca  Ca0  1  0.000000  0.000000  0.000000  1
  Ca  Ca1  1  0.519603  0.017652  0.835973  1
  Ca  Ca2  1  0.181679  0.683631  0.164027  1
  Ca  Ca3  1  0.017652  0.181679  0.498049  1
  Ca  Ca4  1  0.683631  0.519603  0.501951  1
  Ca  Ca5  1  0.480397  0.982348  0.164027  1
  Ca  Ca6  1  0.818321  0.316369  0.835973  1
  Ca  Ca7  1  0.982348  0.818321  0.501951  1
  Ca  Ca8  1  0.316369  0.480397  0.498049  1
  Er  Er9  1  0.500000  0.500000  0.000000  1
  Si  Si10  1  0.254214  0.254214  0.000000  1
  Si  Si11  1  0.745786  0.745786  0.000000  1
  Si  Si12  1  0.878520  0.392755  0.271276  1
  Si  Si13  1  0.121480  0.607245  0.728724  1
  Si  Si14  1  0.392755  0.121480  0.514235  1
  Si  Si15  1  0.607245  0.878520  0.485765  1
  H  H16  1  0.250000  0.750000  0.500000  1
  H  H17  1  0.750000  0.250000  0.500000  1
