# generated using pymatgen
data_Ag6BiNO11
_symmetry_space_group_name_H-M   'P 1'
_cell_length_a   7.13515337
_cell_length_b   7.13515336
_cell_length_c   7.13515423
_cell_angle_alpha   61.78323439
_cell_angle_beta   61.78323586
_cell_angle_gamma   61.78323214
_symmetry_Int_Tables_number   1
_chemical_formula_structural   Ag6BiNO11
_chemical_formula_sum   'Ag6 Bi1 N1 O11'
_cell_volume   267.12035706
_cell_formula_units_Z   1
loop_
 _symmetry_equiv_pos_site_id
 _symmetry_equiv_pos_as_xyz
  1  'x, y, z'
loop_
 _atom_site_type_symbol
 _atom_site_label
 _atom_site_symmetry_multiplicity
 _atom_site_fract_x
 _atom_site_fract_y
 _atom_site_fract_z
 _atom_site_occupancy
  Ag  Ag0  1  0.498265  0.000956  0.000956  1
  Ag  Ag1  1  0.500300  0.500300  0.000351  1
  Ag  Ag2  1  0.500300  0.000351  0.500300  1
  Ag  Ag3  1  0.000956  0.000956  0.498265  1
  Ag  Ag4  1  0.000351  0.500300  0.500300  1
  Ag  Ag5  1  0.000956  0.498265  0.000956  1
  Bi  Bi6  1  0.998992  0.998992  0.998992  1
  N  N7  1  0.500053  0.500053  0.500053  1
  O  O8  1  0.575354  0.146923  0.146923  1
  O  O9  1  0.146923  0.575354  0.146923  1
  O  O10  1  0.141602  0.141602  0.141602  1
  O  O11  1  0.146923  0.146923  0.575354  1
  O  O12  1  0.599797  0.599797  0.300497  1
  O  O13  1  0.599797  0.300497  0.599797  1
  O  O14  1  0.300497  0.599797  0.599797  1
  O  O15  1  0.853925  0.853925  0.422810  1
  O  O16  1  0.853925  0.422810  0.853925  1
  O  O17  1  0.858273  0.858273  0.858273  1
  O  O18  1  0.422810  0.853925  0.853925  1
