# generated using pymatgen
data_Sr6NpPaO12
_symmetry_space_group_name_H-M   'P 1'
_cell_length_a   7.13346708
_cell_length_b   7.13346661
_cell_length_c   7.13346691
_cell_angle_alpha   90.81887322
_cell_angle_beta   90.81887975
_cell_angle_gamma   90.81887942
_symmetry_Int_Tables_number   1
_chemical_formula_structural   Sr6NpPaO12
_chemical_formula_sum   'Sr6 Np1 Pa1 O12'
_cell_volume   362.88379808
_cell_formula_units_Z   1
loop_
 _symmetry_equiv_pos_site_id
 _symmetry_equiv_pos_as_xyz
  1  'x, y, z'
loop_
 _atom_site_type_symbol
 _atom_site_label
 _atom_site_symmetry_multiplicity
 _atom_site_fract_x
 _atom_site_fract_y
 _atom_site_fract_z
 _atom_site_occupancy
  Sr  Sr0  1  0.061055  0.254881  0.549160  1
  Sr  Sr1  1  0.450840  0.938945  0.745119  1
  Sr  Sr2  1  0.745119  0.450840  0.938945  1
  Sr  Sr3  1  0.254881  0.549160  0.061055  1
  Sr  Sr4  1  0.549160  0.061055  0.254881  1
  Sr  Sr5  1  0.938945  0.745119  0.450840  1
  Np  Np6  1  0.000000  0.000000  0.000000  1
  Pa  Pa7  1  0.500000  0.500000  0.500000  1
  O  O8  1  0.058922  0.272831  0.938574  1
  O  O9  1  0.061426  0.941078  0.727169  1
  O  O10  1  0.457285  0.588749  0.792524  1
  O  O11  1  0.727169  0.061426  0.941078  1
  O  O12  1  0.207476  0.542715  0.411251  1
  O  O13  1  0.411251  0.207476  0.542715  1
  O  O14  1  0.588749  0.792524  0.457285  1
  O  O15  1  0.792524  0.457285  0.588749  1
  O  O16  1  0.272831  0.938574  0.058922  1
  O  O17  1  0.542715  0.411251  0.207476  1
  O  O18  1  0.938574  0.058922  0.272831  1
  O  O19  1  0.941078  0.727169  0.061426  1
