# generated using pymatgen
data_Ti8Mo3RuRh4
_symmetry_space_group_name_H-M   'P 1'
_cell_length_a   6.23214100
_cell_length_b   4.39187300
_cell_length_c   8.85106100
_cell_angle_alpha   89.99994154
_cell_angle_beta   90.00090362
_cell_angle_gamma   89.99971859
_symmetry_Int_Tables_number   1
_chemical_formula_structural   Ti8Mo3RuRh4
_chemical_formula_sum   'Ti8 Mo3 Ru1 Rh4'
_cell_volume   242.26037071
_cell_formula_units_Z   1
loop_
 _symmetry_equiv_pos_site_id
 _symmetry_equiv_pos_as_xyz
  1  'x, y, z'
loop_
 _atom_site_type_symbol
 _atom_site_label
 _atom_site_symmetry_multiplicity
 _atom_site_fract_x
 _atom_site_fract_y
 _atom_site_fract_z
 _atom_site_occupancy
  Ti  Ti0  1  0.498238  0.750000  0.125000  1
  Ti  Ti1  1  0.001940  0.749997  0.125014  1
  Ti  Ti2  1  0.499819  0.250000  0.375502  1
  Ti  Ti3  1  0.000331  0.249995  0.375530  1
  Ti  Ti4  1  0.999869  0.750000  0.624993  1
  Ti  Ti5  1  0.499987  0.749999  0.625004  1
  Ti  Ti6  1  0.000186  0.250001  0.874455  1
  Ti  Ti7  1  0.499666  0.250002  0.874489  1
  Mo  Mo8  1  0.249947  0.750001  0.373218  1
  Mo  Mo9  1  0.750062  0.250003  0.624991  1
  Mo  Mo10  1  0.249860  0.749997  0.876831  1
  Ru  Ru11  1  0.750054  0.249998  0.125019  1
  Rh  Rh12  1  0.250096  0.249998  0.124982  1
  Rh  Rh13  1  0.750035  0.750001  0.371811  1
  Rh  Rh14  1  0.249965  0.250002  0.625004  1
  Rh  Rh15  1  0.749943  0.749997  0.878158  1
