# generated using pymatgen
data_Li3Zr3Pt5Rh
_symmetry_space_group_name_H-M   'P 1'
_cell_length_a   4.34763900
_cell_length_b   7.10432800
_cell_length_c   12.64719700
_cell_angle_alpha   90.00006044
_cell_angle_beta   89.99909477
_cell_angle_gamma   90.00006884
_symmetry_Int_Tables_number   1
_chemical_formula_structural   Li3Zr3Pt5Rh
_chemical_formula_sum   'Li6 Zr6 Pt10 Rh2'
_cell_volume   390.63465011
_cell_formula_units_Z   2
loop_
 _symmetry_equiv_pos_site_id
 _symmetry_equiv_pos_as_xyz
  1  'x, y, z'
loop_
 _atom_site_type_symbol
 _atom_site_label
 _atom_site_symmetry_multiplicity
 _atom_site_fract_x
 _atom_site_fract_y
 _atom_site_fract_z
 _atom_site_occupancy
  Li  Li0  1  0.999994  0.000022  0.998865  1
  Li  Li1  1  0.499914  0.499996  0.164611  1
  Li  Li2  1  0.999896  0.999987  0.333335  1
  Li  Li3  1  0.499991  0.499991  0.502087  1
  Li  Li4  1  0.000059  0.000010  0.667790  1
  Li  Li5  1  0.500042  0.499961  0.833315  1
  Zr  Zr6  1  0.000005  0.499999  0.994284  1
  Zr  Zr7  1  0.499936  0.999989  0.166760  1
  Zr  Zr8  1  0.999913  0.499994  0.333315  1
  Zr  Zr9  1  0.500014  0.000005  0.499866  1
  Zr  Zr10  1  0.000094  0.500018  0.672389  1
  Zr  Zr11  1  0.500065  0.000008  0.833376  1
  Pt  Pt12  1  0.500009  0.253313  0.999828  1
  Pt  Pt13  1  0.500012  0.746689  0.999824  1
  Pt  Pt14  1  0.999949  0.246452  0.165959  1
  Pt  Pt15  1  0.999956  0.753534  0.165961  1
  Pt  Pt16  1  0.499934  0.255774  0.333310  1
  Pt  Pt17  1  0.499935  0.744220  0.333315  1
  Pt  Pt18  1  0.000015  0.246475  0.500680  1
  Pt  Pt19  1  0.000015  0.753532  0.500678  1
  Pt  Pt20  1  0.500071  0.253253  0.666862  1
  Pt  Pt21  1  0.500081  0.746769  0.666867  1
  Rh  Rh22  1  0.000042  0.246033  0.833355  1
  Rh  Rh23  1  0.000061  0.753974  0.833366  1
