# generated using pymatgen
data_Er4Tm4B24Ir3Rh
_symmetry_space_group_name_H-M   'P 1'
_cell_length_a   3.61493000
_cell_length_b   9.12835965
_cell_length_c   11.46565500
_cell_angle_alpha   90.04288334
_cell_angle_beta   90.00000000
_cell_angle_gamma   90.00000000
_symmetry_Int_Tables_number   1
_chemical_formula_structural   Er4Tm4B24Ir3Rh
_chemical_formula_sum   'Er4 Tm4 B24 Ir3 Rh1'
_cell_volume   378.34794770
_cell_formula_units_Z   1
loop_
 _symmetry_equiv_pos_site_id
 _symmetry_equiv_pos_as_xyz
  1  'x, y, z'
loop_
 _atom_site_type_symbol
 _atom_site_label
 _atom_site_symmetry_multiplicity
 _atom_site_fract_x
 _atom_site_fract_y
 _atom_site_fract_z
 _atom_site_occupancy
  Er  Er0  1  0.500000  0.322380  0.412860  1
  Er  Er1  1  0.500000  0.677826  0.586044  1
  Er  Er2  1  0.500000  0.178614  0.913479  1
  Er  Er3  1  0.500000  0.821432  0.087631  1
  Tm  Tm4  1  0.500000  0.445112  0.125950  1
  Tm  Tm5  1  0.500000  0.555619  0.875053  1
  Tm  Tm6  1  0.500000  0.055440  0.624818  1
  Tm  Tm7  1  0.500000  0.943422  0.374361  1
  B  B8  1  0.000000  0.109633  0.469744  1
  B  B9  1  0.000000  0.889981  0.529872  1
  B  B10  1  0.000000  0.390566  0.970239  1
  B  B11  1  0.000000  0.609870  0.030097  1
  B  B12  1  0.000000  0.132196  0.315800  1
  B  B13  1  0.000000  0.867611  0.683690  1
  B  B14  1  0.000000  0.367781  0.816380  1
  B  B15  1  0.000000  0.632747  0.183959  1
  B  B16  1  0.000000  0.053353  0.066046  1
  B  B17  1  0.000000  0.946863  0.934010  1
  B  B18  1  0.000000  0.446604  0.565875  1
  B  B19  1  0.000000  0.553002  0.434223  1
  B  B20  1  0.000000  0.481781  0.287296  1
  B  B21  1  0.000000  0.518090  0.713249  1
  B  B22  1  0.000000  0.018357  0.786823  1
  B  B23  1  0.000000  0.981646  0.213098  1
  B  B24  1  0.000000  0.250385  0.079235  1
  B  B25  1  0.000000  0.749997  0.920948  1
  B  B26  1  0.000000  0.250259  0.578835  1
  B  B27  1  0.000000  0.749385  0.420681  1
  B  B28  1  0.000000  0.294137  0.234866  1
  B  B29  1  0.000000  0.706144  0.765099  1
  B  B30  1  0.000000  0.206033  0.734762  1
  B  B31  1  0.000000  0.794068  0.264668  1
  Ir  Ir32  1  0.500000  0.138827  0.178365  1
  Ir  Ir33  1  0.500000  0.861601  0.821274  1
  Ir  Ir34  1  0.500000  0.360515  0.679750  1
  Rh  Rh35  1  0.500000  0.638723  0.320919  1
