# generated using pymatgen
data_TiBe17Nb
_symmetry_space_group_name_H-M   'P 1'
_cell_length_a   5.55254765
_cell_length_b   5.55254719
_cell_length_c   5.55254814
_cell_angle_alpha   83.05101385
_cell_angle_beta   96.94897759
_cell_angle_gamma   96.94898670
_symmetry_Int_Tables_number   1
_chemical_formula_structural   TiBe17Nb
_chemical_formula_sum   'Ti1 Be17 Nb1'
_cell_volume   167.69829521
_cell_formula_units_Z   1
loop_
 _symmetry_equiv_pos_site_id
 _symmetry_equiv_pos_as_xyz
  1  'x, y, z'
loop_
 _atom_site_type_symbol
 _atom_site_label
 _atom_site_symmetry_multiplicity
 _atom_site_fract_x
 _atom_site_fract_y
 _atom_site_fract_z
 _atom_site_occupancy
  Ti  Ti0  1  0.838474  0.161525  0.161525  1
  Be  Be1  1  0.499371  0.500631  0.000253  1
  Be  Be2  1  0.846808  0.660198  0.153190  1
  Be  Be3  1  0.339802  0.153191  0.153191  1
  Be  Be4  1  0.500950  0.794196  0.206540  1
  Be  Be5  1  0.205804  0.499049  0.206540  1
  Be  Be6  1  0.153322  0.846678  0.339126  1
  Be  Be7  1  0.598478  0.401520  0.401521  1
  Be  Be8  1  0.499369  0.000253  0.500629  1
  Be  Be9  1  0.793460  0.794196  0.499050  1
  Be  Be10  1  0.999747  0.500629  0.500631  1
  Be  Be11  1  0.205804  0.206540  0.499050  1
  Be  Be12  1  0.401796  0.598203  0.598203  1
  Be  Be13  1  0.846809  0.153191  0.660198  1
  Be  Be14  1  0.500950  0.206540  0.794196  1
  Be  Be15  1  0.793460  0.499049  0.794196  1
  Be  Be16  1  0.153321  0.339126  0.846677  1
  Be  Be17  1  0.660874  0.846678  0.846678  1
  Nb  Nb18  1  0.161395  0.838603  0.838604  1
