# generated using pymatgen
data_Rb3GaGe2O7
_symmetry_space_group_name_H-M   'P 1'
_cell_length_a   9.80068807
_cell_length_b   9.80068842
_cell_length_c   7.71083255
_cell_angle_alpha   72.98899465
_cell_angle_beta   72.98899251
_cell_angle_gamma   121.93095488
_symmetry_Int_Tables_number   1
_chemical_formula_structural   Rb3GaGe2O7
_chemical_formula_sum   'Rb6 Ga2 Ge4 O14'
_cell_volume   501.54556951
_cell_formula_units_Z   2
loop_
 _symmetry_equiv_pos_site_id
 _symmetry_equiv_pos_as_xyz
  1  'x, y, z'
loop_
 _atom_site_type_symbol
 _atom_site_label
 _atom_site_symmetry_multiplicity
 _atom_site_fract_x
 _atom_site_fract_y
 _atom_site_fract_z
 _atom_site_occupancy
  Rb  Rb0  1  0.588461  0.980120  0.740304  1
  Rb  Rb1  1  0.006675  0.993325  0.750000  1
  Rb  Rb2  1  0.980120  0.588461  0.240304  1
  Rb  Rb3  1  0.993325  0.006675  0.250000  1
  Rb  Rb4  1  0.019880  0.411539  0.759696  1
  Rb  Rb5  1  0.411539  0.019880  0.259696  1
  Ga  Ga6  1  0.440564  0.559436  0.750000  1
  Ga  Ga7  1  0.559436  0.440564  0.250000  1
  Ge  Ge8  1  0.774310  0.569604  0.753844  1
  Ge  Ge9  1  0.430396  0.225690  0.746156  1
  Ge  Ge10  1  0.569604  0.774310  0.253844  1
  Ge  Ge11  1  0.225690  0.430396  0.246156  1
  O  O12  1  0.673759  0.677833  0.729172  1
  O  O13  1  0.677833  0.673759  0.229172  1
  O  O14  1  0.516725  0.259488  0.484216  1
  O  O15  1  0.322167  0.326241  0.770828  1
  O  O16  1  0.986130  0.267376  0.454499  1
  O  O17  1  0.483275  0.740512  0.515784  1
  O  O18  1  0.267376  0.986130  0.954499  1
  O  O19  1  0.259488  0.516725  0.984216  1
  O  O20  1  0.353565  0.646435  0.250000  1
  O  O21  1  0.326241  0.322167  0.270828  1
  O  O22  1  0.732624  0.013870  0.045501  1
  O  O23  1  0.646435  0.353565  0.750000  1
  O  O24  1  0.013870  0.732624  0.545501  1
  O  O25  1  0.740512  0.483275  0.015784  1
