# generated using pymatgen
data_YHo15In4Ir3Os
_symmetry_space_group_name_H-M   'P 1'
_cell_length_a   9.64665789
_cell_length_b   9.64572907
_cell_length_c   9.65940500
_cell_angle_alpha   59.95309800
_cell_angle_beta   59.95628902
_cell_angle_gamma   59.88342620
_symmetry_Int_Tables_number   1
_chemical_formula_structural   YHo15In4Ir3Os
_chemical_formula_sum   'Y1 Ho15 In4 Ir3 Os1'
_cell_volume   634.55023826
_cell_formula_units_Z   1
loop_
 _symmetry_equiv_pos_site_id
 _symmetry_equiv_pos_as_xyz
  1  'x, y, z'
loop_
 _atom_site_type_symbol
 _atom_site_label
 _atom_site_symmetry_multiplicity
 _atom_site_fract_x
 _atom_site_fract_y
 _atom_site_fract_z
 _atom_site_occupancy
  Y  Y0  1  0.438034  0.443539  0.059214  1
  Ho  Ho1  1  0.650400  0.651434  0.045348  1
  Ho  Ho2  1  0.193533  0.809578  0.189802  1
  Ho  Ho3  1  0.058840  0.439766  0.060219  1
  Ho  Ho4  1  0.193533  0.809578  0.807087  1
  Ho  Ho5  1  0.058840  0.439766  0.441175  1
  Ho  Ho6  1  0.809293  0.192435  0.191347  1
  Ho  Ho7  1  0.650400  0.651434  0.652818  1
  Ho  Ho8  1  0.809293  0.192435  0.806924  1
  Ho  Ho9  1  0.193336  0.190847  0.807909  1
  Ho  Ho10  1  0.047790  0.650096  0.651058  1
  Ho  Ho11  1  0.438997  0.057307  0.058069  1
  Ho  Ho12  1  0.059446  0.060086  0.440234  1
  Ho  Ho13  1  0.649954  0.046168  0.651939  1
  Ho  Ho14  1  0.808435  0.808508  0.191529  1
  Ho  Ho15  1  0.438997  0.057307  0.445628  1
  In  In16  1  0.416332  0.416735  0.416654  1
  In  In17  1  0.416332  0.416735  0.750281  1
  In  In18  1  0.416403  0.750216  0.416691  1
  In  In19  1  0.749783  0.416703  0.416758  1
  Ir  Ir20  1  0.859755  0.858834  0.859233  1
  Ir  Ir21  1  0.859942  0.422434  0.858811  1
  Ir  Ir22  1  0.859755  0.858834  0.422177  1
  Os  Os23  1  0.422576  0.859229  0.859098  1
