# generated using pymatgen
data_Tb5DyCoBr10
_symmetry_space_group_name_H-M   'P 1'
_cell_length_a   7.37880904
_cell_length_b   9.21475753
_cell_length_c   9.15744815
_cell_angle_alpha   106.98012236
_cell_angle_beta   96.56601051
_cell_angle_gamma   104.55322925
_symmetry_Int_Tables_number   1
_chemical_formula_structural   Tb5DyCoBr10
_chemical_formula_sum   'Tb5 Dy1 Co1 Br10'
_cell_volume   564.42318995
_cell_formula_units_Z   1
loop_
 _symmetry_equiv_pos_site_id
 _symmetry_equiv_pos_as_xyz
  1  'x, y, z'
loop_
 _atom_site_type_symbol
 _atom_site_label
 _atom_site_symmetry_multiplicity
 _atom_site_fract_x
 _atom_site_fract_y
 _atom_site_fract_z
 _atom_site_occupancy
  Tb  Tb0  1  0.964768  0.293063  0.590514  1
  Tb  Tb1  1  0.878468  0.951480  0.734749  1
  Tb  Tb2  1  0.121109  0.048774  0.265042  1
  Tb  Tb3  1  0.350360  0.127210  0.675191  1
  Tb  Tb4  1  0.649560  0.871780  0.324448  1
  Dy  Dy5  1  0.035667  0.709095  0.410281  1
  Co  Co6  1  0.999869  0.000354  0.500000  1
  Br  Br7  1  0.457172  0.819809  0.585538  1
  Br  Br8  1  0.541868  0.178671  0.413718  1
  Br  Br9  1  0.914333  0.628941  0.672911  1
  Br  Br10  1  0.086033  0.372815  0.326825  1
  Br  Br11  1  0.241305  0.081078  0.955021  1
  Br  Br12  1  0.757744  0.917865  0.044665  1
  Br  Br13  1  0.340991  0.445572  0.770378  1
  Br  Br14  1  0.662505  0.554345  0.230271  1
  Br  Br15  1  0.773452  0.246734  0.840651  1
  Br  Br16  1  0.224797  0.752416  0.159796  1
