# generated using pymatgen
data_Sm5Mg3(Co4P3)4
_symmetry_space_group_name_H-M   'P 1'
_cell_length_a   12.24183700
_cell_length_b   12.24183690
_cell_length_c   3.76963100
_cell_angle_alpha   90.00000000
_cell_angle_beta   90.00000000
_cell_angle_gamma   119.99999758
_symmetry_Int_Tables_number   1
_chemical_formula_structural   Sm5Mg3(Co4P3)4
_chemical_formula_sum   'Sm5 Mg3 Co16 P12'
_cell_volume   489.24079591
_cell_formula_units_Z   1
loop_
 _symmetry_equiv_pos_site_id
 _symmetry_equiv_pos_as_xyz
  1  'x, y, z'
loop_
 _atom_site_type_symbol
 _atom_site_label
 _atom_site_symmetry_multiplicity
 _atom_site_fract_x
 _atom_site_fract_y
 _atom_site_fract_z
 _atom_site_occupancy
  Sm  Sm0  1  0.813279  0.000000  0.500000  1
  Sm  Sm1  1  0.000000  0.813279  0.500000  1
  Sm  Sm2  1  0.186721  0.186721  0.500000  1
  Sm  Sm3  1  0.333333  0.666667  0.000000  1
  Sm  Sm4  1  0.666667  0.333333  0.000000  1
  Mg  Mg5  1  0.438493  0.000000  0.000000  1
  Mg  Mg6  1  0.000000  0.438493  0.000000  1
  Mg  Mg7  1  0.561507  0.561507  0.000000  1
  Co  Co8  1  0.281299  0.000000  0.500000  1
  Co  Co9  1  0.000000  0.281299  0.500000  1
  Co  Co10  1  0.718701  0.718701  0.500000  1
  Co  Co11  1  0.623804  0.802138  0.000000  1
  Co  Co12  1  0.197862  0.821666  0.000000  1
  Co  Co13  1  0.178334  0.376196  0.000000  1
  Co  Co14  1  0.376196  0.178334  0.000000  1
  Co  Co15  1  0.802138  0.623804  0.000000  1
  Co  Co16  1  0.821666  0.197862  0.000000  1
  Co  Co17  1  0.517982  0.875829  0.500000  1
  Co  Co18  1  0.124171  0.642153  0.500000  1
  Co  Co19  1  0.357847  0.482018  0.500000  1
  Co  Co20  1  0.482018  0.357847  0.500000  1
  Co  Co21  1  0.875829  0.517982  0.500000  1
  Co  Co22  1  0.642153  0.124171  0.500000  1
  Co  Co23  1  0.000000  0.000000  0.000000  1
  P  P24  1  0.181846  0.000000  0.000000  1
  P  P25  1  0.000000  0.181846  0.000000  1
  P  P26  1  0.818154  0.818154  0.000000  1
  P  P27  1  0.522767  0.694522  0.500000  1
  P  P28  1  0.305478  0.828244  0.500000  1
  P  P29  1  0.171756  0.477233  0.500000  1
  P  P30  1  0.477233  0.171756  0.500000  1
  P  P31  1  0.694522  0.522767  0.500000  1
  P  P32  1  0.828244  0.305478  0.500000  1
  P  P33  1  0.637601  0.000000  0.000000  1
  P  P34  1  0.000000  0.637601  0.000000  1
  P  P35  1  0.362399  0.362399  0.000000  1
