# generated using pymatgen
data_CsBa(AgTe2)2
_symmetry_space_group_name_H-M   'P 1'
_cell_length_a   13.28222334
_cell_length_b   13.28222319
_cell_length_c   13.28222254
_cell_angle_alpha   159.84908150
_cell_angle_beta   159.84907843
_cell_angle_gamma   28.64856343
_symmetry_Int_Tables_number   1
_chemical_formula_structural   CsBa(AgTe2)2
_chemical_formula_sum   'Cs1 Ba1 Ag2 Te4'
_cell_volume   277.94537686
_cell_formula_units_Z   1
loop_
 _symmetry_equiv_pos_site_id
 _symmetry_equiv_pos_as_xyz
  1  'x, y, z'
loop_
 _atom_site_type_symbol
 _atom_site_label
 _atom_site_symmetry_multiplicity
 _atom_site_fract_x
 _atom_site_fract_y
 _atom_site_fract_z
 _atom_site_occupancy
  Cs  Cs0  1  0.884879  0.884879  0.000000  1
  Ba  Ba1  1  0.120245  0.120245  0.000000  1
  Ag  Ag2  1  0.243990  0.743990  0.500000  1
  Ag  Ag3  1  0.743990  0.243990  0.500000  1
  Te  Te4  1  0.513982  0.013982  0.500000  1
  Te  Te5  1  0.013982  0.513982  0.500000  1
  Te  Te6  1  0.307898  0.307898  0.000000  1
  Te  Te7  1  0.671035  0.671035  0.000000  1
