# generated using pymatgen
data_La2PrDyCoI5
_symmetry_space_group_name_H-M   'P 1'
_cell_length_a   9.86038308
_cell_length_b   9.86038213
_cell_length_c   9.29180253
_cell_angle_alpha   76.64587228
_cell_angle_beta   76.64587435
_cell_angle_gamma   25.26998509
_symmetry_Int_Tables_number   1
_chemical_formula_structural   La2PrDyCoI5
_chemical_formula_sum   'La2 Pr1 Dy1 Co1 I5'
_cell_volume   374.69445967
_cell_formula_units_Z   1
loop_
 _symmetry_equiv_pos_site_id
 _symmetry_equiv_pos_as_xyz
  1  'x, y, z'
loop_
 _atom_site_type_symbol
 _atom_site_label
 _atom_site_symmetry_multiplicity
 _atom_site_fract_x
 _atom_site_fract_y
 _atom_site_fract_z
 _atom_site_occupancy
  La  La0  1  0.867246  0.867246  0.072060  1
  La  La1  1  0.132651  0.132651  0.935190  1
  Pr  Pr2  1  0.499329  0.499329  0.780510  1
  Dy  Dy3  1  0.500353  0.500353  0.207408  1
  Co  Co4  1  0.999912  0.999912  0.002099  1
  I  I5  1  0.669577  0.669577  0.179055  1
  I  I6  1  0.326119  0.326119  0.829409  1
  I  I7  1  0.668489  0.668489  0.658093  1
  I  I8  1  0.336045  0.336045  0.346399  1
  I  I9  1  0.000278  0.000278  0.489776  1
