# generated using pymatgen
data_Ho4TmInAu4
_symmetry_space_group_name_H-M   'P 1'
_cell_length_a   8.06161000
_cell_length_b   8.06161000
_cell_length_c   3.73314600
_cell_angle_alpha   90.00000000
_cell_angle_beta   90.00000000
_cell_angle_gamma   90.00000000
_symmetry_Int_Tables_number   1
_chemical_formula_structural   Ho4TmInAu4
_chemical_formula_sum   'Ho4 Tm1 In1 Au4'
_cell_volume   242.61550025
_cell_formula_units_Z   1
loop_
 _symmetry_equiv_pos_site_id
 _symmetry_equiv_pos_as_xyz
  1  'x, y, z'
loop_
 _atom_site_type_symbol
 _atom_site_label
 _atom_site_symmetry_multiplicity
 _atom_site_fract_x
 _atom_site_fract_y
 _atom_site_fract_z
 _atom_site_occupancy
  Ho  Ho0  1  0.684685  0.142987  0.500000  1
  Ho  Ho1  1  0.315315  0.857013  0.500000  1
  Ho  Ho2  1  0.142987  0.315315  0.500000  1
  Ho  Ho3  1  0.857013  0.684685  0.500000  1
  Tm  Tm4  1  0.500000  0.500000  0.000000  1
  In  In5  1  0.000000  0.000000  0.000000  1
  Au  Au6  1  0.146380  0.619032  0.000000  1
  Au  Au7  1  0.853620  0.380968  0.000000  1
  Au  Au8  1  0.619032  0.853620  0.000000  1
  Au  Au9  1  0.380968  0.146380  0.000000  1
