# generated using pymatgen
data_Zr3Pa3PCl15
_symmetry_space_group_name_H-M   'P 1'
_cell_length_a   9.32771752
_cell_length_b   9.32771747
_cell_length_c   9.38961900
_cell_angle_alpha   109.60570888
_cell_angle_beta   109.60570876
_cell_angle_gamma   109.33639845
_symmetry_Int_Tables_number   1
_chemical_formula_structural   Zr3Pa3PCl15
_chemical_formula_sum   'Zr3 Pa3 P1 Cl15'
_cell_volume   627.84628241
_cell_formula_units_Z   1
loop_
 _symmetry_equiv_pos_site_id
 _symmetry_equiv_pos_as_xyz
  1  'x, y, z'
loop_
 _atom_site_type_symbol
 _atom_site_label
 _atom_site_symmetry_multiplicity
 _atom_site_fract_x
 _atom_site_fract_y
 _atom_site_fract_z
 _atom_site_occupancy
  Zr  Zr0  1  0.216972  0.216972  0.989778  1
  Zr  Zr1  1  0.783028  0.000000  0.772806  1
  Zr  Zr2  1  0.000000  0.783028  0.772806  1
  Pa  Pa3  1  0.741456  0.741456  0.993161  1
  Pa  Pa4  1  0.258544  0.000000  0.251705  1
  Pa  Pa5  1  0.000000  0.258544  0.251705  1
  P  P6  1  0.000000  0.000000  0.015046  1
  Cl  Cl7  1  0.251038  0.251038  0.500366  1
  Cl  Cl8  1  0.748962  0.000000  0.249326  1
  Cl  Cl9  1  0.000000  0.748962  0.249326  1
  Cl  Cl10  1  0.749433  0.236798  0.982102  1
  Cl  Cl11  1  0.250567  0.487368  0.232670  1
  Cl  Cl12  1  0.000000  0.239369  0.758159  1
  Cl  Cl13  1  0.236798  0.749433  0.982102  1
  Cl  Cl14  1  0.239369  0.000000  0.758159  1
  Cl  Cl15  1  0.487368  0.250567  0.232670  1
  Cl  Cl16  1  0.760631  0.760631  0.518789  1
  Cl  Cl17  1  0.763202  0.512632  0.745304  1
  Cl  Cl18  1  0.512632  0.763202  0.745304  1
  Cl  Cl19  1  0.492892  0.492892  0.994833  1
  Cl  Cl20  1  0.507108  0.000000  0.501942  1
  Cl  Cl21  1  0.000000  0.507108  0.501942  1
