# generated using pymatgen
data_HoMg2PaRh2
_symmetry_space_group_name_H-M   'P 1'
_cell_length_a   3.79011400
_cell_length_b   7.34038270
_cell_length_c   9.11451316
_cell_angle_alpha   91.72720264
_cell_angle_beta   90.00000000
_cell_angle_gamma   90.00000000
_symmetry_Int_Tables_number   1
_chemical_formula_structural   HoMg2PaRh2
_chemical_formula_sum   'Ho2 Mg4 Pa2 Rh4'
_cell_volume   253.45863478
_cell_formula_units_Z   2
loop_
 _symmetry_equiv_pos_site_id
 _symmetry_equiv_pos_as_xyz
  1  'x, y, z'
loop_
 _atom_site_type_symbol
 _atom_site_label
 _atom_site_symmetry_multiplicity
 _atom_site_fract_x
 _atom_site_fract_y
 _atom_site_fract_z
 _atom_site_occupancy
  Ho  Ho0  1  0.250000  0.529608  0.818309  1
  Ho  Ho1  1  0.750000  0.470392  0.181691  1
  Mg  Mg2  1  0.750000  0.850945  0.951141  1
  Mg  Mg3  1  0.250000  0.149055  0.048859  1
  Mg  Mg4  1  0.250000  0.637322  0.446560  1
  Mg  Mg5  1  0.750000  0.362678  0.553440  1
  Pa  Pa6  1  0.750000  0.969441  0.312457  1
  Pa  Pa7  1  0.250000  0.030559  0.687543  1
  Rh  Rh8  1  0.750000  0.779553  0.638394  1
  Rh  Rh9  1  0.250000  0.220447  0.361606  1
  Rh  Rh10  1  0.250000  0.769285  0.167391  1
  Rh  Rh11  1  0.750000  0.230715  0.832609  1
