# generated using pymatgen
data_Pr7EuSe16
_symmetry_space_group_name_H-M   'P 1'
_cell_length_a   8.49468632
_cell_length_b   8.48740013
_cell_length_c   8.76195230
_cell_angle_alpha   89.82557656
_cell_angle_beta   90.09076848
_cell_angle_gamma   89.98668636
_symmetry_Int_Tables_number   1
_chemical_formula_structural   Pr7EuSe16
_chemical_formula_sum   'Pr7 Eu1 Se16'
_cell_volume   631.71376236
_cell_formula_units_Z   1
loop_
 _symmetry_equiv_pos_site_id
 _symmetry_equiv_pos_as_xyz
  1  'x, y, z'
loop_
 _atom_site_type_symbol
 _atom_site_label
 _atom_site_symmetry_multiplicity
 _atom_site_fract_x
 _atom_site_fract_y
 _atom_site_fract_z
 _atom_site_occupancy
  Pr  Pr0  1  0.259781  0.001290  0.722148  1
  Pr  Pr1  1  0.740453  0.501862  0.723303  1
  Pr  Pr2  1  0.759901  0.001507  0.720911  1
  Pr  Pr3  1  0.512997  0.249507  0.278212  1
  Pr  Pr4  1  0.986450  0.748092  0.278312  1
  Pr  Pr5  1  0.486103  0.748532  0.277272  1
  Pr  Pr6  1  0.013168  0.248578  0.278622  1
  Eu  Eu7  1  0.241624  0.501832  0.716916  1
  Se  Se8  1  0.506218  0.247481  0.631510  1
  Se  Se9  1  0.994973  0.751925  0.631458  1
  Se  Se10  1  0.500286  0.753573  0.630609  1
  Se  Se11  1  0.001282  0.247896  0.631558  1
  Se  Se12  1  0.746910  0.500532  0.369816  1
  Se  Se13  1  0.752737  0.000428  0.366732  1
  Se  Se14  1  0.247235  0.500233  0.364516  1
  Se  Se15  1  0.252851  0.000262  0.369230  1
  Se  Se16  1  0.212266  0.756168  0.003222  1
  Se  Se17  1  0.289045  0.256037  0.003083  1
  Se  Se18  1  0.786398  0.258368  0.004004  1
  Se  Se19  1  0.711615  0.757164  0.003051  1
  Se  Se20  1  0.970698  0.491498  0.999891  1
  Se  Se21  1  0.527472  0.993925  0.998564  1
  Se  Se22  1  0.468810  0.492187  0.997455  1
  Se  Se23  1  0.030728  0.991122  0.999605  1
