# generated using pymatgen
data_Rb4Na2LuInAs4
_symmetry_space_group_name_H-M   'P 1'
_cell_length_a   9.47966358
_cell_length_b   9.47966462
_cell_length_c   9.47966386
_cell_angle_alpha   136.44785102
_cell_angle_beta   137.80983151
_cell_angle_gamma   62.24657841
_symmetry_Int_Tables_number   1
_chemical_formula_structural   Rb4Na2LuInAs4
_chemical_formula_sum   'Rb4 Na2 Lu1 In1 As4'
_cell_volume   389.48811658
_cell_formula_units_Z   1
loop_
 _symmetry_equiv_pos_site_id
 _symmetry_equiv_pos_as_xyz
  1  'x, y, z'
loop_
 _atom_site_type_symbol
 _atom_site_label
 _atom_site_symmetry_multiplicity
 _atom_site_fract_x
 _atom_site_fract_y
 _atom_site_fract_z
 _atom_site_occupancy
  Rb  Rb0  1  0.670137  0.404059  0.719827  1
  Rb  Rb1  1  0.829863  0.049691  0.233922  1
  Rb  Rb2  1  0.184232  0.950309  0.780173  1
  Rb  Rb3  1  0.315768  0.595941  0.266078  1
  Na  Na4  1  0.750000  0.000000  0.750000  1
  Na  Na5  1  0.250000  0.000000  0.250000  1
  Lu  Lu6  1  0.750000  0.500000  0.250000  1
  In  In7  1  0.250000  0.500000  0.750000  1
  As  As8  1  0.402527  0.185788  0.781227  1
  As  As9  1  0.595439  0.814212  0.216739  1
  As  As10  1  0.097473  0.378701  0.283261  1
  As  As11  1  0.904561  0.621299  0.718773  1
