# generated using pymatgen
data_Yb4TcB16Os3
_symmetry_space_group_name_H-M   'P 1'
_cell_length_a   3.54585500
_cell_length_b   5.96166500
_cell_length_c   11.53262000
_cell_angle_alpha   89.99991652
_cell_angle_beta   90.00000000
_cell_angle_gamma   90.00000000
_symmetry_Int_Tables_number   1
_chemical_formula_structural   Yb4TcB16Os3
_chemical_formula_sum   'Yb4 Tc1 B16 Os3'
_cell_volume   243.79035665
_cell_formula_units_Z   1
loop_
 _symmetry_equiv_pos_site_id
 _symmetry_equiv_pos_as_xyz
  1  'x, y, z'
loop_
 _atom_site_type_symbol
 _atom_site_label
 _atom_site_symmetry_multiplicity
 _atom_site_fract_x
 _atom_site_fract_y
 _atom_site_fract_z
 _atom_site_occupancy
  Yb  Yb0  1  0.000000  0.129538  0.649395  1
  Yb  Yb1  1  0.000000  0.870605  0.350523  1
  Yb  Yb2  1  0.000000  0.628947  0.848660  1
  Yb  Yb3  1  0.000000  0.371942  0.150906  1
  Tc  Tc4  1  0.000000  0.132659  0.915327  1
  B  B5  1  0.500000  0.475113  0.691620  1
  B  B6  1  0.500000  0.525400  0.308160  1
  B  B7  1  0.500000  0.976633  0.807507  1
  B  B8  1  0.500000  0.022898  0.192466  1
  B  B9  1  0.500000  0.286174  0.814934  1
  B  B10  1  0.500000  0.714121  0.184841  1
  B  B11  1  0.500000  0.785296  0.684803  1
  B  B12  1  0.500000  0.214016  0.314944  1
  B  B13  1  0.500000  0.365043  0.968522  1
  B  B14  1  0.500000  0.635616  0.032026  1
  B  B15  1  0.500000  0.863791  0.530355  1
  B  B16  1  0.500000  0.136090  0.469590  1
  B  B17  1  0.500000  0.386444  0.547331  1
  B  B18  1  0.500000  0.613309  0.452469  1
  B  B19  1  0.500000  0.884959  0.952985  1
  B  B20  1  0.500000  0.113109  0.048261  1
  Os  Os21  1  0.000000  0.868690  0.085321  1
  Os  Os22  1  0.000000  0.636914  0.587746  1
  Os  Os23  1  0.000000  0.362692  0.411308  1
