# generated using pymatgen
data_Pr12BAs2PBr12
_symmetry_space_group_name_H-M   'P 1'
_cell_length_a   10.50259601
_cell_length_b   10.36818467
_cell_length_c   10.36818454
_cell_angle_alpha   109.07436407
_cell_angle_beta   109.70863479
_cell_angle_gamma   109.70863954
_symmetry_Int_Tables_number   1
_chemical_formula_structural   Pr12BAs2PBr12
_chemical_formula_sum   'Pr12 B1 As2 P1 Br12'
_cell_volume   868.25699764
_cell_formula_units_Z   1
loop_
 _symmetry_equiv_pos_site_id
 _symmetry_equiv_pos_as_xyz
  1  'x, y, z'
loop_
 _atom_site_type_symbol
 _atom_site_label
 _atom_site_symmetry_multiplicity
 _atom_site_fract_x
 _atom_site_fract_y
 _atom_site_fract_z
 _atom_site_occupancy
  Pr  Pr0  1  0.464858  0.488044  0.226990  1
  Pr  Pr1  1  0.750000  0.239423  0.260577  1
  Pr  Pr2  1  0.750000  0.009810  0.490190  1
  Pr  Pr3  1  0.240410  0.474860  0.483196  1
  Pr  Pr4  1  0.257390  0.731434  0.225793  1
  Pr  Pr5  1  0.035142  0.273010  0.011956  1
  Pr  Pr6  1  0.017746  0.026828  0.259971  1
  Pr  Pr7  1  0.473852  0.730320  0.006026  1
  Pr  Pr8  1  0.482254  0.240029  0.473172  1
  Pr  Pr9  1  0.026148  0.493974  0.769680  1
  Pr  Pr10  1  0.259590  0.016804  0.025140  1
  Pr  Pr11  1  0.242610  0.274207  0.768566  1
  B  B12  1  0.250000  0.500194  0.999806  1
  As  As13  1  0.498714  0.998480  0.249234  1
  As  As14  1  0.001286  0.250766  0.501520  1
  P  P15  1  0.250000  0.251572  0.248428  1
  Br  Br16  1  0.250000  0.755263  0.744737  1
  Br  Br17  1  0.510853  0.504920  0.755949  1
  Br  Br18  1  0.989147  0.744051  0.995080  1
  Br  Br19  1  0.746096  0.251224  0.756031  1
  Br  Br20  1  0.994541  0.988596  0.744643  1
  Br  Br21  1  0.250000  0.996467  0.503533  1
  Br  Br22  1  0.753334  0.507283  0.503282  1
  Br  Br23  1  0.505632  0.251414  0.995015  1
  Br  Br24  1  0.753904  0.743969  0.248776  1
  Br  Br25  1  0.746666  0.996718  0.992717  1
  Br  Br26  1  0.994368  0.504985  0.248586  1
  Br  Br27  1  0.505459  0.755357  0.511404  1
