# generated using pymatgen
data_Sc2AlRe3
_symmetry_space_group_name_H-M   'P 1'
_cell_length_a   5.24885400
_cell_length_b   5.24893549
_cell_length_c   8.70373100
_cell_angle_alpha   90.00000000
_cell_angle_beta   90.00000000
_cell_angle_gamma   119.99948644
_symmetry_Int_Tables_number   1
_chemical_formula_structural   Sc2AlRe3
_chemical_formula_sum   'Sc4 Al2 Re6'
_cell_volume   207.67014552
_cell_formula_units_Z   2
loop_
 _symmetry_equiv_pos_site_id
 _symmetry_equiv_pos_as_xyz
  1  'x, y, z'
loop_
 _atom_site_type_symbol
 _atom_site_label
 _atom_site_symmetry_multiplicity
 _atom_site_fract_x
 _atom_site_fract_y
 _atom_site_fract_z
 _atom_site_occupancy
  Sc  Sc0  1  0.333332  0.666663  0.066200  1
  Sc  Sc1  1  0.333332  0.666663  0.433800  1
  Sc  Sc2  1  0.666668  0.333336  0.566200  1
  Sc  Sc3  1  0.666668  0.333336  0.933800  1
  Al  Al4  1  0.000000  0.000000  0.000000  1
  Al  Al5  1  0.000000  0.000000  0.500000  1
  Re  Re6  1  0.340316  0.170159  0.250000  1
  Re  Re7  1  0.829842  0.170159  0.250000  1
  Re  Re8  1  0.829829  0.659658  0.250000  1
  Re  Re9  1  0.170172  0.340343  0.750000  1
  Re  Re10  1  0.170159  0.829841  0.750000  1
  Re  Re11  1  0.659683  0.829841  0.750000  1
