# generated using pymatgen
data_Sc6Al13Os7W3
_symmetry_space_group_name_H-M   'P 1'
_cell_length_a   8.81692557
_cell_length_b   8.81692589
_cell_length_c   8.81692601
_cell_angle_alpha   59.75991933
_cell_angle_beta   59.75991727
_cell_angle_gamma   59.75991458
_symmetry_Int_Tables_number   1
_chemical_formula_structural   Sc6Al13Os7W3
_chemical_formula_sum   'Sc6 Al13 Os7 W3'
_cell_volume   482.01722151
_cell_formula_units_Z   1
loop_
 _symmetry_equiv_pos_site_id
 _symmetry_equiv_pos_as_xyz
  1  'x, y, z'
loop_
 _atom_site_type_symbol
 _atom_site_label
 _atom_site_symmetry_multiplicity
 _atom_site_fract_x
 _atom_site_fract_y
 _atom_site_fract_z
 _atom_site_occupancy
  Sc  Sc0  1  0.711359  0.711359  0.282296  1
  Sc  Sc1  1  0.290700  0.709697  0.290700  1
  Sc  Sc2  1  0.709697  0.290700  0.290700  1
  Sc  Sc3  1  0.290700  0.290700  0.709697  1
  Sc  Sc4  1  0.711359  0.282296  0.711359  1
  Sc  Sc5  1  0.282296  0.711359  0.711359  1
  Al  Al6  1  0.880237  0.880237  0.880237  1
  Al  Al7  1  0.120778  0.120778  0.637940  1
  Al  Al8  1  0.120778  0.637940  0.120778  1
  Al  Al9  1  0.637940  0.120778  0.120778  1
  Al  Al10  1  0.122285  0.122285  0.122285  1
  Al  Al11  1  0.665164  0.665164  0.010809  1
  Al  Al12  1  0.665164  0.010809  0.665164  1
  Al  Al13  1  0.010809  0.665164  0.665164  1
  Al  Al14  1  0.656392  0.656392  0.656392  1
  Al  Al15  1  0.335306  0.335306  0.996891  1
  Al  Al16  1  0.335306  0.996891  0.335306  1
  Al  Al17  1  0.996891  0.335306  0.335306  1
  Al  Al18  1  0.335750  0.335750  0.335750  1
  Os  Os19  1  0.004297  0.004297  0.004297  1
  Os  Os20  1  0.997973  0.997973  0.496886  1
  Os  Os21  1  0.504782  0.995866  0.504782  1
  Os  Os22  1  0.995866  0.504782  0.504782  1
  Os  Os23  1  0.504782  0.504782  0.995866  1
  Os  Os24  1  0.997973  0.496886  0.997973  1
  Os  Os25  1  0.496886  0.997973  0.997973  1
  W  W26  1  0.877195  0.877195  0.364142  1
  W  W27  1  0.877195  0.364142  0.877195  1
  W  W28  1  0.364142  0.877195  0.877195  1
