# generated using pymatgen
data_Li12La3Nd5Bi4(WO6)8
_symmetry_space_group_name_H-M   'P 1'
_cell_length_a   11.00827862
_cell_length_b   10.99911424
_cell_length_c   10.99880100
_cell_angle_alpha   109.47971067
_cell_angle_beta   109.44821715
_cell_angle_gamma   109.44839585
_symmetry_Int_Tables_number   1
_chemical_formula_structural   Li12La3Nd5Bi4(WO6)8
_chemical_formula_sum   'Li12 La3 Nd5 Bi4 W8 O48'
_cell_volume   1025.65313069
_cell_formula_units_Z   1
loop_
 _symmetry_equiv_pos_site_id
 _symmetry_equiv_pos_as_xyz
  1  'x, y, z'
loop_
 _atom_site_type_symbol
 _atom_site_label
 _atom_site_symmetry_multiplicity
 _atom_site_fract_x
 _atom_site_fract_y
 _atom_site_fract_z
 _atom_site_occupancy
  Li  Li0  1  0.748316  0.375977  0.124087  1
  Li  Li1  1  0.875176  0.748105  0.121584  1
  Li  Li2  1  0.125997  0.374288  0.249759  1
  Li  Li3  1  0.626125  0.876721  0.251921  1
  Li  Li4  1  0.626187  0.250848  0.375594  1
  Li  Li5  1  0.248820  0.124385  0.374870  1
  Li  Li6  1  0.374604  0.752976  0.626058  1
  Li  Li7  1  0.749667  0.873610  0.622844  1
  Li  Li8  1  0.375283  0.125346  0.749692  1
  Li  Li9  1  0.873862  0.624136  0.749939  1
  Li  Li10  1  0.125636  0.250913  0.874961  1
  Li  Li11  1  0.249542  0.624827  0.874627  1
  La  La12  1  0.124972  0.875634  0.750539  1
  La  La13  1  0.624360  0.748765  0.875931  1
  La  La14  1  0.750915  0.126831  0.874436  1
  Nd  Nd15  1  0.250682  0.876009  0.125376  1
  Nd  Nd16  1  0.374300  0.249422  0.124452  1
  Nd  Nd17  1  0.876761  0.126455  0.252874  1
  Nd  Nd18  1  0.374821  0.623287  0.247232  1
  Nd  Nd19  1  0.125861  0.752417  0.375062  1
  Bi  Bi20  1  0.741645  0.607995  0.379786  1
  Bi  Bi21  1  0.883126  0.265044  0.631090  1
  Bi  Bi22  1  0.244502  0.358420  0.635720  1
  Bi  Bi23  1  0.619208  0.366761  0.735683  1
  W  W24  1  0.000930  0.000662  0.002042  1
  W  W25  1  0.501559  0.002388  0.002917  1
  W  W26  1  0.502761  0.503398  0.004590  1
  W  W27  1  0.001356  0.501935  0.002697  1
  W  W28  1  0.499231  0.997077  0.497567  1
  W  W29  1  0.001179  0.498325  0.495888  1
  W  W30  1  0.994589  0.992606  0.493830  1
  W  W31  1  0.495614  0.500693  0.500601  1
  O  O32  1  0.329322  0.407776  0.025482  1
  O  O33  1  0.195068  0.617248  0.024102  1
  O  O34  1  0.885348  0.908875  0.081065  1
  O  O35  1  0.695286  0.172982  0.081411  1
  O  O36  1  0.617204  0.924204  0.095331  1
  O  O37  1  0.978093  0.171306  0.094647  1
  O  O38  1  0.024631  0.696085  0.116256  1
  O  O39  1  0.591118  0.419646  0.118124  1
  O  O40  1  0.195708  0.079112  0.172030  1
  O  O41  1  0.476110  0.093328  0.172743  1
  O  O42  1  0.116662  0.523676  0.195157  1
  O  O43  1  0.576932  0.672714  0.193118  1
  O  O44  1  0.328929  0.419518  0.303920  1
  O  O45  1  0.475951  0.883897  0.303810  1
  O  O46  1  0.926290  0.811553  0.324703  1
  O  O47  1  0.906727  0.520894  0.326859  1
  O  O48  1  0.582623  0.410413  0.382066  1
  O  O49  1  0.304086  0.974758  0.382307  1
  O  O50  1  0.829510  0.021228  0.405754  1
  O  O51  1  0.075780  0.385279  0.402854  1
  O  O52  1  0.094495  0.120060  0.423534  1
  O  O53  1  0.828628  0.304261  0.420876  1
  O  O54  1  0.592769  0.670352  0.473939  1
  O  O55  1  0.382472  0.804845  0.475837  1
  O  O56  1  0.613950  0.196608  0.523728  1
  O  O57  1  0.410541  0.326592  0.520286  1
  O  O58  1  0.170550  0.692384  0.577613  1
  O  O59  1  0.909314  0.889590  0.580804  1
  O  O60  1  0.170855  0.976092  0.590015  1
  O  O61  1  0.917514  0.612049  0.589502  1
  O  O62  1  0.424392  0.599206  0.610255  1
  O  O63  1  0.688515  0.016644  0.610878  1
  O  O64  1  0.083893  0.200036  0.673043  1
  O  O65  1  0.089413  0.474063  0.671715  1
  O  O66  1  0.670364  0.576960  0.691259  1
  O  O67  1  0.520771  0.115188  0.691821  1
  O  O68  1  0.884597  0.475570  0.803038  1
  O  O69  1  0.417101  0.326952  0.803561  1
  O  O70  1  0.521434  0.908664  0.829857  1
  O  O71  1  0.808332  0.920995  0.829156  1
  O  O72  1  0.980339  0.308830  0.886239  1
  O  O73  1  0.406682  0.578734  0.888438  1
  O  O74  1  0.386333  0.081618  0.910013  1
  O  O75  1  0.023265  0.828232  0.909882  1
  O  O76  1  0.115576  0.093802  0.923103  1
  O  O77  1  0.307910  0.829951  0.923545  1
  O  O78  1  0.809620  0.388590  0.980948  1
  O  O79  1  0.671411  0.592387  0.981126  1
