# generated using pymatgen
data_HoEr3(Co2I)2
_symmetry_space_group_name_H-M   'P 1'
_cell_length_a   3.93362400
_cell_length_b   3.93362410
_cell_length_c   16.85961900
_cell_angle_alpha   90.00000000
_cell_angle_beta   90.00000000
_cell_angle_gamma   119.99998238
_symmetry_Int_Tables_number   1
_chemical_formula_structural   HoEr3(Co2I)2
_chemical_formula_sum   'Ho1 Er3 Co4 I2'
_cell_volume   225.92493468
_cell_formula_units_Z   1
loop_
 _symmetry_equiv_pos_site_id
 _symmetry_equiv_pos_as_xyz
  1  'x, y, z'
loop_
 _atom_site_type_symbol
 _atom_site_label
 _atom_site_symmetry_multiplicity
 _atom_site_fract_x
 _atom_site_fract_y
 _atom_site_fract_z
 _atom_site_occupancy
  Ho  Ho0  1  0.000000  0.000000  0.396868  1
  Er  Er1  1  0.000000  0.000000  0.102415  1
  Er  Er2  1  0.000000  0.000000  0.897503  1
  Er  Er3  1  0.000000  0.000000  0.602906  1
  Co  Co4  1  0.333333  0.666667  0.501927  1
  Co  Co5  1  0.666667  0.333333  0.498800  1
  Co  Co6  1  0.666667  0.333333  0.001613  1
  Co  Co7  1  0.333333  0.666667  0.998325  1
  I  I8  1  0.333333  0.666667  0.249593  1
  I  I9  1  0.666667  0.333333  0.750052  1
