# generated using pymatgen
data_TiCoBiO5
_symmetry_space_group_name_H-M   'P 1'
_cell_length_a   5.83717900
_cell_length_b   7.59108300
_cell_length_c   8.53886200
_cell_angle_alpha   90.00000000
_cell_angle_beta   90.00000000
_cell_angle_gamma   90.00000000
_symmetry_Int_Tables_number   1
_chemical_formula_structural   TiCoBiO5
_chemical_formula_sum   'Ti4 Co4 Bi4 O20'
_cell_volume   378.36133239
_cell_formula_units_Z   4
loop_
 _symmetry_equiv_pos_site_id
 _symmetry_equiv_pos_as_xyz
  1  'x, y, z'
loop_
 _atom_site_type_symbol
 _atom_site_label
 _atom_site_symmetry_multiplicity
 _atom_site_fract_x
 _atom_site_fract_y
 _atom_site_fract_z
 _atom_site_occupancy
  Ti  Ti0  1  0.500000  0.874605  0.144657  1
  Ti  Ti1  1  0.500000  0.125395  0.855343  1
  Ti  Ti2  1  0.500000  0.374605  0.355343  1
  Ti  Ti3  1  0.500000  0.625395  0.644657  1
  Co  Co4  1  0.250189  0.500000  0.000000  1
  Co  Co5  1  0.749811  0.000000  0.500000  1
  Co  Co6  1  0.749811  0.500000  0.000000  1
  Co  Co7  1  0.250189  0.000000  0.500000  1
  Bi  Bi8  1  0.000000  0.656181  0.333420  1
  Bi  Bi9  1  0.000000  0.343819  0.666580  1
  Bi  Bi10  1  0.000000  0.156181  0.166580  1
  Bi  Bi11  1  0.000000  0.843819  0.833420  1
  O  O12  1  0.000000  0.651742  0.056886  1
  O  O13  1  0.000000  0.348258  0.943114  1
  O  O14  1  0.000000  0.151742  0.443114  1
  O  O15  1  0.000000  0.848258  0.556886  1
  O  O16  1  0.289763  0.500000  0.500000  1
  O  O17  1  0.710237  0.000000  0.000000  1
  O  O18  1  0.710237  0.500000  0.500000  1
  O  O19  1  0.289763  0.000000  0.000000  1
  O  O20  1  0.500000  0.649904  0.073919  1
  O  O21  1  0.500000  0.350096  0.926081  1
  O  O22  1  0.500000  0.149904  0.426081  1
  O  O23  1  0.500000  0.850096  0.573919  1
  O  O24  1  0.256416  0.886455  0.296829  1
  O  O25  1  0.256416  0.113545  0.703171  1
  O  O26  1  0.743584  0.386455  0.203171  1
  O  O27  1  0.743584  0.613545  0.796829  1
  O  O28  1  0.743584  0.113545  0.703171  1
  O  O29  1  0.743584  0.886455  0.296829  1
  O  O30  1  0.256416  0.613545  0.796829  1
  O  O31  1  0.256416  0.386455  0.203171  1
