# generated using pymatgen
data_Y3Lu(CuPt)2
_symmetry_space_group_name_H-M   'P 1'
_cell_length_a   4.42627700
_cell_length_b   5.53575685
_cell_length_c   7.13690702
_cell_angle_alpha   89.47915599
_cell_angle_beta   90.00000000
_cell_angle_gamma   90.00000000
_symmetry_Int_Tables_number   1
_chemical_formula_structural   Y3Lu(CuPt)2
_chemical_formula_sum   'Y3 Lu1 Cu2 Pt2'
_cell_volume   174.86693157
_cell_formula_units_Z   1
loop_
 _symmetry_equiv_pos_site_id
 _symmetry_equiv_pos_as_xyz
  1  'x, y, z'
loop_
 _atom_site_type_symbol
 _atom_site_label
 _atom_site_symmetry_multiplicity
 _atom_site_fract_x
 _atom_site_fract_y
 _atom_site_fract_z
 _atom_site_occupancy
  Y  Y0  1  0.000000  0.115546  0.683839  1
  Y  Y1  1  0.000000  0.882883  0.181997  1
  Y  Y2  1  0.500000  0.393277  0.316168  1
  Lu  Lu3  1  0.500000  0.606001  0.816807  1
  Cu  Cu4  1  0.500000  0.888271  0.467333  1
  Cu  Cu5  1  0.500000  0.110122  0.961533  1
  Pt  Pt6  1  0.000000  0.615662  0.542324  1
  Pt  Pt7  1  0.000000  0.388238  0.030000  1
