# generated using pymatgen
data_DyEr7Cd2(SnAu4)2
_symmetry_space_group_name_H-M   'P 1'
_cell_length_a   7.98938503
_cell_length_b   7.98938523
_cell_length_c   7.30691100
_cell_angle_alpha   90.00469015
_cell_angle_beta   90.00469015
_cell_angle_gamma   90.14101990
_symmetry_Int_Tables_number   1
_chemical_formula_structural   DyEr7Cd2(SnAu4)2
_chemical_formula_sum   'Dy1 Er7 Cd2 Sn2 Au8'
_cell_volume   466.40072050
_cell_formula_units_Z   1
loop_
 _symmetry_equiv_pos_site_id
 _symmetry_equiv_pos_as_xyz
  1  'x, y, z'
loop_
 _atom_site_type_symbol
 _atom_site_label
 _atom_site_symmetry_multiplicity
 _atom_site_fract_x
 _atom_site_fract_y
 _atom_site_fract_z
 _atom_site_occupancy
  Dy  Dy0  1  0.339533  0.660467  0.000000  1
  Er  Er1  1  0.180306  0.179197  0.999893  1
  Er  Er2  1  0.321016  0.678984  0.500000  1
  Er  Er3  1  0.680806  0.319194  0.500000  1
  Er  Er4  1  0.820803  0.819694  0.000107  1
  Er  Er5  1  0.659668  0.340332  0.000000  1
  Er  Er6  1  0.838619  0.842047  0.500170  1
  Er  Er7  1  0.157953  0.161381  0.499830  1
  Cd  Cd8  1  0.000198  0.500086  0.748937  1
  Cd  Cd9  1  0.499914  0.999802  0.251063  1
  Sn  Sn10  1  0.999521  0.500077  0.249994  1
  Sn  Sn11  1  0.499923  0.000479  0.750006  1
  Au  Au12  1  0.124420  0.868498  0.766385  1
  Au  Au13  1  0.867385  0.125449  0.228460  1
  Au  Au14  1  0.375563  0.366783  0.270884  1
  Au  Au15  1  0.633217  0.624437  0.729116  1
  Au  Au16  1  0.626487  0.631385  0.270649  1
  Au  Au17  1  0.874551  0.132615  0.771540  1
  Au  Au18  1  0.368615  0.373513  0.729351  1
  Au  Au19  1  0.131502  0.875580  0.233615  1
