# generated using pymatgen
data_Er3Fe8Os
_symmetry_space_group_name_H-M   'P 1'
_cell_length_a   8.73460711
_cell_length_b   8.73460714
_cell_length_c   8.73460630
_cell_angle_alpha   33.81220491
_cell_angle_beta   33.81220268
_cell_angle_gamma   33.81219962
_symmetry_Int_Tables_number   1
_chemical_formula_structural   Er3Fe8Os
_chemical_formula_sum   'Er3 Fe8 Os1'
_cell_volume   183.88369801
_cell_formula_units_Z   1
loop_
 _symmetry_equiv_pos_site_id
 _symmetry_equiv_pos_as_xyz
  1  'x, y, z'
loop_
 _atom_site_type_symbol
 _atom_site_label
 _atom_site_symmetry_multiplicity
 _atom_site_fract_x
 _atom_site_fract_y
 _atom_site_fract_z
 _atom_site_occupancy
  Er  Er0  1  0.141900  0.141900  0.141900  1
  Er  Er1  1  0.000000  0.000000  0.000000  1
  Er  Er2  1  0.858100  0.858100  0.858100  1
  Fe  Fe3  1  0.417884  0.417884  0.922380  1
  Fe  Fe4  1  0.922380  0.417884  0.417884  1
  Fe  Fe5  1  0.582116  0.077620  0.582116  1
  Fe  Fe6  1  0.582116  0.582116  0.077620  1
  Fe  Fe7  1  0.417884  0.922380  0.417884  1
  Fe  Fe8  1  0.077620  0.582116  0.582116  1
  Fe  Fe9  1  0.332716  0.332716  0.332716  1
  Fe  Fe10  1  0.667284  0.667284  0.667284  1
  Os  Os11  1  0.500000  0.500000  0.500000  1
