# generated using pymatgen
data_Y7HoTi8(NbSi4)4
_symmetry_space_group_name_H-M   'P 1'
_cell_length_a   7.06501501
_cell_length_b   7.06474607
_cell_length_c   13.00098102
_cell_angle_alpha   90.00710677
_cell_angle_beta   89.99337832
_cell_angle_gamma   90.00399061
_symmetry_Int_Tables_number   1
_chemical_formula_structural   Y7HoTi8(NbSi4)4
_chemical_formula_sum   'Y7 Ho1 Ti8 Nb4 Si16'
_cell_volume   648.91193597
_cell_formula_units_Z   1
loop_
 _symmetry_equiv_pos_site_id
 _symmetry_equiv_pos_as_xyz
  1  'x, y, z'
loop_
 _atom_site_type_symbol
 _atom_site_label
 _atom_site_symmetry_multiplicity
 _atom_site_fract_x
 _atom_site_fract_y
 _atom_site_fract_z
 _atom_site_occupancy
  Y  Y0  1  0.340885  0.001955  0.466674  1
  Y  Y1  1  0.498097  0.840898  0.716768  1
  Y  Y2  1  0.502005  0.159084  0.216556  1
  Y  Y3  1  0.840939  0.498049  0.283228  1
  Y  Y4  1  0.159009  0.502000  0.783399  1
  Y  Y5  1  0.659221  0.997933  0.966841  1
  Y  Y6  1  0.001973  0.340918  0.533269  1
  Ho  Ho7  1  0.998547  0.658772  0.033291  1
  Ti  Ti8  1  0.152084  0.009033  0.875525  1
  Ti  Ti9  1  0.490963  0.652359  0.125311  1
  Ti  Ti10  1  0.509087  0.347603  0.625391  1
  Ti  Ti11  1  0.652466  0.491207  0.874824  1
  Ti  Ti12  1  0.347613  0.509076  0.374556  1
  Ti  Ti13  1  0.847628  0.990835  0.375260  1
  Ti  Ti14  1  0.009069  0.152297  0.124596  1
  Ti  Ti15  1  0.990843  0.847587  0.624704  1
  Nb  Nb16  1  0.326079  0.326462  0.000046  1
  Nb  Nb17  1  0.173689  0.826061  0.249839  1
  Nb  Nb18  1  0.826251  0.173746  0.750085  1
  Nb  Nb19  1  0.673772  0.673759  0.499995  1
  Si  Si20  1  0.202729  0.129879  0.684601  1
  Si  Si21  1  0.369528  0.702581  0.934725  1
  Si  Si22  1  0.629903  0.297283  0.434555  1
  Si  Si23  1  0.703188  0.370621  0.065464  1
  Si  Si24  1  0.297290  0.629913  0.565434  1
  Si  Si25  1  0.797645  0.869560  0.184147  1
  Si  Si26  1  0.129871  0.202742  0.315364  1
  Si  Si27  1  0.870180  0.797082  0.815714  1
  Si  Si28  1  0.291226  0.952410  0.063734  1
  Si  Si29  1  0.547308  0.791631  0.313679  1
  Si  Si30  1  0.452837  0.208453  0.813833  1
  Si  Si31  1  0.791588  0.547227  0.686286  1
  Si  Si32  1  0.207983  0.453134  0.185942  1
  Si  Si33  1  0.708399  0.047223  0.563790  1
  Si  Si34  1  0.952920  0.292229  0.936363  1
  Si  Si35  1  0.047186  0.708395  0.436213  1
