# generated using pymatgen
data_Sc10Pa2Fe3Co
_symmetry_space_group_name_H-M   'P 1'
_cell_length_a   5.85473600
_cell_length_b   8.72038000
_cell_length_c   13.14315200
_cell_angle_alpha   90.00000000
_cell_angle_beta   90.00000000
_cell_angle_gamma   90.00000000
_symmetry_Int_Tables_number   1
_chemical_formula_structural   Sc10Pa2Fe3Co
_chemical_formula_sum   'Sc20 Pa4 Fe6 Co2'
_cell_volume   671.03049554
_cell_formula_units_Z   2
loop_
 _symmetry_equiv_pos_site_id
 _symmetry_equiv_pos_as_xyz
  1  'x, y, z'
loop_
 _atom_site_type_symbol
 _atom_site_label
 _atom_site_symmetry_multiplicity
 _atom_site_fract_x
 _atom_site_fract_y
 _atom_site_fract_z
 _atom_site_occupancy
  Sc  Sc0  1  0.804549  0.750000  0.104060  1
  Sc  Sc1  1  0.304549  0.250000  0.395940  1
  Sc  Sc2  1  0.201167  0.250000  0.895073  1
  Sc  Sc3  1  0.701167  0.750000  0.604927  1
  Sc  Sc4  1  0.401778  0.933099  0.791257  1
  Sc  Sc5  1  0.901778  0.066901  0.708743  1
  Sc  Sc6  1  0.595675  0.433747  0.207937  1
  Sc  Sc7  1  0.095675  0.566253  0.292063  1
  Sc  Sc8  1  0.595675  0.066253  0.207937  1
  Sc  Sc9  1  0.095675  0.933747  0.292063  1
  Sc  Sc10  1  0.401778  0.566901  0.791257  1
  Sc  Sc11  1  0.901778  0.433099  0.708743  1
  Sc  Sc12  1  0.234863  0.932104  0.535688  1
  Sc  Sc13  1  0.734863  0.067896  0.964312  1
  Sc  Sc14  1  0.763532  0.432522  0.464199  1
  Sc  Sc15  1  0.263532  0.567478  0.035801  1
  Sc  Sc16  1  0.763532  0.067478  0.464199  1
  Sc  Sc17  1  0.263532  0.932522  0.035801  1
  Sc  Sc18  1  0.234863  0.567896  0.535688  1
  Sc  Sc19  1  0.734863  0.432104  0.964312  1
  Pa  Pa20  1  0.577466  0.750000  0.349241  1
  Pa  Pa21  1  0.077466  0.250000  0.150759  1
  Pa  Pa22  1  0.412408  0.250000  0.649396  1
  Pa  Pa23  1  0.912408  0.750000  0.850604  1
  Fe  Fe24  1  0.919479  0.750000  0.438138  1
  Fe  Fe25  1  0.419479  0.250000  0.061862  1
  Fe  Fe26  1  0.081130  0.250000  0.562397  1
  Fe  Fe27  1  0.581130  0.750000  0.937603  1
  Fe  Fe28  1  0.410075  0.750000  0.196501  1
  Fe  Fe29  1  0.910075  0.250000  0.303499  1
  Co  Co30  1  0.602028  0.250000  0.807685  1
  Co  Co31  1  0.102028  0.750000  0.692315  1
