# generated using pymatgen
data_Ce3Ho2OsPb3
_symmetry_space_group_name_H-M   'P 1'
_cell_length_a   9.61950977
_cell_length_b   9.48419455
_cell_length_c   6.34476900
_cell_angle_alpha   90.00000000
_cell_angle_beta   90.00000000
_cell_angle_gamma   119.53576138
_symmetry_Int_Tables_number   1
_chemical_formula_structural   Ce3Ho2OsPb3
_chemical_formula_sum   'Ce6 Ho4 Os2 Pb6'
_cell_volume   503.63106594
_cell_formula_units_Z   2
loop_
 _symmetry_equiv_pos_site_id
 _symmetry_equiv_pos_as_xyz
  1  'x, y, z'
loop_
 _atom_site_type_symbol
 _atom_site_label
 _atom_site_symmetry_multiplicity
 _atom_site_fract_x
 _atom_site_fract_y
 _atom_site_fract_z
 _atom_site_occupancy
  Ce  Ce0  1  0.327174  0.663588  0.500000  1
  Ce  Ce1  1  0.672826  0.336412  0.500000  1
  Ce  Ce2  1  0.000000  0.228107  0.250000  1
  Ce  Ce3  1  0.000000  0.771893  0.750000  1
  Ce  Ce4  1  0.327174  0.663588  0.000000  1
  Ce  Ce5  1  0.672826  0.336412  0.000000  1
  Ho  Ho6  1  0.245934  0.243069  0.750000  1
  Ho  Ho7  1  0.754066  0.756931  0.250000  1
  Ho  Ho8  1  0.245934  0.002865  0.250000  1
  Ho  Ho9  1  0.754066  0.997135  0.750000  1
  Os  Os10  1  0.000000  0.000000  0.000000  1
  Os  Os11  1  0.000000  0.000000  0.500000  1
  Pb  Pb12  1  0.400670  0.397263  0.250000  1
  Pb  Pb13  1  0.599330  0.602737  0.750000  1
  Pb  Pb14  1  0.000000  0.392631  0.750000  1
  Pb  Pb15  1  0.599330  0.996593  0.250000  1
  Pb  Pb16  1  0.400670  0.003407  0.750000  1
  Pb  Pb17  1  0.000000  0.607369  0.250000  1
