# generated using pymatgen
data_Yb3PrSi8
_symmetry_space_group_name_H-M   'P 1'
_cell_length_a   4.26973500
_cell_length_b   4.26973500
_cell_length_c   13.46786000
_cell_angle_alpha   90.00000000
_cell_angle_beta   90.00000000
_cell_angle_gamma   90.00000000
_symmetry_Int_Tables_number   1
_chemical_formula_structural   Yb3PrSi8
_chemical_formula_sum   'Yb3 Pr1 Si8'
_cell_volume   245.52766643
_cell_formula_units_Z   1
loop_
 _symmetry_equiv_pos_site_id
 _symmetry_equiv_pos_as_xyz
  1  'x, y, z'
loop_
 _atom_site_type_symbol
 _atom_site_label
 _atom_site_symmetry_multiplicity
 _atom_site_fract_x
 _atom_site_fract_y
 _atom_site_fract_z
 _atom_site_occupancy
  Yb  Yb0  1  0.000000  0.000000  0.500000  1
  Yb  Yb1  1  0.500000  0.000000  0.749113  1
  Yb  Yb2  1  0.000000  0.500000  0.250887  1
  Pr  Pr3  1  0.500000  0.500000  0.000000  1
  Si  Si4  1  0.000000  0.000000  0.914548  1
  Si  Si5  1  0.500000  0.500000  0.415434  1
  Si  Si6  1  0.000000  0.500000  0.835112  1
  Si  Si7  1  0.500000  0.000000  0.335071  1
  Si  Si8  1  0.000000  0.000000  0.085452  1
  Si  Si9  1  0.500000  0.500000  0.584566  1
  Si  Si10  1  0.500000  0.000000  0.164888  1
  Si  Si11  1  0.000000  0.500000  0.664929  1
