# generated using pymatgen
data_Tm2Al9Ni2Ru
_symmetry_space_group_name_H-M   'P 1'
_cell_length_a   7.47562576
_cell_length_b   7.47562476
_cell_length_c   9.29985653
_cell_angle_alpha   89.75662442
_cell_angle_beta   89.75662400
_cell_angle_gamma   119.79909987
_symmetry_Int_Tables_number   1
_chemical_formula_structural   Tm2Al9Ni2Ru
_chemical_formula_sum   'Tm4 Al18 Ni4 Ru2'
_cell_volume   450.98487902
_cell_formula_units_Z   2
loop_
 _symmetry_equiv_pos_site_id
 _symmetry_equiv_pos_as_xyz
  1  'x, y, z'
loop_
 _atom_site_type_symbol
 _atom_site_label
 _atom_site_symmetry_multiplicity
 _atom_site_fract_x
 _atom_site_fract_y
 _atom_site_fract_z
 _atom_site_occupancy
  Tm  Tm0  1  0.994809  0.667562  0.251085  1
  Tm  Tm1  1  0.005191  0.332438  0.748915  1
  Tm  Tm2  1  0.667562  0.994809  0.251085  1
  Tm  Tm3  1  0.332438  0.005191  0.748915  1
  Al  Al4  1  0.120321  0.120321  0.249230  1
  Al  Al5  1  0.879679  0.879679  0.750770  1
  Al  Al6  1  0.997361  0.333008  0.074050  1
  Al  Al7  1  0.002639  0.666992  0.925950  1
  Al  Al8  1  0.999561  0.665909  0.573753  1
  Al  Al9  1  0.334091  0.000439  0.426247  1
  Al  Al10  1  0.000439  0.334091  0.426247  1
  Al  Al11  1  0.665909  0.999561  0.573753  1
  Al  Al12  1  0.666992  0.002639  0.925950  1
  Al  Al13  1  0.333008  0.997361  0.074050  1
  Al  Al14  1  0.332068  0.332068  0.547888  1
  Al  Al15  1  0.667932  0.667932  0.452112  1
  Al  Al16  1  0.668304  0.668304  0.051183  1
  Al  Al17  1  0.331696  0.331696  0.948817  1
  Al  Al18  1  0.338482  0.549919  0.248010  1
  Al  Al19  1  0.661518  0.450081  0.751990  1
  Al  Al20  1  0.549919  0.338482  0.248010  1
  Al  Al21  1  0.450081  0.661518  0.751990  1
  Ni  Ni22  1  0.672106  0.327894  0.000000  1
  Ni  Ni23  1  0.327894  0.672106  0.000000  1
  Ni  Ni24  1  0.000000  0.000000  0.000000  1
  Ni  Ni25  1  0.000000  0.000000  0.500000  1
  Ru  Ru26  1  0.327839  0.672161  0.500000  1
  Ru  Ru27  1  0.672161  0.327839  0.500000  1
