# generated using pymatgen
data_Pr2BeSi4Ni
_symmetry_space_group_name_H-M   'P 1'
_cell_length_a   8.57623036
_cell_length_b   8.57623045
_cell_length_c   4.05385600
_cell_angle_alpha   90.00000000
_cell_angle_beta   90.00000000
_cell_angle_gamma   151.93785612
_symmetry_Int_Tables_number   1
_chemical_formula_structural   Pr2BeSi4Ni
_chemical_formula_sum   'Pr2 Be1 Si4 Ni1'
_cell_volume   140.26691116
_cell_formula_units_Z   1
loop_
 _symmetry_equiv_pos_site_id
 _symmetry_equiv_pos_as_xyz
  1  'x, y, z'
loop_
 _atom_site_type_symbol
 _atom_site_label
 _atom_site_symmetry_multiplicity
 _atom_site_fract_x
 _atom_site_fract_y
 _atom_site_fract_z
 _atom_site_occupancy
  Pr  Pr0  1  0.108514  0.891486  0.250000  1
  Pr  Pr1  1  0.897255  0.102745  0.750000  1
  Be  Be2  1  0.675870  0.324130  0.750000  1
  Si  Si3  1  0.751923  0.248077  0.250000  1
  Si  Si4  1  0.250527  0.749473  0.750000  1
  Si  Si5  1  0.537838  0.462162  0.750000  1
  Si  Si6  1  0.459285  0.540715  0.250000  1
  Ni  Ni7  1  0.318788  0.681212  0.250000  1
