# generated using pymatgen
data_Nd3Cd3CuIrPd
_symmetry_space_group_name_H-M   'P 1'
_cell_length_a   7.80361900
_cell_length_b   7.80361799
_cell_length_c   3.91456500
_cell_angle_alpha   90.00000000
_cell_angle_beta   90.00000000
_cell_angle_gamma   119.99999155
_symmetry_Int_Tables_number   1
_chemical_formula_structural   Nd3Cd3CuIrPd
_chemical_formula_sum   'Nd3 Cd3 Cu1 Ir1 Pd1'
_cell_volume   206.44588772
_cell_formula_units_Z   1
loop_
 _symmetry_equiv_pos_site_id
 _symmetry_equiv_pos_as_xyz
  1  'x, y, z'
loop_
 _atom_site_type_symbol
 _atom_site_label
 _atom_site_symmetry_multiplicity
 _atom_site_fract_x
 _atom_site_fract_y
 _atom_site_fract_z
 _atom_site_occupancy
  Nd  Nd0  1  0.580363  0.985814  0.000000  1
  Nd  Nd1  1  0.014186  0.594548  0.000000  1
  Nd  Nd2  1  0.405452  0.419637  0.000000  1
  Cd  Cd3  1  0.249555  0.003361  0.500000  1
  Cd  Cd4  1  0.996639  0.246194  0.500000  1
  Cd  Cd5  1  0.753806  0.750445  0.500000  1
  Cu  Cu6  1  0.000000  0.000000  0.000000  1
  Ir  Ir7  1  0.333333  0.666667  0.500000  1
  Pd  Pd8  1  0.666667  0.333333  0.500000  1
