# generated using pymatgen
data_Dy3AlSiRh2
_symmetry_space_group_name_H-M   'P 1'
_cell_length_a   5.53553300
_cell_length_b   7.92598800
_cell_length_c   13.27722600
_cell_angle_alpha   90.00000000
_cell_angle_beta   90.00000000
_cell_angle_gamma   90.00000000
_symmetry_Int_Tables_number   1
_chemical_formula_structural   Dy3AlSiRh2
_chemical_formula_sum   'Dy12 Al4 Si4 Rh8'
_cell_volume   582.53255674
_cell_formula_units_Z   4
loop_
 _symmetry_equiv_pos_site_id
 _symmetry_equiv_pos_as_xyz
  1  'x, y, z'
loop_
 _atom_site_type_symbol
 _atom_site_label
 _atom_site_symmetry_multiplicity
 _atom_site_fract_x
 _atom_site_fract_y
 _atom_site_fract_z
 _atom_site_occupancy
  Dy  Dy0  1  0.633220  0.255954  0.250000  1
  Dy  Dy1  1  0.366780  0.744046  0.750000  1
  Dy  Dy2  1  0.366780  0.755954  0.250000  1
  Dy  Dy3  1  0.633220  0.244046  0.750000  1
  Dy  Dy4  1  0.144312  0.397248  0.103635  1
  Dy  Dy5  1  0.855688  0.602752  0.896365  1
  Dy  Dy6  1  0.855688  0.602752  0.603635  1
  Dy  Dy7  1  0.855688  0.897248  0.396365  1
  Dy  Dy8  1  0.144312  0.397248  0.396365  1
  Dy  Dy9  1  0.144312  0.102752  0.603635  1
  Dy  Dy10  1  0.144312  0.102752  0.896365  1
  Dy  Dy11  1  0.855688  0.897248  0.103635  1
  Al  Al12  1  0.625617  0.250000  0.000000  1
  Al  Al13  1  0.374383  0.750000  0.000000  1
  Al  Al14  1  0.374383  0.750000  0.500000  1
  Al  Al15  1  0.625617  0.250000  0.500000  1
  Si  Si16  1  0.135736  0.110484  0.250000  1
  Si  Si17  1  0.864264  0.889516  0.750000  1
  Si  Si18  1  0.864264  0.610484  0.250000  1
  Si  Si19  1  0.135736  0.389516  0.750000  1
  Rh  Rh20  1  0.356782  0.028875  0.094298  1
  Rh  Rh21  1  0.643218  0.971125  0.905702  1
  Rh  Rh22  1  0.643218  0.971125  0.594298  1
  Rh  Rh23  1  0.643218  0.528875  0.405702  1
  Rh  Rh24  1  0.356782  0.028875  0.405702  1
  Rh  Rh25  1  0.356782  0.471125  0.594298  1
  Rh  Rh26  1  0.356782  0.471125  0.905702  1
  Rh  Rh27  1  0.643218  0.528875  0.094298  1
