# generated using pymatgen
data_CsCu(Sb4Ru)3
_symmetry_space_group_name_H-M   'P 1'
_cell_length_a   8.20329709
_cell_length_b   8.20508474
_cell_length_c   8.20508509
_cell_angle_alpha   109.47563831
_cell_angle_beta   109.46680048
_cell_angle_gamma   109.46680675
_symmetry_Int_Tables_number   1
_chemical_formula_structural   CsCu(Sb4Ru)3
_chemical_formula_sum   'Cs1 Cu1 Sb12 Ru3'
_cell_volume   425.16389313
_cell_formula_units_Z   1
loop_
 _symmetry_equiv_pos_site_id
 _symmetry_equiv_pos_as_xyz
  1  'x, y, z'
loop_
 _atom_site_type_symbol
 _atom_site_label
 _atom_site_symmetry_multiplicity
 _atom_site_fract_x
 _atom_site_fract_y
 _atom_site_fract_z
 _atom_site_occupancy
  Cs  Cs0  1  0.000000  0.000000  0.000000  1
  Cu  Cu1  1  0.500000  0.000000  0.000000  1
  Sb  Sb2  1  0.152273  0.810454  0.648992  1
  Sb  Sb3  1  0.160696  0.501718  0.342257  1
  Sb  Sb4  1  0.496718  0.648992  0.838537  1
  Sb  Sb5  1  0.341820  0.838537  0.189546  1
  Sb  Sb6  1  0.818440  0.657743  0.159460  1
  Sb  Sb7  1  0.658979  0.840540  0.498282  1
  Sb  Sb8  1  0.181560  0.342257  0.840540  1
  Sb  Sb9  1  0.658180  0.161463  0.810454  1
  Sb  Sb10  1  0.341021  0.159460  0.501718  1
  Sb  Sb11  1  0.503282  0.351008  0.161463  1
  Sb  Sb12  1  0.839304  0.498282  0.657743  1
  Sb  Sb13  1  0.847727  0.189546  0.351008  1
  Ru  Ru14  1  0.500000  0.500000  0.500000  1
  Ru  Ru15  1  0.000000  0.000000  0.500000  1
  Ru  Ru16  1  0.000000  0.500000  0.000000  1
