# generated using pymatgen
data_CeDy3Se4
_symmetry_space_group_name_H-M   'P 1'
_cell_length_a   7.12152857
_cell_length_b   7.12152825
_cell_length_c   7.09399724
_cell_angle_alpha   80.56182638
_cell_angle_beta   80.56182479
_cell_angle_gamma   33.60497274
_symmetry_Int_Tables_number   1
_chemical_formula_structural   CeDy3Se4
_chemical_formula_sum   'Ce1 Dy3 Se4'
_cell_volume   196.18224634
_cell_formula_units_Z   1
loop_
 _symmetry_equiv_pos_site_id
 _symmetry_equiv_pos_as_xyz
  1  'x, y, z'
loop_
 _atom_site_type_symbol
 _atom_site_label
 _atom_site_symmetry_multiplicity
 _atom_site_fract_x
 _atom_site_fract_y
 _atom_site_fract_z
 _atom_site_occupancy
  Ce  Ce0  1  0.000000  0.000000  0.000000  1
  Dy  Dy1  1  0.749007  0.749007  0.751528  1
  Dy  Dy2  1  0.500000  0.500000  0.500000  1
  Dy  Dy3  1  0.250993  0.250993  0.248472  1
  Se  Se4  1  0.370866  0.370866  0.869476  1
  Se  Se5  1  0.126542  0.126542  0.617992  1
  Se  Se6  1  0.873458  0.873458  0.382008  1
  Se  Se7  1  0.629134  0.629134  0.130524  1
