# generated using pymatgen
data_Zn10CuNi2
_symmetry_space_group_name_H-M   'P 1'
_cell_length_a   7.70798137
_cell_length_b   7.70798104
_cell_length_c   7.70897001
_cell_angle_alpha   70.58939619
_cell_angle_beta   70.58939890
_cell_angle_gamma   109.52267904
_symmetry_Int_Tables_number   1
_chemical_formula_structural   Zn10CuNi2
_chemical_formula_sum   'Zn20 Cu2 Ni4'
_cell_volume   352.88140588
_cell_formula_units_Z   2
loop_
 _symmetry_equiv_pos_site_id
 _symmetry_equiv_pos_as_xyz
  1  'x, y, z'
loop_
 _atom_site_type_symbol
 _atom_site_label
 _atom_site_symmetry_multiplicity
 _atom_site_fract_x
 _atom_site_fract_y
 _atom_site_fract_z
 _atom_site_occupancy
  Zn  Zn0  1  0.003889  0.003889  0.793777  1
  Zn  Zn1  1  0.781994  0.781994  0.218588  1
  Zn  Zn2  1  0.212917  0.999522  0.996667  1
  Zn  Zn3  1  0.999522  0.212917  0.996667  1
  Zn  Zn4  1  0.258261  0.258261  0.396594  1
  Zn  Zn5  1  0.008161  0.744303  0.647713  1
  Zn  Zn6  1  0.744303  0.008161  0.647713  1
  Zn  Zn7  1  0.650647  0.650647  0.621417  1
  Zn  Zn8  1  0.374323  0.644508  0.350246  1
  Zn  Zn9  1  0.644508  0.374323  0.350246  1
  Zn  Zn10  1  0.354396  0.742026  0.985620  1
  Zn  Zn11  1  0.616598  0.261218  0.729562  1
  Zn  Zn12  1  0.353128  0.004676  0.266126  1
  Zn  Zn13  1  0.742026  0.354396  0.985620  1
  Zn  Zn14  1  0.004676  0.353128  0.266126  1
  Zn  Zn15  1  0.261218  0.616598  0.729562  1
  Zn  Zn16  1  0.644765  0.644765  0.999516  1
  Zn  Zn17  1  0.999803  0.642964  0.359662  1
  Zn  Zn18  1  0.642964  0.999803  0.359662  1
  Zn  Zn19  1  0.353106  0.353106  0.004111  1
  Cu  Cu20  1  0.997823  0.354703  0.643511  1
  Cu  Cu21  1  0.354703  0.997823  0.643511  1
  Ni  Ni22  1  0.999683  0.999683  0.342315  1
  Ni  Ni23  1  0.351193  0.351193  0.654010  1
  Ni  Ni24  1  0.650497  0.994895  0.005727  1
  Ni  Ni25  1  0.994895  0.650497  0.005727  1
