# generated using pymatgen
data_InGa4AgSe8
_symmetry_space_group_name_H-M   'P 1'
_cell_length_a   6.88371706
_cell_length_b   6.88371760
_cell_length_c   8.27919801
_cell_angle_alpha   89.77204852
_cell_angle_beta   89.77205158
_cell_angle_gamma   106.01473440
_symmetry_Int_Tables_number   1
_chemical_formula_structural   InGa4AgSe8
_chemical_formula_sum   'In1 Ga4 Ag1 Se8'
_cell_volume   377.08080865
_cell_formula_units_Z   1
loop_
 _symmetry_equiv_pos_site_id
 _symmetry_equiv_pos_as_xyz
  1  'x, y, z'
loop_
 _atom_site_type_symbol
 _atom_site_label
 _atom_site_symmetry_multiplicity
 _atom_site_fract_x
 _atom_site_fract_y
 _atom_site_fract_z
 _atom_site_occupancy
  In  In0  1  0.502934  0.497066  0.500000  1
  Ga  Ga1  1  0.986492  0.013508  0.500000  1
  Ga  Ga2  1  0.512983  0.487017  0.000000  1
  Ga  Ga3  1  0.989293  0.487985  0.754623  1
  Ga  Ga4  1  0.512015  0.010707  0.245377  1
  Ag  Ag5  1  0.998970  0.001030  0.000000  1
  Se  Se6  1  0.398338  0.122562  0.994617  1
  Se  Se7  1  0.903057  0.633907  0.495057  1
  Se  Se8  1  0.877438  0.601662  0.005383  1
  Se  Se9  1  0.366093  0.096943  0.504943  1
  Se  Se10  1  0.872693  0.150906  0.261980  1
  Se  Se11  1  0.366146  0.635543  0.764884  1
  Se  Se12  1  0.849094  0.127307  0.738020  1
  Se  Se13  1  0.364457  0.633854  0.235116  1
