# generated using pymatgen
data_Rb12Na8Ta3TiP12
_symmetry_space_group_name_H-M   'P 1'
_cell_length_a   10.49357518
_cell_length_b   10.49357517
_cell_length_c   15.64872661
_cell_angle_alpha   90.01088900
_cell_angle_beta   90.01088676
_cell_angle_gamma   142.23116096
_symmetry_Int_Tables_number   1
_chemical_formula_structural   Rb12Na8Ta3TiP12
_chemical_formula_sum   'Rb12 Na8 Ta3 Ti1 P12'
_cell_volume   1055.39694071
_cell_formula_units_Z   1
loop_
 _symmetry_equiv_pos_site_id
 _symmetry_equiv_pos_as_xyz
  1  'x, y, z'
loop_
 _atom_site_type_symbol
 _atom_site_label
 _atom_site_symmetry_multiplicity
 _atom_site_fract_x
 _atom_site_fract_y
 _atom_site_fract_z
 _atom_site_occupancy
  Rb  Rb0  1  0.941925  0.610305  0.824561  1
  Rb  Rb1  1  0.554856  0.891871  0.324658  1
  Rb  Rb2  1  0.389695  0.058075  0.175439  1
  Rb  Rb3  1  0.058022  0.389466  0.174731  1
  Rb  Rb4  1  0.892339  0.559267  0.326237  1
  Rb  Rb5  1  0.440733  0.107661  0.673763  1
  Rb  Rb6  1  0.610534  0.941978  0.825269  1
  Rb  Rb7  1  0.277680  0.274642  0.314792  1
  Rb  Rb8  1  0.778450  0.778544  0.187542  1
  Rb  Rb9  1  0.221456  0.221550  0.812458  1
  Rb  Rb10  1  0.725358  0.722320  0.685208  1
  Rb  Rb11  1  0.108129  0.445144  0.675342  1
  Na  Na12  1  0.921344  0.078656  0.000000  1
  Na  Na13  1  0.579747  0.420253  0.500000  1
  Na  Na14  1  0.078838  0.921162  0.000000  1
  Na  Na15  1  0.420837  0.579163  0.500000  1
  Na  Na16  1  0.755274  0.244726  0.000000  1
  Na  Na17  1  0.743198  0.256802  0.500000  1
  Na  Na18  1  0.244357  0.755643  0.000000  1
  Na  Na19  1  0.254249  0.745751  0.500000  1
  Ta  Ta20  1  0.581262  0.418738  0.000000  1
  Ta  Ta21  1  0.918077  0.081923  0.500000  1
  Ta  Ta22  1  0.418750  0.581250  0.000000  1
  Ti  Ti23  1  0.084867  0.915133  0.500000  1
  P  P24  1  0.856775  0.552563  0.092466  1
  P  P25  1  0.447437  0.143225  0.907534  1
  P  P26  1  0.643918  0.948486  0.592143  1
  P  P27  1  0.947401  0.639563  0.593221  1
  P  P28  1  0.143064  0.447384  0.907604  1
  P  P29  1  0.552616  0.856936  0.092396  1
  P  P30  1  0.360437  0.052599  0.406779  1
  P  P31  1  0.192064  0.195123  0.584391  1
  P  P32  1  0.696425  0.696507  0.913894  1
  P  P33  1  0.303493  0.303575  0.086106  1
  P  P34  1  0.051514  0.356082  0.407857  1
  P  P35  1  0.804877  0.807936  0.415609  1
