# generated using pymatgen
data_Ta8Tc3Mo4Rh
_symmetry_space_group_name_H-M   'P 1'
_cell_length_a   6.44218900
_cell_length_b   6.44195100
_cell_length_c   6.39895400
_cell_angle_alpha   89.99992861
_cell_angle_beta   89.99787612
_cell_angle_gamma   90.00017788
_symmetry_Int_Tables_number   1
_chemical_formula_structural   Ta8Tc3Mo4Rh
_chemical_formula_sum   'Ta8 Tc3 Mo4 Rh1'
_cell_volume   265.55829220
_cell_formula_units_Z   1
loop_
 _symmetry_equiv_pos_site_id
 _symmetry_equiv_pos_as_xyz
  1  'x, y, z'
loop_
 _atom_site_type_symbol
 _atom_site_label
 _atom_site_symmetry_multiplicity
 _atom_site_fract_x
 _atom_site_fract_y
 _atom_site_fract_z
 _atom_site_occupancy
  Ta  Ta0  1  0.001899  0.502014  0.251818  1
  Ta  Ta1  1  0.001888  0.998008  0.251817  1
  Ta  Ta2  1  0.497905  0.501985  0.251829  1
  Ta  Ta3  1  0.497895  0.997995  0.251829  1
  Ta  Ta4  1  0.498099  0.502012  0.748166  1
  Ta  Ta5  1  0.498110  0.998009  0.748169  1
  Ta  Ta6  1  0.002098  0.501981  0.748185  1
  Ta  Ta7  1  0.002111  0.997993  0.748183  1
  Tc  Tc8  1  0.250017  0.749999  0.999997  1
  Tc  Tc9  1  0.249985  0.749999  0.499995  1
  Tc  Tc10  1  0.750015  0.250000  0.500006  1
  Mo  Mo11  1  0.249997  0.249999  0.999998  1
  Mo  Mo12  1  0.750006  0.749998  0.000003  1
  Mo  Mo13  1  0.250007  0.250000  0.499994  1
  Mo  Mo14  1  0.749994  0.749999  0.500006  1
  Rh  Rh15  1  0.749978  0.249997  0.000004  1
