# generated using pymatgen
data_Li4Dy3ErSnSb3
_symmetry_space_group_name_H-M   'P 1'
_cell_length_a   9.47376908
_cell_length_b   9.47197108
_cell_length_c   6.98146103
_cell_angle_alpha   89.99999432
_cell_angle_beta   90.00852766
_cell_angle_gamma   119.99378971
_symmetry_Int_Tables_number   1
_chemical_formula_structural   Li4Dy3ErSnSb3
_chemical_formula_sum   'Li8 Dy6 Er2 Sn2 Sb6'
_cell_volume   542.58436563
_cell_formula_units_Z   2
loop_
 _symmetry_equiv_pos_site_id
 _symmetry_equiv_pos_as_xyz
  1  'x, y, z'
loop_
 _atom_site_type_symbol
 _atom_site_label
 _atom_site_symmetry_multiplicity
 _atom_site_fract_x
 _atom_site_fract_y
 _atom_site_fract_z
 _atom_site_occupancy
  Li  Li0  1  0.167550  0.334726  0.274315  1
  Li  Li1  1  0.167549  0.832821  0.274314  1
  Li  Li2  1  0.665125  0.832563  0.274710  1
  Li  Li3  1  0.832528  0.665309  0.773579  1
  Li  Li4  1  0.832526  0.167224  0.773571  1
  Li  Li5  1  0.334642  0.167320  0.773284  1
  Li  Li6  1  0.333669  0.666833  0.693287  1
  Li  Li7  1  0.666530  0.333262  0.194220  1
  Dy  Dy8  1  0.984084  0.492042  0.494143  1
  Dy  Dy9  1  0.492019  0.984038  0.994105  1
  Dy  Dy10  1  0.492019  0.507983  0.994106  1
  Dy  Dy11  1  0.016016  0.508010  0.994137  1
  Dy  Dy12  1  0.999930  0.999965  0.501516  1
  Dy  Dy13  1  0.000011  0.000005  0.001534  1
  Er  Er14  1  0.508032  0.016050  0.494113  1
  Er  Er15  1  0.508028  0.491977  0.494116  1
  Sn  Sn16  1  0.333847  0.666924  0.259322  1
  Sn  Sn17  1  0.666116  0.333058  0.755796  1
  Sb  Sb18  1  0.166850  0.332975  0.737351  1
  Sb  Sb19  1  0.166851  0.833878  0.737349  1
  Sb  Sb20  1  0.666705  0.833353  0.736433  1
  Sb  Sb21  1  0.833039  0.666979  0.238542  1
  Sb  Sb22  1  0.833040  0.166059  0.238541  1
  Sb  Sb23  1  0.333295  0.166647  0.239609  1
