# generated using pymatgen
data_Ba2ErGaS5
_symmetry_space_group_name_H-M   'P 1'
_cell_length_a   7.13754634
_cell_length_b   8.41079992
_cell_length_c   9.15607591
_cell_angle_alpha   103.52311087
_cell_angle_beta   103.27612199
_cell_angle_gamma   107.33900326
_symmetry_Int_Tables_number   1
_chemical_formula_structural   Ba2ErGaS5
_chemical_formula_sum   'Ba4 Er2 Ga2 S10'
_cell_volume   482.87642094
_cell_formula_units_Z   2
loop_
 _symmetry_equiv_pos_site_id
 _symmetry_equiv_pos_as_xyz
  1  'x, y, z'
loop_
 _atom_site_type_symbol
 _atom_site_label
 _atom_site_symmetry_multiplicity
 _atom_site_fract_x
 _atom_site_fract_y
 _atom_site_fract_z
 _atom_site_occupancy
  Ba  Ba0  1  0.632131  0.976753  0.287408  1
  Ba  Ba1  1  0.367869  0.023247  0.712592  1
  Ba  Ba2  1  0.339008  0.510295  0.706377  1
  Ba  Ba3  1  0.660992  0.489705  0.293623  1
  Er  Er4  1  0.997326  0.728913  0.998123  1
  Er  Er5  1  0.002674  0.271087  0.001877  1
  Ga  Ga6  1  0.807257  0.872516  0.689491  1
  Ga  Ga7  1  0.192743  0.127484  0.310509  1
  S  S8  1  0.989224  0.689203  0.691325  1
  S  S9  1  0.010776  0.310797  0.308675  1
  S  S10  1  0.985725  0.150984  0.694180  1
  S  S11  1  0.014275  0.849016  0.305820  1
  S  S12  1  0.719815  0.909580  0.925273  1
  S  S13  1  0.280185  0.090420  0.074727  1
  S  S14  1  0.715773  0.413996  0.948082  1
  S  S15  1  0.284227  0.586004  0.051918  1
  S  S16  1  0.498562  0.744975  0.496123  1
  S  S17  1  0.501438  0.255025  0.503877  1
