# generated using pymatgen
data_Dy6ZrCo17(SiP2)4
_symmetry_space_group_name_H-M   'P 1'
_cell_length_a   3.73161200
_cell_length_b   10.67779400
_cell_length_c   12.39347100
_cell_angle_alpha   90.00000000
_cell_angle_beta   90.00000000
_cell_angle_gamma   90.00000000
_symmetry_Int_Tables_number   1
_chemical_formula_structural   Dy6ZrCo17(SiP2)4
_chemical_formula_sum   'Dy6 Zr1 Co17 Si4 P8'
_cell_volume   493.82261386
_cell_formula_units_Z   1
loop_
 _symmetry_equiv_pos_site_id
 _symmetry_equiv_pos_as_xyz
  1  'x, y, z'
loop_
 _atom_site_type_symbol
 _atom_site_label
 _atom_site_symmetry_multiplicity
 _atom_site_fract_x
 _atom_site_fract_y
 _atom_site_fract_z
 _atom_site_occupancy
  Dy  Dy0  1  0.000000  0.500000  0.528969  1
  Dy  Dy1  1  0.500000  0.000000  0.474843  1
  Dy  Dy2  1  0.500000  0.820950  0.206973  1
  Dy  Dy3  1  0.500000  0.179050  0.206973  1
  Dy  Dy4  1  0.000000  0.681036  0.798539  1
  Dy  Dy5  1  0.000000  0.318964  0.798539  1
  Zr  Zr6  1  0.500000  0.500000  0.152948  1
  Co  Co7  1  0.000000  0.000000  0.834203  1
  Co  Co8  1  0.500000  0.500000  0.704698  1
  Co  Co9  1  0.000000  0.000000  0.298936  1
  Co  Co10  1  0.000000  0.500000  0.984068  1
  Co  Co11  1  0.500000  0.000000  0.023996  1
  Co  Co12  1  0.500000  0.326815  0.989886  1
  Co  Co13  1  0.500000  0.673185  0.989886  1
  Co  Co14  1  0.000000  0.160333  0.005144  1
  Co  Co15  1  0.000000  0.839667  0.005144  1
  Co  Co16  1  0.500000  0.293414  0.430550  1
  Co  Co17  1  0.500000  0.706586  0.430550  1
  Co  Co18  1  0.000000  0.195617  0.567578  1
  Co  Co19  1  0.000000  0.804383  0.567578  1
  Co  Co20  1  0.500000  0.884581  0.703331  1
  Co  Co21  1  0.500000  0.115419  0.703331  1
  Co  Co22  1  0.000000  0.621800  0.298659  1
  Co  Co23  1  0.000000  0.378200  0.298659  1
  Si  Si24  1  0.500000  0.306230  0.616790  1
  Si  Si25  1  0.500000  0.693770  0.616790  1
  Si  Si26  1  0.500000  0.860072  0.888565  1
  Si  Si27  1  0.500000  0.139928  0.888565  1
  P  P28  1  0.500000  0.500000  0.884243  1
  P  P29  1  0.000000  0.000000  0.118513  1
  P  P30  1  0.500000  0.500000  0.359840  1
  P  P31  1  0.000000  0.000000  0.653902  1
  P  P32  1  0.000000  0.190357  0.386123  1
  P  P33  1  0.000000  0.809643  0.386123  1
  P  P34  1  0.000000  0.665019  0.098282  1
  P  P35  1  0.000000  0.334981  0.098282  1
