# generated using pymatgen
data_NaEu(SeO3)2
_symmetry_space_group_name_H-M   'P 1'
_cell_length_a   5.47590000
_cell_length_b   8.70769500
_cell_length_c   12.96512300
_cell_angle_alpha   90.00000000
_cell_angle_beta   90.00000000
_cell_angle_gamma   90.00000000
_symmetry_Int_Tables_number   1
_chemical_formula_structural   NaEu(SeO3)2
_chemical_formula_sum   'Na4 Eu4 Se8 O24'
_cell_volume   618.20905025
_cell_formula_units_Z   4
loop_
 _symmetry_equiv_pos_site_id
 _symmetry_equiv_pos_as_xyz
  1  'x, y, z'
loop_
 _atom_site_type_symbol
 _atom_site_label
 _atom_site_symmetry_multiplicity
 _atom_site_fract_x
 _atom_site_fract_y
 _atom_site_fract_z
 _atom_site_occupancy
  Na  Na0  1  0.793715  0.992160  0.618678  1
  Na  Na1  1  0.793715  0.507840  0.118678  1
  Na  Na2  1  0.293715  0.007840  0.381322  1
  Na  Na3  1  0.293715  0.492160  0.881322  1
  Eu  Eu4  1  0.244040  0.177846  0.084299  1
  Eu  Eu5  1  0.744040  0.822154  0.915701  1
  Eu  Eu6  1  0.744040  0.677846  0.415701  1
  Eu  Eu7  1  0.244040  0.322154  0.584299  1
  Se  Se8  1  0.752920  0.973225  0.201065  1
  Se  Se9  1  0.252920  0.473225  0.298935  1
  Se  Se10  1  0.795920  0.261432  0.414985  1
  Se  Se11  1  0.295920  0.738568  0.585015  1
  Se  Se12  1  0.752920  0.526775  0.701065  1
  Se  Se13  1  0.295920  0.761432  0.085015  1
  Se  Se14  1  0.252920  0.026775  0.798935  1
  Se  Se15  1  0.795920  0.238568  0.914985  1
  O  O16  1  0.985924  0.141085  0.482483  1
  O  O17  1  0.077396  0.862549  0.802839  1
  O  O18  1  0.184498  0.092810  0.677301  1
  O  O19  1  0.375998  0.570788  0.517942  1
  O  O20  1  0.011014  0.781097  0.537694  1
  O  O21  1  0.485924  0.858915  0.517517  1
  O  O22  1  0.546874  0.543811  0.281369  1
  O  O23  1  0.077396  0.637451  0.302839  1
  O  O24  1  0.011014  0.718903  0.037694  1
  O  O25  1  0.684498  0.907190  0.322699  1
  O  O26  1  0.046874  0.043811  0.218631  1
  O  O27  1  0.511014  0.218903  0.462306  1
  O  O28  1  0.684498  0.592810  0.822699  1
  O  O29  1  0.184498  0.407190  0.177301  1
  O  O30  1  0.985924  0.358915  0.982483  1
  O  O31  1  0.375998  0.929212  0.017942  1
  O  O32  1  0.577396  0.362549  0.697161  1
  O  O33  1  0.875998  0.429212  0.482058  1
  O  O34  1  0.485924  0.641085  0.017517  1
  O  O35  1  0.046874  0.456189  0.718631  1
  O  O36  1  0.577396  0.137451  0.197161  1
  O  O37  1  0.546874  0.956189  0.781369  1
  O  O38  1  0.511014  0.281097  0.962306  1
  O  O39  1  0.875998  0.070788  0.982058  1
