# generated using pymatgen
data_Ho8B24IrRuW2
_symmetry_space_group_name_H-M   'P 1'
_cell_length_a   3.63769900
_cell_length_b   9.19718461
_cell_length_c   11.58104503
_cell_angle_alpha   90.03881691
_cell_angle_beta   90.00000000
_cell_angle_gamma   90.00000000
_symmetry_Int_Tables_number   1
_chemical_formula_structural   Ho8B24IrRuW2
_chemical_formula_sum   'Ho8 B24 Ir1 Ru1 W2'
_cell_volume   387.46217795
_cell_formula_units_Z   1
loop_
 _symmetry_equiv_pos_site_id
 _symmetry_equiv_pos_as_xyz
  1  'x, y, z'
loop_
 _atom_site_type_symbol
 _atom_site_label
 _atom_site_symmetry_multiplicity
 _atom_site_fract_x
 _atom_site_fract_y
 _atom_site_fract_z
 _atom_site_occupancy
  Ho  Ho0  1  0.000000  0.317303  0.414609  1
  Ho  Ho1  1  0.000000  0.678165  0.589225  1
  Ho  Ho2  1  0.000000  0.825015  0.083644  1
  Ho  Ho3  1  0.000000  0.179154  0.913253  1
  Ho  Ho4  1  0.000000  0.942798  0.372931  1
  Ho  Ho5  1  0.000000  0.053750  0.628784  1
  Ho  Ho6  1  0.000000  0.444176  0.127199  1
  Ho  Ho7  1  0.000000  0.559031  0.872979  1
  B  B8  1  0.500000  0.553863  0.432653  1
  B  B9  1  0.500000  0.449136  0.563678  1
  B  B10  1  0.500000  0.050977  0.063727  1
  B  B11  1  0.500000  0.946306  0.931393  1
  B  B12  1  0.500000  0.748149  0.420373  1
  B  B13  1  0.500000  0.248065  0.578585  1
  B  B14  1  0.500000  0.251520  0.078648  1
  B  B15  1  0.500000  0.753162  0.919020  1
  B  B16  1  0.500000  0.791316  0.265981  1
  B  B17  1  0.500000  0.205681  0.736038  1
  B  B18  1  0.500000  0.294393  0.236031  1
  B  B19  1  0.500000  0.709289  0.766644  1
  B  B20  1  0.500000  0.633159  0.184387  1
  B  B21  1  0.500000  0.369292  0.816691  1
  B  B22  1  0.500000  0.130691  0.316725  1
  B  B23  1  0.500000  0.867101  0.685951  1
  B  B24  1  0.500000  0.977962  0.212388  1
  B  B25  1  0.500000  0.015569  0.787054  1
  B  B26  1  0.500000  0.483668  0.286839  1
  B  B27  1  0.500000  0.522499  0.712808  1
  B  B28  1  0.500000  0.608435  0.030076  1
  B  B29  1  0.500000  0.397563  0.971416  1
  B  B30  1  0.500000  0.102068  0.471263  1
  B  B31  1  0.500000  0.891219  0.529807  1
  Ir  Ir32  1  0.000000  0.637931  0.321271  1
  Ru  Ru33  1  0.000000  0.861277  0.820756  1
  W  W34  1  0.000000  0.362637  0.678224  1
  W  W35  1  0.000000  0.137679  0.178948  1
