# generated using pymatgen
data_Ho6Al24Fe4RuAu3
_symmetry_space_group_name_H-M   'P 1'
_cell_length_a   8.82860903
_cell_length_b   8.78152762
_cell_length_c   9.41757928
_cell_angle_alpha   90.02500656
_cell_angle_beta   89.95960146
_cell_angle_gamma   119.68614841
_symmetry_Int_Tables_number   1
_chemical_formula_structural   Ho6Al24Fe4RuAu3
_chemical_formula_sum   'Ho6 Al24 Fe4 Ru1 Au3'
_cell_volume   634.30331780
_cell_formula_units_Z   1
loop_
 _symmetry_equiv_pos_site_id
 _symmetry_equiv_pos_as_xyz
  1  'x, y, z'
loop_
 _atom_site_type_symbol
 _atom_site_label
 _atom_site_symmetry_multiplicity
 _atom_site_fract_x
 _atom_site_fract_y
 _atom_site_fract_z
 _atom_site_occupancy
  Ho  Ho0  1  0.190402  0.385282  0.254790  1
  Ho  Ho1  1  0.809598  0.614718  0.745210  1
  Ho  Ho2  1  0.616045  0.809148  0.248462  1
  Ho  Ho3  1  0.383955  0.190852  0.751538  1
  Ho  Ho4  1  0.192029  0.806282  0.249609  1
  Ho  Ho5  1  0.807971  0.193718  0.750391  1
  Al  Al6  1  0.313861  0.656655  0.028464  1
  Al  Al7  1  0.686139  0.343345  0.971536  1
  Al  Al8  1  0.668327  0.321044  0.527133  1
  Al  Al9  1  0.331673  0.678956  0.472867  1
  Al  Al10  1  0.148656  0.316794  0.577214  1
  Al  Al11  1  0.851344  0.683206  0.422786  1
  Al  Al12  1  0.682724  0.854495  0.573367  1
  Al  Al13  1  0.853488  0.682744  0.077792  1
  Al  Al14  1  0.317276  0.145505  0.426633  1
  Al  Al15  1  0.146512  0.317256  0.922208  1
  Al  Al16  1  0.162303  0.840098  0.575900  1
  Al  Al17  1  0.309961  0.155165  0.081250  1
  Al  Al18  1  0.837697  0.159902  0.424100  1
  Al  Al19  1  0.690039  0.844835  0.918750  1
  Al  Al20  1  0.851863  0.170852  0.079924  1
  Al  Al21  1  0.148137  0.829148  0.920076  1
  Al  Al22  1  0.562971  0.123834  0.262769  1
  Al  Al23  1  0.437029  0.876166  0.737231  1
  Al  Al24  1  0.882299  0.440940  0.245873  1
  Al  Al25  1  0.117701  0.559060  0.754127  1
  Al  Al26  1  0.568753  0.432769  0.250042  1
  Al  Al27  1  0.431247  0.567231  0.749958  1
  Al  Al28  1  0.996998  0.999272  0.251072  1
  Al  Al29  1  0.003002  0.000728  0.748928  1
  Fe  Fe30  1  0.000000  0.500000  0.000000  1
  Fe  Fe31  1  0.500000  0.000000  0.500000  1
  Fe  Fe32  1  0.000000  0.000000  0.000000  1
  Fe  Fe33  1  0.000000  0.000000  0.500000  1
  Ru  Ru34  1  0.000000  0.500000  0.500000  1
  Au  Au35  1  0.500000  0.000000  0.000000  1
  Au  Au36  1  0.500000  0.500000  0.000000  1
  Au  Au37  1  0.500000  0.500000  0.500000  1
