# generated using pymatgen
data_Li(DySb)2
_symmetry_space_group_name_H-M   'P 1'
_cell_length_a   4.48207200
_cell_length_b   4.48207095
_cell_length_c   14.67454000
_cell_angle_alpha   90.00000000
_cell_angle_beta   90.00000000
_cell_angle_gamma   120.00000776
_symmetry_Int_Tables_number   1
_chemical_formula_structural   Li(DySb)2
_chemical_formula_sum   'Li2 Dy4 Sb4'
_cell_volume   255.30107872
_cell_formula_units_Z   2
loop_
 _symmetry_equiv_pos_site_id
 _symmetry_equiv_pos_as_xyz
  1  'x, y, z'
loop_
 _atom_site_type_symbol
 _atom_site_label
 _atom_site_symmetry_multiplicity
 _atom_site_fract_x
 _atom_site_fract_y
 _atom_site_fract_z
 _atom_site_occupancy
  Li  Li0  1  0.000000  0.000000  0.250000  1
  Li  Li1  1  0.000000  0.000000  0.750000  1
  Dy  Dy2  1  0.333333  0.666667  0.387385  1
  Dy  Dy3  1  0.666667  0.333333  0.612615  1
  Dy  Dy4  1  0.666667  0.333333  0.887385  1
  Dy  Dy5  1  0.333333  0.666667  0.112615  1
  Sb  Sb6  1  0.000000  0.000000  0.500000  1
  Sb  Sb7  1  0.000000  0.000000  0.000000  1
  Sb  Sb8  1  0.333333  0.666667  0.750000  1
  Sb  Sb9  1  0.666667  0.333333  0.250000  1
