# generated using pymatgen
data_Y3ThAl12(GaIr)6
_symmetry_space_group_name_H-M   'P 1'
_cell_length_a   7.56227153
_cell_length_b   7.57510938
_cell_length_c   9.58627600
_cell_angle_alpha   90.00000000
_cell_angle_beta   90.00000000
_cell_angle_gamma   119.67501724
_symmetry_Int_Tables_number   1
_chemical_formula_structural   Y3ThAl12(GaIr)6
_chemical_formula_sum   'Y3 Th1 Al12 Ga6 Ir6'
_cell_volume   477.12771409
_cell_formula_units_Z   1
loop_
 _symmetry_equiv_pos_site_id
 _symmetry_equiv_pos_as_xyz
  1  'x, y, z'
loop_
 _atom_site_type_symbol
 _atom_site_label
 _atom_site_symmetry_multiplicity
 _atom_site_fract_x
 _atom_site_fract_y
 _atom_site_fract_z
 _atom_site_occupancy
  Y  Y0  1  0.001335  0.330195  0.750000  1
  Y  Y1  1  0.671869  0.997477  0.250000  1
  Y  Y2  1  0.329242  0.001581  0.750000  1
  Th  Th3  1  0.997182  0.670182  0.250000  1
  Al  Al4  1  0.002338  0.330781  0.070457  1
  Al  Al5  1  0.998110  0.665115  0.921089  1
  Al  Al6  1  0.998110  0.665115  0.578911  1
  Al  Al7  1  0.339189  0.005655  0.429678  1
  Al  Al8  1  0.002338  0.330781  0.429543  1
  Al  Al9  1  0.665417  0.999277  0.573599  1
  Al  Al10  1  0.665417  0.999277  0.926401  1
  Al  Al11  1  0.339189  0.005655  0.070322  1
  Al  Al12  1  0.332803  0.332752  0.559114  1
  Al  Al13  1  0.662384  0.665503  0.450222  1
  Al  Al14  1  0.662384  0.665503  0.049778  1
  Al  Al15  1  0.332803  0.332752  0.940886  1
  Ga  Ga16  1  0.132004  0.133600  0.250000  1
  Ga  Ga17  1  0.872322  0.875064  0.750000  1
  Ga  Ga18  1  0.344667  0.548659  0.250000  1
  Ga  Ga19  1  0.656870  0.448521  0.750000  1
  Ga  Ga20  1  0.543803  0.338011  0.250000  1
  Ga  Ga21  1  0.450045  0.660156  0.750000  1
  Ir  Ir22  1  0.673004  0.329875  0.000640  1
  Ir  Ir23  1  0.326791  0.671033  0.000620  1
  Ir  Ir24  1  0.326791  0.671033  0.499380  1
  Ir  Ir25  1  0.673004  0.329875  0.499360  1
  Ir  Ir26  1  0.000293  0.998285  0.001085  1
  Ir  Ir27  1  0.000293  0.998285  0.498915  1
