# generated using pymatgen
data_TbErGa2PdRh
_symmetry_space_group_name_H-M   'P 1'
_cell_length_a   4.40061400
_cell_length_b   6.86345200
_cell_length_c   7.70475200
_cell_angle_alpha   90.00000000
_cell_angle_beta   90.00000000
_cell_angle_gamma   90.00000000
_symmetry_Int_Tables_number   1
_chemical_formula_structural   TbErGa2PdRh
_chemical_formula_sum   'Tb2 Er2 Ga4 Pd2 Rh2'
_cell_volume   232.70972936
_cell_formula_units_Z   2
loop_
 _symmetry_equiv_pos_site_id
 _symmetry_equiv_pos_as_xyz
  1  'x, y, z'
loop_
 _atom_site_type_symbol
 _atom_site_label
 _atom_site_symmetry_multiplicity
 _atom_site_fract_x
 _atom_site_fract_y
 _atom_site_fract_z
 _atom_site_occupancy
  Tb  Tb0  1  0.750000  0.028622  0.684698  1
  Tb  Tb1  1  0.750000  0.528622  0.815302  1
  Er  Er2  1  0.250000  0.979702  0.304366  1
  Er  Er3  1  0.250000  0.479702  0.195634  1
  Ga  Ga4  1  0.250000  0.336115  0.567776  1
  Ga  Ga5  1  0.250000  0.836115  0.932224  1
  Ga  Ga6  1  0.750000  0.657935  0.427150  1
  Ga  Ga7  1  0.750000  0.157935  0.072850  1
  Pd  Pd8  1  0.250000  0.225237  0.893890  1
  Pd  Pd9  1  0.250000  0.725237  0.606110  1
  Rh  Rh10  1  0.750000  0.772389  0.108107  1
  Rh  Rh11  1  0.750000  0.272389  0.391893  1
