# generated using pymatgen
data_Hf6Au2CN
_symmetry_space_group_name_H-M   'P 1'
_cell_length_a   5.98227934
_cell_length_b   5.98227852
_cell_length_c   8.99632449
_cell_angle_alpha   90.14498783
_cell_angle_beta   89.85501193
_cell_angle_gamma   147.53075454
_symmetry_Int_Tables_number   1
_chemical_formula_structural   Hf6Au2CN
_chemical_formula_sum   'Hf6 Au2 C1 N1'
_cell_volume   172.84121490
_cell_formula_units_Z   1
loop_
 _symmetry_equiv_pos_site_id
 _symmetry_equiv_pos_as_xyz
  1  'x, y, z'
loop_
 _atom_site_type_symbol
 _atom_site_label
 _atom_site_symmetry_multiplicity
 _atom_site_fract_x
 _atom_site_fract_y
 _atom_site_fract_z
 _atom_site_occupancy
  Hf  Hf0  1  0.628181  0.371819  0.449871  1
  Hf  Hf1  1  0.371819  0.628181  0.550129  1
  Hf  Hf2  1  0.625809  0.374191  0.045790  1
  Hf  Hf3  1  0.374191  0.625809  0.954210  1
  Hf  Hf4  1  0.954734  0.045266  0.251436  1
  Hf  Hf5  1  0.045266  0.954734  0.748564  1
  Au  Au6  1  0.249964  0.750036  0.247271  1
  Au  Au7  1  0.750036  0.249964  0.752729  1
  C  C8  1  0.000000  0.000000  0.500000  1
  N  N9  1  0.000000  0.000000  0.000000  1
