# generated using pymatgen
data_Sc3Sn3Ru5Pt
_symmetry_space_group_name_H-M   'P 1'
_cell_length_a   4.54189400
_cell_length_b   6.49582400
_cell_length_c   13.60988300
_cell_angle_alpha   90.00000000
_cell_angle_beta   89.99980225
_cell_angle_gamma   90.00000000
_symmetry_Int_Tables_number   1
_chemical_formula_structural   Sc3Sn3Ru5Pt
_chemical_formula_sum   'Sc6 Sn6 Ru10 Pt2'
_cell_volume   401.53706064
_cell_formula_units_Z   2
loop_
 _symmetry_equiv_pos_site_id
 _symmetry_equiv_pos_as_xyz
  1  'x, y, z'
loop_
 _atom_site_type_symbol
 _atom_site_label
 _atom_site_symmetry_multiplicity
 _atom_site_fract_x
 _atom_site_fract_y
 _atom_site_fract_z
 _atom_site_occupancy
  Sc  Sc0  1  0.000000  0.500001  0.000000  1
  Sc  Sc1  1  0.499945  0.000000  0.170954  1
  Sc  Sc2  1  0.999936  0.500001  0.334656  1
  Sc  Sc3  1  0.500000  0.000000  0.500000  1
  Sc  Sc4  1  0.000064  0.500001  0.665344  1
  Sc  Sc5  1  0.500055  0.000000  0.829046  1
  Sn  Sn6  1  0.000000  0.000000  0.000000  1
  Sn  Sn7  1  0.499955  0.500001  0.173005  1
  Sn  Sn8  1  0.999974  0.000000  0.333489  1
  Sn  Sn9  1  0.500000  0.500001  0.500000  1
  Sn  Sn10  1  0.000026  0.000000  0.666511  1
  Sn  Sn11  1  0.500046  0.500001  0.826995  1
  Ru  Ru12  1  0.999969  0.249959  0.163144  1
  Ru  Ru13  1  0.999969  0.750040  0.163144  1
  Ru  Ru14  1  0.499956  0.247819  0.333000  1
  Ru  Ru15  1  0.499956  0.752181  0.333000  1
  Ru  Ru16  1  0.000000  0.250754  0.500000  1
  Ru  Ru17  1  0.000000  0.749247  0.500000  1
  Ru  Ru18  1  0.500045  0.247819  0.667000  1
  Ru  Ru19  1  0.500045  0.752181  0.667000  1
  Ru  Ru20  1  0.000031  0.249959  0.836856  1
  Ru  Ru21  1  0.000031  0.750040  0.836856  1
  Pt  Pt22  1  0.500000  0.254605  0.000000  1
  Pt  Pt23  1  0.500000  0.745396  0.000000  1
