# generated using pymatgen
data_CuAu2(SO4)4
_symmetry_space_group_name_H-M   'P 1'
_cell_length_a   6.57734172
_cell_length_b   6.57734246
_cell_length_c   7.91829601
_cell_angle_alpha   85.61100695
_cell_angle_beta   85.61100078
_cell_angle_gamma   85.76324376
_symmetry_Int_Tables_number   1
_chemical_formula_structural   CuAu2(SO4)4
_chemical_formula_sum   'Cu1 Au2 S4 O16'
_cell_volume   339.75253255
_cell_formula_units_Z   1
loop_
 _symmetry_equiv_pos_site_id
 _symmetry_equiv_pos_as_xyz
  1  'x, y, z'
loop_
 _atom_site_type_symbol
 _atom_site_label
 _atom_site_symmetry_multiplicity
 _atom_site_fract_x
 _atom_site_fract_y
 _atom_site_fract_z
 _atom_site_occupancy
  Cu  Cu0  1  0.000000  0.000000  0.000000  1
  Au  Au1  1  0.000000  0.000000  0.500000  1
  Au  Au2  1  0.500000  0.500000  0.500000  1
  S  S3  1  0.119255  0.620031  0.740015  1
  S  S4  1  0.620031  0.119255  0.740015  1
  S  S5  1  0.880745  0.379969  0.259985  1
  S  S6  1  0.379969  0.880745  0.259985  1
  O  O7  1  0.346561  0.654505  0.691345  1
  O  O8  1  0.654505  0.346561  0.691345  1
  O  O9  1  0.653439  0.345495  0.308655  1
  O  O10  1  0.345495  0.653439  0.308655  1
  O  O11  1  0.064301  0.744961  0.885270  1
  O  O12  1  0.744961  0.064301  0.885270  1
  O  O13  1  0.935699  0.255039  0.114730  1
  O  O14  1  0.255039  0.935699  0.114730  1
  O  O15  1  0.999471  0.700497  0.585851  1
  O  O16  1  0.700497  0.999471  0.585851  1
  O  O17  1  0.000529  0.299503  0.414149  1
  O  O18  1  0.299503  0.000529  0.414149  1
  O  O19  1  0.080314  0.408595  0.772157  1
  O  O20  1  0.408595  0.080314  0.772157  1
  O  O21  1  0.919686  0.591405  0.227843  1
  O  O22  1  0.591405  0.919686  0.227843  1
