# generated using pymatgen
data_Li6La5Pr(WO6)4
_symmetry_space_group_name_H-M   'P 1'
_cell_length_a   11.05071017
_cell_length_b   11.03848555
_cell_length_c   11.04441490
_cell_angle_alpha   109.43598764
_cell_angle_beta   109.48085099
_cell_angle_gamma   109.49750417
_symmetry_Int_Tables_number   1
_chemical_formula_structural   Li6La5Pr(WO6)4
_chemical_formula_sum   'Li12 La10 Pr2 W8 O48'
_cell_volume   1037.09073594
_cell_formula_units_Z   2
loop_
 _symmetry_equiv_pos_site_id
 _symmetry_equiv_pos_as_xyz
  1  'x, y, z'
loop_
 _atom_site_type_symbol
 _atom_site_label
 _atom_site_symmetry_multiplicity
 _atom_site_fract_x
 _atom_site_fract_y
 _atom_site_fract_z
 _atom_site_occupancy
  Li  Li0  1  0.749823  0.375022  0.125011  1
  Li  Li1  1  0.875188  0.749990  0.125011  1
  Li  Li2  1  0.125202  0.375006  0.250017  1
  Li  Li3  1  0.624815  0.875011  0.250017  1
  Li  Li4  1  0.624615  0.249823  0.374606  1
  Li  Li5  1  0.249991  0.124783  0.374606  1
  Li  Li6  1  0.374919  0.749991  0.624953  1
  Li  Li7  1  0.750034  0.874961  0.624953  1
  Li  Li8  1  0.374979  0.124989  0.750154  1
  Li  Li9  1  0.875174  0.625166  0.750154  1
  Li  Li10  1  0.125284  0.250018  0.875262  1
  Li  Li11  1  0.249978  0.625244  0.875263  1
  La  La12  1  0.875146  0.125146  0.250292  1
  La  La13  1  0.374762  0.624762  0.249525  1
  La  La14  1  0.125118  0.750252  0.374833  1
  La  La15  1  0.749715  0.624581  0.374833  1
  La  La16  1  0.875076  0.250035  0.624923  1
  La  La17  1  0.249847  0.374888  0.624923  1
  La  La18  1  0.624953  0.374953  0.749907  1
  La  La19  1  0.125307  0.875307  0.750613  1
  La  La20  1  0.624920  0.749861  0.874970  1
  La  La21  1  0.750050  0.125110  0.874971  1
  Pr  Pr22  1  0.250258  0.875441  0.125131  1
  Pr  Pr23  1  0.374873  0.249690  0.125132  1
  W  W24  1  0.000683  0.000142  0.000461  1
  W  W25  1  0.499780  0.000320  0.000461  1
  W  W26  1  0.499855  0.499536  0.000035  1
  W  W27  1  0.000181  0.500500  0.000035  1
  W  W28  1  0.499813  0.999860  0.499474  1
  W  W29  1  0.000084  0.500170  0.500037  1
  W  W30  1  0.999953  0.999867  0.500038  1
  W  W31  1  0.499663  0.499615  0.499475  1
  O  O32  1  0.328921  0.407090  0.022273  1
  O  O33  1  0.193352  0.615182  0.022273  1
  O  O34  1  0.886338  0.908072  0.079311  1
  O  O35  1  0.692974  0.171240  0.079312  1
  O  O36  1  0.613738  0.921026  0.092158  1
  O  O37  1  0.978421  0.171133  0.092158  1
  O  O38  1  0.022990  0.694470  0.114276  1
  O  O39  1  0.591287  0.419807  0.114277  1
  O  O40  1  0.194512  0.079052  0.171294  1
  O  O41  1  0.476780  0.092241  0.171294  1
  O  O42  1  0.113850  0.522020  0.192990  1
  O  O43  1  0.579139  0.670970  0.192990  1
  O  O44  1  0.328539  0.419830  0.305614  1
  O  O45  1  0.477075  0.885784  0.305614  1
  O  O46  1  0.920714  0.806756  0.328780  1
  O  O47  1  0.908067  0.522023  0.328781  1
  O  O48  1  0.578131  0.407108  0.384830  1
  O  O49  1  0.306699  0.977723  0.384830  1
  O  O50  1  0.828832  0.021988  0.408011  1
  O  O51  1  0.079178  0.386023  0.408011  1
  O  O52  1  0.091947  0.114006  0.420728  1
  O  O53  1  0.828782  0.306722  0.420729  1
  O  O54  1  0.591826  0.671039  0.477901  1
  O  O55  1  0.386074  0.806862  0.477901  1
  O  O56  1  0.614108  0.193370  0.522047  1
  O  O57  1  0.407939  0.328676  0.522047  1
  O  O58  1  0.171258  0.693289  0.579327  1
  O  O59  1  0.908070  0.886039  0.579327  1
  O  O60  1  0.171198  0.978047  0.591937  1
  O  O61  1  0.920739  0.613891  0.591937  1
  O  O62  1  0.420725  0.591835  0.613547  1
  O  O63  1  0.692822  0.021714  0.613548  1
  O  O64  1  0.079226  0.193221  0.671192  1
  O  O65  1  0.091967  0.477971  0.671193  1
  O  O66  1  0.671022  0.578976  0.692615  1
  O  O67  1  0.521592  0.113639  0.692615  1
  O  O68  1  0.885927  0.478031  0.806748  1
  O  O69  1  0.420821  0.328718  0.806749  1
  O  O70  1  0.521317  0.908109  0.829041  1
  O  O71  1  0.807723  0.920933  0.829042  1
  O  O72  1  0.978365  0.307335  0.886345  1
  O  O73  1  0.407980  0.579010  0.886346  1
  O  O74  1  0.385817  0.080053  0.908807  1
  O  O75  1  0.022990  0.828755  0.908807  1
  O  O76  1  0.115139  0.092813  0.921937  1
  O  O77  1  0.306797  0.829124  0.921937  1
  O  O78  1  0.807122  0.386440  0.978248  1
  O  O79  1  0.671126  0.591807  0.978248  1
