# generated using pymatgen
data_Tb7Er(SiNi)8
_symmetry_space_group_name_H-M   'P 1'
_cell_length_a   4.16153000
_cell_length_b   7.17522311
_cell_length_c   13.86727400
_cell_angle_alpha   89.99089225
_cell_angle_beta   90.00000000
_cell_angle_gamma   90.00000000
_symmetry_Int_Tables_number   1
_chemical_formula_structural   Tb7Er(SiNi)8
_chemical_formula_sum   'Tb7 Er1 Si8 Ni8'
_cell_volume   414.07549629
_cell_formula_units_Z   1
loop_
 _symmetry_equiv_pos_site_id
 _symmetry_equiv_pos_as_xyz
  1  'x, y, z'
loop_
 _atom_site_type_symbol
 _atom_site_label
 _atom_site_symmetry_multiplicity
 _atom_site_fract_x
 _atom_site_fract_y
 _atom_site_fract_z
 _atom_site_occupancy
  Tb  Tb0  1  0.000000  0.298330  0.999190  1
  Tb  Tb1  1  0.500000  0.702311  0.500758  1
  Tb  Tb2  1  0.000000  0.290385  0.500448  1
  Tb  Tb3  1  0.500000  0.709400  0.999607  1
  Tb  Tb4  1  0.000000  0.207393  0.246313  1
  Tb  Tb5  1  0.500000  0.792587  0.253556  1
  Tb  Tb6  1  0.000000  0.206056  0.753336  1
  Er  Er7  1  0.500000  0.790996  0.746645  1
  Si  Si8  1  0.000000  0.911789  0.597595  1
  Si  Si9  1  0.500000  0.086548  0.903038  1
  Si  Si10  1  0.000000  0.912748  0.404747  1
  Si  Si11  1  0.500000  0.087240  0.095200  1
  Si  Si12  1  0.000000  0.590674  0.149264  1
  Si  Si13  1  0.500000  0.409315  0.350887  1
  Si  Si14  1  0.000000  0.592602  0.849707  1
  Si  Si15  1  0.500000  0.409838  0.649891  1
  Ni  Ni16  1  0.500000  0.077536  0.609979  1
  Ni  Ni17  1  0.000000  0.920622  0.890309  1
  Ni  Ni18  1  0.500000  0.079170  0.392186  1
  Ni  Ni19  1  0.000000  0.921587  0.107678  1
  Ni  Ni20  1  0.500000  0.420113  0.158352  1
  Ni  Ni21  1  0.000000  0.579306  0.341350  1
  Ni  Ni22  1  0.500000  0.422896  0.839219  1
  Ni  Ni23  1  0.000000  0.580557  0.660744  1
