# generated using pymatgen
data_Tm3Lu3(Si3Os)8
_symmetry_space_group_name_H-M   'P 1'
_cell_length_a   10.11612982
_cell_length_b   10.11612973
_cell_length_c   8.11879128
_cell_angle_alpha   89.99182171
_cell_angle_beta   90.00817576
_cell_angle_gamma   132.76593437
_symmetry_Int_Tables_number   1
_chemical_formula_structural   Tm3Lu3(Si3Os)8
_chemical_formula_sum   'Tm3 Lu3 Si24 Os8'
_cell_volume   609.95151927
_cell_formula_units_Z   1
loop_
 _symmetry_equiv_pos_site_id
 _symmetry_equiv_pos_as_xyz
  1  'x, y, z'
loop_
 _atom_site_type_symbol
 _atom_site_label
 _atom_site_symmetry_multiplicity
 _atom_site_fract_x
 _atom_site_fract_y
 _atom_site_fract_z
 _atom_site_occupancy
  Tm  Tm0  1  0.500591  0.000591  0.750000  1
  Tm  Tm1  1  0.000019  0.999982  0.000052  1
  Tm  Tm2  1  0.499982  0.500019  0.499948  1
  Lu  Lu3  1  0.999256  0.499256  0.250000  1
  Lu  Lu4  1  0.499443  0.999443  0.250000  1
  Lu  Lu5  1  0.000483  0.500483  0.750000  1
  Si  Si6  1  0.795906  0.205170  0.499615  1
  Si  Si7  1  0.705170  0.295906  0.000385  1
  Si  Si8  1  0.203987  0.794819  0.499690  1
  Si  Si9  1  0.294819  0.703987  0.000310  1
  Si  Si10  1  0.667795  0.667891  0.167201  1
  Si  Si11  1  0.167891  0.167795  0.332799  1
  Si  Si12  1  0.832251  0.832033  0.667125  1
  Si  Si13  1  0.332033  0.332251  0.832875  1
  Si  Si14  1  0.845274  0.611040  0.996059  1
  Si  Si15  1  0.111040  0.345274  0.503941  1
  Si  Si16  1  0.655652  0.889108  0.496330  1
  Si  Si17  1  0.389108  0.155652  0.003670  1
  Si  Si18  1  0.154726  0.388901  0.004195  1
  Si  Si19  1  0.888901  0.654726  0.495805  1
  Si  Si20  1  0.120177  0.885739  0.728044  1
  Si  Si21  1  0.385739  0.620177  0.771956  1
  Si  Si22  1  0.379073  0.613822  0.227930  1
  Si  Si23  1  0.113822  0.879073  0.272070  1
  Si  Si24  1  0.879870  0.114633  0.272006  1
  Si  Si25  1  0.614633  0.379870  0.227994  1
  Si  Si26  1  0.620461  0.385921  0.772244  1
  Si  Si27  1  0.885921  0.120461  0.727756  1
  Si  Si28  1  0.611062  0.844583  0.995992  1
  Si  Si29  1  0.344583  0.111062  0.504008  1
  Os  Os30  1  0.627384  0.627149  0.872087  1
  Os  Os31  1  0.127149  0.127384  0.627913  1
  Os  Os32  1  0.372770  0.372846  0.127997  1
  Os  Os33  1  0.872846  0.872770  0.372003  1
  Os  Os34  1  0.170481  0.830628  0.000210  1
  Os  Os35  1  0.330628  0.670481  0.499790  1
  Os  Os36  1  0.829664  0.169412  0.999932  1
  Os  Os37  1  0.669412  0.329664  0.500068  1
