# generated using pymatgen
data_Nd9Tm11(Ga7Ge)2
_symmetry_space_group_name_H-M   'P 1'
_cell_length_a   7.87641280
_cell_length_b   7.87800818
_cell_length_c   14.51241400
_cell_angle_alpha   89.65032521
_cell_angle_beta   90.21949676
_cell_angle_gamma   90.02103438
_symmetry_Int_Tables_number   1
_chemical_formula_structural   Nd9Tm11(Ga7Ge)2
_chemical_formula_sum   'Nd9 Tm11 Ga14 Ge2'
_cell_volume   900.47830739
_cell_formula_units_Z   1
loop_
 _symmetry_equiv_pos_site_id
 _symmetry_equiv_pos_as_xyz
  1  'x, y, z'
loop_
 _atom_site_type_symbol
 _atom_site_label
 _atom_site_symmetry_multiplicity
 _atom_site_fract_x
 _atom_site_fract_y
 _atom_site_fract_z
 _atom_site_occupancy
  Nd  Nd0  1  0.006727  0.855184  0.126693  1
  Nd  Nd1  1  0.644380  0.995101  0.461673  1
  Nd  Nd2  1  0.356110  0.006971  0.958631  1
  Nd  Nd3  1  0.992307  0.645175  0.540876  1
  Nd  Nd4  1  0.489653  0.853104  0.212036  1
  Nd  Nd5  1  0.503444  0.144288  0.710823  1
  Nd  Nd6  1  0.855499  0.491135  0.789535  1
  Nd  Nd7  1  0.142246  0.504940  0.290109  1
  Nd  Nd8  1  0.007264  0.357090  0.037083  1
  Tm  Tm9  1  0.490190  0.354664  0.120821  1
  Tm  Tm10  1  0.996936  0.145514  0.626692  1
  Tm  Tm11  1  0.856177  0.009878  0.872614  1
  Tm  Tm12  1  0.146688  0.996125  0.373942  1
  Tm  Tm13  1  0.503782  0.644965  0.625081  1
  Tm  Tm14  1  0.355635  0.493331  0.873917  1
  Tm  Tm15  1  0.649187  0.502032  0.379237  1
  Tm  Tm16  1  0.321940  0.319799  0.498923  1
  Tm  Tm17  1  0.179760  0.822839  0.749187  1
  Tm  Tm18  1  0.818285  0.180718  0.249912  1
  Tm  Tm19  1  0.677703  0.680793  0.000444  1
  Ga  Ga20  1  0.289775  0.939075  0.562343  1
  Ga  Ga21  1  0.709134  0.062516  0.060908  1
  Ga  Ga22  1  0.941636  0.288058  0.438846  1
  Ga  Ga23  1  0.442809  0.211414  0.312955  1
  Ga  Ga24  1  0.558891  0.791116  0.812746  1
  Ga  Ga25  1  0.211753  0.440035  0.686289  1
  Ga  Ga26  1  0.782833  0.555410  0.189007  1
  Ga  Ga27  1  0.061434  0.709449  0.933305  1
  Ga  Ga28  1  0.794778  0.854357  0.687237  1
  Ga  Ga29  1  0.207778  0.150532  0.187710  1
  Ga  Ga30  1  0.851544  0.793268  0.318813  1
  Ga  Ga31  1  0.352479  0.702815  0.435488  1
  Ga  Ga32  1  0.642903  0.294267  0.934306  1
  Ga  Ga33  1  0.707374  0.352275  0.568890  1
  Ge  Ge34  1  0.302576  0.646941  0.059265  1
  Ge  Ge35  1  0.148397  0.204823  0.813666  1
