# generated using pymatgen
data_Ho16Cd3TcNi3Hg
_symmetry_space_group_name_H-M   'P 1'
_cell_length_a   9.54539955
_cell_length_b   9.54540032
_cell_length_c   9.54540020
_cell_angle_alpha   59.59674558
_cell_angle_beta   59.59673904
_cell_angle_gamma   59.59674824
_symmetry_Int_Tables_number   1
_chemical_formula_structural   Ho16Cd3TcNi3Hg
_chemical_formula_sum   'Ho16 Cd3 Tc1 Ni3 Hg1'
_cell_volume   609.35226148
_cell_formula_units_Z   1
loop_
 _symmetry_equiv_pos_site_id
 _symmetry_equiv_pos_as_xyz
  1  'x, y, z'
loop_
 _atom_site_type_symbol
 _atom_site_label
 _atom_site_symmetry_multiplicity
 _atom_site_fract_x
 _atom_site_fract_y
 _atom_site_fract_z
 _atom_site_occupancy
  Ho  Ho0  1  0.346450  0.346450  0.346450  1
  Ho  Ho1  1  0.353200  0.353200  0.951136  1
  Ho  Ho2  1  0.353200  0.951136  0.353200  1
  Ho  Ho3  1  0.951136  0.353200  0.353200  1
  Ho  Ho4  1  0.810956  0.187186  0.187186  1
  Ho  Ho5  1  0.187372  0.810591  0.810591  1
  Ho  Ho6  1  0.187186  0.810956  0.187186  1
  Ho  Ho7  1  0.810591  0.187372  0.810591  1
  Ho  Ho8  1  0.187186  0.187186  0.810956  1
  Ho  Ho9  1  0.810591  0.810591  0.187372  1
  Ho  Ho10  1  0.935959  0.565305  0.565305  1
  Ho  Ho11  1  0.554911  0.939507  0.939507  1
  Ho  Ho12  1  0.565305  0.935959  0.565305  1
  Ho  Ho13  1  0.939507  0.554911  0.939507  1
  Ho  Ho14  1  0.565305  0.565305  0.935959  1
  Ho  Ho15  1  0.939507  0.939507  0.554911  1
  Cd  Cd16  1  0.579641  0.579641  0.256187  1
  Cd  Cd17  1  0.579641  0.256187  0.579641  1
  Cd  Cd18  1  0.256187  0.579641  0.579641  1
  Tc  Tc19  1  0.144097  0.144097  0.144097  1
  Ni  Ni20  1  0.141760  0.141760  0.574580  1
  Ni  Ni21  1  0.141760  0.574580  0.141760  1
  Ni  Ni22  1  0.574580  0.141760  0.141760  1
  Hg  Hg23  1  0.583973  0.583973  0.583973  1
