# generated using pymatgen
data_Er6FePd
_symmetry_space_group_name_H-M   'P 1'
_cell_length_a   6.28474371
_cell_length_b   7.12765144
_cell_length_c   9.19684200
_cell_angle_alpha   90.00000000
_cell_angle_beta   90.00000000
_cell_angle_gamma   90.97125530
_symmetry_Int_Tables_number   1
_chemical_formula_structural   Er6FePd
_chemical_formula_sum   'Er12 Fe2 Pd2'
_cell_volume   411.91760075
_cell_formula_units_Z   2
loop_
 _symmetry_equiv_pos_site_id
 _symmetry_equiv_pos_as_xyz
  1  'x, y, z'
loop_
 _atom_site_type_symbol
 _atom_site_label
 _atom_site_symmetry_multiplicity
 _atom_site_fract_x
 _atom_site_fract_y
 _atom_site_fract_z
 _atom_site_occupancy
  Er  Er0  1  0.620145  0.049593  0.250000  1
  Er  Er1  1  0.379855  0.950407  0.750000  1
  Er  Er2  1  0.136093  0.477592  0.750000  1
  Er  Er3  1  0.863907  0.522408  0.250000  1
  Er  Er4  1  0.180393  0.188107  0.062391  1
  Er  Er5  1  0.819607  0.811893  0.937609  1
  Er  Er6  1  0.665145  0.330145  0.938307  1
  Er  Er7  1  0.819607  0.811893  0.562391  1
  Er  Er8  1  0.334855  0.669855  0.061693  1
  Er  Er9  1  0.180393  0.188107  0.437609  1
  Er  Er10  1  0.334855  0.669855  0.438307  1
  Er  Er11  1  0.665145  0.330145  0.561693  1
  Fe  Fe12  1  0.457488  0.384254  0.250000  1
  Fe  Fe13  1  0.542512  0.615746  0.750000  1
  Pd  Pd14  1  0.950933  0.112371  0.750000  1
  Pd  Pd15  1  0.049067  0.887629  0.250000  1
