# generated using pymatgen
data_YHo12Er7(CoBi2)4
_symmetry_space_group_name_H-M   'P 1'
_cell_length_a   7.95367909
_cell_length_b   8.87130804
_cell_length_c   12.36480528
_cell_angle_alpha   89.99248882
_cell_angle_beta   90.00372194
_cell_angle_gamma   90.00751222
_symmetry_Int_Tables_number   1
_chemical_formula_structural   YHo12Er7(CoBi2)4
_chemical_formula_sum   'Y1 Ho12 Er7 Co4 Bi8'
_cell_volume   872.45492250
_cell_formula_units_Z   1
loop_
 _symmetry_equiv_pos_site_id
 _symmetry_equiv_pos_as_xyz
  1  'x, y, z'
loop_
 _atom_site_type_symbol
 _atom_site_label
 _atom_site_symmetry_multiplicity
 _atom_site_fract_x
 _atom_site_fract_y
 _atom_site_fract_z
 _atom_site_occupancy
  Y  Y0  1  0.346626  0.749976  0.700617  1
  Ho  Ho1  1  0.652943  0.250008  0.300462  1
  Ho  Ho2  1  0.847048  0.250061  0.800543  1
  Ho  Ho3  1  0.153045  0.749972  0.199694  1
  Ho  Ho4  1  0.884484  0.749938  0.811055  1
  Ho  Ho5  1  0.114875  0.250109  0.189021  1
  Ho  Ho6  1  0.385051  0.249994  0.688874  1
  Ho  Ho7  1  0.615113  0.750001  0.310785  1
  Ho  Ho8  1  0.175533  0.037894  0.937089  1
  Ho  Ho9  1  0.051997  0.750004  0.497662  1
  Ho  Ho10  1  0.947503  0.250015  0.501879  1
  Ho  Ho11  1  0.552684  0.250061  0.002256  1
  Ho  Ho12  1  0.447760  0.749917  0.998311  1
  Er  Er13  1  0.675134  0.537693  0.562557  1
  Er  Er14  1  0.325101  0.461978  0.437056  1
  Er  Er15  1  0.175039  0.462076  0.937217  1
  Er  Er16  1  0.325106  0.038021  0.437107  1
  Er  Er17  1  0.825117  0.538211  0.062947  1
  Er  Er18  1  0.675150  0.962333  0.562537  1
  Er  Er19  1  0.824897  0.961785  0.062960  1
  Co  Co20  1  0.065514  0.749836  0.991783  1
  Co  Co21  1  0.934158  0.250178  0.008289  1
  Co  Co22  1  0.565491  0.250002  0.508136  1
  Co  Co23  1  0.434865  0.750004  0.490961  1
  Bi  Bi24  1  0.572061  0.509325  0.826923  1
  Bi  Bi25  1  0.428128  0.490270  0.173434  1
  Bi  Bi26  1  0.071362  0.490231  0.673234  1
  Bi  Bi27  1  0.428090  0.009718  0.173443  1
  Bi  Bi28  1  0.928265  0.509527  0.326583  1
  Bi  Bi29  1  0.572256  0.990639  0.826867  1
  Bi  Bi30  1  0.928278  0.990464  0.326562  1
  Bi  Bi31  1  0.071322  0.009759  0.673155  1
