# generated using pymatgen
data_Y3Lu3Th2(CdRh)2
_symmetry_space_group_name_H-M   'P 1'
_cell_length_a   9.67830972
_cell_length_b   9.67831014
_cell_length_c   9.67830900
_cell_angle_alpha   60.00000048
_cell_angle_beta   59.99999904
_cell_angle_gamma   59.99999686
_symmetry_Int_Tables_number   1
_chemical_formula_structural   Y3Lu3Th2(CdRh)2
_chemical_formula_sum   'Y6 Lu6 Th4 Cd4 Rh4'
_cell_volume   641.03763125
_cell_formula_units_Z   2
loop_
 _symmetry_equiv_pos_site_id
 _symmetry_equiv_pos_as_xyz
  1  'x, y, z'
loop_
 _atom_site_type_symbol
 _atom_site_label
 _atom_site_symmetry_multiplicity
 _atom_site_fract_x
 _atom_site_fract_y
 _atom_site_fract_z
 _atom_site_occupancy
  Y  Y0  1  0.935930  0.564070  0.564070  1
  Y  Y1  1  0.564070  0.935930  0.935930  1
  Y  Y2  1  0.564070  0.935930  0.564070  1
  Y  Y3  1  0.935930  0.564070  0.935930  1
  Y  Y4  1  0.564070  0.564070  0.935930  1
  Y  Y5  1  0.935930  0.935930  0.564070  1
  Lu  Lu6  1  0.814817  0.185183  0.185183  1
  Lu  Lu7  1  0.185183  0.814817  0.814817  1
  Lu  Lu8  1  0.185183  0.814817  0.185183  1
  Lu  Lu9  1  0.814817  0.185183  0.814817  1
  Lu  Lu10  1  0.185183  0.185183  0.814817  1
  Lu  Lu11  1  0.814817  0.814817  0.185183  1
  Th  Th12  1  0.350669  0.350669  0.350669  1
  Th  Th13  1  0.350669  0.350669  0.947993  1
  Th  Th14  1  0.350669  0.947993  0.350669  1
  Th  Th15  1  0.947993  0.350669  0.350669  1
  Cd  Cd16  1  0.582735  0.582735  0.582735  1
  Cd  Cd17  1  0.582735  0.582735  0.251793  1
  Cd  Cd18  1  0.582735  0.251793  0.582735  1
  Cd  Cd19  1  0.251793  0.582735  0.582735  1
  Rh  Rh20  1  0.142991  0.142991  0.142991  1
  Rh  Rh21  1  0.142991  0.142991  0.571025  1
  Rh  Rh22  1  0.142991  0.571025  0.142991  1
  Rh  Rh23  1  0.571025  0.142991  0.142991  1
