# generated using pymatgen
data_Ho2MnCo16
_symmetry_space_group_name_H-M   'P 1'
_cell_length_a   6.27120971
_cell_length_b   6.27120880
_cell_length_c   6.27120995
_cell_angle_alpha   83.07474958
_cell_angle_beta   83.07475165
_cell_angle_gamma   83.07474404
_symmetry_Int_Tables_number   1
_chemical_formula_structural   Ho2MnCo16
_chemical_formula_sum   'Ho2 Mn1 Co16'
_cell_volume   241.63784897
_cell_formula_units_Z   1
loop_
 _symmetry_equiv_pos_site_id
 _symmetry_equiv_pos_as_xyz
  1  'x, y, z'
loop_
 _atom_site_type_symbol
 _atom_site_label
 _atom_site_symmetry_multiplicity
 _atom_site_fract_x
 _atom_site_fract_y
 _atom_site_fract_z
 _atom_site_occupancy
  Ho  Ho0  1  0.655870  0.655870  0.655870  1
  Ho  Ho1  1  0.346731  0.346731  0.346731  1
  Mn  Mn2  1  0.096965  0.096965  0.096965  1
  Co  Co3  1  0.710336  0.289245  0.998725  1
  Co  Co4  1  0.998725  0.710336  0.289245  1
  Co  Co5  1  0.289245  0.998725  0.710336  1
  Co  Co6  1  0.998725  0.289245  0.710336  1
  Co  Co7  1  0.710336  0.998725  0.289245  1
  Co  Co8  1  0.289245  0.710336  0.998725  1
  Co  Co9  1  0.349027  0.349027  0.848570  1
  Co  Co10  1  0.848570  0.349027  0.349027  1
  Co  Co11  1  0.349027  0.848570  0.349027  1
  Co  Co12  1  0.653383  0.653383  0.151703  1
  Co  Co13  1  0.151703  0.653383  0.653383  1
  Co  Co14  1  0.653383  0.151703  0.653383  1
  Co  Co15  1  0.997587  0.997587  0.504764  1
  Co  Co16  1  0.504764  0.997587  0.997587  1
  Co  Co17  1  0.997587  0.504764  0.997587  1
  Co  Co18  1  0.898793  0.898793  0.898793  1
