# generated using pymatgen
data_YbSm(Si7Ir3)2
_symmetry_space_group_name_H-M   'P 1'
_cell_length_a   8.01507346
_cell_length_b   8.01507429
_cell_length_c   8.01507400
_cell_angle_alpha   56.89552661
_cell_angle_beta   56.89552276
_cell_angle_gamma   56.89552967
_symmetry_Int_Tables_number   1
_chemical_formula_structural   YbSm(Si7Ir3)2
_chemical_formula_sum   'Yb1 Sm1 Si14 Ir6'
_cell_volume   338.01338446
_cell_formula_units_Z   1
loop_
 _symmetry_equiv_pos_site_id
 _symmetry_equiv_pos_as_xyz
  1  'x, y, z'
loop_
 _atom_site_type_symbol
 _atom_site_label
 _atom_site_symmetry_multiplicity
 _atom_site_fract_x
 _atom_site_fract_y
 _atom_site_fract_z
 _atom_site_occupancy
  Yb  Yb0  1  0.000000  0.000000  0.000000  1
  Sm  Sm1  1  0.500000  0.500000  0.500000  1
  Si  Si2  1  0.064412  0.851957  0.673921  1
  Si  Si3  1  0.673921  0.064412  0.851957  1
  Si  Si4  1  0.851957  0.673921  0.064412  1
  Si  Si5  1  0.171834  0.349022  0.566698  1
  Si  Si6  1  0.566698  0.171834  0.349022  1
  Si  Si7  1  0.349022  0.566698  0.171834  1
  Si  Si8  1  0.935588  0.148043  0.326079  1
  Si  Si9  1  0.326079  0.935588  0.148043  1
  Si  Si10  1  0.148043  0.326079  0.935588  1
  Si  Si11  1  0.828166  0.650978  0.433302  1
  Si  Si12  1  0.433302  0.828166  0.650978  1
  Si  Si13  1  0.650978  0.433302  0.828166  1
  Si  Si14  1  0.749803  0.749803  0.749803  1
  Si  Si15  1  0.250197  0.250197  0.250197  1
  Ir  Ir16  1  0.070383  0.749761  0.430382  1
  Ir  Ir17  1  0.430382  0.070383  0.749761  1
  Ir  Ir18  1  0.749761  0.430382  0.070383  1
  Ir  Ir19  1  0.929617  0.250239  0.569618  1
  Ir  Ir20  1  0.569618  0.929617  0.250239  1
  Ir  Ir21  1  0.250239  0.569618  0.929617  1
