# generated using pymatgen
data_Dy4Ho6Ga3NiBi2
_symmetry_space_group_name_H-M   'P 1'
_cell_length_a   8.54794354
_cell_length_b   8.55143724
_cell_length_c   8.73537165
_cell_angle_alpha   124.29821945
_cell_angle_beta   124.28817289
_cell_angle_gamma   81.29989574
_symmetry_Int_Tables_number   1
_chemical_formula_structural   Dy4Ho6Ga3NiBi2
_chemical_formula_sum   'Dy4 Ho6 Ga3 Ni1 Bi2'
_cell_volume   422.71272326
_cell_formula_units_Z   1
loop_
 _symmetry_equiv_pos_site_id
 _symmetry_equiv_pos_as_xyz
  1  'x, y, z'
loop_
 _atom_site_type_symbol
 _atom_site_label
 _atom_site_symmetry_multiplicity
 _atom_site_fract_x
 _atom_site_fract_y
 _atom_site_fract_z
 _atom_site_occupancy
  Dy  Dy0  1  0.040069  0.196281  0.499850  1
  Dy  Dy1  1  0.499056  0.015265  0.795529  1
  Dy  Dy2  1  0.704448  0.515688  0.499983  1
  Dy  Dy3  1  0.984303  0.794959  0.499863  1
  Ho  Ho4  1  0.995357  0.997537  0.992603  1
  Ho  Ho5  1  0.502699  0.505245  0.007705  1
  Ho  Ho6  1  0.779204  0.296014  0.794920  1
  Ho  Ho7  1  0.203980  0.720455  0.204726  1
  Ho  Ho8  1  0.484170  0.001084  0.205351  1
  Ho  Ho9  1  0.303628  0.459029  0.499899  1
  Ga  Ga10  1  0.147275  0.644951  0.791833  1
  Ga  Ga11  1  0.855716  0.353315  0.208482  1
  Ga  Ga12  1  0.634247  0.865751  0.499605  1
  Ni  Ni13  1  0.377062  0.123282  0.499611  1
  Bi  Bi14  1  0.244285  0.255816  0.000155  1
  Bi  Bi15  1  0.744502  0.755328  0.999885  1
