# generated using pymatgen
data_Mn2Cr4P3
_symmetry_space_group_name_H-M   'P 1'
_cell_length_a   6.81963229
_cell_length_b   6.82277361
_cell_length_c   6.82277320
_cell_angle_alpha   126.02130902
_cell_angle_beta   122.44884763
_cell_angle_gamma   82.85142265
_symmetry_Int_Tables_number   1
_chemical_formula_structural   Mn2Cr4P3
_chemical_formula_sum   'Mn4 Cr8 P6'
_cell_volume   208.00455801
_cell_formula_units_Z   2
loop_
 _symmetry_equiv_pos_site_id
 _symmetry_equiv_pos_as_xyz
  1  'x, y, z'
loop_
 _atom_site_type_symbol
 _atom_site_label
 _atom_site_symmetry_multiplicity
 _atom_site_fract_x
 _atom_site_fract_y
 _atom_site_fract_z
 _atom_site_occupancy
  Mn  Mn0  1  0.792111  0.260643  0.047100  1
  Mn  Mn1  1  0.207889  0.254989  0.468532  1
  Mn  Mn2  1  0.839303  0.999406  0.587872  1
  Mn  Mn3  1  0.160697  0.748568  0.160102  1
  Cr  Cr4  1  0.415103  0.993524  0.158824  1
  Cr  Cr5  1  0.584897  0.743722  0.578421  1
  Cr  Cr6  1  0.715345  0.440930  0.729388  1
  Cr  Cr7  1  0.284655  0.014043  0.725584  1
  Cr  Cr8  1  0.219955  0.368788  0.161849  1
  Cr  Cr9  1  0.780045  0.941893  0.148833  1
  Cr  Cr10  1  0.500000  0.570379  0.070379  1
  Cr  Cr11  1  0.000000  0.622249  0.622249  1
  P  P12  1  0.392217  0.655557  0.720952  1
  P  P13  1  0.607783  0.328735  0.263339  1
  P  P14  1  0.932941  0.667635  0.267643  1
  P  P15  1  0.067059  0.334703  0.734694  1
  P  P16  1  0.500000  0.076294  0.576294  1
  P  P17  1  0.000000  0.979644  0.979644  1
