# generated using pymatgen
data_CaHo7B24OsRu3
_symmetry_space_group_name_H-M   'P 1'
_cell_length_a   3.64838100
_cell_length_b   9.13279990
_cell_length_c   11.51894619
_cell_angle_alpha   89.85627585
_cell_angle_beta   90.00000000
_cell_angle_gamma   90.00000000
_symmetry_Int_Tables_number   1
_chemical_formula_structural   CaHo7B24OsRu3
_chemical_formula_sum   'Ca1 Ho7 B24 Os1 Ru3'
_cell_volume   383.80931472
_cell_formula_units_Z   1
loop_
 _symmetry_equiv_pos_site_id
 _symmetry_equiv_pos_as_xyz
  1  'x, y, z'
loop_
 _atom_site_type_symbol
 _atom_site_label
 _atom_site_symmetry_multiplicity
 _atom_site_fract_x
 _atom_site_fract_y
 _atom_site_fract_z
 _atom_site_occupancy
  Ca  Ca0  1  0.000000  0.322750  0.413843  1
  Ho  Ho1  1  0.000000  0.675840  0.584975  1
  Ho  Ho2  1  0.000000  0.822484  0.086793  1
  Ho  Ho3  1  0.000000  0.177447  0.914462  1
  Ho  Ho4  1  0.000000  0.944670  0.371570  1
  Ho  Ho5  1  0.000000  0.057812  0.628295  1
  Ho  Ho6  1  0.000000  0.442778  0.128684  1
  Ho  Ho7  1  0.000000  0.556199  0.872046  1
  B  B8  1  0.500000  0.554301  0.432708  1
  B  B9  1  0.500000  0.446323  0.567852  1
  B  B10  1  0.500000  0.053123  0.066498  1
  B  B11  1  0.500000  0.945911  0.932727  1
  B  B12  1  0.500000  0.748412  0.419365  1
  B  B13  1  0.500000  0.252291  0.581367  1
  B  B14  1  0.500000  0.247354  0.080068  1
  B  B15  1  0.500000  0.751911  0.919783  1
  B  B16  1  0.500000  0.791898  0.266213  1
  B  B17  1  0.500000  0.209437  0.734183  1
  B  B18  1  0.500000  0.289932  0.232803  1
  B  B19  1  0.500000  0.709266  0.766449  1
  B  B20  1  0.500000  0.632246  0.185761  1
  B  B21  1  0.500000  0.368210  0.815122  1
  B  B22  1  0.500000  0.131288  0.313588  1
  B  B23  1  0.500000  0.868281  0.685356  1
  B  B24  1  0.500000  0.983406  0.212020  1
  B  B25  1  0.500000  0.016473  0.787376  1
  B  B26  1  0.500000  0.484113  0.287285  1
  B  B27  1  0.500000  0.516523  0.712834  1
  B  B28  1  0.500000  0.608407  0.029988  1
  B  B29  1  0.500000  0.391395  0.970085  1
  B  B30  1  0.500000  0.104854  0.471121  1
  B  B31  1  0.500000  0.893926  0.529526  1
  Os  Os32  1  0.000000  0.639990  0.320430  1
  Ru  Ru33  1  0.000000  0.362142  0.680549  1
  Ru  Ru34  1  0.000000  0.136362  0.177146  1
  Ru  Ru35  1  0.000000  0.862245  0.821135  1
