# generated using pymatgen
data_Ac2IrN3
_symmetry_space_group_name_H-M   'P 1'
_cell_length_a   3.93124717
_cell_length_b   3.83278773
_cell_length_c   7.33790651
_cell_angle_alpha   105.13910246
_cell_angle_beta   105.53771937
_cell_angle_gamma   89.99999887
_symmetry_Int_Tables_number   1
_chemical_formula_structural   Ac2IrN3
_chemical_formula_sum   'Ac2 Ir1 N3'
_cell_volume   102.53593441
_cell_formula_units_Z   1
loop_
 _symmetry_equiv_pos_site_id
 _symmetry_equiv_pos_as_xyz
  1  'x, y, z'
loop_
 _atom_site_type_symbol
 _atom_site_label
 _atom_site_symmetry_multiplicity
 _atom_site_fract_x
 _atom_site_fract_y
 _atom_site_fract_z
 _atom_site_occupancy
  Ac  Ac0  1  0.649721  0.649722  0.299444  1
  Ac  Ac1  1  0.350278  0.350278  0.700557  1
  Ir  Ir2  1  0.000000  0.000000  0.000000  1
  N  N3  1  0.000001  0.499999  0.999999  1
  N  N4  1  0.163006  0.163006  0.326011  1
  N  N5  1  0.836993  0.836993  0.673989  1
