# generated using pymatgen
data_Pr2Co9P6Ru
_symmetry_space_group_name_H-M   'P 1'
_cell_length_a   3.72136800
_cell_length_b   10.47331600
_cell_length_c   11.87459600
_cell_angle_alpha   90.00000000
_cell_angle_beta   90.00000000
_cell_angle_gamma   90.00000000
_symmetry_Int_Tables_number   1
_chemical_formula_structural   Pr2Co9P6Ru
_chemical_formula_sum   'Pr4 Co18 P12 Ru2'
_cell_volume   462.81312739
_cell_formula_units_Z   2
loop_
 _symmetry_equiv_pos_site_id
 _symmetry_equiv_pos_as_xyz
  1  'x, y, z'
loop_
 _atom_site_type_symbol
 _atom_site_label
 _atom_site_symmetry_multiplicity
 _atom_site_fract_x
 _atom_site_fract_y
 _atom_site_fract_z
 _atom_site_occupancy
  Pr  Pr0  1  0.250000  0.582772  0.701568  1
  Pr  Pr1  1  0.250000  0.917228  0.201568  1
  Pr  Pr2  1  0.750000  0.413923  0.296566  1
  Pr  Pr3  1  0.750000  0.086077  0.796566  1
  Co  Co4  1  0.750000  0.286847  0.009778  1
  Co  Co5  1  0.750000  0.213153  0.509778  1
  Co  Co6  1  0.250000  0.405727  0.490214  1
  Co  Co7  1  0.250000  0.094273  0.990214  1
  Co  Co8  1  0.750000  0.593652  0.507612  1
  Co  Co9  1  0.750000  0.906348  0.007612  1
  Co  Co10  1  0.250000  0.220527  0.175530  1
  Co  Co11  1  0.250000  0.279473  0.675530  1
  Co  Co12  1  0.750000  0.778495  0.823944  1
  Co  Co13  1  0.750000  0.721505  0.323944  1
  Co  Co14  1  0.250000  0.885457  0.700327  1
  Co  Co15  1  0.250000  0.614543  0.200327  1
  Co  Co16  1  0.750000  0.116965  0.302760  1
  Co  Co17  1  0.750000  0.383035  0.802760  1
  Co  Co18  1  0.250000  0.465330  0.933645  1
  Co  Co19  1  0.250000  0.034670  0.433645  1
  Co  Co20  1  0.750000  0.531956  0.067684  1
  Co  Co21  1  0.750000  0.968044  0.567684  1
  P  P22  1  0.250000  0.416972  0.109495  1
  P  P23  1  0.250000  0.083028  0.609495  1
  P  P24  1  0.750000  0.578783  0.889703  1
  P  P25  1  0.750000  0.921217  0.389703  1
  P  P26  1  0.250000  0.275490  0.868965  1
  P  P27  1  0.250000  0.224510  0.368965  1
  P  P28  1  0.750000  0.723130  0.132755  1
  P  P29  1  0.750000  0.776870  0.632755  1
  P  P30  1  0.250000  0.599540  0.392264  1
  P  P31  1  0.250000  0.900460  0.892264  1
  P  P32  1  0.750000  0.392585  0.606701  1
  P  P33  1  0.750000  0.107415  0.106701  1
  Ru  Ru34  1  0.250000  0.712254  0.990488  1
  Ru  Ru35  1  0.250000  0.787746  0.490488  1
