# generated using pymatgen
data_Nd17Ho3(Ga2Pb)4
_symmetry_space_group_name_H-M   'P 1'
_cell_length_a   8.03660000
_cell_length_b   8.03660000
_cell_length_c   14.70452700
_cell_angle_alpha   90.00000000
_cell_angle_beta   90.00000000
_cell_angle_gamma   90.00000000
_symmetry_Int_Tables_number   1
_chemical_formula_structural   Nd17Ho3(Ga2Pb)4
_chemical_formula_sum   'Nd17 Ho3 Ga8 Pb4'
_cell_volume   949.72039661
_cell_formula_units_Z   1
loop_
 _symmetry_equiv_pos_site_id
 _symmetry_equiv_pos_as_xyz
  1  'x, y, z'
loop_
 _atom_site_type_symbol
 _atom_site_label
 _atom_site_symmetry_multiplicity
 _atom_site_fract_x
 _atom_site_fract_y
 _atom_site_fract_z
 _atom_site_occupancy
  Nd  Nd0  1  0.000000  0.500000  0.776082  1
  Nd  Nd1  1  0.676108  0.659029  0.607813  1
  Nd  Nd2  1  0.671854  0.339905  0.107976  1
  Nd  Nd3  1  0.826604  0.840622  0.391459  1
  Nd  Nd4  1  0.175299  0.841322  0.892022  1
  Nd  Nd5  1  0.323892  0.340971  0.607813  1
  Nd  Nd6  1  0.328146  0.660095  0.107976  1
  Nd  Nd7  1  0.173396  0.159378  0.391459  1
  Nd  Nd8  1  0.824701  0.158678  0.892022  1
  Nd  Nd9  1  0.659378  0.326604  0.391459  1
  Nd  Nd10  1  0.341322  0.324701  0.892022  1
  Nd  Nd11  1  0.159029  0.823892  0.607813  1
  Nd  Nd12  1  0.839905  0.828146  0.107976  1
  Nd  Nd13  1  0.340622  0.673396  0.391459  1
  Nd  Nd14  1  0.658678  0.675299  0.892022  1
  Nd  Nd15  1  0.840971  0.176108  0.607813  1
  Nd  Nd16  1  0.160095  0.171854  0.107976  1
  Ho  Ho17  1  0.000000  0.500000  0.263937  1
  Ho  Ho18  1  0.500000  0.000000  0.234012  1
  Ho  Ho19  1  0.500000  0.000000  0.731566  1
  Ga  Ga20  1  0.870877  0.877326  0.748545  1
  Ga  Ga21  1  0.872264  0.128207  0.250024  1
  Ga  Ga22  1  0.628207  0.627736  0.250024  1
  Ga  Ga23  1  0.377326  0.629123  0.748545  1
  Ga  Ga24  1  0.129123  0.122674  0.748545  1
  Ga  Ga25  1  0.127736  0.871793  0.250024  1
  Ga  Ga26  1  0.371793  0.372264  0.250024  1
  Ga  Ga27  1  0.622674  0.370877  0.748545  1
  Pb  Pb28  1  0.000000  0.500000  0.490552  1
  Pb  Pb29  1  0.000000  0.500000  0.000767  1
  Pb  Pb30  1  0.500000  0.000000  0.505427  1
  Pb  Pb31  1  0.500000  0.000000  0.006306  1
