# generated using pymatgen
data_Eu2In4NiRh
_symmetry_space_group_name_H-M   'P 1'
_cell_length_a   5.73257322
_cell_length_b   5.73257383
_cell_length_c   8.03037000
_cell_angle_alpha   90.00000000
_cell_angle_beta   90.00000000
_cell_angle_gamma   135.33866249
_symmetry_Int_Tables_number   1
_chemical_formula_structural   Eu2In4NiRh
_chemical_formula_sum   'Eu2 In4 Ni1 Rh1'
_cell_volume   185.49729245
_cell_formula_units_Z   1
loop_
 _symmetry_equiv_pos_site_id
 _symmetry_equiv_pos_as_xyz
  1  'x, y, z'
loop_
 _atom_site_type_symbol
 _atom_site_label
 _atom_site_symmetry_multiplicity
 _atom_site_fract_x
 _atom_site_fract_y
 _atom_site_fract_z
 _atom_site_occupancy
  Eu  Eu0  1  0.062670  0.937330  0.250000  1
  Eu  Eu1  1  0.937925  0.062075  0.750000  1
  In  In2  1  0.649438  0.350562  0.557397  1
  In  In3  1  0.349865  0.650135  0.452566  1
  In  In4  1  0.649438  0.350562  0.942603  1
  In  In5  1  0.349865  0.650135  0.047434  1
  Ni  Ni6  1  0.220344  0.779656  0.750000  1
  Rh  Rh7  1  0.780456  0.219544  0.250000  1
