# generated using pymatgen
data_CaTbDy2Sb6Rh7
_symmetry_space_group_name_H-M   'P 1'
_cell_length_a   7.60011888
_cell_length_b   7.63597168
_cell_length_c   7.63597074
_cell_angle_alpha   109.55542952
_cell_angle_beta   109.42594950
_cell_angle_gamma   109.42596296
_symmetry_Int_Tables_number   1
_chemical_formula_structural   CaTbDy2Sb6Rh7
_chemical_formula_sum   'Ca1 Tb1 Dy2 Sb6 Rh7'
_cell_volume   341.16178127
_cell_formula_units_Z   1
loop_
 _symmetry_equiv_pos_site_id
 _symmetry_equiv_pos_as_xyz
  1  'x, y, z'
loop_
 _atom_site_type_symbol
 _atom_site_label
 _atom_site_symmetry_multiplicity
 _atom_site_fract_x
 _atom_site_fract_y
 _atom_site_fract_z
 _atom_site_occupancy
  Ca  Ca0  1  0.500000  0.000000  0.000000  1
  Tb  Tb1  1  0.500000  0.500000  0.500000  1
  Dy  Dy2  1  0.000000  0.500000  0.000000  1
  Dy  Dy3  1  0.000000  0.000000  0.500000  1
  Sb  Sb4  1  0.996948  0.316381  0.316381  1
  Sb  Sb5  1  0.681465  0.000842  0.683522  1
  Sb  Sb6  1  0.681465  0.683522  0.000842  1
  Sb  Sb7  1  0.003052  0.683619  0.683619  1
  Sb  Sb8  1  0.318535  0.999158  0.316478  1
  Sb  Sb9  1  0.318535  0.316478  0.999158  1
  Rh  Rh10  1  0.000000  0.000000  0.000000  1
  Rh  Rh11  1  0.500000  0.746313  0.253687  1
  Rh  Rh12  1  0.753510  0.507068  0.253675  1
  Rh  Rh13  1  0.246490  0.746325  0.492932  1
  Rh  Rh14  1  0.246490  0.492932  0.746325  1
  Rh  Rh15  1  0.500000  0.253687  0.746313  1
  Rh  Rh16  1  0.753510  0.253675  0.507068  1
