# generated using pymatgen
data_Ho4NbRu6W
_symmetry_space_group_name_H-M   'P 1'
_cell_length_a   5.58933001
_cell_length_b   5.17927709
_cell_length_c   9.14763600
_cell_angle_alpha   90.00000000
_cell_angle_beta   90.00000000
_cell_angle_gamma   122.85413209
_symmetry_Int_Tables_number   1
_chemical_formula_structural   Ho4NbRu6W
_chemical_formula_sum   'Ho4 Nb1 Ru6 W1'
_cell_volume   222.45655184
_cell_formula_units_Z   1
loop_
 _symmetry_equiv_pos_site_id
 _symmetry_equiv_pos_as_xyz
  1  'x, y, z'
loop_
 _atom_site_type_symbol
 _atom_site_label
 _atom_site_symmetry_multiplicity
 _atom_site_fract_x
 _atom_site_fract_y
 _atom_site_fract_z
 _atom_site_occupancy
  Ho  Ho0  1  0.670401  0.341090  0.568637  1
  Ho  Ho1  1  0.330118  0.660180  0.435686  1
  Ho  Ho2  1  0.330118  0.660180  0.064314  1
  Ho  Ho3  1  0.670401  0.341090  0.931363  1
  Nb  Nb4  1  0.842861  0.684715  0.250000  1
  Ru  Ru5  1  0.003952  0.008259  0.502920  1
  Ru  Ru6  1  0.003952  0.008259  0.997080  1
  Ru  Ru7  1  0.169205  0.813612  0.750000  1
  Ru  Ru8  1  0.644576  0.813787  0.750000  1
  Ru  Ru9  1  0.829677  0.179949  0.250000  1
  Ru  Ru10  1  0.350541  0.180153  0.250000  1
  W  W11  1  0.154198  0.308725  0.750000  1
