# generated using pymatgen
data_La2Cu3NiP4
_symmetry_space_group_name_H-M   'P 1'
_cell_length_a   4.17911100
_cell_length_b   4.17911100
_cell_length_c   9.42580700
_cell_angle_alpha   90.00000000
_cell_angle_beta   90.00000000
_cell_angle_gamma   90.00000000
_symmetry_Int_Tables_number   1
_chemical_formula_structural   La2Cu3NiP4
_chemical_formula_sum   'La2 Cu3 Ni1 P4'
_cell_volume   164.62142470
_cell_formula_units_Z   1
loop_
 _symmetry_equiv_pos_site_id
 _symmetry_equiv_pos_as_xyz
  1  'x, y, z'
loop_
 _atom_site_type_symbol
 _atom_site_label
 _atom_site_symmetry_multiplicity
 _atom_site_fract_x
 _atom_site_fract_y
 _atom_site_fract_z
 _atom_site_occupancy
  La  La0  1  0.000000  0.500001  0.241847  1
  La  La1  1  0.500001  0.000000  0.750772  1
  Cu  Cu2  1  0.500001  0.000000  0.117023  1
  Cu  Cu3  1  0.000000  0.000000  0.499907  1
  Cu  Cu4  1  0.500001  0.500001  0.499907  1
  Ni  Ni5  1  0.000000  0.500001  0.892318  1
  P  P6  1  0.000000  0.000000  0.995412  1
  P  P7  1  0.500001  0.500001  0.995412  1
  P  P8  1  0.500001  0.000000  0.367291  1
  P  P9  1  0.000000  0.500001  0.640113  1
