# generated using pymatgen
data_NdPu(Ni2B)12
_symmetry_space_group_name_H-M   'P 1'
_cell_length_a   6.04517043
_cell_length_b   6.04517043
_cell_length_c   10.99022777
_cell_angle_alpha   90.04092160
_cell_angle_beta   90.04093082
_cell_angle_gamma   104.76435888
_symmetry_Int_Tables_number   1
_chemical_formula_structural   NdPu(Ni2B)12
_chemical_formula_sum   'Nd1 Pu1 Ni24 B12'
_cell_volume   388.36665176
_cell_formula_units_Z   1
loop_
 _symmetry_equiv_pos_site_id
 _symmetry_equiv_pos_as_xyz
  1  'x, y, z'
loop_
 _atom_site_type_symbol
 _atom_site_label
 _atom_site_symmetry_multiplicity
 _atom_site_fract_x
 _atom_site_fract_y
 _atom_site_fract_z
 _atom_site_occupancy
  Nd  Nd0  1  0.166852  0.166852  0.998365  1
  Pu  Pu1  1  0.833526  0.833526  0.497354  1
  Ni  Ni2  1  0.568143  0.568143  0.917108  1
  Ni  Ni3  1  0.433876  0.433876  0.418222  1
  Ni  Ni4  1  0.778220  0.778220  0.099200  1
  Ni  Ni5  1  0.218929  0.218929  0.598516  1
  Ni  Ni6  1  0.542982  0.805137  0.733766  1
  Ni  Ni7  1  0.805137  0.542982  0.733766  1
  Ni  Ni8  1  0.457921  0.195156  0.234675  1
  Ni  Ni9  1  0.195156  0.457921  0.234675  1
  Ni  Ni10  1  0.146106  0.880553  0.755075  1
  Ni  Ni11  1  0.880553  0.146106  0.755075  1
  Ni  Ni12  1  0.853645  0.118717  0.255890  1
  Ni  Ni13  1  0.118717  0.853645  0.255890  1
  Ni  Ni14  1  0.658093  0.270841  0.567453  1
  Ni  Ni15  1  0.270841  0.658093  0.567453  1
  Ni  Ni16  1  0.342624  0.728447  0.067873  1
  Ni  Ni17  1  0.728447  0.342624  0.067873  1
  Ni  Ni18  1  0.630101  0.995771  0.937074  1
  Ni  Ni19  1  0.995771  0.630101  0.937074  1
  Ni  Ni20  1  0.369944  0.003809  0.437187  1
  Ni  Ni21  1  0.003809  0.369944  0.437187  1
  Ni  Ni22  1  0.474790  0.212063  0.774744  1
  Ni  Ni23  1  0.212063  0.474790  0.774744  1
  Ni  Ni24  1  0.526779  0.788333  0.276632  1
  Ni  Ni25  1  0.788333  0.526779  0.276632  1
  B  B26  1  0.836288  0.836288  0.835969  1
  B  B27  1  0.163162  0.163162  0.337103  1
  B  B28  1  0.487974  0.487974  0.655449  1
  B  B29  1  0.512558  0.512558  0.157098  1
  B  B30  1  0.325380  0.754640  0.885306  1
  B  B31  1  0.754640  0.325380  0.885306  1
  B  B32  1  0.674280  0.242863  0.385464  1
  B  B33  1  0.242863  0.674280  0.385464  1
  B  B34  1  0.400594  0.987532  0.622171  1
  B  B35  1  0.987532  0.400594  0.622171  1
  B  B36  1  0.600657  0.012712  0.122500  1
  B  B37  1  0.012712  0.600657  0.122500  1
