# generated using pymatgen
data_SrBiIrO6
_symmetry_space_group_name_H-M   'P 1'
_cell_length_a   5.56306332
_cell_length_b   5.56151235
_cell_length_c   5.29213101
_cell_angle_alpha   90.00935029
_cell_angle_beta   89.97727785
_cell_angle_gamma   120.00793119
_symmetry_Int_Tables_number   1
_chemical_formula_structural   SrBiIrO6
_chemical_formula_sum   'Sr1 Bi1 Ir1 O6'
_cell_volume   141.78600926
_cell_formula_units_Z   1
loop_
 _symmetry_equiv_pos_site_id
 _symmetry_equiv_pos_as_xyz
  1  'x, y, z'
loop_
 _atom_site_type_symbol
 _atom_site_label
 _atom_site_symmetry_multiplicity
 _atom_site_fract_x
 _atom_site_fract_y
 _atom_site_fract_z
 _atom_site_occupancy
  Sr  Sr0  1  0.999947  0.999927  0.000939  1
  Bi  Bi1  1  0.333255  0.666556  0.500750  1
  Ir  Ir2  1  0.666672  0.333362  0.499723  1
  O  O3  1  0.651796  0.035358  0.291103  1
  O  O4  1  0.384258  0.348602  0.290754  1
  O  O5  1  0.964793  0.616087  0.290917  1
  O  O6  1  0.382476  0.036222  0.708438  1
  O  O7  1  0.963504  0.346630  0.708773  1
  O  O8  1  0.653296  0.617254  0.708603  1
