# generated using pymatgen
data_ScTiZnCo5B2
_symmetry_space_group_name_H-M   'P 1'
_cell_length_a   8.63956800
_cell_length_b   8.64760300
_cell_length_c   2.94569100
_cell_angle_alpha   90.00000000
_cell_angle_beta   90.00000000
_cell_angle_gamma   90.00000000
_symmetry_Int_Tables_number   1
_chemical_formula_structural   ScTiZnCo5B2
_chemical_formula_sum   'Sc2 Ti2 Zn2 Co10 B4'
_cell_volume   220.07715267
_cell_formula_units_Z   2
loop_
 _symmetry_equiv_pos_site_id
 _symmetry_equiv_pos_as_xyz
  1  'x, y, z'
loop_
 _atom_site_type_symbol
 _atom_site_label
 _atom_site_symmetry_multiplicity
 _atom_site_fract_x
 _atom_site_fract_y
 _atom_site_fract_z
 _atom_site_occupancy
  Sc  Sc0  1  0.822960  0.324981  0.000000  1
  Sc  Sc1  1  0.322960  0.175019  0.000000  1
  Ti  Ti2  1  0.674260  0.824279  0.000000  1
  Ti  Ti3  1  0.174260  0.675721  0.000000  1
  Zn  Zn4  1  0.003214  0.004642  0.000000  1
  Zn  Zn5  1  0.503214  0.495358  0.000000  1
  Co  Co6  1  0.501842  0.990810  0.500000  1
  Co  Co7  1  0.001842  0.509190  0.500000  1
  Co  Co8  1  0.069042  0.228270  0.500000  1
  Co  Co9  1  0.220379  0.918383  0.500000  1
  Co  Co10  1  0.776397  0.057469  0.500000  1
  Co  Co11  1  0.930792  0.783640  0.500000  1
  Co  Co12  1  0.430792  0.716360  0.500000  1
  Co  Co13  1  0.569042  0.271730  0.500000  1
  Co  Co14  1  0.720379  0.581617  0.500000  1
  Co  Co15  1  0.276397  0.442531  0.500000  1
  B  B16  1  0.622048  0.114620  0.000000  1
  B  B17  1  0.122048  0.385380  0.000000  1
  B  B18  1  0.879067  0.628706  0.000000  1
  B  B19  1  0.379067  0.871294  0.000000  1
