# generated using pymatgen
data_PrTh7TiSe17
_symmetry_space_group_name_H-M   'P 1'
_cell_length_a   8.47303922
_cell_length_b   8.45730490
_cell_length_c   11.22697337
_cell_angle_alpha   80.60737068
_cell_angle_beta   80.58898173
_cell_angle_gamma   65.05615140
_symmetry_Int_Tables_number   1
_chemical_formula_structural   PrTh7TiSe17
_chemical_formula_sum   'Pr1 Th7 Ti1 Se17'
_cell_volume   715.64761211
_cell_formula_units_Z   1
loop_
 _symmetry_equiv_pos_site_id
 _symmetry_equiv_pos_as_xyz
  1  'x, y, z'
loop_
 _atom_site_type_symbol
 _atom_site_label
 _atom_site_symmetry_multiplicity
 _atom_site_fract_x
 _atom_site_fract_y
 _atom_site_fract_z
 _atom_site_occupancy
  Pr  Pr0  1  0.812776  0.302350  0.297385  1
  Th  Th1  1  0.300289  0.814543  0.294346  1
  Th  Th2  1  0.185657  0.699523  0.702981  1
  Th  Th3  1  0.699693  0.186400  0.703150  1
  Th  Th4  1  0.203482  0.203757  0.542185  1
  Th  Th5  1  0.795482  0.796506  0.455827  1
  Th  Th6  1  0.682059  0.681711  0.982659  1
  Th  Th7  1  0.317799  0.316800  0.020442  1
  Ti  Ti8  1  0.000279  0.002100  0.001518  1
  Se  Se9  1  0.823510  0.432746  0.535466  1
  Se  Se10  1  0.431999  0.820696  0.531351  1
  Se  Se11  1  0.178148  0.567618  0.468759  1
  Se  Se12  1  0.567523  0.174754  0.472385  1
  Se  Se13  1  0.944852  0.322616  0.023763  1
  Se  Se14  1  0.323593  0.943186  0.026486  1
  Se  Se15  1  0.056652  0.678051  0.971092  1
  Se  Se16  1  0.676869  0.057960  0.971775  1
  Se  Se17  1  0.214857  0.205239  0.276886  1
  Se  Se18  1  0.791369  0.790975  0.723998  1
  Se  Se19  1  0.061395  0.059867  0.772936  1
  Se  Se20  1  0.941488  0.933980  0.226869  1
  Se  Se21  1  0.303472  0.304918  0.754572  1
  Se  Se22  1  0.691902  0.702292  0.244239  1
  Se  Se23  1  0.519606  0.521024  0.833094  1
  Se  Se24  1  0.473714  0.484424  0.163123  1
  Se  Se25  1  0.001532  0.995961  0.502714  1
