# generated using pymatgen
data_Er8Hf12Si15Os
_symmetry_space_group_name_H-M   'P 1'
_cell_length_a   7.26249284
_cell_length_b   7.26268943
_cell_length_c   13.34613925
_cell_angle_alpha   89.86041859
_cell_angle_beta   89.86510813
_cell_angle_gamma   90.03818954
_symmetry_Int_Tables_number   1
_chemical_formula_structural   Er8Hf12Si15Os
_chemical_formula_sum   'Er8 Hf12 Si15 Os1'
_cell_volume   703.94098589
_cell_formula_units_Z   1
loop_
 _symmetry_equiv_pos_site_id
 _symmetry_equiv_pos_as_xyz
  1  'x, y, z'
loop_
 _atom_site_type_symbol
 _atom_site_label
 _atom_site_symmetry_multiplicity
 _atom_site_fract_x
 _atom_site_fract_y
 _atom_site_fract_z
 _atom_site_occupancy
  Er  Er0  1  0.997077  0.346930  0.214854  1
  Er  Er1  1  0.004254  0.655101  0.714596  1
  Er  Er2  1  0.158071  0.495395  0.463395  1
  Er  Er3  1  0.503790  0.843619  0.034218  1
  Er  Er4  1  0.844819  0.502615  0.965246  1
  Er  Er5  1  0.496392  0.158188  0.534493  1
  Er  Er6  1  0.343995  0.996671  0.784803  1
  Er  Er7  1  0.654740  0.003213  0.284666  1
  Hf  Hf8  1  0.175617  0.174230  0.998307  1
  Hf  Hf9  1  0.826945  0.826056  0.500590  1
  Hf  Hf10  1  0.324839  0.665147  0.253050  1
  Hf  Hf11  1  0.674301  0.325477  0.750338  1
  Hf  Hf12  1  0.154796  0.004381  0.373267  1
  Hf  Hf13  1  0.850970  0.003200  0.874995  1
  Hf  Hf14  1  0.503170  0.650177  0.626335  1
  Hf  Hf15  1  0.351838  0.497115  0.873126  1
  Hf  Hf16  1  0.495092  0.346202  0.128042  1
  Hf  Hf17  1  0.644146  0.498506  0.377383  1
  Hf  Hf18  1  0.997766  0.148414  0.625766  1
  Hf  Hf19  1  0.999463  0.849075  0.124346  1
  Si  Si20  1  0.639939  0.705251  0.819411  1
  Si  Si21  1  0.206031  0.860577  0.568054  1
  Si  Si22  1  0.139033  0.795536  0.932300  1
  Si  Si23  1  0.796878  0.138483  0.066570  1
  Si  Si24  1  0.860897  0.200638  0.434635  1
  Si  Si25  1  0.295840  0.360765  0.682624  1
  Si  Si26  1  0.703529  0.640776  0.181483  1
  Si  Si27  1  0.291357  0.045406  0.183248  1
  Si  Si28  1  0.703991  0.951710  0.685658  1
  Si  Si29  1  0.452828  0.799394  0.438649  1
  Si  Si30  1  0.204880  0.550693  0.061077  1
  Si  Si31  1  0.548000  0.203360  0.935196  1
  Si  Si32  1  0.796953  0.452128  0.566108  1
  Si  Si33  1  0.047569  0.296858  0.814451  1
  Si  Si34  1  0.947016  0.709079  0.314098  1
  Os  Os35  1  0.363179  0.299635  0.314619  1
