# generated using pymatgen
data_Nd8ReTc3C8
_symmetry_space_group_name_H-M   'P 1'
_cell_length_a   5.34868700
_cell_length_b   6.72188915
_cell_length_c   10.22093723
_cell_angle_alpha   90.02452296
_cell_angle_beta   90.00000000
_cell_angle_gamma   90.00000000
_symmetry_Int_Tables_number   1
_chemical_formula_structural   Nd8ReTc3C8
_chemical_formula_sum   'Nd8 Re1 Tc3 C8'
_cell_volume   367.47619616
_cell_formula_units_Z   1
loop_
 _symmetry_equiv_pos_site_id
 _symmetry_equiv_pos_as_xyz
  1  'x, y, z'
loop_
 _atom_site_type_symbol
 _atom_site_label
 _atom_site_symmetry_multiplicity
 _atom_site_fract_x
 _atom_site_fract_y
 _atom_site_fract_z
 _atom_site_occupancy
  Nd  Nd0  1  0.250000  0.473524  0.785493  1
  Nd  Nd1  1  0.750000  0.025912  0.286088  1
  Nd  Nd2  1  0.250000  0.974088  0.713442  1
  Nd  Nd3  1  0.750000  0.525393  0.213826  1
  Nd  Nd4  1  0.250000  0.812811  0.052043  1
  Nd  Nd5  1  0.750000  0.686369  0.551719  1
  Nd  Nd6  1  0.250000  0.313141  0.447656  1
  Nd  Nd7  1  0.750000  0.188005  0.947449  1
  Re  Re8  1  0.750000  0.729075  0.858195  1
  Tc  Tc9  1  0.250000  0.270827  0.141829  1
  Tc  Tc10  1  0.750000  0.229340  0.641713  1
  Tc  Tc11  1  0.250000  0.771015  0.358045  1
  C  C12  1  0.250000  0.686848  0.536869  1
  C  C13  1  0.750000  0.813086  0.038142  1
  C  C14  1  0.250000  0.186616  0.963158  1
  C  C15  1  0.750000  0.313364  0.463008  1
  C  C16  1  0.250000  0.034790  0.257190  1
  C  C17  1  0.750000  0.466212  0.758303  1
  C  C18  1  0.250000  0.535188  0.242648  1
  C  C19  1  0.750000  0.964396  0.743183  1
