# generated using pymatgen
data_HoLu3(Si5Os3)2
_symmetry_space_group_name_H-M   'P 1'
_cell_length_a   8.10444374
_cell_length_b   8.09900864
_cell_length_c   5.75003490
_cell_angle_alpha   70.67979165
_cell_angle_beta   70.62443301
_cell_angle_gamma   94.21020430
_symmetry_Int_Tables_number   1
_chemical_formula_structural   HoLu3(Si5Os3)2
_chemical_formula_sum   'Ho1 Lu3 Si10 Os6'
_cell_volume   328.80453724
_cell_formula_units_Z   1
loop_
 _symmetry_equiv_pos_site_id
 _symmetry_equiv_pos_as_xyz
  1  'x, y, z'
loop_
 _atom_site_type_symbol
 _atom_site_label
 _atom_site_symmetry_multiplicity
 _atom_site_fract_x
 _atom_site_fract_y
 _atom_site_fract_z
 _atom_site_occupancy
  Ho  Ho0  1  0.867892  0.602061  0.752555  1
  Lu  Lu1  1  0.400599  0.129152  0.747087  1
  Lu  Lu2  1  0.130055  0.399847  0.246551  1
  Lu  Lu3  1  0.600729  0.868435  0.254676  1
  Si  Si4  1  0.071101  0.261644  0.832653  1
  Si  Si5  1  0.737252  0.932931  0.667892  1
  Si  Si6  1  0.930950  0.738618  0.166595  1
  Si  Si7  1  0.261741  0.069802  0.333056  1
  Si  Si8  1  0.206090  0.794615  0.749852  1
  Si  Si9  1  0.794037  0.205407  0.251103  1
  Si  Si10  1  0.511563  0.485723  0.750206  1
  Si  Si11  1  0.486688  0.511801  0.250046  1
  Si  Si12  1  0.775407  0.224273  0.749418  1
  Si  Si13  1  0.224897  0.775408  0.249397  1
  Os  Os14  1  0.255488  0.544294  0.630806  1
  Os  Os15  1  0.455492  0.744782  0.868517  1
  Os  Os16  1  0.744719  0.455482  0.369027  1
  Os  Os17  1  0.544458  0.253769  0.131276  1
  Os  Os18  1  0.003061  0.998501  0.749456  1
  Os  Os19  1  0.997786  0.003453  0.249831  1
