# generated using pymatgen
data_Tb11ThSi11Ir
_symmetry_space_group_name_H-M   'P 1'
_cell_length_a   3.87853700
_cell_length_b   5.75246096
_cell_length_c   23.82968800
_cell_angle_alpha   82.73173239
_cell_angle_beta   90.00000000
_cell_angle_gamma   90.00000000
_symmetry_Int_Tables_number   1
_chemical_formula_structural   Tb11ThSi11Ir
_chemical_formula_sum   'Tb11 Th1 Si11 Ir1'
_cell_volume   527.39520461
_cell_formula_units_Z   1
loop_
 _symmetry_equiv_pos_site_id
 _symmetry_equiv_pos_as_xyz
  1  'x, y, z'
loop_
 _atom_site_type_symbol
 _atom_site_label
 _atom_site_symmetry_multiplicity
 _atom_site_fract_x
 _atom_site_fract_y
 _atom_site_fract_z
 _atom_site_occupancy
  Tb  Tb0  1  0.250000  0.657827  0.939028  1
  Tb  Tb1  1  0.750000  0.526204  0.224317  1
  Tb  Tb2  1  0.250000  0.468258  0.772614  1
  Tb  Tb3  1  0.750000  0.166809  0.394141  1
  Tb  Tb4  1  0.250000  0.825372  0.606786  1
  Tb  Tb5  1  0.750000  0.350603  0.559565  1
  Tb  Tb6  1  0.250000  0.641963  0.441054  1
  Tb  Tb7  1  0.750000  0.993481  0.726048  1
  Tb  Tb8  1  0.250000  0.995993  0.274949  1
  Tb  Tb9  1  0.750000  0.169425  0.891510  1
  Tb  Tb10  1  0.250000  0.836271  0.107029  1
  Th  Th11  1  0.750000  0.359025  0.064570  1
  Si  Si12  1  0.750000  0.879091  0.009861  1
  Si  Si13  1  0.250000  0.145697  0.985474  1
  Si  Si14  1  0.750000  0.046108  0.181286  1
  Si  Si15  1  0.250000  0.952509  0.820188  1
  Si  Si16  1  0.750000  0.701563  0.346904  1
  Si  Si17  1  0.250000  0.288659  0.653900  1
  Si  Si18  1  0.750000  0.863602  0.512671  1
  Si  Si19  1  0.250000  0.130130  0.487810  1
  Si  Si20  1  0.750000  0.530307  0.678437  1
  Si  Si21  1  0.250000  0.462533  0.322301  1
  Si  Si22  1  0.750000  0.683688  0.844923  1
  Ir  Ir23  1  0.250000  0.324883  0.154630  1
