# generated using pymatgen
data_Tb3Gd3(Lu2Pb3)2
_symmetry_space_group_name_H-M   'P 1'
_cell_length_a   9.03354800
_cell_length_b   9.03354882
_cell_length_c   6.55111100
_cell_angle_alpha   90.00000000
_cell_angle_beta   90.00000000
_cell_angle_gamma   119.99999700
_symmetry_Int_Tables_number   1
_chemical_formula_structural   Tb3Gd3(Lu2Pb3)2
_chemical_formula_sum   'Tb3 Gd3 Lu4 Pb6'
_cell_volume   462.98013296
_cell_formula_units_Z   1
loop_
 _symmetry_equiv_pos_site_id
 _symmetry_equiv_pos_as_xyz
  1  'x, y, z'
loop_
 _atom_site_type_symbol
 _atom_site_label
 _atom_site_symmetry_multiplicity
 _atom_site_fract_x
 _atom_site_fract_y
 _atom_site_fract_z
 _atom_site_occupancy
  Tb  Tb0  1  0.761643  0.761643  0.750000  1
  Tb  Tb1  1  0.238357  0.000000  0.750000  1
  Tb  Tb2  1  0.000000  0.238357  0.750000  1
  Gd  Gd3  1  0.238802  0.238802  0.250000  1
  Gd  Gd4  1  0.761198  0.000000  0.250000  1
  Gd  Gd5  1  0.000000  0.761198  0.250000  1
  Lu  Lu6  1  0.666667  0.333333  0.000037  1
  Lu  Lu7  1  0.333333  0.666667  0.000037  1
  Lu  Lu8  1  0.333333  0.666667  0.499963  1
  Lu  Lu9  1  0.666667  0.333333  0.499963  1
  Pb  Pb10  1  0.396643  0.396643  0.750000  1
  Pb  Pb11  1  0.603357  0.000000  0.750000  1
  Pb  Pb12  1  0.000000  0.603357  0.750000  1
  Pb  Pb13  1  0.602870  0.602870  0.250000  1
  Pb  Pb14  1  0.397130  0.000000  0.250000  1
  Pb  Pb15  1  0.000000  0.397130  0.250000  1
