# generated using pymatgen
data_Tb13Dy7Co3TcBi8
_symmetry_space_group_name_H-M   'P 1'
_cell_length_a   8.02563781
_cell_length_b   8.96472219
_cell_length_c   12.48288054
_cell_angle_alpha   89.98325967
_cell_angle_beta   90.20599060
_cell_angle_gamma   90.01658964
_symmetry_Int_Tables_number   1
_chemical_formula_structural   Tb13Dy7Co3TcBi8
_chemical_formula_sum   'Tb13 Dy7 Co3 Tc1 Bi8'
_cell_volume   898.10758338
_cell_formula_units_Z   1
loop_
 _symmetry_equiv_pos_site_id
 _symmetry_equiv_pos_as_xyz
  1  'x, y, z'
loop_
 _atom_site_type_symbol
 _atom_site_label
 _atom_site_symmetry_multiplicity
 _atom_site_fract_x
 _atom_site_fract_y
 _atom_site_fract_z
 _atom_site_occupancy
  Tb  Tb0  1  0.846794  0.750114  0.798455  1
  Tb  Tb1  1  0.150202  0.249936  0.198861  1
  Tb  Tb2  1  0.348413  0.249954  0.699602  1
  Tb  Tb3  1  0.651386  0.750020  0.294733  1
  Tb  Tb4  1  0.381407  0.749998  0.693512  1
  Tb  Tb5  1  0.618087  0.250001  0.309138  1
  Tb  Tb6  1  0.881123  0.249865  0.810125  1
  Tb  Tb7  1  0.116742  0.750226  0.187750  1
  Tb  Tb8  1  0.948302  0.750015  0.504000  1
  Tb  Tb9  1  0.050591  0.250005  0.495970  1
  Tb  Tb10  1  0.451975  0.249903  0.997094  1
  Tb  Tb11  1  0.549180  0.750092  0.003264  1
  Tb  Tb12  1  0.175849  0.534434  0.937020  1
  Dy  Dy13  1  0.677751  0.043977  0.564845  1
  Dy  Dy14  1  0.325397  0.966431  0.438104  1
  Dy  Dy15  1  0.174808  0.965514  0.937122  1
  Dy  Dy16  1  0.325357  0.533554  0.438146  1
  Dy  Dy17  1  0.823863  0.037026  0.062846  1
  Dy  Dy18  1  0.677743  0.456040  0.564857  1
  Dy  Dy19  1  0.823460  0.463012  0.062949  1
  Co  Co20  1  0.429585  0.250001  0.489445  1
  Co  Co21  1  0.059845  0.249689  0.991665  1
  Co  Co22  1  0.936945  0.750354  0.007007  1
  Tc  Tc23  1  0.575409  0.749985  0.512455  1
  Bi  Bi24  1  0.572426  0.491857  0.827056  1
  Bi  Bi25  1  0.426102  0.507512  0.173238  1
  Bi  Bi26  1  0.073481  0.507917  0.673739  1
  Bi  Bi27  1  0.426163  0.992469  0.173183  1
  Bi  Bi28  1  0.928020  0.492311  0.326331  1
  Bi  Bi29  1  0.571980  0.008072  0.827180  1
  Bi  Bi30  1  0.928035  0.007671  0.326360  1
  Bi  Bi31  1  0.073583  0.992045  0.673941  1
