# generated using pymatgen
data_LiLaYbZnBi4
_symmetry_space_group_name_H-M   'P 1'
_cell_length_a   4.57468800
_cell_length_b   4.59493800
_cell_length_c   10.68712600
_cell_angle_alpha   90.00000000
_cell_angle_beta   90.00000000
_cell_angle_gamma   90.00000000
_symmetry_Int_Tables_number   1
_chemical_formula_structural   LiLaYbZnBi4
_chemical_formula_sum   'Li1 La1 Yb1 Zn1 Bi4'
_cell_volume   224.64774597
_cell_formula_units_Z   1
loop_
 _symmetry_equiv_pos_site_id
 _symmetry_equiv_pos_as_xyz
  1  'x, y, z'
loop_
 _atom_site_type_symbol
 _atom_site_label
 _atom_site_symmetry_multiplicity
 _atom_site_fract_x
 _atom_site_fract_y
 _atom_site_fract_z
 _atom_site_occupancy
  Li  Li0  1  0.500000  0.500000  0.003418  1
  La  La1  1  0.500000  0.000000  0.743405  1
  Yb  Yb2  1  0.000000  0.500000  0.253327  1
  Zn  Zn3  1  0.000000  0.000000  0.004589  1
  Bi  Bi4  1  0.000000  0.500000  0.832557  1
  Bi  Bi5  1  0.500000  0.000000  0.163794  1
  Bi  Bi6  1  0.000000  0.000000  0.498638  1
  Bi  Bi7  1  0.500000  0.500000  0.500272  1
