# generated using pymatgen
data_YbGd(Zn10Cu)2
_symmetry_space_group_name_H-M   'P 1'
_cell_length_a   8.22659960
_cell_length_b   8.22659814
_cell_length_c   8.21428800
_cell_angle_alpha   99.89635462
_cell_angle_beta   99.89635286
_cell_angle_gamma   131.05967284
_symmetry_Int_Tables_number   1
_chemical_formula_structural   YbGd(Zn10Cu)2
_chemical_formula_sum   'Yb1 Gd1 Zn20 Cu2'
_cell_volume   381.39164353
_cell_formula_units_Z   1
loop_
 _symmetry_equiv_pos_site_id
 _symmetry_equiv_pos_as_xyz
  1  'x, y, z'
loop_
 _atom_site_type_symbol
 _atom_site_label
 _atom_site_symmetry_multiplicity
 _atom_site_fract_x
 _atom_site_fract_y
 _atom_site_fract_z
 _atom_site_occupancy
  Yb  Yb0  1  0.749718  0.250282  0.500000  1
  Gd  Gd1  1  0.501715  0.498285  0.000000  1
  Zn  Zn2  1  0.405392  0.078059  0.086689  1
  Zn  Zn3  1  0.989960  0.314221  0.918464  1
  Zn  Zn4  1  0.263008  0.673322  0.828613  1
  Zn  Zn5  1  0.852132  0.430652  0.176216  1
  Zn  Zn6  1  0.921941  0.594608  0.913311  1
  Zn  Zn7  1  0.685779  0.010040  0.081536  1
  Zn  Zn8  1  0.326678  0.736992  0.171387  1
  Zn  Zn9  1  0.569348  0.147868  0.823784  1
  Zn  Zn10  1  0.842472  0.670832  0.413272  1
  Zn  Zn11  1  0.259869  0.434456  0.582250  1
  Zn  Zn12  1  0.986398  0.076232  0.672554  1
  Zn  Zn13  1  0.395306  0.317546  0.322813  1
  Zn  Zn14  1  0.329168  0.157528  0.586728  1
  Zn  Zn15  1  0.565544  0.740131  0.417750  1
  Zn  Zn16  1  0.923768  0.013602  0.327446  1
  Zn  Zn17  1  0.682454  0.604694  0.677187  1
  Zn  Zn18  1  0.254500  0.745500  0.500000  1
  Zn  Zn19  1  0.995412  0.004588  0.000000  1
  Zn  Zn20  1  0.126016  0.875256  0.749047  1
  Zn  Zn21  1  0.124744  0.873984  0.250953  1
  Cu  Cu22  1  0.125686  0.377010  0.251243  1
  Cu  Cu23  1  0.622990  0.874314  0.748757  1
