# generated using pymatgen
data_CaSc3(ZnSn)4
_symmetry_space_group_name_H-M   'P 1'
_cell_length_a   4.45944100
_cell_length_b   4.45944158
_cell_length_c   15.33415500
_cell_angle_alpha   90.00000000
_cell_angle_beta   90.00000000
_cell_angle_gamma   120.00001793
_symmetry_Int_Tables_number   1
_chemical_formula_structural   CaSc3(ZnSn)4
_chemical_formula_sum   'Ca1 Sc3 Zn4 Sn4'
_cell_volume   264.08960302
_cell_formula_units_Z   1
loop_
 _symmetry_equiv_pos_site_id
 _symmetry_equiv_pos_as_xyz
  1  'x, y, z'
loop_
 _atom_site_type_symbol
 _atom_site_label
 _atom_site_symmetry_multiplicity
 _atom_site_fract_x
 _atom_site_fract_y
 _atom_site_fract_z
 _atom_site_occupancy
  Ca  Ca0  1  0.000000  0.000000  0.000000  1
  Sc  Sc1  1  0.000000  0.000000  0.259419  1
  Sc  Sc2  1  0.000000  0.000000  0.740581  1
  Sc  Sc3  1  0.000000  0.000000  0.500000  1
  Zn  Zn4  1  0.333333  0.666667  0.173471  1
  Zn  Zn5  1  0.666667  0.333333  0.826529  1
  Zn  Zn6  1  0.666667  0.333333  0.656271  1
  Zn  Zn7  1  0.333333  0.666667  0.343729  1
  Sn  Sn8  1  0.333333  0.666667  0.603256  1
  Sn  Sn9  1  0.666667  0.333333  0.396744  1
  Sn  Sn10  1  0.666667  0.333333  0.126639  1
  Sn  Sn11  1  0.333333  0.666667  0.873361  1
