# generated using pymatgen
data_Nb6Ni4MoWN2
_symmetry_space_group_name_H-M   'P 1'
_cell_length_a   8.17571509
_cell_length_b   8.17750262
_cell_length_c   8.17571509
_cell_angle_alpha   59.99277101
_cell_angle_beta   59.98741482
_cell_angle_gamma   59.99276796
_symmetry_Int_Tables_number   1
_chemical_formula_structural   Nb6Ni4MoWN2
_chemical_formula_sum   'Nb12 Ni8 Mo2 W2 N4'
_cell_volume   386.42783692
_cell_formula_units_Z   2
loop_
 _symmetry_equiv_pos_site_id
 _symmetry_equiv_pos_as_xyz
  1  'x, y, z'
loop_
 _atom_site_type_symbol
 _atom_site_label
 _atom_site_symmetry_multiplicity
 _atom_site_fract_x
 _atom_site_fract_y
 _atom_site_fract_z
 _atom_site_occupancy
  Nb  Nb0  1  0.312524  0.687606  0.687518  1
  Nb  Nb1  1  0.562482  0.562394  0.937476  1
  Nb  Nb2  1  0.312389  0.687611  0.312389  1
  Nb  Nb3  1  0.312524  0.312353  0.687518  1
  Nb  Nb4  1  0.687518  0.312353  0.312524  1
  Nb  Nb5  1  0.937476  0.937647  0.562482  1
  Nb  Nb6  1  0.937611  0.562389  0.937611  1
  Nb  Nb7  1  0.937476  0.562394  0.562482  1
  Nb  Nb8  1  0.562482  0.937647  0.937476  1
  Nb  Nb9  1  0.687518  0.687606  0.312524  1
  Nb  Nb10  1  0.687511  0.312489  0.687511  1
  Nb  Nb11  1  0.562489  0.937511  0.562489  1
  Ni  Ni12  1  0.011319  0.329597  0.329488  1
  Ni  Ni13  1  0.920457  0.920343  0.920457  1
  Ni  Ni14  1  0.329488  0.329597  0.011319  1
  Ni  Ni15  1  0.920512  0.920403  0.238681  1
  Ni  Ni16  1  0.238681  0.920403  0.920512  1
  Ni  Ni17  1  0.329543  0.011259  0.329543  1
  Ni  Ni18  1  0.920457  0.238741  0.920457  1
  Ni  Ni19  1  0.329543  0.329657  0.329543  1
  Mo  Mo20  1  0.125000  0.125000  0.625000  1
  Mo  Mo21  1  0.625000  0.125000  0.125000  1
  W  W22  1  0.125000  0.125000  0.125000  1
  W  W23  1  0.125000  0.625000  0.125000  1
  N  N24  1  0.625000  0.125000  0.625000  1
  N  N25  1  0.625000  0.625000  0.125000  1
  N  N26  1  0.125000  0.625000  0.625000  1
  N  N27  1  0.625000  0.625000  0.625000  1
