# generated using pymatgen
data_Ho2Al6(GaIr)3
_symmetry_space_group_name_H-M   'P 1'
_cell_length_a   7.52096616
_cell_length_b   7.52096672
_cell_length_c   9.55442500
_cell_angle_alpha   90.00000000
_cell_angle_beta   90.00000000
_cell_angle_gamma   119.66631961
_symmetry_Int_Tables_number   1
_chemical_formula_structural   Ho2Al6(GaIr)3
_chemical_formula_sum   'Ho4 Al12 Ga6 Ir6'
_cell_volume   469.60526318
_cell_formula_units_Z   2
loop_
 _symmetry_equiv_pos_site_id
 _symmetry_equiv_pos_as_xyz
  1  'x, y, z'
loop_
 _atom_site_type_symbol
 _atom_site_label
 _atom_site_symmetry_multiplicity
 _atom_site_fract_x
 _atom_site_fract_y
 _atom_site_fract_z
 _atom_site_occupancy
  Ho  Ho0  1  0.995870  0.669025  0.250000  1
  Ho  Ho1  1  0.004130  0.330975  0.750000  1
  Ho  Ho2  1  0.669025  0.995870  0.250000  1
  Ho  Ho3  1  0.330975  0.004130  0.750000  1
  Al  Al4  1  0.001271  0.334273  0.073289  1
  Al  Al5  1  0.998729  0.665727  0.926711  1
  Al  Al6  1  0.998729  0.665727  0.573289  1
  Al  Al7  1  0.334273  0.001271  0.426711  1
  Al  Al8  1  0.001271  0.334273  0.426711  1
  Al  Al9  1  0.665727  0.998729  0.573289  1
  Al  Al10  1  0.665727  0.998729  0.926711  1
  Al  Al11  1  0.334273  0.001271  0.073289  1
  Al  Al12  1  0.333915  0.333915  0.555327  1
  Al  Al13  1  0.666085  0.666085  0.444673  1
  Al  Al14  1  0.666085  0.666085  0.055327  1
  Al  Al15  1  0.333915  0.333915  0.944673  1
  Ga  Ga16  1  0.126890  0.126890  0.250000  1
  Ga  Ga17  1  0.873110  0.873110  0.750000  1
  Ga  Ga18  1  0.337827  0.546260  0.250000  1
  Ga  Ga19  1  0.662173  0.453740  0.750000  1
  Ga  Ga20  1  0.546260  0.337827  0.250000  1
  Ga  Ga21  1  0.453740  0.662173  0.750000  1
  Ir  Ir22  1  0.671936  0.328064  0.000000  1
  Ir  Ir23  1  0.328064  0.671936  0.000000  1
  Ir  Ir24  1  0.328064  0.671936  0.500000  1
  Ir  Ir25  1  0.671936  0.328064  0.500000  1
  Ir  Ir26  1  0.000000  0.000000  0.000000  1
  Ir  Ir27  1  0.000000  0.000000  0.500000  1
