# generated using pymatgen
data_PrMnCo4As3
_symmetry_space_group_name_H-M   'P 1'
_cell_length_a   3.86344000
_cell_length_b   10.88468900
_cell_length_c   12.41639300
_cell_angle_alpha   90.00000000
_cell_angle_beta   90.00000000
_cell_angle_gamma   90.00000000
_symmetry_Int_Tables_number   1
_chemical_formula_structural   PrMnCo4As3
_chemical_formula_sum   'Pr4 Mn4 Co16 As12'
_cell_volume   522.13841565
_cell_formula_units_Z   4
loop_
 _symmetry_equiv_pos_site_id
 _symmetry_equiv_pos_as_xyz
  1  'x, y, z'
loop_
 _atom_site_type_symbol
 _atom_site_label
 _atom_site_symmetry_multiplicity
 _atom_site_fract_x
 _atom_site_fract_y
 _atom_site_fract_z
 _atom_site_occupancy
  Pr  Pr0  1  0.250000  0.580044  0.702245  1
  Pr  Pr1  1  0.250000  0.919956  0.202245  1
  Pr  Pr2  1  0.750000  0.419956  0.297755  1
  Pr  Pr3  1  0.750000  0.080044  0.797755  1
  Mn  Mn4  1  0.250000  0.698608  0.991047  1
  Mn  Mn5  1  0.250000  0.801392  0.491047  1
  Mn  Mn6  1  0.750000  0.301392  0.008953  1
  Mn  Mn7  1  0.750000  0.198608  0.508953  1
  Co  Co8  1  0.250000  0.404993  0.488741  1
  Co  Co9  1  0.250000  0.095007  0.988741  1
  Co  Co10  1  0.750000  0.595007  0.511259  1
  Co  Co11  1  0.750000  0.904993  0.011259  1
  Co  Co12  1  0.250000  0.217239  0.174301  1
  Co  Co13  1  0.250000  0.282761  0.674301  1
  Co  Co14  1  0.750000  0.782761  0.825699  1
  Co  Co15  1  0.750000  0.717239  0.325699  1
  Co  Co16  1  0.250000  0.882444  0.697643  1
  Co  Co17  1  0.250000  0.617556  0.197643  1
  Co  Co18  1  0.750000  0.117556  0.302357  1
  Co  Co19  1  0.750000  0.382444  0.802357  1
  Co  Co20  1  0.250000  0.466811  0.933483  1
  Co  Co21  1  0.250000  0.033189  0.433483  1
  Co  Co22  1  0.750000  0.533189  0.066517  1
  Co  Co23  1  0.750000  0.966811  0.566517  1
  As  As24  1  0.250000  0.419189  0.113990  1
  As  As25  1  0.250000  0.080811  0.613990  1
  As  As26  1  0.750000  0.580811  0.886010  1
  As  As27  1  0.750000  0.919189  0.386010  1
  As  As28  1  0.250000  0.272280  0.865067  1
  As  As29  1  0.250000  0.227720  0.365067  1
  As  As30  1  0.750000  0.727720  0.134933  1
  As  As31  1  0.750000  0.772280  0.634933  1
  As  As32  1  0.250000  0.601507  0.393674  1
  As  As33  1  0.250000  0.898493  0.893674  1
  As  As34  1  0.750000  0.398493  0.606326  1
  As  As35  1  0.750000  0.101507  0.106326  1
