# generated using pymatgen
data_Ta3Nb(VGe)4
_symmetry_space_group_name_H-M   'P 1'
_cell_length_a   3.41531500
_cell_length_b   6.66926461
_cell_length_c   8.07567900
_cell_angle_alpha   90.21190656
_cell_angle_beta   90.00000000
_cell_angle_gamma   90.00000000
_symmetry_Int_Tables_number   1
_chemical_formula_structural   Ta3Nb(VGe)4
_chemical_formula_sum   'Ta3 Nb1 V4 Ge4'
_cell_volume   183.94364670
_cell_formula_units_Z   1
loop_
 _symmetry_equiv_pos_site_id
 _symmetry_equiv_pos_as_xyz
  1  'x, y, z'
loop_
 _atom_site_type_symbol
 _atom_site_label
 _atom_site_symmetry_multiplicity
 _atom_site_fract_x
 _atom_site_fract_y
 _atom_site_fract_z
 _atom_site_occupancy
  Ta  Ta0  1  0.250000  0.549723  0.165963  1
  Ta  Ta1  1  0.750000  0.450126  0.834246  1
  Ta  Ta2  1  0.750000  0.950573  0.667998  1
  Nb  Nb3  1  0.250000  0.049008  0.333212  1
  V  V4  1  0.250000  0.628010  0.561663  1
  V  V5  1  0.750000  0.373998  0.438762  1
  V  V6  1  0.750000  0.871044  0.061152  1
  V  V7  1  0.250000  0.128040  0.937393  1
  Ge  Ge8  1  0.250000  0.750573  0.861918  1
  Ge  Ge9  1  0.750000  0.248219  0.138174  1
  Ge  Ge10  1  0.750000  0.749610  0.362118  1
  Ge  Ge11  1  0.250000  0.251075  0.637398  1
