# generated using pymatgen
data_Tb5P12Ru14Rh5
_symmetry_space_group_name_H-M   'P 1'
_cell_length_a   12.55671570
_cell_length_b   12.59658578
_cell_length_c   3.97072000
_cell_angle_alpha   90.00000000
_cell_angle_beta   90.00000000
_cell_angle_gamma   119.82196793
_symmetry_Int_Tables_number   1
_chemical_formula_structural   Tb5P12Ru14Rh5
_chemical_formula_sum   'Tb5 P12 Ru14 Rh5'
_cell_volume   544.88534026
_cell_formula_units_Z   1
loop_
 _symmetry_equiv_pos_site_id
 _symmetry_equiv_pos_as_xyz
  1  'x, y, z'
loop_
 _atom_site_type_symbol
 _atom_site_label
 _atom_site_symmetry_multiplicity
 _atom_site_fract_x
 _atom_site_fract_y
 _atom_site_fract_z
 _atom_site_occupancy
  Tb  Tb0  1  0.182871  0.181251  0.500000  1
  Tb  Tb1  1  0.817157  0.999495  0.500000  1
  Tb  Tb2  1  0.001054  0.816953  0.500000  1
  Tb  Tb3  1  0.332950  0.666951  0.000000  1
  Tb  Tb4  1  0.666984  0.333379  0.000000  1
  P  P5  1  0.817565  0.814320  0.000000  1
  P  P6  1  0.186254  0.000370  0.000000  1
  P  P7  1  0.997793  0.182651  0.000000  1
  P  P8  1  0.171910  0.481219  0.500000  1
  P  P9  1  0.517724  0.691152  0.500000  1
  P  P10  1  0.304375  0.825207  0.500000  1
  P  P11  1  0.695963  0.521143  0.500000  1
  P  P12  1  0.825050  0.303988  0.500000  1
  P  P13  1  0.479694  0.175937  0.500000  1
  P  P14  1  0.373046  0.369564  0.000000  1
  P  P15  1  0.630679  0.003707  0.000000  1
  P  P16  1  0.999712  0.629935  0.000000  1
  Ru  Ru17  1  0.713688  0.715677  0.500000  1
  Ru  Ru18  1  0.286265  0.000506  0.500000  1
  Ru  Ru19  1  0.002054  0.286072  0.500000  1
  Ru  Ru20  1  0.192980  0.815372  0.000000  1
  Ru  Ru21  1  0.805375  0.621277  0.000000  1
  Ru  Ru22  1  0.816731  0.194374  0.000000  1
  Ru  Ru23  1  0.378919  0.184805  0.000000  1
  Ru  Ru24  1  0.362315  0.489922  0.500000  1
  Ru  Ru25  1  0.508583  0.872941  0.500000  1
  Ru  Ru26  1  0.124549  0.634625  0.500000  1
  Ru  Ru27  1  0.874694  0.507338  0.500000  1
  Ru  Ru28  1  0.633078  0.124343  0.500000  1
  Ru  Ru29  1  0.491743  0.368158  0.500000  1
  Ru  Ru30  1  0.000083  0.999808  0.000000  1
  Rh  Rh31  1  0.549734  0.555301  0.000000  1
  Rh  Rh32  1  0.446272  0.998512  0.000000  1
  Rh  Rh33  1  0.002532  0.448582  0.000000  1
  Rh  Rh34  1  0.185461  0.375149  0.000000  1
  Rh  Rh35  1  0.624159  0.810013  0.000000  1
