# generated using pymatgen
data_Er2Lu10CoTc3
_symmetry_space_group_name_H-M   'P 1'
_cell_length_a   6.13959500
_cell_length_b   7.33277409
_cell_length_c   8.87621400
_cell_angle_alpha   90.00000000
_cell_angle_beta   90.00000000
_cell_angle_gamma   89.93947540
_symmetry_Int_Tables_number   1
_chemical_formula_structural   Er2Lu10CoTc3
_chemical_formula_sum   'Er2 Lu10 Co1 Tc3'
_cell_volume   399.60926707
_cell_formula_units_Z   1
loop_
 _symmetry_equiv_pos_site_id
 _symmetry_equiv_pos_as_xyz
  1  'x, y, z'
loop_
 _atom_site_type_symbol
 _atom_site_label
 _atom_site_symmetry_multiplicity
 _atom_site_fract_x
 _atom_site_fract_y
 _atom_site_fract_z
 _atom_site_occupancy
  Er  Er0  1  0.876229  0.539672  0.250000  1
  Er  Er1  1  0.134201  0.459421  0.750000  1
  Lu  Lu2  1  0.339677  0.676576  0.062513  1
  Lu  Lu3  1  0.157391  0.174789  0.437989  1
  Lu  Lu4  1  0.657226  0.326015  0.563294  1
  Lu  Lu5  1  0.839988  0.824209  0.937377  1
  Lu  Lu6  1  0.657226  0.326015  0.936706  1
  Lu  Lu7  1  0.839988  0.824209  0.562623  1
  Lu  Lu8  1  0.339677  0.676576  0.437487  1
  Lu  Lu9  1  0.157391  0.174789  0.062011  1
  Lu  Lu10  1  0.624455  0.038613  0.250000  1
  Lu  Lu11  1  0.377098  0.956240  0.750000  1
  Co  Co12  1  0.539400  0.619938  0.750000  1
  Tc  Tc13  1  0.042177  0.881994  0.250000  1
  Tc  Tc14  1  0.458607  0.383373  0.250000  1
  Tc  Tc15  1  0.959264  0.117567  0.750000  1
