# generated using pymatgen
data_Lu3Sc3FeSb2
_symmetry_space_group_name_H-M   'P 1'
_cell_length_a   7.78196100
_cell_length_b   7.78196182
_cell_length_c   4.05126500
_cell_angle_alpha   90.00000000
_cell_angle_beta   90.00000000
_cell_angle_gamma   120.00000926
_symmetry_Int_Tables_number   1
_chemical_formula_structural   Lu3Sc3FeSb2
_chemical_formula_sum   'Lu3 Sc3 Fe1 Sb2'
_cell_volume   212.47086648
_cell_formula_units_Z   1
loop_
 _symmetry_equiv_pos_site_id
 _symmetry_equiv_pos_as_xyz
  1  'x, y, z'
loop_
 _atom_site_type_symbol
 _atom_site_label
 _atom_site_symmetry_multiplicity
 _atom_site_fract_x
 _atom_site_fract_y
 _atom_site_fract_z
 _atom_site_occupancy
  Lu  Lu0  1  0.611170  0.000000  0.500000  1
  Lu  Lu1  1  0.388830  0.388830  0.500000  1
  Lu  Lu2  1  0.000000  0.611170  0.500000  1
  Sc  Sc3  1  0.229186  0.000000  0.000000  1
  Sc  Sc4  1  0.770814  0.770814  0.000000  1
  Sc  Sc5  1  0.000000  0.229186  0.000000  1
  Fe  Fe6  1  0.000000  0.000000  0.500000  1
  Sb  Sb7  1  0.333333  0.666667  0.000000  1
  Sb  Sb8  1  0.666667  0.333333  0.000000  1
