# generated using pymatgen
data_ClF17
_symmetry_space_group_name_H-M   'P 1'
_cell_length_a   8.65555044
_cell_length_b   8.48968600
_cell_length_c   10.09130603
_cell_angle_alpha   82.76088420
_cell_angle_beta   87.24223380
_cell_angle_gamma   68.45423056
_symmetry_Int_Tables_number   1
_chemical_formula_structural   ClF17
_chemical_formula_sum   'Cl2 F34'
_cell_volume   684.22390964
_cell_formula_units_Z   2
loop_
 _symmetry_equiv_pos_site_id
 _symmetry_equiv_pos_as_xyz
  1  'x, y, z'
loop_
 _atom_site_type_symbol
 _atom_site_label
 _atom_site_symmetry_multiplicity
 _atom_site_fract_x
 _atom_site_fract_y
 _atom_site_fract_z
 _atom_site_occupancy
  Cl  Cl0  1  0.860799  0.249368  0.762548  1
  Cl  Cl1  1  0.139201  0.750632  0.237452  1
  F  F2  1  0.616306  0.198300  0.483155  1
  F  F3  1  0.383694  0.801700  0.516845  1
  F  F4  1  0.827218  0.696510  0.711315  1
  F  F5  1  0.172782  0.303490  0.288685  1
  F  F6  1  0.087125  0.766383  0.859731  1
  F  F7  1  0.912875  0.233617  0.140269  1
  F  F8  1  0.554314  0.142426  0.376597  1
  F  F9  1  0.445686  0.857574  0.623403  1
  F  F10  1  0.659285  0.314735  0.706187  1
  F  F11  1  0.340715  0.685265  0.293813  1
  F  F12  1  0.918439  0.082763  0.668985  1
  F  F13  1  0.081561  0.917237  0.331015  1
  F  F14  1  0.905653  0.371973  0.630067  1
  F  F15  1  0.094347  0.628027  0.369933  1
  F  F16  1  0.852240  0.817653  0.609940  1
  F  F17  1  0.147760  0.182347  0.390060  1
  F  F18  1  0.804440  0.418224  0.856168  1
  F  F19  1  0.195560  0.581776  0.143832  1
  F  F20  1  0.214820  0.684503  0.769798  1
  F  F21  1  0.785180  0.315497  0.230202  1
  F  F22  1  0.939958  0.815323  0.179774  1
  F  F23  1  0.060042  0.184677  0.820226  1
  F  F24  1  0.815207  0.123980  0.894574  1
  F  F25  1  0.184793  0.876020  0.105426  1
  F  F26  1  0.494272  0.585762  0.981734  1
  F  F27  1  0.505728  0.414238  0.018266  1
  F  F28  1  0.457961  0.080002  0.867207  1
  F  F29  1  0.542039  0.919998  0.132793  1
  F  F30  1  0.293258  0.242739  0.611257  1
  F  F31  1  0.706742  0.757261  0.388743  1
  F  F32  1  0.259993  0.391842  0.676244  1
  F  F33  1  0.740007  0.608158  0.323756  1
  F  F34  1  0.564035  0.915077  0.837088  1
  F  F35  1  0.435965  0.084923  0.162912  1
