# generated using pymatgen
data_Pu4Si2H5
_symmetry_space_group_name_H-M   'P 1'
_cell_length_a   5.95756461
_cell_length_b   7.42710128
_cell_length_c   5.94859332
_cell_angle_alpha   51.58895180
_cell_angle_beta   102.90986034
_cell_angle_gamma   128.71707603
_symmetry_Int_Tables_number   1
_chemical_formula_structural   Pu4Si2H5
_chemical_formula_sum   'Pu4 Si2 H5'
_cell_volume   154.93579328
_cell_formula_units_Z   1
loop_
 _symmetry_equiv_pos_site_id
 _symmetry_equiv_pos_as_xyz
  1  'x, y, z'
loop_
 _atom_site_type_symbol
 _atom_site_label
 _atom_site_symmetry_multiplicity
 _atom_site_fract_x
 _atom_site_fract_y
 _atom_site_fract_z
 _atom_site_occupancy
  Pu  Pu0  1  0.980764  0.801555  0.962945  1
  Pu  Pu1  1  0.132062  0.297444  0.132765  1
  Pu  Pu2  1  0.635790  0.466502  0.618836  1
  Pu  Pu3  1  0.466324  0.952384  0.467319  1
  Si  Si4  1  0.032794  0.358566  0.566372  1
  Si  Si5  1  0.574608  0.900270  0.024566  1
  H  H6  1  0.552864  0.378812  0.046057  1
  H  H7  1  0.788766  0.860611  0.565531  1
  H  H8  1  0.072404  0.900056  0.279961  1
  H  H9  1  0.319929  0.143890  0.525981  1
  H  H10  1  0.032967  0.612596  0.810545  1
