# generated using pymatgen
data_LiY6Cd22Sn
_symmetry_space_group_name_H-M   'P 1'
_cell_length_a   10.05390463
_cell_length_b   10.05390488
_cell_length_c   10.05390500
_cell_angle_alpha   60.00000290
_cell_angle_beta   60.00000208
_cell_angle_gamma   59.99999841
_symmetry_Int_Tables_number   1
_chemical_formula_structural   LiY6Cd22Sn
_chemical_formula_sum   'Li1 Y6 Cd22 Sn1'
_cell_volume   718.60349314
_cell_formula_units_Z   1
loop_
 _symmetry_equiv_pos_site_id
 _symmetry_equiv_pos_as_xyz
  1  'x, y, z'
loop_
 _atom_site_type_symbol
 _atom_site_label
 _atom_site_symmetry_multiplicity
 _atom_site_fract_x
 _atom_site_fract_y
 _atom_site_fract_z
 _atom_site_occupancy
  Li  Li0  1  0.500000  0.500000  0.500000  1
  Y  Y1  1  0.785272  0.785272  0.214728  1
  Y  Y2  1  0.214728  0.785272  0.214728  1
  Y  Y3  1  0.785272  0.214728  0.214728  1
  Y  Y4  1  0.214728  0.214728  0.785272  1
  Y  Y5  1  0.785272  0.214728  0.785272  1
  Y  Y6  1  0.214728  0.785272  0.785272  1
  Cd  Cd7  1  0.840631  0.840631  0.478106  1
  Cd  Cd8  1  0.840631  0.478106  0.840631  1
  Cd  Cd9  1  0.478106  0.840631  0.840631  1
  Cd  Cd10  1  0.840631  0.840631  0.840631  1
  Cd  Cd11  1  0.159369  0.159369  0.521894  1
  Cd  Cd12  1  0.159369  0.521894  0.159369  1
  Cd  Cd13  1  0.521894  0.159369  0.159369  1
  Cd  Cd14  1  0.159369  0.159369  0.159369  1
  Cd  Cd15  1  0.618532  0.618532  0.144404  1
  Cd  Cd16  1  0.618532  0.144404  0.618532  1
  Cd  Cd17  1  0.144404  0.618532  0.618532  1
  Cd  Cd18  1  0.618532  0.618532  0.618532  1
  Cd  Cd19  1  0.381468  0.381468  0.855596  1
  Cd  Cd20  1  0.381468  0.855596  0.381468  1
  Cd  Cd21  1  0.855596  0.381468  0.381468  1
  Cd  Cd22  1  0.381468  0.381468  0.381468  1
  Cd  Cd23  1  0.000000  0.000000  0.500000  1
  Cd  Cd24  1  0.500000  0.000000  0.500000  1
  Cd  Cd25  1  0.000000  0.500000  0.500000  1
  Cd  Cd26  1  0.500000  0.500000  0.000000  1
  Cd  Cd27  1  0.000000  0.500000  0.000000  1
  Cd  Cd28  1  0.500000  0.000000  0.000000  1
  Sn  Sn29  1  0.000000  0.000000  0.000000  1
