# generated using pymatgen
data_SrMgAsO4F
_symmetry_space_group_name_H-M   'P 1'
_cell_length_a   5.80378773
_cell_length_b   5.80378796
_cell_length_c   7.29318070
_cell_angle_alpha   76.47903509
_cell_angle_beta   76.47903492
_cell_angle_gamma   106.30246535
_symmetry_Int_Tables_number   1
_chemical_formula_structural   SrMgAsO4F
_chemical_formula_sum   'Sr2 Mg2 As2 O8 F2'
_cell_volume   217.12904453
_cell_formula_units_Z   2
loop_
 _symmetry_equiv_pos_site_id
 _symmetry_equiv_pos_as_xyz
  1  'x, y, z'
loop_
 _atom_site_type_symbol
 _atom_site_label
 _atom_site_symmetry_multiplicity
 _atom_site_fract_x
 _atom_site_fract_y
 _atom_site_fract_z
 _atom_site_occupancy
  Sr  Sr0  1  0.666991  0.333009  0.250000  1
  Sr  Sr1  1  0.333009  0.666991  0.750000  1
  Mg  Mg2  1  0.000000  0.000000  0.000000  1
  Mg  Mg3  1  0.000000  0.000000  0.500000  1
  As  As4  1  0.316394  0.683606  0.250000  1
  As  As5  1  0.683606  0.316394  0.750000  1
  O  O6  1  0.610885  0.751381  0.083420  1
  O  O7  1  0.248619  0.389115  0.416580  1
  O  O8  1  0.892296  0.316633  0.884912  1
  O  O9  1  0.683367  0.107704  0.615088  1
  O  O10  1  0.107704  0.683367  0.115088  1
  O  O11  1  0.316633  0.892296  0.384912  1
  O  O12  1  0.389115  0.248619  0.916580  1
  O  O13  1  0.751381  0.610885  0.583420  1
  F  F14  1  0.928994  0.071006  0.250000  1
  F  F15  1  0.071006  0.928994  0.750000  1
