# generated using pymatgen
data_SmPbF7
_symmetry_space_group_name_H-M   'P 1'
_cell_length_a   5.88811900
_cell_length_b   9.33602873
_cell_length_c   12.57026037
_cell_angle_alpha   62.34164701
_cell_angle_beta   90.00000000
_cell_angle_gamma   90.00000000
_symmetry_Int_Tables_number   1
_chemical_formula_structural   SmPbF7
_chemical_formula_sum   'Sm4 Pb4 F28'
_cell_volume   612.04733502
_cell_formula_units_Z   4
loop_
 _symmetry_equiv_pos_site_id
 _symmetry_equiv_pos_as_xyz
  1  'x, y, z'
loop_
 _atom_site_type_symbol
 _atom_site_label
 _atom_site_symmetry_multiplicity
 _atom_site_fract_x
 _atom_site_fract_y
 _atom_site_fract_z
 _atom_site_occupancy
  Sm  Sm0  1  0.742119  0.815637  0.266366  1
  Sm  Sm1  1  0.242119  0.184363  0.233634  1
  Sm  Sm2  1  0.257881  0.184363  0.733634  1
  Sm  Sm3  1  0.757881  0.815637  0.766366  1
  Pb  Pb4  1  0.744554  0.273373  0.455821  1
  Pb  Pb5  1  0.244554  0.726627  0.044179  1
  Pb  Pb6  1  0.255446  0.726627  0.544179  1
  Pb  Pb7  1  0.755446  0.273373  0.955821  1
  F  F8  1  0.468212  0.709189  0.920244  1
  F  F9  1  0.968212  0.290811  0.579756  1
  F  F10  1  0.531788  0.290811  0.079756  1
  F  F11  1  0.031788  0.709189  0.420244  1
  F  F12  1  0.451161  0.283630  0.548920  1
  F  F13  1  0.951161  0.716370  0.951080  1
  F  F14  1  0.548839  0.716370  0.451080  1
  F  F15  1  0.048839  0.283630  0.048920  1
  F  F16  1  0.766838  0.525186  0.857317  1
  F  F17  1  0.266838  0.474814  0.642683  1
  F  F18  1  0.233162  0.474814  0.142683  1
  F  F19  1  0.733162  0.525186  0.357317  1
  F  F20  1  0.760576  0.020576  0.057394  1
  F  F21  1  0.260576  0.979424  0.442606  1
  F  F22  1  0.239424  0.979424  0.942606  1
  F  F23  1  0.739424  0.020576  0.557394  1
  F  F24  1  0.981927  0.732469  0.649733  1
  F  F25  1  0.481927  0.267531  0.850267  1
  F  F26  1  0.018073  0.267531  0.350267  1
  F  F27  1  0.518073  0.732469  0.149733  1
  F  F28  1  0.033257  0.745417  0.173096  1
  F  F29  1  0.533257  0.254583  0.326904  1
  F  F30  1  0.966743  0.254583  0.826904  1
  F  F31  1  0.466743  0.745417  0.673096  1
  F  F32  1  0.427652  0.972446  0.235448  1
  F  F33  1  0.927652  0.027554  0.264552  1
  F  F34  1  0.572348  0.027554  0.764552  1
  F  F35  1  0.072348  0.972446  0.735448  1
