# generated using pymatgen
data_Na3Ac8In3Au20
_symmetry_space_group_name_H-M   'P 1'
_cell_length_a   9.03298422
_cell_length_b   9.03298592
_cell_length_c   10.62441600
_cell_angle_alpha   90.09423091
_cell_angle_beta   89.90576907
_cell_angle_gamma   108.67949597
_symmetry_Int_Tables_number   1
_chemical_formula_structural   Na3Ac8In3Au20
_chemical_formula_sum   'Na3 Ac8 In3 Au20'
_cell_volume   821.23176405
_cell_formula_units_Z   1
loop_
 _symmetry_equiv_pos_site_id
 _symmetry_equiv_pos_as_xyz
  1  'x, y, z'
loop_
 _atom_site_type_symbol
 _atom_site_label
 _atom_site_symmetry_multiplicity
 _atom_site_fract_x
 _atom_site_fract_y
 _atom_site_fract_z
 _atom_site_occupancy
  Na  Na0  1  0.513130  0.013130  0.250000  1
  Na  Na1  1  0.001836  0.001809  0.002174  1
  Na  Na2  1  0.501809  0.501836  0.497826  1
  Ac  Ac3  1  0.703856  0.300441  0.997729  1
  Ac  Ac4  1  0.201842  0.798255  0.500627  1
  Ac  Ac5  1  0.801054  0.799243  0.295292  1
  Ac  Ac6  1  0.299243  0.301054  0.204708  1
  Ac  Ac7  1  0.800441  0.203856  0.502271  1
  Ac  Ac8  1  0.298255  0.701842  0.999373  1
  Ac  Ac9  1  0.700192  0.701027  0.793971  1
  Ac  Ac10  1  0.201027  0.200192  0.706029  1
  In  In11  1  0.990476  0.490476  0.750000  1
  In  In12  1  0.011849  0.511849  0.250000  1
  In  In13  1  0.487501  0.987501  0.750000  1
  Au  Au14  1  0.159411  0.431727  0.476314  1
  Au  Au15  1  0.902261  0.903843  0.590640  1
  Au  Au16  1  0.565713  0.841775  0.520860  1
  Au  Au17  1  0.885146  0.165911  0.207402  1
  Au  Au18  1  0.390380  0.663922  0.292237  1
  Au  Au19  1  0.665911  0.385146  0.292598  1
  Au  Au20  1  0.403843  0.402261  0.909360  1
  Au  Au21  1  0.931727  0.659411  0.023686  1
  Au  Au22  1  0.331970  0.605020  0.707487  1
  Au  Au23  1  0.341775  0.065713  0.979140  1
  Au  Au24  1  0.595891  0.597351  0.092261  1
  Au  Au25  1  0.664114  0.933662  0.024806  1
  Au  Au26  1  0.097351  0.095891  0.407739  1
  Au  Au27  1  0.606955  0.332222  0.707507  1
  Au  Au28  1  0.105020  0.831970  0.792513  1
  Au  Au29  1  0.068599  0.341621  0.972937  1
  Au  Au30  1  0.841621  0.568599  0.527063  1
  Au  Au31  1  0.163922  0.890380  0.207763  1
  Au  Au32  1  0.433662  0.164114  0.475194  1
  Au  Au33  1  0.832222  0.106955  0.792493  1
