# generated using pymatgen
data_Y5LuFe4(Co7P6)2
_symmetry_space_group_name_H-M   'P 1'
_cell_length_a   3.70198600
_cell_length_b   10.55601631
_cell_length_c   12.10796626
_cell_angle_alpha   90.02571223
_cell_angle_beta   90.00000000
_cell_angle_gamma   90.00000000
_symmetry_Int_Tables_number   1
_chemical_formula_structural   Y5LuFe4(Co7P6)2
_chemical_formula_sum   'Y5 Lu1 Fe4 Co14 P12'
_cell_volume   473.15777716
_cell_formula_units_Z   1
loop_
 _symmetry_equiv_pos_site_id
 _symmetry_equiv_pos_as_xyz
  1  'x, y, z'
loop_
 _atom_site_type_symbol
 _atom_site_label
 _atom_site_symmetry_multiplicity
 _atom_site_fract_x
 _atom_site_fract_y
 _atom_site_fract_z
 _atom_site_occupancy
  Y  Y0  1  0.000000  0.499965  0.522052  1
  Y  Y1  1  0.500000  0.999641  0.477514  1
  Y  Y2  1  0.500000  0.180396  0.204340  1
  Y  Y3  1  0.000000  0.681200  0.795615  1
  Y  Y4  1  0.000000  0.319176  0.796339  1
  Lu  Lu5  1  0.500000  0.819515  0.203718  1
  Fe  Fe6  1  0.500000  0.499864  0.155578  1
  Fe  Fe7  1  0.000000  0.000319  0.844856  1
  Fe  Fe8  1  0.000000  0.500807  0.989404  1
  Fe  Fe9  1  0.500000  0.999233  0.012119  1
  Co  Co10  1  0.500000  0.500459  0.701275  1
  Co  Co11  1  0.000000  0.998093  0.297991  1
  Co  Co12  1  0.500000  0.331879  0.994682  1
  Co  Co13  1  0.500000  0.669056  0.995649  1
  Co  Co14  1  0.000000  0.167702  0.006375  1
  Co  Co15  1  0.000000  0.831860  0.006711  1
  Co  Co16  1  0.500000  0.296138  0.430434  1
  Co  Co17  1  0.500000  0.703659  0.428609  1
  Co  Co18  1  0.000000  0.203152  0.569747  1
  Co  Co19  1  0.000000  0.796350  0.568260  1
  Co  Co20  1  0.500000  0.879229  0.708900  1
  Co  Co21  1  0.500000  0.120875  0.709735  1
  Co  Co22  1  0.000000  0.622084  0.289293  1
  Co  Co23  1  0.000000  0.379200  0.290834  1
  P  P24  1  0.500000  0.500619  0.885229  1
  P  P25  1  0.000000  0.998561  0.116302  1
  P  P26  1  0.500000  0.499785  0.341110  1
  P  P27  1  0.000000  0.000042  0.658782  1
  P  P28  1  0.500000  0.309863  0.616726  1
  P  P29  1  0.500000  0.690425  0.615594  1
  P  P30  1  0.000000  0.189426  0.383454  1
  P  P31  1  0.000000  0.809758  0.381043  1
  P  P32  1  0.500000  0.847997  0.893542  1
  P  P33  1  0.500000  0.152073  0.894195  1
  P  P34  1  0.000000  0.653994  0.107329  1
  P  P35  1  0.000000  0.347604  0.106661  1
