# generated using pymatgen
data_Ho9LuSi5As
_symmetry_space_group_name_H-M   'P 1'
_cell_length_a   8.39464109
_cell_length_b   8.40985584
_cell_length_c   6.25607628
_cell_angle_alpha   89.96577037
_cell_angle_beta   90.01526572
_cell_angle_gamma   119.93343300
_symmetry_Int_Tables_number   1
_chemical_formula_structural   Ho9LuSi5As
_chemical_formula_sum   'Ho9 Lu1 Si5 As1'
_cell_volume   382.74911551
_cell_formula_units_Z   1
loop_
 _symmetry_equiv_pos_site_id
 _symmetry_equiv_pos_as_xyz
  1  'x, y, z'
loop_
 _atom_site_type_symbol
 _atom_site_label
 _atom_site_symmetry_multiplicity
 _atom_site_fract_x
 _atom_site_fract_y
 _atom_site_fract_z
 _atom_site_occupancy
  Ho  Ho0  1  0.996647  0.753793  0.749409  1
  Ho  Ho1  1  0.000555  0.244113  0.250492  1
  Ho  Ho2  1  0.756146  0.756144  0.250569  1
  Ho  Ho3  1  0.757942  0.999814  0.749535  1
  Ho  Ho4  1  0.242760  0.246513  0.749550  1
  Ho  Ho5  1  0.243175  0.999765  0.250384  1
  Ho  Ho6  1  0.669217  0.336226  0.001103  1
  Ho  Ho7  1  0.668923  0.335808  0.499035  1
  Ho  Ho8  1  0.333003  0.663886  0.001223  1
  Lu  Lu9  1  0.333006  0.663531  0.498400  1
  Si  Si10  1  0.393638  0.393946  0.252005  1
  Si  Si11  1  0.002977  0.607778  0.252052  1
  Si  Si12  1  0.001451  0.395238  0.747994  1
  Si  Si13  1  0.604747  0.606747  0.748047  1
  Si  Si14  1  0.605836  0.998303  0.251725  1
  As  As15  1  0.389978  0.998393  0.748478  1
