# generated using pymatgen
data_LuMn(NbS2)8
_symmetry_space_group_name_H-M   'P 1'
_cell_length_a   6.73313700
_cell_length_b   6.73313615
_cell_length_c   12.95399500
_cell_angle_alpha   90.00000000
_cell_angle_beta   90.00000000
_cell_angle_gamma   119.99999925
_symmetry_Int_Tables_number   1
_chemical_formula_structural   LuMn(NbS2)8
_chemical_formula_sum   'Lu1 Mn1 Nb8 S16'
_cell_volume   508.59162911
_cell_formula_units_Z   1
loop_
 _symmetry_equiv_pos_site_id
 _symmetry_equiv_pos_as_xyz
  1  'x, y, z'
loop_
 _atom_site_type_symbol
 _atom_site_label
 _atom_site_symmetry_multiplicity
 _atom_site_fract_x
 _atom_site_fract_y
 _atom_site_fract_z
 _atom_site_occupancy
  Lu  Lu0  1  0.000000  0.000000  0.000000  1
  Mn  Mn1  1  0.000000  0.000000  0.500000  1
  Nb  Nb2  1  0.989588  0.494794  0.259151  1
  Nb  Nb3  1  0.010412  0.505206  0.740849  1
  Nb  Nb4  1  0.494794  0.505206  0.740849  1
  Nb  Nb5  1  0.505206  0.010412  0.259151  1
  Nb  Nb6  1  0.000000  0.000000  0.740772  1
  Nb  Nb7  1  0.000000  0.000000  0.259228  1
  Nb  Nb8  1  0.505206  0.494794  0.259151  1
  Nb  Nb9  1  0.494794  0.989588  0.740849  1
  S  S10  1  0.333333  0.666667  0.618830  1
  S  S11  1  0.666667  0.333333  0.135001  1
  S  S12  1  0.666667  0.333333  0.381170  1
  S  S13  1  0.333333  0.666667  0.864999  1
  S  S14  1  0.167765  0.335530  0.379223  1
  S  S15  1  0.831780  0.168220  0.862131  1
  S  S16  1  0.336441  0.168220  0.862131  1
  S  S17  1  0.664470  0.832235  0.379223  1
  S  S18  1  0.167765  0.832235  0.379223  1
  S  S19  1  0.831780  0.663559  0.862131  1
  S  S20  1  0.168220  0.336441  0.137869  1
  S  S21  1  0.832235  0.167765  0.620777  1
  S  S22  1  0.335530  0.167765  0.620777  1
  S  S23  1  0.663559  0.831780  0.137869  1
  S  S24  1  0.168220  0.831780  0.137869  1
  S  S25  1  0.832235  0.664470  0.620777  1
