# generated using pymatgen
data_Pr4BeSi6Ir
_symmetry_space_group_name_H-M   'P 1'
_cell_length_a   8.15147200
_cell_length_b   8.15147401
_cell_length_c   8.64480300
_cell_angle_alpha   90.00000000
_cell_angle_beta   90.00000000
_cell_angle_gamma   120.00000806
_symmetry_Int_Tables_number   1
_chemical_formula_structural   Pr4BeSi6Ir
_chemical_formula_sum   'Pr8 Be2 Si12 Ir2'
_cell_volume   497.45968070
_cell_formula_units_Z   2
loop_
 _symmetry_equiv_pos_site_id
 _symmetry_equiv_pos_as_xyz
  1  'x, y, z'
loop_
 _atom_site_type_symbol
 _atom_site_label
 _atom_site_symmetry_multiplicity
 _atom_site_fract_x
 _atom_site_fract_y
 _atom_site_fract_z
 _atom_site_occupancy
  Pr  Pr0  1  0.499713  0.500287  0.746390  1
  Pr  Pr1  1  0.500287  0.499713  0.253610  1
  Pr  Pr2  1  0.000575  0.500287  0.746390  1
  Pr  Pr3  1  0.999425  0.499713  0.253610  1
  Pr  Pr4  1  0.499713  0.999425  0.746390  1
  Pr  Pr5  1  0.500287  0.000575  0.253610  1
  Pr  Pr6  1  0.000000  0.000000  0.750632  1
  Pr  Pr7  1  0.000000  0.000000  0.249368  1
  Be  Be8  1  0.666667  0.333333  0.997626  1
  Be  Be9  1  0.333333  0.666667  0.002374  1
  Si  Si10  1  0.827733  0.172267  0.000445  1
  Si  Si11  1  0.172267  0.827733  0.999555  1
  Si  Si12  1  0.344535  0.172267  0.000445  1
  Si  Si13  1  0.166917  0.833083  0.500111  1
  Si  Si14  1  0.655465  0.827733  0.999555  1
  Si  Si15  1  0.833083  0.166917  0.499889  1
  Si  Si16  1  0.827733  0.655465  0.000445  1
  Si  Si17  1  0.666164  0.833083  0.500111  1
  Si  Si18  1  0.172267  0.344535  0.999555  1
  Si  Si19  1  0.333836  0.166917  0.499889  1
  Si  Si20  1  0.166917  0.333836  0.500111  1
  Si  Si21  1  0.833083  0.666164  0.499889  1
  Ir  Ir22  1  0.333333  0.666667  0.498698  1
  Ir  Ir23  1  0.666667  0.333333  0.501302  1
