# generated using pymatgen
data_LaMnSnP6BrN12
_symmetry_space_group_name_H-M   'P 1'
_cell_length_a   7.26545784
_cell_length_b   7.22382055
_cell_length_c   7.22382200
_cell_angle_alpha   107.37937927
_cell_angle_beta   110.78066066
_cell_angle_gamma   110.78063722
_symmetry_Int_Tables_number   1
_chemical_formula_structural   LaMnSnP6BrN12
_chemical_formula_sum   'La1 Mn1 Sn1 P6 Br1 N12'
_cell_volume   289.69399208
_cell_formula_units_Z   1
loop_
 _symmetry_equiv_pos_site_id
 _symmetry_equiv_pos_as_xyz
  1  'x, y, z'
loop_
 _atom_site_type_symbol
 _atom_site_label
 _atom_site_symmetry_multiplicity
 _atom_site_fract_x
 _atom_site_fract_y
 _atom_site_fract_z
 _atom_site_occupancy
  La  La0  1  0.019152  0.303575  0.021434  1
  Mn  Mn1  1  0.364968  0.006936  0.007656  1
  Sn  Sn2  1  0.005986  0.037947  0.333056  1
  P  P3  1  0.496467  0.265113  0.752210  1
  P  P4  1  0.256430  0.758773  0.506704  1
  P  P5  1  0.747246  0.510124  0.263249  1
  P  P6  1  0.745026  0.264794  0.512573  1
  P  P7  1  0.511475  0.762863  0.269370  1
  P  P8  1  0.267491  0.517203  0.762296  1
  Br  Br9  1  0.947573  0.853037  0.847067  1
  N  N10  1  0.415564  0.699614  0.422614  1
  N  N11  1  0.689646  0.425138  0.424823  1
  N  N12  1  0.421992  0.432763  0.698059  1
  N  N13  1  0.715802  0.287744  0.729293  1
  N  N14  1  0.996763  0.571625  0.294019  1
  N  N15  1  0.304679  0.578357  0.011700  1
  N  N16  1  0.275182  0.005581  0.563035  1
  N  N17  1  0.001950  0.293756  0.603010  1
  N  N18  1  0.738498  0.742872  0.305464  1
  N  N19  1  0.572522  0.010041  0.291946  1
  N  N20  1  0.303872  0.740612  0.736200  1
  N  N21  1  0.561714  0.291533  0.004221  1
