# generated using pymatgen
data_K2TlH12Ir2Pb
_symmetry_space_group_name_H-M   'P 1'
_cell_length_a   7.80533000
_cell_length_b   7.80533000
_cell_length_c   8.04615800
_cell_angle_alpha   90.00000000
_cell_angle_beta   90.00000000
_cell_angle_gamma   90.00000000
_symmetry_Int_Tables_number   1
_chemical_formula_structural   K2TlH12Ir2Pb
_chemical_formula_sum   'K4 Tl2 H24 Ir4 Pb2'
_cell_volume   490.19750325
_cell_formula_units_Z   2
loop_
 _symmetry_equiv_pos_site_id
 _symmetry_equiv_pos_as_xyz
  1  'x, y, z'
loop_
 _atom_site_type_symbol
 _atom_site_label
 _atom_site_symmetry_multiplicity
 _atom_site_fract_x
 _atom_site_fract_y
 _atom_site_fract_z
 _atom_site_occupancy
  K  K0  1  0.000000  0.000000  0.500000  1
  K  K1  1  0.000000  0.500000  0.000000  1
  K  K2  1  0.500000  0.000000  0.000000  1
  K  K3  1  0.000000  0.000000  0.000000  1
  Tl  Tl4  1  0.500000  0.500000  0.500000  1
  Tl  Tl5  1  0.500000  0.500000  0.000000  1
  H  H6  1  0.753449  0.753449  0.496603  1
  H  H7  1  0.246551  0.246551  0.496603  1
  H  H8  1  0.055413  0.742134  0.729464  1
  H  H9  1  0.257866  0.944587  0.729464  1
  H  H10  1  0.742134  0.055413  0.729464  1
  H  H11  1  0.944587  0.257866  0.729464  1
  H  H12  1  0.746808  0.481395  0.736680  1
  H  H13  1  0.481395  0.746808  0.736680  1
  H  H14  1  0.518605  0.253192  0.736680  1
  H  H15  1  0.253192  0.518605  0.736680  1
  H  H16  1  0.261879  0.738121  0.918114  1
  H  H17  1  0.738121  0.261879  0.918114  1
  H  H18  1  0.738121  0.738121  0.081886  1
  H  H19  1  0.261879  0.261879  0.081886  1
  H  H20  1  0.253192  0.481395  0.263320  1
  H  H21  1  0.518605  0.746808  0.263320  1
  H  H22  1  0.481395  0.253192  0.263320  1
  H  H23  1  0.746808  0.518605  0.263320  1
  H  H24  1  0.944587  0.742134  0.270536  1
  H  H25  1  0.742134  0.944587  0.270536  1
  H  H26  1  0.257866  0.055413  0.270536  1
  H  H27  1  0.055413  0.257866  0.270536  1
  H  H28  1  0.246551  0.753449  0.503397  1
  H  H29  1  0.753449  0.246551  0.503397  1
  Ir  Ir30  1  0.269532  0.730468  0.710198  1
  Ir  Ir31  1  0.730468  0.269532  0.710198  1
  Ir  Ir32  1  0.730468  0.730468  0.289802  1
  Ir  Ir33  1  0.269532  0.269532  0.289802  1
  Pb  Pb34  1  0.000000  0.500000  0.500000  1
  Pb  Pb35  1  0.500000  0.000000  0.500000  1
