# generated using pymatgen
data_Nd3Y7(SiHg)4
_symmetry_space_group_name_H-M   'P 1'
_cell_length_a   9.13429636
_cell_length_b   8.67482522
_cell_length_c   7.63492932
_cell_angle_alpha   89.93125070
_cell_angle_beta   90.03349812
_cell_angle_gamma   129.25905364
_symmetry_Int_Tables_number   1
_chemical_formula_structural   Nd3Y7(SiHg)4
_chemical_formula_sum   'Nd3 Y7 Si4 Hg4'
_cell_volume   468.43104438
_cell_formula_units_Z   1
loop_
 _symmetry_equiv_pos_site_id
 _symmetry_equiv_pos_as_xyz
  1  'x, y, z'
loop_
 _atom_site_type_symbol
 _atom_site_label
 _atom_site_symmetry_multiplicity
 _atom_site_fract_x
 _atom_site_fract_y
 _atom_site_fract_z
 _atom_site_occupancy
  Nd  Nd0  1  0.066293  0.337230  0.320347  1
  Nd  Nd1  1  0.934959  0.664072  0.679258  1
  Nd  Nd2  1  0.434196  0.163914  0.823642  1
  Y  Y3  1  0.786273  0.543047  0.177526  1
  Y  Y4  1  0.565308  0.830479  0.174791  1
  Y  Y5  1  0.215206  0.460781  0.821797  1
  Y  Y6  1  0.712783  0.957230  0.678431  1
  Y  Y7  1  0.283911  0.042311  0.322776  1
  Y  Y8  1  0.000762  0.002043  0.999238  1
  Y  Y9  1  0.498700  0.500884  0.499664  1
  Si  Si10  1  0.382880  0.387279  0.120293  1
  Si  Si11  1  0.618721  0.617732  0.882080  1
  Si  Si12  1  0.117226  0.116472  0.619158  1
  Si  Si13  1  0.877813  0.883887  0.378314  1
  Hg  Hg14  1  0.813897  0.248698  0.980069  1
  Hg  Hg15  1  0.187335  0.743480  0.032207  1
  Hg  Hg16  1  0.681612  0.243492  0.474423  1
  Hg  Hg17  1  0.322125  0.756969  0.515986  1
