# generated using pymatgen
data_EuAl5Ni2
_symmetry_space_group_name_H-M   'P 1'
_cell_length_a   6.30749274
_cell_length_b   6.30749230
_cell_length_c   6.30749266
_cell_angle_alpha   143.14078215
_cell_angle_beta   112.15402737
_cell_angle_gamma   79.79272854
_symmetry_Int_Tables_number   1
_chemical_formula_structural   EuAl5Ni2
_chemical_formula_sum   'Eu1 Al5 Ni2'
_cell_volume   135.86751749
_cell_formula_units_Z   1
loop_
 _symmetry_equiv_pos_site_id
 _symmetry_equiv_pos_as_xyz
  1  'x, y, z'
loop_
 _atom_site_type_symbol
 _atom_site_label
 _atom_site_symmetry_multiplicity
 _atom_site_fract_x
 _atom_site_fract_y
 _atom_site_fract_z
 _atom_site_occupancy
  Eu  Eu0  1  0.000000  0.000000  0.000000  1
  Al  Al1  1  0.500000  0.000000  0.500000  1
  Al  Al2  1  0.150679  0.341599  0.809081  1
  Al  Al3  1  0.849321  0.658401  0.190919  1
  Al  Al4  1  0.467481  0.658401  0.809081  1
  Al  Al5  1  0.532519  0.341599  0.190919  1
  Ni  Ni6  1  0.736099  0.236099  0.500000  1
  Ni  Ni7  1  0.263901  0.763901  0.500000  1
