# generated using pymatgen
data_Dy3Tm4Lu3(SiSb)4
_symmetry_space_group_name_H-M   'P 1'
_cell_length_a   8.30688730
_cell_length_b   8.53805419
_cell_length_c   7.76275601
_cell_angle_alpha   89.93532167
_cell_angle_beta   89.77244337
_cell_angle_gamma   125.34906712
_symmetry_Int_Tables_number   1
_chemical_formula_structural   Dy3Tm4Lu3(SiSb)4
_chemical_formula_sum   'Dy3 Tm4 Lu3 Si4 Sb4'
_cell_volume   449.06138336
_cell_formula_units_Z   1
loop_
 _symmetry_equiv_pos_site_id
 _symmetry_equiv_pos_as_xyz
  1  'x, y, z'
loop_
 _atom_site_type_symbol
 _atom_site_label
 _atom_site_symmetry_multiplicity
 _atom_site_fract_x
 _atom_site_fract_y
 _atom_site_fract_z
 _atom_site_occupancy
  Dy  Dy0  1  0.193862  0.452808  0.830965  1
  Dy  Dy1  1  0.695385  0.954165  0.669780  1
  Dy  Dy2  1  0.308802  0.047479  0.329617  1
  Tm  Tm3  1  0.036818  0.281045  0.336590  1
  Tm  Tm4  1  0.965648  0.720832  0.662735  1
  Tm  Tm5  1  0.463755  0.218684  0.836199  1
  Tm  Tm6  1  0.799642  0.546426  0.167215  1
  Lu  Lu7  1  0.535509  0.778934  0.163132  1
  Lu  Lu8  1  0.998859  0.999279  0.000649  1
  Lu  Lu9  1  0.501117  0.500415  0.499817  1
  Si  Si10  1  0.368671  0.368348  0.130868  1
  Si  Si11  1  0.631686  0.631795  0.869160  1
  Si  Si12  1  0.133072  0.132856  0.631721  1
  Si  Si13  1  0.868139  0.866721  0.366475  1
  Sb  Sb14  1  0.779859  0.194948  0.017217  1
  Sb  Sb15  1  0.213587  0.801083  0.988641  1
  Sb  Sb16  1  0.719830  0.307818  0.512609  1
  Sb  Sb17  1  0.285761  0.696362  0.486612  1
