# generated using pymatgen
data_Co6Tc(NiS4)2
_symmetry_space_group_name_H-M   'P 1'
_cell_length_a   6.99757444
_cell_length_b   6.99757383
_cell_length_c   6.99757400
_cell_angle_alpha   90.03926705
_cell_angle_beta   60.10481796
_cell_angle_gamma   120.15033478
_symmetry_Int_Tables_number   1
_chemical_formula_structural   Co6Tc(NiS4)2
_chemical_formula_sum   'Co6 Tc1 Ni2 S8'
_cell_volume   242.20063355
_cell_formula_units_Z   1
loop_
 _symmetry_equiv_pos_site_id
 _symmetry_equiv_pos_as_xyz
  1  'x, y, z'
loop_
 _atom_site_type_symbol
 _atom_site_label
 _atom_site_symmetry_multiplicity
 _atom_site_fract_x
 _atom_site_fract_y
 _atom_site_fract_z
 _atom_site_occupancy
  Co  Co0  1  0.749876  0.624225  0.125651  1
  Co  Co1  1  0.250124  0.124475  0.125651  1
  Co  Co2  1  0.748621  0.874637  0.376741  1
  Co  Co3  1  0.251379  0.874637  0.873984  1
  Co  Co4  1  0.250996  0.377217  0.873782  1
  Co  Co5  1  0.749004  0.875222  0.873782  1
  Tc  Tc6  1  0.000000  0.498877  0.501123  1
  Ni  Ni7  1  0.253440  0.126354  0.620205  1
  Ni  Ni8  1  0.746560  0.126354  0.127085  1
  S  S9  1  0.520735  0.260527  0.744325  1
  S  S10  1  0.995147  0.734939  0.744325  1
  S  S11  1  0.000000  0.260891  0.739109  1
  S  S12  1  0.479265  0.734939  0.260208  1
  S  S13  1  0.004853  0.260527  0.260208  1
  S  S14  1  0.000000  0.739896  0.260104  1
  S  S15  1  0.500000  0.255453  0.244547  1
  S  S16  1  0.500000  0.750829  0.749171  1
