# generated using pymatgen
data_Y3UGe6Ir7
_symmetry_space_group_name_H-M   'P 1'
_cell_length_a   7.29077622
_cell_length_b   7.34215216
_cell_length_c   7.29077665
_cell_angle_alpha   109.61402520
_cell_angle_beta   109.32803748
_cell_angle_gamma   109.61402727
_symmetry_Int_Tables_number   1
_chemical_formula_structural   Y3UGe6Ir7
_chemical_formula_sum   'Y3 U1 Ge6 Ir7'
_cell_volume   299.90286441
_cell_formula_units_Z   1
loop_
 _symmetry_equiv_pos_site_id
 _symmetry_equiv_pos_as_xyz
  1  'x, y, z'
loop_
 _atom_site_type_symbol
 _atom_site_label
 _atom_site_symmetry_multiplicity
 _atom_site_fract_x
 _atom_site_fract_y
 _atom_site_fract_z
 _atom_site_occupancy
  Y  Y0  1  0.000000  0.000000  0.500000  1
  Y  Y1  1  0.500000  0.000000  0.000000  1
  Y  Y2  1  0.500000  0.500000  0.500000  1
  U  U3  1  0.000000  0.500000  0.000000  1
  Ge  Ge4  1  0.680718  0.683591  0.000000  1
  Ge  Ge5  1  0.319282  0.002873  0.319282  1
  Ge  Ge6  1  0.000000  0.316409  0.319282  1
  Ge  Ge7  1  0.319282  0.316409  0.000000  1
  Ge  Ge8  1  0.680718  0.997127  0.680718  1
  Ge  Ge9  1  0.000000  0.683591  0.680718  1
  Ir  Ir10  1  0.753749  0.253749  0.507498  1
  Ir  Ir11  1  0.753749  0.500000  0.246251  1
  Ir  Ir12  1  0.507498  0.253749  0.753749  1
  Ir  Ir13  1  0.246251  0.500000  0.753749  1
  Ir  Ir14  1  0.246251  0.746251  0.492502  1
  Ir  Ir15  1  0.492502  0.746251  0.246251  1
  Ir  Ir16  1  0.000000  0.000000  0.000000  1
