# generated using pymatgen
data_V2Co4IrOs
_symmetry_space_group_name_H-M   'P 1'
_cell_length_a   5.18211700
_cell_length_b   5.18211840
_cell_length_c   4.13909500
_cell_angle_alpha   90.00000000
_cell_angle_beta   90.00000000
_cell_angle_gamma   119.98673356
_symmetry_Int_Tables_number   1
_chemical_formula_structural   V2Co4IrOs
_chemical_formula_sum   'V2 Co4 Ir1 Os1'
_cell_volume   96.27391062
_cell_formula_units_Z   1
loop_
 _symmetry_equiv_pos_site_id
 _symmetry_equiv_pos_as_xyz
  1  'x, y, z'
loop_
 _atom_site_type_symbol
 _atom_site_label
 _atom_site_symmetry_multiplicity
 _atom_site_fract_x
 _atom_site_fract_y
 _atom_site_fract_z
 _atom_site_occupancy
  V  V0  1  0.338637  0.661363  0.750000  1
  V  V1  1  0.661143  0.338857  0.250000  1
  Co  Co2  1  0.167927  0.328715  0.250000  1
  Co  Co3  1  0.671285  0.832073  0.250000  1
  Co  Co4  1  0.832153  0.670800  0.750000  1
  Co  Co5  1  0.329200  0.167847  0.750000  1
  Ir  Ir6  1  0.165274  0.834726  0.250000  1
  Os  Os7  1  0.834382  0.165618  0.750000  1
