# generated using pymatgen
data_Li4CaNd2DySi6
_symmetry_space_group_name_H-M   'P 1'
_cell_length_a   9.46245684
_cell_length_b   9.46245697
_cell_length_c   6.87533200
_cell_angle_alpha   90.00000000
_cell_angle_beta   90.00000000
_cell_angle_gamma   153.62637983
_symmetry_Int_Tables_number   1
_chemical_formula_structural   Li4CaNd2DySi6
_chemical_formula_sum   'Li4 Ca1 Nd2 Dy1 Si6'
_cell_volume   273.46533566
_cell_formula_units_Z   1
loop_
 _symmetry_equiv_pos_site_id
 _symmetry_equiv_pos_as_xyz
  1  'x, y, z'
loop_
 _atom_site_type_symbol
 _atom_site_label
 _atom_site_symmetry_multiplicity
 _atom_site_fract_x
 _atom_site_fract_y
 _atom_site_fract_z
 _atom_site_occupancy
  Li  Li0  1  0.189291  0.810709  0.058819  1
  Li  Li1  1  0.189291  0.810709  0.441181  1
  Li  Li2  1  0.810180  0.189820  0.943583  1
  Li  Li3  1  0.810180  0.189820  0.556417  1
  Ca  Ca4  1  0.341715  0.658285  0.250000  1
  Nd  Nd5  1  0.553278  0.446722  0.250000  1
  Nd  Nd6  1  0.446998  0.553002  0.750000  1
  Dy  Dy7  1  0.657481  0.342519  0.750000  1
  Si  Si8  1  0.718324  0.281676  0.250000  1
  Si  Si9  1  0.274467  0.725533  0.750000  1
  Si  Si10  1  0.060042  0.939958  0.922815  1
  Si  Si11  1  0.944357  0.055643  0.075841  1
  Si  Si12  1  0.944357  0.055643  0.424159  1
  Si  Si13  1  0.060042  0.939958  0.577185  1
