# generated using pymatgen
data_NaAl(PSe3)2
_symmetry_space_group_name_H-M   'P 1'
_cell_length_a   6.51065700
_cell_length_b   6.51065731
_cell_length_c   14.90237900
_cell_angle_alpha   90.00000000
_cell_angle_beta   90.00000000
_cell_angle_gamma   119.99999336
_symmetry_Int_Tables_number   1
_chemical_formula_structural   NaAl(PSe3)2
_chemical_formula_sum   'Na2 Al2 P4 Se12'
_cell_volume   547.06120482
_cell_formula_units_Z   2
loop_
 _symmetry_equiv_pos_site_id
 _symmetry_equiv_pos_as_xyz
  1  'x, y, z'
loop_
 _atom_site_type_symbol
 _atom_site_label
 _atom_site_symmetry_multiplicity
 _atom_site_fract_x
 _atom_site_fract_y
 _atom_site_fract_z
 _atom_site_occupancy
  Na  Na0  1  0.333333  0.666667  0.750000  1
  Na  Na1  1  0.666667  0.333333  0.250000  1
  Al  Al2  1  0.000000  0.000000  0.250000  1
  Al  Al3  1  0.000000  0.000000  0.750000  1
  P  P4  1  0.666667  0.333333  0.674714  1
  P  P5  1  0.666667  0.333333  0.825286  1
  P  P6  1  0.333333  0.666667  0.325286  1
  P  P7  1  0.333333  0.666667  0.174714  1
  Se  Se8  1  0.687618  0.965433  0.133274  1
  Se  Se9  1  0.687618  0.722185  0.366726  1
  Se  Se10  1  0.277815  0.312382  0.133274  1
  Se  Se11  1  0.277815  0.965433  0.366726  1
  Se  Se12  1  0.722185  0.687618  0.866726  1
  Se  Se13  1  0.312382  0.034567  0.866726  1
  Se  Se14  1  0.965433  0.277815  0.866726  1
  Se  Se15  1  0.312382  0.277815  0.633274  1
  Se  Se16  1  0.965433  0.687618  0.633274  1
  Se  Se17  1  0.722185  0.034567  0.633274  1
  Se  Se18  1  0.034567  0.312382  0.366726  1
  Se  Se19  1  0.034567  0.722185  0.133274  1
