# generated using pymatgen
data_Lu4Sc4B24IrOs3
_symmetry_space_group_name_H-M   'P 1'
_cell_length_a   3.53512400
_cell_length_b   8.93242411
_cell_length_c   11.28669420
_cell_angle_alpha   90.01779637
_cell_angle_beta   90.00000000
_cell_angle_gamma   90.00000000
_symmetry_Int_Tables_number   1
_chemical_formula_structural   Lu4Sc4B24IrOs3
_chemical_formula_sum   'Lu4 Sc4 B24 Ir1 Os3'
_cell_volume   356.40248603
_cell_formula_units_Z   1
loop_
 _symmetry_equiv_pos_site_id
 _symmetry_equiv_pos_as_xyz
  1  'x, y, z'
loop_
 _atom_site_type_symbol
 _atom_site_label
 _atom_site_symmetry_multiplicity
 _atom_site_fract_x
 _atom_site_fract_y
 _atom_site_fract_z
 _atom_site_occupancy
  Lu  Lu0  1  0.500000  0.315982  0.414213  1
  Lu  Lu1  1  0.500000  0.681677  0.589467  1
  Lu  Lu2  1  0.500000  0.181442  0.913013  1
  Lu  Lu3  1  0.500000  0.821005  0.083971  1
  Sc  Sc4  1  0.500000  0.442599  0.124124  1
  Sc  Sc5  1  0.500000  0.555381  0.874822  1
  Sc  Sc6  1  0.500000  0.055612  0.625361  1
  Sc  Sc7  1  0.500000  0.946264  0.374884  1
  B  B8  1  0.000000  0.100686  0.472179  1
  B  B9  1  0.000000  0.898316  0.527677  1
  B  B10  1  0.000000  0.398760  0.972294  1
  B  B11  1  0.000000  0.601625  0.028059  1
  B  B12  1  0.000000  0.129028  0.317230  1
  B  B13  1  0.000000  0.870783  0.683104  1
  B  B14  1  0.000000  0.370826  0.816998  1
  B  B15  1  0.000000  0.629507  0.181418  1
  B  B16  1  0.000000  0.054143  0.065739  1
  B  B17  1  0.000000  0.946347  0.933883  1
  B  B18  1  0.000000  0.445820  0.565760  1
  B  B19  1  0.000000  0.553812  0.434689  1
  B  B20  1  0.000000  0.480247  0.286116  1
  B  B21  1  0.000000  0.519444  0.713764  1
  B  B22  1  0.000000  0.019698  0.786314  1
  B  B23  1  0.000000  0.980427  0.213648  1
  B  B24  1  0.000000  0.252613  0.079691  1
  B  B25  1  0.000000  0.747547  0.920240  1
  B  B26  1  0.000000  0.247090  0.579790  1
  B  B27  1  0.000000  0.753427  0.421424  1
  B  B28  1  0.000000  0.293627  0.234994  1
  B  B29  1  0.000000  0.706302  0.765533  1
  B  B30  1  0.000000  0.206423  0.734476  1
  B  B31  1  0.000000  0.793719  0.264770  1
  Ir  Ir32  1  0.500000  0.638859  0.320331  1
  Os  Os33  1  0.500000  0.138998  0.180239  1
  Os  Os34  1  0.500000  0.860842  0.819785  1
  Os  Os35  1  0.500000  0.361123  0.679998  1
