# generated using pymatgen
data_Th14(Pd3Au)5
_symmetry_space_group_name_H-M   'P 1'
_cell_length_a   8.83971546
_cell_length_b   8.83361329
_cell_length_c   10.46013522
_cell_angle_alpha   89.89937942
_cell_angle_beta   90.16631200
_cell_angle_gamma   106.92539309
_symmetry_Int_Tables_number   1
_chemical_formula_structural   Th14(Pd3Au)5
_chemical_formula_sum   'Th14 Pd15 Au5'
_cell_volume   781.41320937
_cell_formula_units_Z   1
loop_
 _symmetry_equiv_pos_site_id
 _symmetry_equiv_pos_as_xyz
  1  'x, y, z'
loop_
 _atom_site_type_symbol
 _atom_site_label
 _atom_site_symmetry_multiplicity
 _atom_site_fract_x
 _atom_site_fract_y
 _atom_site_fract_z
 _atom_site_occupancy
  Th  Th0  1  0.695308  0.308258  0.000500  1
  Th  Th1  1  0.301998  0.693181  0.999889  1
  Th  Th2  1  0.804960  0.193989  0.499803  1
  Th  Th3  1  0.192924  0.803467  0.500677  1
  Th  Th4  1  0.008157  0.001791  0.998906  1
  Th  Th5  1  0.499858  0.500562  0.498654  1
  Th  Th6  1  0.998121  0.497805  0.250210  1
  Th  Th7  1  0.001770  0.500318  0.749908  1
  Th  Th8  1  0.501181  0.001895  0.747788  1
  Th  Th9  1  0.493461  0.001141  0.255352  1
  Th  Th10  1  0.314313  0.314772  0.191173  1
  Th  Th11  1  0.685581  0.682319  0.805125  1
  Th  Th12  1  0.185257  0.186060  0.690417  1
  Th  Th13  1  0.814329  0.814818  0.307917  1
  Pd  Pd14  1  0.854650  0.146806  0.209057  1
  Pd  Pd15  1  0.144716  0.851684  0.790117  1
  Pd  Pd16  1  0.644733  0.351857  0.708689  1
  Pd  Pd17  1  0.648310  0.357128  0.290882  1
  Pd  Pd18  1  0.356208  0.648594  0.290439  1
  Pd  Pd19  1  0.352342  0.644366  0.709455  1
  Pd  Pd20  1  0.853464  0.143896  0.790569  1
  Pd  Pd21  1  0.146302  0.854798  0.209714  1
  Pd  Pd22  1  0.937026  0.645981  0.003145  1
  Pd  Pd23  1  0.061259  0.355160  0.997224  1
  Pd  Pd24  1  0.562652  0.853818  0.503440  1
  Pd  Pd25  1  0.145319  0.438056  0.496465  1
  Pd  Pd26  1  0.436051  0.146820  0.498220  1
  Pd  Pd27  1  0.854084  0.561875  0.503807  1
  Pd  Pd28  1  0.358323  0.061962  0.997040  1
  Au  Au29  1  0.649135  0.939333  0.006593  1
  Au  Au30  1  0.103254  0.103042  0.395426  1
  Au  Au31  1  0.896766  0.897354  0.603431  1
  Au  Au32  1  0.396197  0.396409  0.895809  1
  Au  Au33  1  0.601989  0.600684  0.104155  1
