# generated using pymatgen
data_DyEr9(ThCo2)2
_symmetry_space_group_name_H-M   'P 1'
_cell_length_a   6.26174951
_cell_length_b   6.87922682
_cell_length_c   9.51692900
_cell_angle_alpha   90.00000000
_cell_angle_beta   90.00000000
_cell_angle_gamma   90.08628315
_symmetry_Int_Tables_number   1
_chemical_formula_structural   DyEr9(ThCo2)2
_chemical_formula_sum   'Dy1 Er9 Th2 Co4'
_cell_volume   409.95072253
_cell_formula_units_Z   1
loop_
 _symmetry_equiv_pos_site_id
 _symmetry_equiv_pos_as_xyz
  1  'x, y, z'
loop_
 _atom_site_type_symbol
 _atom_site_label
 _atom_site_symmetry_multiplicity
 _atom_site_fract_x
 _atom_site_fract_y
 _atom_site_fract_z
 _atom_site_occupancy
  Dy  Dy0  1  0.857660  0.543003  0.250000  1
  Er  Er1  1  0.324980  0.674601  0.069336  1
  Er  Er2  1  0.173980  0.170683  0.431666  1
  Er  Er3  1  0.674626  0.328898  0.568857  1
  Er  Er4  1  0.824530  0.825878  0.930149  1
  Er  Er5  1  0.674626  0.328898  0.931143  1
  Er  Er6  1  0.824530  0.825878  0.569851  1
  Er  Er7  1  0.324980  0.674601  0.430664  1
  Er  Er8  1  0.173980  0.170683  0.068334  1
  Er  Er9  1  0.358062  0.956654  0.750000  1
  Th  Th10  1  0.652219  0.054588  0.250000  1
  Th  Th11  1  0.154205  0.446129  0.750000  1
  Co  Co12  1  0.031959  0.889278  0.250000  1
  Co  Co13  1  0.457402  0.370611  0.250000  1
  Co  Co14  1  0.959838  0.128676  0.750000  1
  Co  Co15  1  0.532425  0.610943  0.750000  1
