# generated using pymatgen
data_NaPr3Au5
_symmetry_space_group_name_H-M   'P 1'
_cell_length_a   8.20004467
_cell_length_b   8.20004471
_cell_length_c   8.20004507
_cell_angle_alpha   65.70949788
_cell_angle_beta   65.70949577
_cell_angle_gamma   65.70948710
_symmetry_Int_Tables_number   1
_chemical_formula_structural   NaPr3Au5
_chemical_formula_sum   'Na2 Pr6 Au10'
_cell_volume   438.18424672
_cell_formula_units_Z   2
loop_
 _symmetry_equiv_pos_site_id
 _symmetry_equiv_pos_as_xyz
  1  'x, y, z'
loop_
 _atom_site_type_symbol
 _atom_site_label
 _atom_site_symmetry_multiplicity
 _atom_site_fract_x
 _atom_site_fract_y
 _atom_site_fract_z
 _atom_site_occupancy
  Na  Na0  1  0.654518  0.654518  0.654518  1
  Na  Na1  1  0.345482  0.345482  0.345482  1
  Pr  Pr2  1  0.891519  0.194321  0.618485  1
  Pr  Pr3  1  0.618485  0.891519  0.194321  1
  Pr  Pr4  1  0.194321  0.618485  0.891519  1
  Pr  Pr5  1  0.108481  0.805679  0.381515  1
  Pr  Pr6  1  0.381515  0.108481  0.805679  1
  Pr  Pr7  1  0.805679  0.381515  0.108481  1
  Au  Au8  1  0.000000  0.000000  0.000000  1
  Au  Au9  1  0.500000  0.500000  0.500000  1
  Au  Au10  1  0.802655  0.802655  0.802655  1
  Au  Au11  1  0.197345  0.197345  0.197345  1
  Au  Au12  1  0.944323  0.552010  0.308671  1
  Au  Au13  1  0.308671  0.944323  0.552010  1
  Au  Au14  1  0.552010  0.308671  0.944323  1
  Au  Au15  1  0.055677  0.447990  0.691329  1
  Au  Au16  1  0.691329  0.055677  0.447990  1
  Au  Au17  1  0.447990  0.691329  0.055677  1
