# generated using pymatgen
data_Pr8NdYSi8
_symmetry_space_group_name_H-M   'P 1'
_cell_length_a   7.86526834
_cell_length_b   7.86771300
_cell_length_c   15.38188164
_cell_angle_alpha   90.00000000
_cell_angle_beta   90.06703407
_cell_angle_gamma   90.00000000
_symmetry_Int_Tables_number   1
_chemical_formula_structural   Pr8NdYSi8
_chemical_formula_sum   'Pr16 Nd2 Y2 Si16'
_cell_volume   951.85593338
_cell_formula_units_Z   2
loop_
 _symmetry_equiv_pos_site_id
 _symmetry_equiv_pos_as_xyz
  1  'x, y, z'
loop_
 _atom_site_type_symbol
 _atom_site_label
 _atom_site_symmetry_multiplicity
 _atom_site_fract_x
 _atom_site_fract_y
 _atom_site_fract_z
 _atom_site_occupancy
  Pr  Pr0  1  0.379133  0.013840  0.445619  1
  Pr  Pr1  1  0.486736  0.878866  0.694914  1
  Pr  Pr2  1  0.513430  0.120627  0.195550  1
  Pr  Pr3  1  0.879063  0.487141  0.305179  1
  Pr  Pr4  1  0.120867  0.513840  0.804381  1
  Pr  Pr5  1  0.620937  0.987141  0.944821  1
  Pr  Pr6  1  0.013264  0.378866  0.555086  1
  Pr  Pr7  1  0.986570  0.620627  0.054450  1
  Pr  Pr8  1  0.125142  0.976739  0.877867  1
  Pr  Pr9  1  0.523816  0.624306  0.128625  1
  Pr  Pr10  1  0.476335  0.374696  0.628274  1
  Pr  Pr11  1  0.624398  0.524189  0.870983  1
  Pr  Pr12  1  0.374858  0.476739  0.372133  1
  Pr  Pr13  1  0.875602  0.024189  0.379017  1
  Pr  Pr14  1  0.976184  0.124306  0.121375  1
  Pr  Pr15  1  0.023665  0.874696  0.621726  1
  Nd  Nd16  1  0.307606  0.307139  0.999801  1
  Nd  Nd17  1  0.192394  0.807139  0.250199  1
  Y  Y18  1  0.809289  0.190213  0.749728  1
  Y  Y19  1  0.690711  0.690213  0.500272  1
  Si  Si20  1  0.187944  0.172156  0.708152  1
  Si  Si21  1  0.329043  0.690594  0.957557  1
  Si  Si22  1  0.671993  0.312042  0.458897  1
  Si  Si23  1  0.690735  0.329341  0.041601  1
  Si  Si24  1  0.312056  0.672156  0.541848  1
  Si  Si25  1  0.809265  0.829341  0.208399  1
  Si  Si26  1  0.170957  0.190594  0.292443  1
  Si  Si27  1  0.828007  0.812042  0.791103  1
  Si  Si28  1  0.287312  0.920223  0.061644  1
  Si  Si29  1  0.581606  0.786385  0.314431  1
  Si  Si30  1  0.422743  0.212315  0.810834  1
  Si  Si31  1  0.786722  0.579189  0.686484  1
  Si  Si32  1  0.212688  0.420223  0.188356  1
  Si  Si33  1  0.713278  0.079189  0.563516  1
  Si  Si34  1  0.918394  0.286385  0.935569  1
  Si  Si35  1  0.077257  0.712315  0.439166  1
