# generated using pymatgen
data_SrPa2F11
_symmetry_space_group_name_H-M   'P 1'
_cell_length_a   8.98811020
_cell_length_b   8.98811127
_cell_length_c   8.98811259
_cell_angle_alpha   122.79746884
_cell_angle_beta   107.21077311
_cell_angle_gamma   99.34862598
_symmetry_Int_Tables_number   1
_chemical_formula_structural   SrPa2F11
_chemical_formula_sum   'Sr2 Pa4 F22'
_cell_volume   533.87252343
_cell_formula_units_Z   2
loop_
 _symmetry_equiv_pos_site_id
 _symmetry_equiv_pos_as_xyz
  1  'x, y, z'
loop_
 _atom_site_type_symbol
 _atom_site_label
 _atom_site_symmetry_multiplicity
 _atom_site_fract_x
 _atom_site_fract_y
 _atom_site_fract_z
 _atom_site_occupancy
  Sr  Sr0  1  0.750000  0.250000  0.500000  1
  Sr  Sr1  1  0.250000  0.750000  0.500000  1
  Pa  Pa2  1  0.680963  0.646944  0.327908  1
  Pa  Pa3  1  0.319037  0.353056  0.672092  1
  Pa  Pa4  1  0.180963  0.853056  0.034018  1
  Pa  Pa5  1  0.819037  0.146944  0.965982  1
  F  F6  1  0.704667  0.896515  0.340655  1
  F  F7  1  0.295333  0.103485  0.659345  1
  F  F8  1  0.555859  0.364012  0.659345  1
  F  F9  1  0.944141  0.603485  0.808151  1
  F  F10  1  0.444141  0.635988  0.340655  1
  F  F11  1  0.055859  0.396515  0.191849  1
  F  F12  1  0.795333  0.135988  0.191849  1
  F  F13  1  0.204667  0.864012  0.808151  1
  F  F14  1  0.500000  0.500000  0.000000  1
  F  F15  1  0.000000  0.000000  0.000000  1
  F  F16  1  0.784225  0.869541  0.653765  1
  F  F17  1  0.215775  0.130459  0.346235  1
  F  F18  1  0.284225  0.630459  0.914684  1
  F  F19  1  0.715775  0.369541  0.085316  1
  F  F20  1  0.947653  0.729581  0.407281  1
  F  F21  1  0.052347  0.270419  0.592719  1
  F  F22  1  0.322301  0.540373  0.592719  1
  F  F23  1  0.177699  0.770419  0.218072  1
  F  F24  1  0.677699  0.459627  0.407281  1
  F  F25  1  0.822301  0.229581  0.781928  1
  F  F26  1  0.552347  0.959627  0.781928  1
  F  F27  1  0.447653  0.040373  0.218072  1
