# generated using pymatgen
data_Zr10Sn7Bi
_symmetry_space_group_name_H-M   'P 1'
_cell_length_a   8.90921900
_cell_length_b   8.89416889
_cell_length_c   5.97539100
_cell_angle_alpha   90.00000000
_cell_angle_beta   90.00000000
_cell_angle_gamma   120.05598736
_symmetry_Int_Tables_number   1
_chemical_formula_structural   Zr10Sn7Bi
_chemical_formula_sum   'Zr10 Sn7 Bi1'
_cell_volume   409.82332858
_cell_formula_units_Z   1
loop_
 _symmetry_equiv_pos_site_id
 _symmetry_equiv_pos_as_xyz
  1  'x, y, z'
loop_
 _atom_site_type_symbol
 _atom_site_label
 _atom_site_symmetry_multiplicity
 _atom_site_fract_x
 _atom_site_fract_y
 _atom_site_fract_z
 _atom_site_occupancy
  Zr  Zr0  1  0.331008  0.663661  0.998360  1
  Zr  Zr1  1  0.667348  0.336339  0.501640  1
  Zr  Zr2  1  0.667348  0.336339  0.998360  1
  Zr  Zr3  1  0.331008  0.663661  0.501640  1
  Zr  Zr4  1  0.278372  0.000000  0.250000  1
  Zr  Zr5  1  0.282252  0.282647  0.750000  1
  Zr  Zr6  1  0.999605  0.717353  0.750000  1
  Zr  Zr7  1  0.005131  0.284624  0.250000  1
  Zr  Zr8  1  0.720507  0.715376  0.250000  1
  Zr  Zr9  1  0.719245  0.000000  0.750000  1
  Sn  Sn10  1  0.999843  0.000000  0.999153  1
  Sn  Sn11  1  0.999843  0.000000  0.500847  1
  Sn  Sn12  1  0.614056  0.614825  0.750000  1
  Sn  Sn13  1  0.999232  0.385175  0.750000  1
  Sn  Sn14  1  0.000698  0.613878  0.250000  1
  Sn  Sn15  1  0.386820  0.386122  0.250000  1
  Sn  Sn16  1  0.384396  0.000000  0.750000  1
  Bi  Bi17  1  0.613287  0.000000  0.250000  1
