# generated using pymatgen
data_Ho6CoSi12Ir17
_symmetry_space_group_name_H-M   'P 1'
_cell_length_a   3.98252200
_cell_length_b   11.35750100
_cell_length_c   12.80417100
_cell_angle_alpha   90.00000000
_cell_angle_beta   90.00000000
_cell_angle_gamma   90.00000000
_symmetry_Int_Tables_number   1
_chemical_formula_structural   Ho6CoSi12Ir17
_chemical_formula_sum   'Ho6 Co1 Si12 Ir17'
_cell_volume   579.15182982
_cell_formula_units_Z   1
loop_
 _symmetry_equiv_pos_site_id
 _symmetry_equiv_pos_as_xyz
  1  'x, y, z'
loop_
 _atom_site_type_symbol
 _atom_site_label
 _atom_site_symmetry_multiplicity
 _atom_site_fract_x
 _atom_site_fract_y
 _atom_site_fract_z
 _atom_site_occupancy
  Ho  Ho0  1  0.000000  0.500000  0.527360  1
  Ho  Ho1  1  0.500000  0.000000  0.472717  1
  Ho  Ho2  1  0.500000  0.819136  0.203790  1
  Ho  Ho3  1  0.500000  0.180864  0.203790  1
  Ho  Ho4  1  0.000000  0.685731  0.797067  1
  Ho  Ho5  1  0.000000  0.314269  0.797067  1
  Co  Co6  1  0.500000  0.000000  0.019114  1
  Si  Si7  1  0.500000  0.306305  0.618332  1
  Si  Si8  1  0.500000  0.693695  0.618332  1
  Si  Si9  1  0.000000  0.193980  0.381285  1
  Si  Si10  1  0.000000  0.806020  0.381285  1
  Si  Si11  1  0.500000  0.500000  0.878078  1
  Si  Si12  1  0.000000  0.000000  0.120090  1
  Si  Si13  1  0.500000  0.855263  0.897700  1
  Si  Si14  1  0.500000  0.144737  0.897700  1
  Si  Si15  1  0.000000  0.654618  0.104657  1
  Si  Si16  1  0.000000  0.345382  0.104657  1
  Si  Si17  1  0.500000  0.500000  0.343233  1
  Si  Si18  1  0.000000  0.000000  0.655704  1
  Ir  Ir19  1  0.000000  0.500000  0.981409  1
  Ir  Ir20  1  0.500000  0.301663  0.430368  1
  Ir  Ir21  1  0.500000  0.698337  0.430368  1
  Ir  Ir22  1  0.000000  0.198145  0.569129  1
  Ir  Ir23  1  0.000000  0.801855  0.569129  1
  Ir  Ir24  1  0.500000  0.877958  0.712708  1
  Ir  Ir25  1  0.500000  0.122042  0.712708  1
  Ir  Ir26  1  0.000000  0.622174  0.286725  1
  Ir  Ir27  1  0.000000  0.377826  0.286725  1
  Ir  Ir28  1  0.500000  0.329584  0.989669  1
  Ir  Ir29  1  0.500000  0.670416  0.989669  1
  Ir  Ir30  1  0.000000  0.162984  0.010590  1
  Ir  Ir31  1  0.000000  0.837016  0.010590  1
  Ir  Ir32  1  0.500000  0.500000  0.156382  1
  Ir  Ir33  1  0.000000  0.000000  0.842804  1
  Ir  Ir34  1  0.500000  0.500000  0.693482  1
  Ir  Ir35  1  0.000000  0.000000  0.305588  1
