# generated using pymatgen
data_HoCo3B4Os
_symmetry_space_group_name_H-M   'P 1'
_cell_length_a   7.22474102
_cell_length_b   6.98969995
_cell_length_c   3.87257500
_cell_angle_alpha   90.00000000
_cell_angle_beta   90.00000000
_cell_angle_gamma   91.26591644
_symmetry_Int_Tables_number   1
_chemical_formula_structural   HoCo3B4Os
_chemical_formula_sum   'Ho2 Co6 B8 Os2'
_cell_volume   195.51255103
_cell_formula_units_Z   2
loop_
 _symmetry_equiv_pos_site_id
 _symmetry_equiv_pos_as_xyz
  1  'x, y, z'
loop_
 _atom_site_type_symbol
 _atom_site_label
 _atom_site_symmetry_multiplicity
 _atom_site_fract_x
 _atom_site_fract_y
 _atom_site_fract_z
 _atom_site_occupancy
  Ho  Ho0  1  0.000000  0.000000  0.928732  1
  Ho  Ho1  1  0.500000  0.500000  0.404879  1
  Co  Co2  1  0.337631  0.885153  0.400554  1
  Co  Co3  1  0.662369  0.114847  0.400554  1
  Co  Co4  1  0.116618  0.372766  0.622350  1
  Co  Co5  1  0.883382  0.627234  0.622350  1
  Co  Co6  1  0.125404  0.624276  0.122912  1
  Co  Co7  1  0.874596  0.375724  0.122912  1
  B  B8  1  0.817569  0.658443  0.119460  1
  B  B9  1  0.182431  0.341557  0.119460  1
  B  B10  1  0.837009  0.314385  0.618121  1
  B  B11  1  0.162991  0.685615  0.618121  1
  B  B12  1  0.727749  0.829686  0.401440  1
  B  B13  1  0.272251  0.170314  0.401440  1
  B  B14  1  0.669547  0.213298  0.902425  1
  B  B15  1  0.330453  0.786702  0.902425  1
  Os  Os16  1  0.385623  0.148789  0.895933  1
  Os  Os17  1  0.614377  0.851211  0.895933  1
