# generated using pymatgen
data_AcTaO4
_symmetry_space_group_name_H-M   'P 1'
_cell_length_a   7.72710995
_cell_length_b   7.72711055
_cell_length_c   5.82551500
_cell_angle_alpha   90.00000000
_cell_angle_beta   90.00000000
_cell_angle_gamma   149.82417259
_symmetry_Int_Tables_number   1
_chemical_formula_structural   AcTaO4
_chemical_formula_sum   'Ac2 Ta2 O8'
_cell_volume   174.83918941
_cell_formula_units_Z   2
loop_
 _symmetry_equiv_pos_site_id
 _symmetry_equiv_pos_as_xyz
  1  'x, y, z'
loop_
 _atom_site_type_symbol
 _atom_site_label
 _atom_site_symmetry_multiplicity
 _atom_site_fract_x
 _atom_site_fract_y
 _atom_site_fract_z
 _atom_site_occupancy
  Ac  Ac0  1  0.834117  0.165883  0.173831  1
  Ac  Ac1  1  0.165883  0.834117  0.673831  1
  Ta  Ta2  1  0.585175  0.414825  0.217252  1
  Ta  Ta3  1  0.414825  0.585175  0.717252  1
  O  O4  1  0.916533  0.083467  0.746442  1
  O  O5  1  0.083467  0.916533  0.246442  1
  O  O6  1  0.470862  0.529138  0.053860  1
  O  O7  1  0.529138  0.470862  0.553860  1
  O  O8  1  0.696679  0.303321  0.419313  1
  O  O9  1  0.303321  0.696679  0.919313  1
  O  O10  1  0.662580  0.337420  0.955903  1
  O  O11  1  0.337420  0.662580  0.455903  1
