# generated using pymatgen
data_SmHo7(Si3Pt)4
_symmetry_space_group_name_H-M   'P 1'
_cell_length_a   8.14850200
_cell_length_b   8.14850173
_cell_length_c   8.16705400
_cell_angle_alpha   90.00000000
_cell_angle_beta   90.00000000
_cell_angle_gamma   119.99999298
_symmetry_Int_Tables_number   1
_chemical_formula_structural   SmHo7(Si3Pt)4
_chemical_formula_sum   'Sm1 Ho7 Si12 Pt4'
_cell_volume   469.62545420
_cell_formula_units_Z   1
loop_
 _symmetry_equiv_pos_site_id
 _symmetry_equiv_pos_as_xyz
  1  'x, y, z'
loop_
 _atom_site_type_symbol
 _atom_site_label
 _atom_site_symmetry_multiplicity
 _atom_site_fract_x
 _atom_site_fract_y
 _atom_site_fract_z
 _atom_site_occupancy
  Sm  Sm0  1  0.000000  0.000000  0.250000  1
  Ho  Ho1  1  0.499339  0.500661  0.750000  1
  Ho  Ho2  1  0.500740  0.499260  0.250000  1
  Ho  Ho3  1  0.001323  0.500661  0.750000  1
  Ho  Ho4  1  0.998519  0.499260  0.250000  1
  Ho  Ho5  1  0.499339  0.998677  0.750000  1
  Ho  Ho6  1  0.500740  0.001481  0.250000  1
  Ho  Ho7  1  0.000000  0.000000  0.750000  1
  Si  Si8  1  0.834291  0.165709  0.996010  1
  Si  Si9  1  0.165708  0.834292  0.997236  1
  Si  Si10  1  0.331418  0.165709  0.996010  1
  Si  Si11  1  0.165708  0.834292  0.502764  1
  Si  Si12  1  0.668583  0.834292  0.997236  1
  Si  Si13  1  0.834291  0.165709  0.503990  1
  Si  Si14  1  0.834291  0.668582  0.996010  1
  Si  Si15  1  0.668583  0.834292  0.502764  1
  Si  Si16  1  0.165708  0.331417  0.997236  1
  Si  Si17  1  0.331418  0.165709  0.503990  1
  Si  Si18  1  0.165708  0.331417  0.502764  1
  Si  Si19  1  0.834291  0.668582  0.503990  1
  Pt  Pt20  1  0.666667  0.333333  0.000206  1
  Pt  Pt21  1  0.333333  0.666667  0.002324  1
  Pt  Pt22  1  0.333333  0.666667  0.497676  1
  Pt  Pt23  1  0.666667  0.333333  0.499794  1
