# generated using pymatgen
data_Lu8Si16(Mo3W)3
_symmetry_space_group_name_H-M   'P 1'
_cell_length_a   6.69591905
_cell_length_b   6.90544905
_cell_length_c   12.81801000
_cell_angle_alpha   90.00000000
_cell_angle_beta   90.00000000
_cell_angle_gamma   89.98638534
_symmetry_Int_Tables_number   1
_chemical_formula_structural   Lu8Si16(Mo3W)3
_chemical_formula_sum   'Lu8 Si16 Mo9 W3'
_cell_volume   592.68333159
_cell_formula_units_Z   1
loop_
 _symmetry_equiv_pos_site_id
 _symmetry_equiv_pos_as_xyz
  1  'x, y, z'
loop_
 _atom_site_type_symbol
 _atom_site_label
 _atom_site_symmetry_multiplicity
 _atom_site_fract_x
 _atom_site_fract_y
 _atom_site_fract_z
 _atom_site_occupancy
  Lu  Lu0  1  0.496523  0.331266  0.093638  1
  Lu  Lu1  1  0.996902  0.168486  0.406328  1
  Lu  Lu2  1  0.503200  0.668600  0.593766  1
  Lu  Lu3  1  0.003300  0.831392  0.906217  1
  Lu  Lu4  1  0.503200  0.668600  0.906234  1
  Lu  Lu5  1  0.003300  0.831392  0.593783  1
  Lu  Lu6  1  0.496523  0.331266  0.406362  1
  Lu  Lu7  1  0.996902  0.168486  0.093672  1
  Si  Si8  1  0.661399  0.039524  0.546630  1
  Si  Si9  1  0.161377  0.460356  0.953406  1
  Si  Si10  1  0.338585  0.960451  0.046607  1
  Si  Si11  1  0.838814  0.539873  0.453321  1
  Si  Si12  1  0.338585  0.960451  0.453393  1
  Si  Si13  1  0.838814  0.539873  0.046679  1
  Si  Si14  1  0.661399  0.039524  0.953370  1
  Si  Si15  1  0.161377  0.460356  0.546594  1
  Si  Si16  1  0.533962  0.370249  0.750000  1
  Si  Si17  1  0.033931  0.129655  0.750000  1
  Si  Si18  1  0.466291  0.629955  0.250000  1
  Si  Si19  1  0.965881  0.869860  0.250000  1
  Si  Si20  1  0.801116  0.633696  0.750000  1
  Si  Si21  1  0.301079  0.866353  0.750000  1
  Si  Si22  1  0.198725  0.366799  0.250000  1
  Si  Si23  1  0.698927  0.133417  0.250000  1
  Mo  Mo24  1  0.829834  0.334392  0.624689  1
  Mo  Mo25  1  0.329930  0.165746  0.875201  1
  Mo  Mo26  1  0.170412  0.665811  0.124643  1
  Mo  Mo27  1  0.669866  0.834297  0.375299  1
  Mo  Mo28  1  0.170412  0.665811  0.375357  1
  Mo  Mo29  1  0.669866  0.834297  0.124701  1
  Mo  Mo30  1  0.829834  0.334392  0.875311  1
  Mo  Mo31  1  0.329930  0.165746  0.624799  1
  Mo  Mo32  1  0.834012  0.495597  0.250000  1
  W  W33  1  0.665928  0.995802  0.750000  1
  W  W34  1  0.165816  0.504040  0.750000  1
  W  W35  1  0.334049  0.004189  0.250000  1
