# generated using pymatgen
data_Tb3Tm2GaSb2
_symmetry_space_group_name_H-M   'P 1'
_cell_length_a   8.81947600
_cell_length_b   8.81167663
_cell_length_c   6.41509000
_cell_angle_alpha   90.00000000
_cell_angle_beta   90.00000000
_cell_angle_gamma   120.02928377
_symmetry_Int_Tables_number   1
_chemical_formula_structural   Tb3Tm2GaSb2
_chemical_formula_sum   'Tb6 Tm4 Ga2 Sb4'
_cell_volume   431.62490007
_cell_formula_units_Z   2
loop_
 _symmetry_equiv_pos_site_id
 _symmetry_equiv_pos_as_xyz
  1  'x, y, z'
loop_
 _atom_site_type_symbol
 _atom_site_label
 _atom_site_symmetry_multiplicity
 _atom_site_fract_x
 _atom_site_fract_y
 _atom_site_fract_z
 _atom_site_occupancy
  Tb  Tb0  1  0.244968  0.000000  0.250000  1
  Tb  Tb1  1  0.755032  0.000000  0.750000  1
  Tb  Tb2  1  0.987318  0.234183  0.250000  1
  Tb  Tb3  1  0.753136  0.765817  0.250000  1
  Tb  Tb4  1  0.246864  0.234183  0.750000  1
  Tb  Tb5  1  0.012682  0.765817  0.750000  1
  Tm  Tm6  1  0.342580  0.685162  0.000000  1
  Tm  Tm7  1  0.657420  0.314838  0.500000  1
  Tm  Tm8  1  0.657420  0.314838  0.000000  1
  Tm  Tm9  1  0.342580  0.685162  0.500000  1
  Ga  Ga10  1  0.601149  0.000000  0.250000  1
  Ga  Ga11  1  0.398851  0.000000  0.750000  1
  Sb  Sb12  1  0.994335  0.604337  0.250000  1
  Sb  Sb13  1  0.389998  0.395663  0.250000  1
  Sb  Sb14  1  0.610002  0.604337  0.750000  1
  Sb  Sb15  1  0.005665  0.395663  0.750000  1
