# generated using pymatgen
data_DyHo3Re2(B8W)2
_symmetry_space_group_name_H-M   'P 1'
_cell_length_a   3.61259700
_cell_length_b   5.99770644
_cell_length_c   11.60638608
_cell_angle_alpha   89.96715914
_cell_angle_beta   90.00000000
_cell_angle_gamma   90.00000000
_symmetry_Int_Tables_number   1
_chemical_formula_structural   DyHo3Re2(B8W)2
_chemical_formula_sum   'Dy1 Ho3 Re2 B16 W2'
_cell_volume   251.47896476
_cell_formula_units_Z   1
loop_
 _symmetry_equiv_pos_site_id
 _symmetry_equiv_pos_as_xyz
  1  'x, y, z'
loop_
 _atom_site_type_symbol
 _atom_site_label
 _atom_site_symmetry_multiplicity
 _atom_site_fract_x
 _atom_site_fract_y
 _atom_site_fract_z
 _atom_site_occupancy
  Dy  Dy0  1  0.000000  0.628051  0.149104  1
  Ho  Ho1  1  0.000000  0.372000  0.850873  1
  Ho  Ho2  1  0.000000  0.126892  0.349203  1
  Ho  Ho3  1  0.000000  0.873138  0.650844  1
  Re  Re4  1  0.000000  0.134413  0.086878  1
  Re  Re5  1  0.000000  0.865712  0.912820  1
  B  B6  1  0.500000  0.977419  0.191293  1
  B  B7  1  0.500000  0.022761  0.808535  1
  B  B8  1  0.500000  0.475443  0.305842  1
  B  B9  1  0.500000  0.524136  0.694458  1
  B  B10  1  0.500000  0.789915  0.313094  1
  B  B11  1  0.500000  0.210181  0.687093  1
  B  B12  1  0.500000  0.285262  0.184363  1
  B  B13  1  0.500000  0.714436  0.815556  1
  B  B14  1  0.500000  0.867307  0.467587  1
  B  B15  1  0.500000  0.132743  0.532656  1
  B  B16  1  0.500000  0.363334  0.030617  1
  B  B17  1  0.500000  0.636714  0.968969  1
  B  B18  1  0.500000  0.887065  0.046993  1
  B  B19  1  0.500000  0.113548  0.952624  1
  B  B20  1  0.500000  0.384676  0.452615  1
  B  B21  1  0.500000  0.614993  0.547694  1
  W  W22  1  0.000000  0.630460  0.414543  1
  W  W23  1  0.000000  0.369401  0.585749  1
