# generated using pymatgen
data_Sr2Li6P5
_symmetry_space_group_name_H-M   'P 1'
_cell_length_a   4.23387571
_cell_length_b   4.23387664
_cell_length_c   13.49814432
_cell_angle_alpha   99.02304057
_cell_angle_beta   99.02304367
_cell_angle_gamma   90.00000527
_symmetry_Int_Tables_number   1
_chemical_formula_structural   Sr2Li6P5
_chemical_formula_sum   'Sr2 Li6 P5'
_cell_volume   235.93735553
_cell_formula_units_Z   1
loop_
 _symmetry_equiv_pos_site_id
 _symmetry_equiv_pos_as_xyz
  1  'x, y, z'
loop_
 _atom_site_type_symbol
 _atom_site_label
 _atom_site_symmetry_multiplicity
 _atom_site_fract_x
 _atom_site_fract_y
 _atom_site_fract_z
 _atom_site_occupancy
  Sr  Sr0  1  0.645815  0.645815  0.291630  1
  Sr  Sr1  1  0.354185  0.354185  0.708370  1
  Li  Li2  1  0.950018  0.450018  0.900037  1
  Li  Li3  1  0.450018  0.950018  0.900037  1
  Li  Li4  1  0.049982  0.549982  0.099963  1
  Li  Li5  1  0.549982  0.049982  0.099963  1
  Li  Li6  1  0.250000  0.750000  0.500000  1
  Li  Li7  1  0.750000  0.250000  0.500000  1
  P  P8  1  0.500000  0.500000  0.000000  1
  P  P9  1  0.889470  0.889470  0.778940  1
  P  P10  1  0.110530  0.110530  0.221060  1
  P  P11  1  0.804735  0.804735  0.609469  1
  P  P12  1  0.195265  0.195265  0.390531  1
