# generated using pymatgen
data_TbGd2Y(B6Os)2
_symmetry_space_group_name_H-M   'P 1'
_cell_length_a   3.67206200
_cell_length_b   9.19860601
_cell_length_c   11.57809101
_cell_angle_alpha   90.00452256
_cell_angle_beta   90.00000000
_cell_angle_gamma   90.00000000
_symmetry_Int_Tables_number   1
_chemical_formula_structural   TbGd2Y(B6Os)2
_chemical_formula_sum   'Tb2 Gd4 Y2 B24 Os4'
_cell_volume   391.08303837
_cell_formula_units_Z   2
loop_
 _symmetry_equiv_pos_site_id
 _symmetry_equiv_pos_as_xyz
  1  'x, y, z'
loop_
 _atom_site_type_symbol
 _atom_site_label
 _atom_site_symmetry_multiplicity
 _atom_site_fract_x
 _atom_site_fract_y
 _atom_site_fract_z
 _atom_site_occupancy
  Tb  Tb0  1  0.000000  0.944200  0.373094  1
  Tb  Tb1  1  0.000000  0.055800  0.626906  1
  Gd  Gd2  1  0.000000  0.323065  0.413654  1
  Gd  Gd3  1  0.000000  0.676935  0.586346  1
  Gd  Gd4  1  0.000000  0.822980  0.086339  1
  Gd  Gd5  1  0.000000  0.177020  0.913661  1
  Y  Y6  1  0.000000  0.444304  0.126676  1
  Y  Y7  1  0.000000  0.555696  0.873324  1
  B  B8  1  0.500000  0.554137  0.432438  1
  B  B9  1  0.500000  0.445863  0.567562  1
  B  B10  1  0.500000  0.054177  0.067544  1
  B  B11  1  0.500000  0.945823  0.932456  1
  B  B12  1  0.500000  0.747412  0.419707  1
  B  B13  1  0.500000  0.252588  0.580293  1
  B  B14  1  0.500000  0.247554  0.080248  1
  B  B15  1  0.500000  0.752446  0.919752  1
  B  B16  1  0.500000  0.790699  0.267055  1
  B  B17  1  0.500000  0.209301  0.732945  1
  B  B18  1  0.500000  0.290895  0.232943  1
  B  B19  1  0.500000  0.709105  0.767057  1
  B  B20  1  0.500000  0.632319  0.185795  1
  B  B21  1  0.500000  0.367681  0.814205  1
  B  B22  1  0.500000  0.132408  0.314114  1
  B  B23  1  0.500000  0.867592  0.685886  1
  B  B24  1  0.500000  0.984392  0.213062  1
  B  B25  1  0.500000  0.015608  0.786938  1
  B  B26  1  0.500000  0.484252  0.286878  1
  B  B27  1  0.500000  0.515748  0.713122  1
  B  B28  1  0.500000  0.609484  0.030330  1
  B  B29  1  0.500000  0.390516  0.969670  1
  B  B30  1  0.500000  0.109737  0.469592  1
  B  B31  1  0.500000  0.890263  0.530408  1
  Os  Os32  1  0.000000  0.637888  0.321146  1
  Os  Os33  1  0.000000  0.362112  0.678854  1
  Os  Os34  1  0.000000  0.138092  0.178734  1
  Os  Os35  1  0.000000  0.861908  0.821266  1
