# generated using pymatgen
data_PrHo2Cd(Ir2O7)2
_symmetry_space_group_name_H-M   'P 1'
_cell_length_a   7.21706582
_cell_length_b   7.36695759
_cell_length_c   7.32196300
_cell_angle_alpha   60.20182920
_cell_angle_beta   59.51801854
_cell_angle_gamma   59.54040202
_symmetry_Int_Tables_number   1
_chemical_formula_structural   PrHo2Cd(Ir2O7)2
_chemical_formula_sum   'Pr1 Ho2 Cd1 Ir4 O14'
_cell_volume   273.70478077
_cell_formula_units_Z   1
loop_
 _symmetry_equiv_pos_site_id
 _symmetry_equiv_pos_as_xyz
  1  'x, y, z'
loop_
 _atom_site_type_symbol
 _atom_site_label
 _atom_site_symmetry_multiplicity
 _atom_site_fract_x
 _atom_site_fract_y
 _atom_site_fract_z
 _atom_site_occupancy
  Pr  Pr0  1  0.125000  0.625000  0.125000  1
  Ho  Ho1  1  0.125000  0.125000  0.625000  1
  Ho  Ho2  1  0.125000  0.125000  0.125000  1
  Cd  Cd3  1  0.625000  0.125000  0.125000  1
  Ir  Ir4  1  0.625000  0.625000  0.625000  1
  Ir  Ir5  1  0.125000  0.625000  0.625000  1
  Ir  Ir6  1  0.625000  0.125000  0.625000  1
  Ir  Ir7  1  0.625000  0.625000  0.125000  1
  O  O8  1  0.963013  0.530494  0.547749  1
  O  O9  1  0.287455  0.290221  0.711162  1
  O  O10  1  0.963013  0.530494  0.958745  1
  O  O11  1  0.711283  0.295934  0.297566  1
  O  O12  1  0.550465  0.545595  0.951970  1
  O  O13  1  0.538717  0.954066  0.554783  1
  O  O14  1  0.538717  0.954066  0.952434  1
  O  O15  1  0.250053  0.236770  0.256588  1
  O  O16  1  0.286987  0.719506  0.702251  1
  O  O17  1  0.711283  0.295934  0.695217  1
  O  O18  1  0.999947  0.013230  0.993412  1
  O  O19  1  0.962545  0.959779  0.538838  1
  O  O20  1  0.286987  0.719506  0.291255  1
  O  O21  1  0.699535  0.704405  0.298030  1
