# generated using pymatgen
data_Tm12Ni4SnRh
_symmetry_space_group_name_H-M   'P 1'
_cell_length_a   8.19273989
_cell_length_b   8.19264844
_cell_length_c   8.19539554
_cell_angle_alpha   106.78431548
_cell_angle_beta   110.27486671
_cell_angle_gamma   111.42128967
_symmetry_Int_Tables_number   1
_chemical_formula_structural   Tm12Ni4SnRh
_chemical_formula_sum   'Tm12 Ni4 Sn1 Rh1'
_cell_volume   422.54100767
_cell_formula_units_Z   1
loop_
 _symmetry_equiv_pos_site_id
 _symmetry_equiv_pos_as_xyz
  1  'x, y, z'
loop_
 _atom_site_type_symbol
 _atom_site_label
 _atom_site_symmetry_multiplicity
 _atom_site_fract_x
 _atom_site_fract_y
 _atom_site_fract_z
 _atom_site_occupancy
  Tm  Tm0  1  0.692141  0.283529  0.975581  1
  Tm  Tm1  1  0.307912  0.716704  0.024515  1
  Tm  Tm2  1  0.692187  0.716624  0.408696  1
  Tm  Tm3  1  0.307905  0.283501  0.591337  1
  Tm  Tm4  1  0.806108  0.126780  0.320619  1
  Tm  Tm5  1  0.805980  0.485340  0.679345  1
  Tm  Tm6  1  0.194019  0.873452  0.679366  1
  Tm  Tm7  1  0.193922  0.514619  0.320597  1
  Tm  Tm8  1  0.608227  0.791260  0.817032  1
  Tm  Tm9  1  0.974080  0.791250  0.182957  1
  Tm  Tm10  1  0.025993  0.208934  0.817050  1
  Tm  Tm11  1  0.391782  0.208983  0.182866  1
  Ni  Ni12  1  0.861173  0.499385  0.361301  1
  Ni  Ni13  1  0.139138  0.500629  0.639240  1
  Ni  Ni14  1  0.000135  0.123358  0.123462  1
  Ni  Ni15  1  0.999783  0.876365  0.876145  1
  Sn  Sn16  1  0.499923  0.999620  0.499877  1
  Rh  Rh17  1  0.499591  0.499669  0.000013  1
