# generated using pymatgen
data_Ho3Sc3MnTe2
_symmetry_space_group_name_H-M   'P 1'
_cell_length_a   4.07576300
_cell_length_b   7.90239862
_cell_length_c   7.89946315
_cell_angle_alpha   120.01229973
_cell_angle_beta   90.00000000
_cell_angle_gamma   90.00000000
_symmetry_Int_Tables_number   1
_chemical_formula_structural   Ho3Sc3MnTe2
_chemical_formula_sum   'Ho3 Sc3 Mn1 Te2'
_cell_volume   220.31406553
_cell_formula_units_Z   1
loop_
 _symmetry_equiv_pos_site_id
 _symmetry_equiv_pos_as_xyz
  1  'x, y, z'
loop_
 _atom_site_type_symbol
 _atom_site_label
 _atom_site_symmetry_multiplicity
 _atom_site_fract_x
 _atom_site_fract_y
 _atom_site_fract_z
 _atom_site_occupancy
  Ho  Ho0  1  0.500000  0.611323  0.000000  1
  Ho  Ho1  1  0.500000  0.388655  0.388697  1
  Ho  Ho2  1  0.500000  0.999958  0.611303  1
  Sc  Sc3  1  0.000000  0.227061  0.000000  1
  Sc  Sc4  1  0.000000  0.772940  0.772905  1
  Sc  Sc5  1  0.000000  0.000034  0.227095  1
  Mn  Mn6  1  0.500000  0.999782  0.000000  1
  Te  Te7  1  0.000000  0.333407  0.666666  1
  Te  Te8  1  0.000000  0.666741  0.333334  1
