# generated using pymatgen
data_Dy2Er(CuSn)4
_symmetry_space_group_name_H-M   'P 1'
_cell_length_a   8.39689149
_cell_length_b   8.39689207
_cell_length_c   6.93162121
_cell_angle_alpha   66.02953847
_cell_angle_beta   66.02953543
_cell_angle_gamma   30.95603414
_symmetry_Int_Tables_number   1
_chemical_formula_structural   Dy2Er(CuSn)4
_chemical_formula_sum   'Dy2 Er1 Cu4 Sn4'
_cell_volume   227.96554339
_cell_formula_units_Z   1
loop_
 _symmetry_equiv_pos_site_id
 _symmetry_equiv_pos_as_xyz
  1  'x, y, z'
loop_
 _atom_site_type_symbol
 _atom_site_label
 _atom_site_symmetry_multiplicity
 _atom_site_fract_x
 _atom_site_fract_y
 _atom_site_fract_z
 _atom_site_occupancy
  Dy  Dy0  1  0.129967  0.129967  0.360396  1
  Dy  Dy1  1  0.870033  0.870033  0.639604  1
  Er  Er2  1  0.000000  0.000000  0.000000  1
  Cu  Cu3  1  0.337174  0.337174  0.979773  1
  Cu  Cu4  1  0.662826  0.662826  0.020227  1
  Cu  Cu5  1  0.321097  0.321097  0.369784  1
  Cu  Cu6  1  0.678903  0.678903  0.630216  1
  Sn  Sn7  1  0.216919  0.216919  0.794626  1
  Sn  Sn8  1  0.783081  0.783081  0.205374  1
  Sn  Sn9  1  0.506569  0.506569  0.697259  1
  Sn  Sn10  1  0.493431  0.493431  0.302741  1
