# generated using pymatgen
data_Tb9Y7(TmSn4)4
_symmetry_space_group_name_H-M   'P 1'
_cell_length_a   8.02134304
_cell_length_b   8.17454206
_cell_length_c   15.47414005
_cell_angle_alpha   90.00863130
_cell_angle_beta   89.99781072
_cell_angle_gamma   90.01107299
_symmetry_Int_Tables_number   1
_chemical_formula_structural   Tb9Y7(TmSn4)4
_chemical_formula_sum   'Tb9 Y7 Tm4 Sn16'
_cell_volume   1014.65180475
_cell_formula_units_Z   1
loop_
 _symmetry_equiv_pos_site_id
 _symmetry_equiv_pos_as_xyz
  1  'x, y, z'
loop_
 _atom_site_type_symbol
 _atom_site_label
 _atom_site_symmetry_multiplicity
 _atom_site_fract_x
 _atom_site_fract_y
 _atom_site_fract_z
 _atom_site_occupancy
  Tb  Tb0  1  0.866895  0.662854  0.877866  1
  Tb  Tb1  1  0.519844  0.320450  0.902691  1
  Tb  Tb2  1  0.019898  0.179526  0.597330  1
  Tb  Tb3  1  0.480088  0.679529  0.402674  1
  Tb  Tb4  1  0.980099  0.820483  0.097361  1
  Tb  Tb5  1  0.480082  0.679482  0.097314  1
  Tb  Tb6  1  0.980064  0.820498  0.402665  1
  Tb  Tb7  1  0.519919  0.320479  0.597333  1
  Tb  Tb8  1  0.019923  0.179467  0.902657  1
  Y  Y9  1  0.366693  0.837246  0.877843  1
  Y  Y10  1  0.866741  0.662762  0.622132  1
  Y  Y11  1  0.633243  0.162747  0.377843  1
  Y  Y12  1  0.133203  0.337292  0.122134  1
  Y  Y13  1  0.633238  0.162776  0.122176  1
  Y  Y14  1  0.133239  0.337242  0.377840  1
  Y  Y15  1  0.366770  0.837225  0.622154  1
  Tm  Tm16  1  0.198311  0.502732  0.750003  1
  Tm  Tm17  1  0.698233  0.997317  0.749960  1
  Tm  Tm18  1  0.801726  0.497230  0.250003  1
  Tm  Tm19  1  0.301733  0.002767  0.249999  1
  Sn  Sn20  1  0.293263  0.035962  0.042518  1
  Sn  Sn21  1  0.793247  0.464039  0.457485  1
  Sn  Sn22  1  0.706775  0.964057  0.542461  1
  Sn  Sn23  1  0.206991  0.535902  0.957558  1
  Sn  Sn24  1  0.706611  0.964202  0.957561  1
  Sn  Sn25  1  0.206750  0.535942  0.542458  1
  Sn  Sn26  1  0.293252  0.035950  0.457472  1
  Sn  Sn27  1  0.793202  0.463910  0.042638  1
  Sn  Sn28  1  0.563670  0.618354  0.749939  1
  Sn  Sn29  1  0.063860  0.881739  0.749975  1
  Sn  Sn30  1  0.436243  0.381615  0.250000  1
  Sn  Sn31  1  0.936236  0.118392  0.250018  1
  Sn  Sn32  1  0.328913  0.148327  0.749977  1
  Sn  Sn33  1  0.828902  0.351542  0.749956  1
  Sn  Sn34  1  0.671084  0.851628  0.250002  1
  Sn  Sn35  1  0.171059  0.648336  0.250004  1
