# generated using pymatgen
data_BaAcAgS3
_symmetry_space_group_name_H-M   'P 1'
_cell_length_a   4.35172868
_cell_length_b   11.21191900
_cell_length_c   7.26673281
_cell_angle_alpha   90.00000000
_cell_angle_beta   107.43322373
_cell_angle_gamma   90.00000000
_symmetry_Int_Tables_number   1
_chemical_formula_structural   BaAcAgS3
_chemical_formula_sum   'Ba2 Ac2 Ag2 S6'
_cell_volume   338.26706934
_cell_formula_units_Z   2
loop_
 _symmetry_equiv_pos_site_id
 _symmetry_equiv_pos_as_xyz
  1  'x, y, z'
loop_
 _atom_site_type_symbol
 _atom_site_label
 _atom_site_symmetry_multiplicity
 _atom_site_fract_x
 _atom_site_fract_y
 _atom_site_fract_z
 _atom_site_occupancy
  Ba  Ba0  1  0.247134  0.250000  0.494849  1
  Ba  Ba1  1  0.752866  0.750000  0.505152  1
  Ac  Ac2  1  0.500000  0.000000  0.000000  1
  Ac  Ac3  1  0.500000  0.500000  0.000000  1
  Ag  Ag4  1  0.029771  0.750000  0.059190  1
  Ag  Ag5  1  0.970229  0.250000  0.940810  1
  S  S6  1  0.579025  0.250000  0.158799  1
  S  S7  1  0.139726  0.567837  0.279525  1
  S  S8  1  0.139726  0.932163  0.279525  1
  S  S9  1  0.860274  0.067838  0.720475  1
  S  S10  1  0.860274  0.432163  0.720475  1
  S  S11  1  0.420974  0.750000  0.841200  1
