# generated using pymatgen
data_Dy9Th(PPb3)2
_symmetry_space_group_name_H-M   'P 1'
_cell_length_a   9.23679972
_cell_length_b   9.23679958
_cell_length_c   6.79826300
_cell_angle_alpha   90.00000000
_cell_angle_beta   90.00000000
_cell_angle_gamma   120.19015369
_symmetry_Int_Tables_number   1
_chemical_formula_structural   Dy9Th(PPb3)2
_chemical_formula_sum   'Dy9 Th1 P2 Pb6'
_cell_volume   501.34454034
_cell_formula_units_Z   1
loop_
 _symmetry_equiv_pos_site_id
 _symmetry_equiv_pos_as_xyz
  1  'x, y, z'
loop_
 _atom_site_type_symbol
 _atom_site_label
 _atom_site_symmetry_multiplicity
 _atom_site_fract_x
 _atom_site_fract_y
 _atom_site_fract_z
 _atom_site_occupancy
  Dy  Dy0  1  0.238727  0.000562  0.750000  1
  Dy  Dy1  1  0.000562  0.238727  0.750000  1
  Dy  Dy2  1  0.237789  0.237789  0.250000  1
  Dy  Dy3  1  0.762093  0.000447  0.250000  1
  Dy  Dy4  1  0.000447  0.762093  0.250000  1
  Dy  Dy5  1  0.666891  0.332689  0.000670  1
  Dy  Dy6  1  0.332689  0.666891  0.000670  1
  Dy  Dy7  1  0.332689  0.666891  0.499330  1
  Dy  Dy8  1  0.666891  0.332689  0.499330  1
  Th  Th9  1  0.760136  0.760136  0.750000  1
  P  P10  1  0.001856  0.001856  0.001671  1
  P  P11  1  0.001856  0.001856  0.498329  1
  Pb  Pb12  1  0.397359  0.397359  0.750000  1
  Pb  Pb13  1  0.598743  0.002371  0.750000  1
  Pb  Pb14  1  0.002371  0.598743  0.750000  1
  Pb  Pb15  1  0.599819  0.599819  0.250000  1
  Pb  Pb16  1  0.399251  0.999833  0.250000  1
  Pb  Pb17  1  0.999833  0.399251  0.250000  1
