# generated using pymatgen
data_Ho8Re3TcC8
_symmetry_space_group_name_H-M   'P 1'
_cell_length_a   5.08502000
_cell_length_b   6.55523190
_cell_length_c   9.83348804
_cell_angle_alpha   90.03535484
_cell_angle_beta   90.00000000
_cell_angle_gamma   90.00000000
_symmetry_Int_Tables_number   1
_chemical_formula_structural   Ho8Re3TcC8
_chemical_formula_sum   'Ho8 Re3 Tc1 C8'
_cell_volume   327.78436696
_cell_formula_units_Z   1
loop_
 _symmetry_equiv_pos_site_id
 _symmetry_equiv_pos_as_xyz
  1  'x, y, z'
loop_
 _atom_site_type_symbol
 _atom_site_label
 _atom_site_symmetry_multiplicity
 _atom_site_fract_x
 _atom_site_fract_y
 _atom_site_fract_z
 _atom_site_occupancy
  Ho  Ho0  1  0.750000  0.533349  0.783782  1
  Ho  Ho1  1  0.250000  0.965847  0.283506  1
  Ho  Ho2  1  0.750000  0.678469  0.442936  1
  Ho  Ho3  1  0.250000  0.822831  0.943012  1
  Ho  Ho4  1  0.750000  0.177901  0.057435  1
  Ho  Ho5  1  0.250000  0.321226  0.557762  1
  Ho  Ho6  1  0.250000  0.465594  0.216704  1
  Ho  Ho7  1  0.750000  0.033726  0.716645  1
  Re  Re8  1  0.250000  0.782265  0.632754  1
  Re  Re9  1  0.750000  0.218503  0.367382  1
  Re  Re10  1  0.750000  0.718216  0.132800  1
  Tc  Tc11  1  0.250000  0.281896  0.867331  1
  C  C12  1  0.250000  0.676029  0.449167  1
  C  C13  1  0.250000  0.549858  0.757837  1
  C  C14  1  0.750000  0.451676  0.241287  1
  C  C15  1  0.750000  0.823405  0.949318  1
  C  C16  1  0.250000  0.048278  0.740786  1
  C  C17  1  0.250000  0.175711  0.049750  1
  C  C18  1  0.750000  0.323835  0.550825  1
  C  C19  1  0.750000  0.951385  0.258981  1
