# generated using pymatgen
data_La4PdPb2Au3
_symmetry_space_group_name_H-M   'P 1'
_cell_length_a   8.27707875
_cell_length_b   8.27707875
_cell_length_c   3.95736100
_cell_angle_alpha   90.00000000
_cell_angle_beta   90.00000000
_cell_angle_gamma   90.37259620
_symmetry_Int_Tables_number   1
_chemical_formula_structural   La4PdPb2Au3
_chemical_formula_sum   'La4 Pd1 Pb2 Au3'
_cell_volume   271.11319881
_cell_formula_units_Z   1
loop_
 _symmetry_equiv_pos_site_id
 _symmetry_equiv_pos_as_xyz
  1  'x, y, z'
loop_
 _atom_site_type_symbol
 _atom_site_label
 _atom_site_symmetry_multiplicity
 _atom_site_fract_x
 _atom_site_fract_y
 _atom_site_fract_z
 _atom_site_occupancy
  La  La0  1  0.682877  0.182877  0.500000  1
  La  La1  1  0.169265  0.324326  0.500000  1
  La  La2  1  0.824326  0.669265  0.500000  1
  La  La3  1  0.324636  0.824636  0.500000  1
  Pd  Pd4  1  0.874498  0.374498  0.000000  1
  Pb  Pb5  1  0.997799  0.004936  0.000000  1
  Pb  Pb6  1  0.504936  0.497799  0.000000  1
  Au  Au7  1  0.377520  0.123695  0.000000  1
  Au  Au8  1  0.120448  0.620448  0.000000  1
  Au  Au9  1  0.623695  0.877520  0.000000  1
