# generated using pymatgen
data_UCuNiIr3S8
_symmetry_space_group_name_H-M   'P 1'
_cell_length_a   7.25532048
_cell_length_b   7.25532109
_cell_length_c   6.86799500
_cell_angle_alpha   58.11622155
_cell_angle_beta   58.11621728
_cell_angle_gamma   59.99999341
_symmetry_Int_Tables_number   1
_chemical_formula_structural   UCuNiIr3S8
_chemical_formula_sum   'U1 Cu1 Ni1 Ir3 S8'
_cell_volume   248.11716904
_cell_formula_units_Z   1
loop_
 _symmetry_equiv_pos_site_id
 _symmetry_equiv_pos_as_xyz
  1  'x, y, z'
loop_
 _atom_site_type_symbol
 _atom_site_label
 _atom_site_symmetry_multiplicity
 _atom_site_fract_x
 _atom_site_fract_y
 _atom_site_fract_z
 _atom_site_occupancy
  U  U0  1  0.627694  0.627694  0.116919  1
  Cu  Cu1  1  0.246993  0.246993  0.259020  1
  Ni  Ni2  1  0.003826  0.003826  0.988522  1
  Ir  Ir3  1  0.625110  0.625110  0.626657  1
  Ir  Ir4  1  0.123123  0.625110  0.626657  1
  Ir  Ir5  1  0.625110  0.123123  0.626657  1
  S  S6  1  0.385475  0.385475  0.843576  1
  S  S7  1  0.367161  0.367161  0.405218  1
  S  S8  1  0.886011  0.886011  0.848199  1
  S  S9  1  0.866085  0.866085  0.401743  1
  S  S10  1  0.367161  0.860463  0.405218  1
  S  S11  1  0.860463  0.367161  0.405218  1
  S  S12  1  0.379778  0.886011  0.848199  1
  S  S13  1  0.886011  0.379778  0.848199  1
