# generated using pymatgen
data_Zr6Nb4Al2Ga10Os7
_symmetry_space_group_name_H-M   'P 1'
_cell_length_a   8.88161146
_cell_length_b   8.86477086
_cell_length_c   8.86477065
_cell_angle_alpha   59.86464941
_cell_angle_beta   59.93714173
_cell_angle_gamma   59.93713433
_symmetry_Int_Tables_number   1
_chemical_formula_structural   Zr6Nb4Al2Ga10Os7
_chemical_formula_sum   'Zr6 Nb4 Al2 Ga10 Os7'
_cell_volume   492.55316902
_cell_formula_units_Z   1
loop_
 _symmetry_equiv_pos_site_id
 _symmetry_equiv_pos_as_xyz
  1  'x, y, z'
loop_
 _atom_site_type_symbol
 _atom_site_label
 _atom_site_symmetry_multiplicity
 _atom_site_fract_x
 _atom_site_fract_y
 _atom_site_fract_z
 _atom_site_occupancy
  Zr  Zr0  1  0.702647  0.704470  0.296426  1
  Zr  Zr1  1  0.296456  0.704470  0.296426  1
  Zr  Zr2  1  0.704068  0.295932  0.295932  1
  Zr  Zr3  1  0.296456  0.296426  0.704470  1
  Zr  Zr4  1  0.702647  0.296426  0.704470  1
  Zr  Zr5  1  0.297020  0.702980  0.702980  1
  Nb  Nb6  1  0.878040  0.877952  0.365970  1
  Nb  Nb7  1  0.878040  0.365970  0.877952  1
  Nb  Nb8  1  0.367064  0.877615  0.877615  1
  Nb  Nb9  1  0.877707  0.877615  0.877615  1
  Al  Al10  1  0.121523  0.121788  0.635165  1
  Al  Al11  1  0.121523  0.635165  0.121788  1
  Ga  Ga12  1  0.640342  0.120010  0.120010  1
  Ga  Ga13  1  0.119637  0.120010  0.120010  1
  Ga  Ga14  1  0.656946  0.656882  0.029226  1
  Ga  Ga15  1  0.656946  0.029226  0.656882  1
  Ga  Ga16  1  0.029337  0.656877  0.656877  1
  Ga  Ga17  1  0.656909  0.656877  0.656877  1
  Ga  Ga18  1  0.338220  0.340259  0.983303  1
  Ga  Ga19  1  0.338220  0.983303  0.340259  1
  Ga  Ga20  1  0.983534  0.339510  0.339510  1
  Ga  Ga21  1  0.337448  0.339510  0.339510  1
  Os  Os22  1  0.002920  0.997080  0.997080  1
  Os  Os23  1  0.998002  0.998803  0.502560  1
  Os  Os24  1  0.500636  0.998803  0.502560  1
  Os  Os25  1  0.997905  0.502095  0.502095  1
  Os  Os26  1  0.500636  0.502560  0.998803  1
  Os  Os27  1  0.998002  0.502560  0.998803  1
  Os  Os28  1  0.501172  0.998828  0.998828  1
