# generated using pymatgen
data_La3NdGa9GeIr6
_symmetry_space_group_name_H-M   'P 1'
_cell_length_a   8.67389520
_cell_length_b   8.72973607
_cell_length_c   8.72973665
_cell_angle_alpha   140.72858205
_cell_angle_beta   108.10985001
_cell_angle_gamma   85.20781625
_symmetry_Int_Tables_number   1
_chemical_formula_structural   La3NdGa9GeIr6
_chemical_formula_sum   'La3 Nd1 Ga9 Ge1 Ir6'
_cell_volume   383.89920080
_cell_formula_units_Z   1
loop_
 _symmetry_equiv_pos_site_id
 _symmetry_equiv_pos_as_xyz
  1  'x, y, z'
loop_
 _atom_site_type_symbol
 _atom_site_label
 _atom_site_symmetry_multiplicity
 _atom_site_fract_x
 _atom_site_fract_y
 _atom_site_fract_z
 _atom_site_occupancy
  La  La0  1  0.865383  0.636951  0.228432  1
  La  La1  1  0.135217  0.363905  0.771312  1
  La  La2  1  0.406368  0.136607  0.269763  1
  Nd  Nd3  1  0.590516  0.862496  0.728019  1
  Ga  Ga4  1  0.502073  0.751274  0.252878  1
  Ga  Ga5  1  0.502073  0.249195  0.750799  1
  Ga  Ga6  1  0.209641  0.958931  0.749001  1
  Ga  Ga7  1  0.790116  0.542911  0.750195  1
  Ga  Ga8  1  0.790116  0.039920  0.247205  1
  Ga  Ga9  1  0.209641  0.460641  0.250709  1
  Ga  Ga10  1  0.076422  0.907347  0.169076  1
  Ga  Ga11  1  0.920695  0.088308  0.832386  1
  Ga  Ga12  1  0.740698  0.409664  0.331034  1
  Ge  Ge13  1  0.257233  0.591361  0.665872  1
  Ir  Ir14  1  0.002432  0.750043  0.752748  1
  Ir  Ir15  1  0.002432  0.249684  0.252388  1
  Ir  Ir16  1  0.256183  0.853398  0.402786  1
  Ir  Ir17  1  0.747686  0.148581  0.599104  1
  Ir  Ir18  1  0.450169  0.352749  0.097420  1
  Ir  Ir19  1  0.544909  0.646031  0.898876  1
