# generated using pymatgen
data_Tb3DyGeSe3
_symmetry_space_group_name_H-M   'P 1'
_cell_length_a   7.14627388
_cell_length_b   7.14627352
_cell_length_c   7.14627407
_cell_angle_alpha   131.97288020
_cell_angle_beta   131.97848084
_cell_angle_gamma   70.26744674
_symmetry_Int_Tables_number   1
_chemical_formula_structural   Tb3DyGeSe3
_chemical_formula_sum   'Tb3 Dy1 Ge1 Se3'
_cell_volume   197.69354194
_cell_formula_units_Z   1
loop_
 _symmetry_equiv_pos_site_id
 _symmetry_equiv_pos_as_xyz
  1  'x, y, z'
loop_
 _atom_site_type_symbol
 _atom_site_label
 _atom_site_symmetry_multiplicity
 _atom_site_fract_x
 _atom_site_fract_y
 _atom_site_fract_z
 _atom_site_occupancy
  Tb  Tb0  1  0.242854  0.242854  0.000000  1
  Tb  Tb1  1  0.757146  0.757146  0.000000  1
  Tb  Tb2  1  0.000000  0.500000  0.500000  1
  Dy  Dy3  1  0.500000  0.000000  0.500000  1
  Ge  Ge4  1  0.000000  0.000000  0.000000  1
  Se  Se5  1  0.500000  0.500000  0.000000  1
  Se  Se6  1  0.749900  0.249900  0.500000  1
  Se  Se7  1  0.250100  0.750100  0.500000  1
