# generated using pymatgen
data_CuH8
_symmetry_space_group_name_H-M   'P 1'
_cell_length_a   2.89127407
_cell_length_b   2.45352440
_cell_length_c   12.29411201
_cell_angle_alpha   75.85692139
_cell_angle_beta   100.69444045
_cell_angle_gamma   109.39133209
_symmetry_Int_Tables_number   1
_chemical_formula_structural   CuH8
_chemical_formula_sum   'Cu1 H8'
_cell_volume   79.24949826
_cell_formula_units_Z   1
loop_
 _symmetry_equiv_pos_site_id
 _symmetry_equiv_pos_as_xyz
  1  'x, y, z'
loop_
 _atom_site_type_symbol
 _atom_site_label
 _atom_site_symmetry_multiplicity
 _atom_site_fract_x
 _atom_site_fract_y
 _atom_site_fract_z
 _atom_site_occupancy
  Cu  Cu0  1  0.317900  0.101571  0.567358  1
  H  H1  1  0.543267  0.592112  0.648876  1
  H  H2  1  0.230271  0.376987  0.261688  1
  H  H3  1  0.139847  0.440735  0.308962  1
  H  H4  1  0.077982  0.604011  0.487789  1
  H  H5  1  0.738281  0.778349  0.838009  1
  H  H6  1  0.811322  0.925347  0.887907  1
  H  H7  1  0.339434  0.300511  0.050417  1
  H  H8  1  0.201385  0.416107  0.080461  1
