# generated using pymatgen
data_Mn2H3Se2
_symmetry_space_group_name_H-M   'P 1'
_cell_length_a   8.71656700
_cell_length_b   3.63823424
_cell_length_c   3.62202412
_cell_angle_alpha   89.99945085
_cell_angle_beta   96.66275624
_cell_angle_gamma   99.52077430
_symmetry_Int_Tables_number   1
_chemical_formula_structural   Mn2H3Se2
_chemical_formula_sum   'Mn2 H3 Se2'
_cell_volume   112.49609500
_cell_formula_units_Z   1
loop_
 _symmetry_equiv_pos_site_id
 _symmetry_equiv_pos_as_xyz
  1  'x, y, z'
loop_
 _atom_site_type_symbol
 _atom_site_label
 _atom_site_symmetry_multiplicity
 _atom_site_fract_x
 _atom_site_fract_y
 _atom_site_fract_z
 _atom_site_occupancy
  Mn  Mn0  1  0.599220  0.967791  0.454465  1
  Mn  Mn1  1  0.599112  0.468226  0.954636  1
  H  H2  1  0.188773  0.756681  0.952847  1
  H  H3  1  0.597371  0.967701  0.953762  1
  H  H4  1  0.123380  0.785965  0.807426  1
  Se  Se5  1  0.794210  0.544740  0.509899  1
  Se  Se6  1  0.404449  0.390199  0.399855  1
