# generated using pymatgen
data_Na4ErP12Rh19
_symmetry_space_group_name_H-M   'P 1'
_cell_length_a   12.63535767
_cell_length_b   12.62688923
_cell_length_c   3.91052600
_cell_angle_alpha   90.00000000
_cell_angle_beta   90.00000000
_cell_angle_gamma   119.97783568
_symmetry_Int_Tables_number   1
_chemical_formula_structural   Na4ErP12Rh19
_chemical_formula_sum   'Na4 Er1 P12 Rh19'
_cell_volume   540.43898945
_cell_formula_units_Z   1
loop_
 _symmetry_equiv_pos_site_id
 _symmetry_equiv_pos_as_xyz
  1  'x, y, z'
loop_
 _atom_site_type_symbol
 _atom_site_label
 _atom_site_symmetry_multiplicity
 _atom_site_fract_x
 _atom_site_fract_y
 _atom_site_fract_z
 _atom_site_occupancy
  Na  Na0  1  0.666921  0.333871  0.000000  1
  Na  Na1  1  0.333079  0.666951  0.000000  1
  Na  Na2  1  0.815920  0.815532  0.500000  1
  Na  Na3  1  0.184080  0.999612  0.500000  1
  Er  Er4  1  0.000000  0.177840  0.500000  1
  P  P5  1  0.683705  0.167890  0.500000  1
  P  P6  1  0.831496  0.517416  0.500000  1
  P  P7  1  0.483192  0.314216  0.500000  1
  P  P8  1  0.168504  0.685920  0.500000  1
  P  P9  1  0.516808  0.831025  0.500000  1
  P  P10  1  0.316295  0.484185  0.500000  1
  P  P11  1  0.633794  0.634169  0.000000  1
  P  P12  1  0.366206  0.000374  0.000000  1
  P  P13  1  0.000000  0.365014  0.000000  1
  P  P14  1  0.181325  0.179397  0.000000  1
  P  P15  1  0.818675  0.998071  0.000000  1
  P  P16  1  0.000000  0.818770  0.000000  1
  Rh  Rh17  1  0.807074  0.180354  0.000000  1
  Rh  Rh18  1  0.817881  0.622692  0.000000  1
  Rh  Rh19  1  0.377255  0.196651  0.000000  1
  Rh  Rh20  1  0.182119  0.804811  0.000000  1
  Rh  Rh21  1  0.622745  0.819394  0.000000  1
  Rh  Rh22  1  0.192926  0.373280  0.000000  1
  Rh  Rh23  1  0.450297  0.456119  0.000000  1
  Rh  Rh24  1  0.549703  0.005822  0.000000  1
  Rh  Rh25  1  0.000000  0.545716  0.000000  1
  Rh  Rh26  1  0.282684  0.284102  0.500000  1
  Rh  Rh27  1  0.717316  0.001418  0.500000  1
  Rh  Rh28  1  0.000000  0.716242  0.500000  1
  Rh  Rh29  1  0.870752  0.357348  0.500000  1
  Rh  Rh30  1  0.640207  0.512548  0.500000  1
  Rh  Rh31  1  0.486280  0.128949  0.500000  1
  Rh  Rh32  1  0.359793  0.872340  0.500000  1
  Rh  Rh33  1  0.513720  0.642668  0.500000  1
  Rh  Rh34  1  0.129248  0.486595  0.500000  1
  Rh  Rh35  1  0.000000  0.002701  0.000000  1
