# generated using pymatgen
data_Y2Er2FeSi4Ir
_symmetry_space_group_name_H-M   'P 1'
_cell_length_a   5.65066698
_cell_length_b   5.65066686
_cell_length_c   9.99497480
_cell_angle_alpha   63.22377616
_cell_angle_beta   63.22377897
_cell_angle_gamma   43.31758992
_symmetry_Int_Tables_number   1
_chemical_formula_structural   Y2Er2FeSi4Ir
_chemical_formula_sum   'Y2 Er2 Fe1 Si4 Ir1'
_cell_volume   191.50180617
_cell_formula_units_Z   1
loop_
 _symmetry_equiv_pos_site_id
 _symmetry_equiv_pos_as_xyz
  1  'x, y, z'
loop_
 _atom_site_type_symbol
 _atom_site_label
 _atom_site_symmetry_multiplicity
 _atom_site_fract_x
 _atom_site_fract_y
 _atom_site_fract_z
 _atom_site_occupancy
  Y  Y0  1  0.813008  0.813008  0.107769  1
  Y  Y1  1  0.186534  0.186534  0.890037  1
  Er  Er2  1  0.003434  0.003434  0.324735  1
  Er  Er3  1  0.998519  0.998519  0.672724  1
  Fe  Fe4  1  0.272124  0.272124  0.379049  1
  Si  Si5  1  0.650615  0.650615  0.431742  1
  Si  Si6  1  0.359678  0.359678  0.557987  1
  Si  Si7  1  0.499871  0.499871  0.129596  1
  Si  Si8  1  0.488462  0.488462  0.878408  1
  Ir  Ir9  1  0.727756  0.727756  0.627953  1
