# generated using pymatgen
data_Sm4U(BN3)2
_symmetry_space_group_name_H-M   'P 1'
_cell_length_a   6.30682204
_cell_length_b   6.30682189
_cell_length_c   8.67039499
_cell_angle_alpha   74.22042347
_cell_angle_beta   74.22042310
_cell_angle_gamma   32.23817925
_symmetry_Int_Tables_number   1
_chemical_formula_structural   Sm4U(BN3)2
_chemical_formula_sum   'Sm4 U1 B2 N6'
_cell_volume   176.44517117
_cell_formula_units_Z   1
loop_
 _symmetry_equiv_pos_site_id
 _symmetry_equiv_pos_as_xyz
  1  'x, y, z'
loop_
 _atom_site_type_symbol
 _atom_site_label
 _atom_site_symmetry_multiplicity
 _atom_site_fract_x
 _atom_site_fract_y
 _atom_site_fract_z
 _atom_site_occupancy
  Sm  Sm0  1  0.622713  0.622713  0.622760  1
  Sm  Sm1  1  0.308489  0.308489  0.815184  1
  Sm  Sm2  1  0.691511  0.691511  0.184816  1
  Sm  Sm3  1  0.377287  0.377287  0.377240  1
  U  U4  1  0.000000  0.000000  0.000000  1
  B  B5  1  0.054833  0.054833  0.408831  1
  B  B6  1  0.945167  0.945167  0.591169  1
  N  N7  1  0.026680  0.026680  0.249796  1
  N  N8  1  0.362597  0.362597  0.075222  1
  N  N9  1  0.822721  0.822721  0.594290  1
  N  N10  1  0.973320  0.973320  0.750204  1
  N  N11  1  0.637403  0.637403  0.924778  1
  N  N12  1  0.177279  0.177279  0.405710  1
