# generated using pymatgen
data_Zr4Ta4GaP3
_symmetry_space_group_name_H-M   'P 1'
_cell_length_a   3.58031100
_cell_length_b   6.98298453
_cell_length_c   8.45539641
_cell_angle_alpha   89.40409721
_cell_angle_beta   90.00000000
_cell_angle_gamma   90.00000000
_symmetry_Int_Tables_number   1
_chemical_formula_structural   Zr4Ta4GaP3
_chemical_formula_sum   'Zr4 Ta4 Ga1 P3'
_cell_volume   211.38409978
_cell_formula_units_Z   1
loop_
 _symmetry_equiv_pos_site_id
 _symmetry_equiv_pos_as_xyz
  1  'x, y, z'
loop_
 _atom_site_type_symbol
 _atom_site_label
 _atom_site_symmetry_multiplicity
 _atom_site_fract_x
 _atom_site_fract_y
 _atom_site_fract_z
 _atom_site_occupancy
  Zr  Zr0  1  0.250000  0.036907  0.670272  1
  Zr  Zr1  1  0.250000  0.534120  0.828595  1
  Zr  Zr2  1  0.750000  0.470243  0.161141  1
  Zr  Zr3  1  0.750000  0.955703  0.331453  1
  Ta  Ta4  1  0.750000  0.857342  0.940172  1
  Ta  Ta5  1  0.250000  0.640399  0.443295  1
  Ta  Ta6  1  0.750000  0.370936  0.567768  1
  Ta  Ta7  1  0.250000  0.132971  0.053462  1
  Ga  Ga8  1  0.250000  0.257911  0.357024  1
  P  P9  1  0.250000  0.764014  0.146197  1
  P  P10  1  0.750000  0.743885  0.642840  1
  P  P11  1  0.750000  0.235570  0.857781  1
