# generated using pymatgen
data_Dy8In2NiOs
_symmetry_space_group_name_H-M   'P 1'
_cell_length_a   9.56337734
_cell_length_b   9.60694336
_cell_length_c   9.60694400
_cell_angle_alpha   60.36867993
_cell_angle_beta   60.14989463
_cell_angle_gamma   60.14989219
_symmetry_Int_Tables_number   1
_chemical_formula_structural   Dy8In2NiOs
_chemical_formula_sum   'Dy16 In4 Ni2 Os2'
_cell_volume   627.26058925
_cell_formula_units_Z   2
loop_
 _symmetry_equiv_pos_site_id
 _symmetry_equiv_pos_as_xyz
  1  'x, y, z'
loop_
 _atom_site_type_symbol
 _atom_site_label
 _atom_site_symmetry_multiplicity
 _atom_site_fract_x
 _atom_site_fract_y
 _atom_site_fract_z
 _atom_site_occupancy
  Dy  Dy0  1  0.150984  0.543404  0.154629  1
  Dy  Dy1  1  0.690367  0.309615  0.689745  1
  Dy  Dy2  1  0.689417  0.310583  0.310583  1
  Dy  Dy3  1  0.935593  0.564407  0.564407  1
  Dy  Dy4  1  0.545176  0.152597  0.152597  1
  Dy  Dy5  1  0.150984  0.154629  0.543404  1
  Dy  Dy6  1  0.944960  0.935269  0.559575  1
  Dy  Dy7  1  0.310272  0.689745  0.309615  1
  Dy  Dy8  1  0.556231  0.943769  0.943769  1
  Dy  Dy9  1  0.560196  0.935269  0.559575  1
  Dy  Dy10  1  0.690367  0.689745  0.309615  1
  Dy  Dy11  1  0.560196  0.559575  0.935269  1
  Dy  Dy12  1  0.944960  0.559575  0.935269  1
  Dy  Dy13  1  0.308960  0.691040  0.691040  1
  Dy  Dy14  1  0.149631  0.152597  0.152597  1
  Dy  Dy15  1  0.310272  0.309615  0.689745  1
  In  In16  1  0.917940  0.247554  0.916567  1
  In  In17  1  0.919263  0.916734  0.916734  1
  In  In18  1  0.917940  0.916567  0.247554  1
  In  In19  1  0.247271  0.916734  0.916734  1
  Ni  Ni20  1  0.922420  0.359517  0.359517  1
  Ni  Ni21  1  0.358546  0.359517  0.359517  1
  Os  Os22  1  0.359027  0.359372  0.922575  1
  Os  Os23  1  0.359027  0.922575  0.359372  1
