# generated using pymatgen
data_Nd17Sm3Sn16
_symmetry_space_group_name_H-M   'P 1'
_cell_length_a   8.30790501
_cell_length_b   8.44173101
_cell_length_c   15.98664100
_cell_angle_alpha   90.00000000
_cell_angle_beta   90.00000000
_cell_angle_gamma   90.00677302
_symmetry_Int_Tables_number   1
_chemical_formula_structural   Nd17Sm3Sn16
_chemical_formula_sum   'Nd17 Sm3 Sn16'
_cell_volume   1121.19267495
_cell_formula_units_Z   1
loop_
 _symmetry_equiv_pos_site_id
 _symmetry_equiv_pos_as_xyz
  1  'x, y, z'
loop_
 _atom_site_type_symbol
 _atom_site_label
 _atom_site_symmetry_multiplicity
 _atom_site_fract_x
 _atom_site_fract_y
 _atom_site_fract_z
 _atom_site_occupancy
  Nd  Nd0  1  0.367604  0.835036  0.879248  1
  Nd  Nd1  1  0.867032  0.665312  0.620823  1
  Nd  Nd2  1  0.632647  0.165060  0.379135  1
  Nd  Nd3  1  0.132699  0.334948  0.121038  1
  Nd  Nd4  1  0.632647  0.165060  0.120865  1
  Nd  Nd5  1  0.132699  0.334948  0.378962  1
  Nd  Nd6  1  0.367604  0.835036  0.620752  1
  Nd  Nd7  1  0.867032  0.665312  0.879177  1
  Nd  Nd8  1  0.519355  0.319374  0.900765  1
  Nd  Nd9  1  0.018909  0.180164  0.599280  1
  Nd  Nd10  1  0.480883  0.680368  0.400591  1
  Nd  Nd11  1  0.980988  0.819546  0.099346  1
  Nd  Nd12  1  0.480883  0.680368  0.099409  1
  Nd  Nd13  1  0.980988  0.819546  0.400654  1
  Nd  Nd14  1  0.519355  0.319374  0.599235  1
  Nd  Nd15  1  0.018909  0.180164  0.900720  1
  Nd  Nd16  1  0.197526  0.501691  0.750000  1
  Sm  Sm17  1  0.698110  0.998413  0.750000  1
  Sm  Sm18  1  0.801795  0.498484  0.250000  1
  Sm  Sm19  1  0.301750  0.001426  0.250000  1
  Sn  Sn20  1  0.293005  0.034367  0.042503  1
  Sn  Sn21  1  0.792986  0.465713  0.457508  1
  Sn  Sn22  1  0.706976  0.965647  0.542437  1
  Sn  Sn23  1  0.207072  0.534691  0.958252  1
  Sn  Sn24  1  0.706976  0.965647  0.957563  1
  Sn  Sn25  1  0.207072  0.534691  0.541748  1
  Sn  Sn26  1  0.293005  0.034367  0.457497  1
  Sn  Sn27  1  0.792986  0.465713  0.042492  1
  Sn  Sn28  1  0.567667  0.617209  0.750000  1
  Sn  Sn29  1  0.065738  0.884093  0.750000  1
  Sn  Sn30  1  0.433870  0.383048  0.250000  1
  Sn  Sn31  1  0.933812  0.116976  0.250000  1
  Sn  Sn32  1  0.324873  0.142744  0.750000  1
  Sn  Sn33  1  0.823552  0.355268  0.750000  1
  Sn  Sn34  1  0.675562  0.855874  0.250000  1
  Sn  Sn35  1  0.175434  0.644320  0.250000  1
