# generated using pymatgen
data_Lu4HgPd
_symmetry_space_group_name_H-M   'P 1'
_cell_length_a   9.43997461
_cell_length_b   9.43997448
_cell_length_c   9.43997400
_cell_angle_alpha   60.00000168
_cell_angle_beta   60.00000214
_cell_angle_gamma   60.00000097
_symmetry_Int_Tables_number   1
_chemical_formula_structural   Lu4HgPd
_chemical_formula_sum   'Lu16 Hg4 Pd4'
_cell_volume   594.83629855
_cell_formula_units_Z   4
loop_
 _symmetry_equiv_pos_site_id
 _symmetry_equiv_pos_as_xyz
  1  'x, y, z'
loop_
 _atom_site_type_symbol
 _atom_site_label
 _atom_site_symmetry_multiplicity
 _atom_site_fract_x
 _atom_site_fract_y
 _atom_site_fract_z
 _atom_site_occupancy
  Lu  Lu0  1  0.606561  0.606561  0.606561  1
  Lu  Lu1  1  0.606561  0.606561  0.180315  1
  Lu  Lu2  1  0.606561  0.180315  0.606561  1
  Lu  Lu3  1  0.180315  0.606561  0.606561  1
  Lu  Lu4  1  0.061027  0.438973  0.438973  1
  Lu  Lu5  1  0.438973  0.061027  0.061027  1
  Lu  Lu6  1  0.438973  0.061027  0.438973  1
  Lu  Lu7  1  0.061027  0.438973  0.061027  1
  Lu  Lu8  1  0.438973  0.438973  0.061027  1
  Lu  Lu9  1  0.061027  0.061027  0.438973  1
  Lu  Lu10  1  0.184709  0.815291  0.815291  1
  Lu  Lu11  1  0.815291  0.184709  0.184709  1
  Lu  Lu12  1  0.815291  0.184709  0.815291  1
  Lu  Lu13  1  0.184709  0.815291  0.184709  1
  Lu  Lu14  1  0.815291  0.815291  0.184709  1
  Lu  Lu15  1  0.184709  0.184709  0.815291  1
  Hg  Hg16  1  0.836419  0.836419  0.836419  1
  Hg  Hg17  1  0.836419  0.836419  0.490744  1
  Hg  Hg18  1  0.836419  0.490744  0.836419  1
  Hg  Hg19  1  0.490744  0.836419  0.836419  1
  Pd  Pd20  1  0.395570  0.395570  0.395570  1
  Pd  Pd21  1  0.395570  0.395570  0.813291  1
  Pd  Pd22  1  0.395570  0.813291  0.395570  1
  Pd  Pd23  1  0.813291  0.395570  0.395570  1
