# generated using pymatgen
data_Dy4Ho12Cd4TcNi3
_symmetry_space_group_name_H-M   'P 1'
_cell_length_a   9.54645073
_cell_length_b   9.54645089
_cell_length_c   9.54645017
_cell_angle_alpha   59.43635142
_cell_angle_beta   59.43635293
_cell_angle_gamma   59.43635175
_symmetry_Int_Tables_number   1
_chemical_formula_structural   Dy4Ho12Cd4TcNi3
_chemical_formula_sum   'Dy4 Ho12 Cd4 Tc1 Ni3'
_cell_volume   607.30305223
_cell_formula_units_Z   1
loop_
 _symmetry_equiv_pos_site_id
 _symmetry_equiv_pos_as_xyz
  1  'x, y, z'
loop_
 _atom_site_type_symbol
 _atom_site_label
 _atom_site_symmetry_multiplicity
 _atom_site_fract_x
 _atom_site_fract_y
 _atom_site_fract_z
 _atom_site_occupancy
  Dy  Dy0  1  0.347078  0.347078  0.347078  1
  Dy  Dy1  1  0.352129  0.352129  0.953188  1
  Dy  Dy2  1  0.352129  0.953188  0.352129  1
  Dy  Dy3  1  0.953188  0.352129  0.352129  1
  Ho  Ho4  1  0.810850  0.187515  0.187515  1
  Ho  Ho5  1  0.187233  0.811196  0.811196  1
  Ho  Ho6  1  0.187515  0.810850  0.187515  1
  Ho  Ho7  1  0.811196  0.187233  0.811196  1
  Ho  Ho8  1  0.187515  0.187515  0.810850  1
  Ho  Ho9  1  0.811196  0.811196  0.187233  1
  Ho  Ho10  1  0.935983  0.565605  0.565605  1
  Ho  Ho11  1  0.555348  0.939265  0.939265  1
  Ho  Ho12  1  0.565605  0.935983  0.565605  1
  Ho  Ho13  1  0.939265  0.555348  0.939265  1
  Ho  Ho14  1  0.565605  0.565605  0.935983  1
  Ho  Ho15  1  0.939265  0.939265  0.555348  1
  Cd  Cd16  1  0.579847  0.579847  0.579847  1
  Cd  Cd17  1  0.579760  0.579760  0.255681  1
  Cd  Cd18  1  0.579760  0.255681  0.579760  1
  Cd  Cd19  1  0.255681  0.579760  0.579760  1
  Tc  Tc20  1  0.143689  0.143689  0.143689  1
  Ni  Ni21  1  0.142218  0.142218  0.575725  1
  Ni  Ni22  1  0.142218  0.575725  0.142218  1
  Ni  Ni23  1  0.575725  0.142218  0.142218  1
