# generated using pymatgen
data_Sm4Cr5WO24
_symmetry_space_group_name_H-M   'P 1'
_cell_length_a   10.09271793
_cell_length_b   10.03786937
_cell_length_c   10.03786900
_cell_angle_alpha   58.39553711
_cell_angle_beta   58.16429201
_cell_angle_gamma   58.16429779
_symmetry_Int_Tables_number   1
_chemical_formula_structural   Sm4Cr5WO24
_chemical_formula_sum   'Sm4 Cr5 W1 O24'
_cell_volume   690.10027003
_cell_formula_units_Z   1
loop_
 _symmetry_equiv_pos_site_id
 _symmetry_equiv_pos_as_xyz
  1  'x, y, z'
loop_
 _atom_site_type_symbol
 _atom_site_label
 _atom_site_symmetry_multiplicity
 _atom_site_fract_x
 _atom_site_fract_y
 _atom_site_fract_z
 _atom_site_occupancy
  Sm  Sm0  1  0.638341  0.633482  0.640050  1
  Sm  Sm1  1  0.348366  0.369299  0.359590  1
  Sm  Sm2  1  0.151634  0.140410  0.130701  1
  Sm  Sm3  1  0.861659  0.859950  0.866518  1
  Cr  Cr4  1  0.957211  0.533154  0.255702  1
  Cr  Cr5  1  0.542789  0.244298  0.966847  1
  Cr  Cr6  1  0.469157  0.748339  0.032413  1
  Cr  Cr7  1  0.030843  0.467587  0.751661  1
  Cr  Cr8  1  0.250000  0.965276  0.534724  1
  W  W9  1  0.750000  0.039750  0.460250  1
  O  O10  1  0.926482  0.062339  0.270474  1
  O  O11  1  0.793968  0.002706  0.631700  1
  O  O12  1  0.008864  0.379377  0.198620  1
  O  O13  1  0.718882  0.082690  0.957438  1
  O  O14  1  0.573518  0.229526  0.437661  1
  O  O15  1  0.873787  0.501380  0.711740  1
  O  O16  1  0.491136  0.301380  0.120623  1
  O  O17  1  0.781118  0.542562  0.417310  1
  O  O18  1  0.932335  0.712590  0.100060  1
  O  O19  1  0.567665  0.399940  0.787410  1
  O  O20  1  0.395015  0.193243  0.997464  1
  O  O21  1  0.293719  0.122001  0.497671  1
  O  O22  1  0.706032  0.868300  0.497294  1
  O  O23  1  0.626213  0.788260  0.998620  1
  O  O24  1  0.439073  0.591208  0.209684  1
  O  O25  1  0.060927  0.290316  0.908792  1
  O  O26  1  0.202278  0.453379  0.585411  1
  O  O27  1  0.506356  0.701823  0.877154  1
  O  O28  1  0.104985  0.502536  0.306757  1
  O  O29  1  0.411384  0.789722  0.556588  1
  O  O30  1  0.297722  0.914589  0.046621  1
  O  O31  1  0.993644  0.622846  0.798177  1
  O  O32  1  0.206281  0.002329  0.377999  1
  O  O33  1  0.088616  0.943412  0.710278  1
