# generated using pymatgen
data_Sr6NdSm(Si3Pd)4
_symmetry_space_group_name_H-M   'P 1'
_cell_length_a   8.40334500
_cell_length_b   8.40334540
_cell_length_c   8.79136700
_cell_angle_alpha   90.00000000
_cell_angle_beta   90.00000000
_cell_angle_gamma   119.99999448
_symmetry_Int_Tables_number   1
_chemical_formula_structural   Sr6NdSm(Si3Pd)4
_chemical_formula_sum   'Sr6 Nd1 Sm1 Si12 Pd4'
_cell_volume   537.63987906
_cell_formula_units_Z   1
loop_
 _symmetry_equiv_pos_site_id
 _symmetry_equiv_pos_as_xyz
  1  'x, y, z'
loop_
 _atom_site_type_symbol
 _atom_site_label
 _atom_site_symmetry_multiplicity
 _atom_site_fract_x
 _atom_site_fract_y
 _atom_site_fract_z
 _atom_site_occupancy
  Sr  Sr0  1  0.499852  0.500148  0.750000  1
  Sr  Sr1  1  0.500136  0.499864  0.250000  1
  Sr  Sr2  1  0.000297  0.500148  0.750000  1
  Sr  Sr3  1  0.999729  0.499864  0.250000  1
  Sr  Sr4  1  0.499852  0.999703  0.750000  1
  Sr  Sr5  1  0.500136  0.000271  0.250000  1
  Nd  Nd6  1  0.000000  0.000000  0.250000  1
  Sm  Sm7  1  0.000000  0.000000  0.750000  1
  Si  Si8  1  0.837070  0.162930  0.998396  1
  Si  Si9  1  0.162950  0.837050  0.999231  1
  Si  Si10  1  0.325861  0.162930  0.998396  1
  Si  Si11  1  0.162950  0.837050  0.500769  1
  Si  Si12  1  0.674100  0.837050  0.999231  1
  Si  Si13  1  0.837070  0.162930  0.501604  1
  Si  Si14  1  0.837070  0.674139  0.998396  1
  Si  Si15  1  0.674100  0.837050  0.500769  1
  Si  Si16  1  0.162950  0.325900  0.999231  1
  Si  Si17  1  0.325861  0.162930  0.501604  1
  Si  Si18  1  0.162950  0.325900  0.500769  1
  Si  Si19  1  0.837070  0.674139  0.501604  1
  Pd  Pd20  1  0.666667  0.333333  0.999371  1
  Pd  Pd21  1  0.333333  0.666667  0.000286  1
  Pd  Pd22  1  0.333333  0.666667  0.499714  1
  Pd  Pd23  1  0.666667  0.333333  0.500629  1
