# generated using pymatgen
data_K(Sn2Rh)3
_symmetry_space_group_name_H-M   'P 1'
_cell_length_a   13.88899298
_cell_length_b   13.88899344
_cell_length_c   4.44839200
_cell_angle_alpha   90.00000000
_cell_angle_beta   90.00000000
_cell_angle_gamma   145.75550606
_symmetry_Int_Tables_number   1
_chemical_formula_structural   K(Sn2Rh)3
_chemical_formula_sum   'K2 Sn12 Rh6'
_cell_volume   482.88217117
_cell_formula_units_Z   2
loop_
 _symmetry_equiv_pos_site_id
 _symmetry_equiv_pos_as_xyz
  1  'x, y, z'
loop_
 _atom_site_type_symbol
 _atom_site_label
 _atom_site_symmetry_multiplicity
 _atom_site_fract_x
 _atom_site_fract_y
 _atom_site_fract_z
 _atom_site_occupancy
  K  K0  1  0.585991  0.414009  0.250000  1
  K  K1  1  0.414009  0.585991  0.750000  1
  Sn  Sn2  1  0.756673  0.855147  0.250000  1
  Sn  Sn3  1  0.855147  0.756673  0.750000  1
  Sn  Sn4  1  0.144853  0.243327  0.250000  1
  Sn  Sn5  1  0.519997  0.864646  0.250000  1
  Sn  Sn6  1  0.135354  0.480003  0.250000  1
  Sn  Sn7  1  0.864646  0.519997  0.750000  1
  Sn  Sn8  1  0.243327  0.144853  0.750000  1
  Sn  Sn9  1  0.750039  0.249961  0.250000  1
  Sn  Sn10  1  0.249961  0.750039  0.750000  1
  Sn  Sn11  1  0.134828  0.865172  0.250000  1
  Sn  Sn12  1  0.865172  0.134828  0.750000  1
  Sn  Sn13  1  0.480003  0.135354  0.750000  1
  Rh  Rh14  1  0.973645  0.406221  0.750000  1
  Rh  Rh15  1  0.962894  0.037106  0.750000  1
  Rh  Rh16  1  0.026355  0.593779  0.250000  1
  Rh  Rh17  1  0.037106  0.962894  0.250000  1
  Rh  Rh18  1  0.406221  0.973645  0.250000  1
  Rh  Rh19  1  0.593779  0.026355  0.750000  1
