# generated using pymatgen
data_TbLu3(B4W)4
_symmetry_space_group_name_H-M   'P 1'
_cell_length_a   6.00294369
_cell_length_b   11.59809228
_cell_length_c   3.60573800
_cell_angle_alpha   90.00000000
_cell_angle_beta   90.00000000
_cell_angle_gamma   90.08607092
_symmetry_Int_Tables_number   1
_chemical_formula_structural   TbLu3(B4W)4
_chemical_formula_sum   'Tb1 Lu3 B16 W4'
_cell_volume   251.04091325
_cell_formula_units_Z   1
loop_
 _symmetry_equiv_pos_site_id
 _symmetry_equiv_pos_as_xyz
  1  'x, y, z'
loop_
 _atom_site_type_symbol
 _atom_site_label
 _atom_site_symmetry_multiplicity
 _atom_site_fract_x
 _atom_site_fract_y
 _atom_site_fract_z
 _atom_site_occupancy
  Tb  Tb0  1  0.872657  0.850218  0.000000  1
  Lu  Lu1  1  0.627099  0.350787  0.000000  1
  Lu  Lu2  1  0.372614  0.648752  0.000000  1
  Lu  Lu3  1  0.127257  0.149468  0.000000  1
  B  B4  1  0.788707  0.187665  0.500000  1
  B  B5  1  0.213579  0.812474  0.500000  1
  B  B6  1  0.288768  0.313041  0.500000  1
  B  B7  1  0.710645  0.685660  0.500000  1
  B  B8  1  0.867395  0.033409  0.500000  1
  B  B9  1  0.132926  0.969222  0.500000  1
  B  B10  1  0.367814  0.467684  0.500000  1
  B  B11  1  0.631894  0.531331  0.500000  1
  B  B12  1  0.885044  0.451482  0.500000  1
  B  B13  1  0.115568  0.547334  0.500000  1
  B  B14  1  0.384393  0.049054  0.500000  1
  B  B15  1  0.612887  0.953389  0.500000  1
  B  B16  1  0.977089  0.305521  0.500000  1
  B  B17  1  0.024922  0.692734  0.500000  1
  B  B18  1  0.476873  0.195039  0.500000  1
  B  B19  1  0.522063  0.805626  0.500000  1
  W  W20  1  0.631044  0.086337  0.000000  1
  W  W21  1  0.368410  0.915657  0.000000  1
  W  W22  1  0.131917  0.414350  0.000000  1
  W  W23  1  0.868435  0.583766  0.000000  1
