# generated using pymatgen
data_TmLu4P12Ru19
_symmetry_space_group_name_H-M   'P 1'
_cell_length_a   12.49244500
_cell_length_b   12.49141404
_cell_length_c   3.96029800
_cell_angle_alpha   90.00000000
_cell_angle_beta   90.00000000
_cell_angle_gamma   119.99726536
_symmetry_Int_Tables_number   1
_chemical_formula_structural   TmLu4P12Ru19
_chemical_formula_sum   'Tm1 Lu4 P12 Ru19'
_cell_volume   535.21652625
_cell_formula_units_Z   1
loop_
 _symmetry_equiv_pos_site_id
 _symmetry_equiv_pos_as_xyz
  1  'x, y, z'
loop_
 _atom_site_type_symbol
 _atom_site_label
 _atom_site_symmetry_multiplicity
 _atom_site_fract_x
 _atom_site_fract_y
 _atom_site_fract_z
 _atom_site_occupancy
  Tm  Tm0  1  0.000000  0.816420  0.500000  1
  Lu  Lu1  1  0.183529  0.183504  0.500000  1
  Lu  Lu2  1  0.816471  0.999975  0.500000  1
  Lu  Lu3  1  0.333328  0.666597  0.000000  1
  Lu  Lu4  1  0.666672  0.333269  0.000000  1
  P  P5  1  0.816594  0.816788  0.000000  1
  P  P6  1  0.183406  0.000194  0.000000  1
  P  P7  1  0.000000  0.183500  0.000000  1
  P  P8  1  0.171117  0.478382  0.500000  1
  P  P9  1  0.521356  0.692614  0.500000  1
  P  P10  1  0.307387  0.828881  0.500000  1
  P  P11  1  0.692613  0.521494  0.500000  1
  P  P12  1  0.828883  0.307265  0.500000  1
  P  P13  1  0.478644  0.171257  0.500000  1
  P  P14  1  0.371754  0.371753  0.000000  1
  P  P15  1  0.628246  0.999998  0.000000  1
  P  P16  1  0.000000  0.628116  0.000000  1
  Ru  Ru17  1  0.554271  0.554361  0.000000  1
  Ru  Ru18  1  0.445729  0.000090  0.000000  1
  Ru  Ru19  1  0.000000  0.445535  0.000000  1
  Ru  Ru20  1  0.717666  0.717906  0.500000  1
  Ru  Ru21  1  0.282334  0.000240  0.500000  1
  Ru  Ru22  1  0.000000  0.281939  0.500000  1
  Ru  Ru23  1  0.184983  0.376551  0.000000  1
  Ru  Ru24  1  0.623389  0.808458  0.000000  1
  Ru  Ru25  1  0.192215  0.815126  0.000000  1
  Ru  Ru26  1  0.807785  0.622911  0.000000  1
  Ru  Ru27  1  0.815017  0.191568  0.000000  1
  Ru  Ru28  1  0.376611  0.185069  0.000000  1
  Ru  Ru29  1  0.365098  0.492091  0.500000  1
  Ru  Ru30  1  0.507830  0.872997  0.500000  1
  Ru  Ru31  1  0.126977  0.634704  0.500000  1
  Ru  Ru32  1  0.873023  0.507725  0.500000  1
  Ru  Ru33  1  0.634902  0.126992  0.500000  1
  Ru  Ru34  1  0.492170  0.365165  0.500000  1
  Ru  Ru35  1  0.000000  0.000562  0.000000  1
