# generated using pymatgen
data_La16CdCo2Hg3Ru2
_symmetry_space_group_name_H-M   'P 1'
_cell_length_a   10.02746042
_cell_length_b   9.94901224
_cell_length_c   10.02746231
_cell_angle_alpha   59.95773164
_cell_angle_beta   60.29191546
_cell_angle_gamma   59.95773566
_symmetry_Int_Tables_number   1
_chemical_formula_structural   La16CdCo2Hg3Ru2
_chemical_formula_sum   'La16 Cd1 Co2 Hg3 Ru2'
_cell_volume   708.46263291
_cell_formula_units_Z   1
loop_
 _symmetry_equiv_pos_site_id
 _symmetry_equiv_pos_as_xyz
  1  'x, y, z'
loop_
 _atom_site_type_symbol
 _atom_site_label
 _atom_site_symmetry_multiplicity
 _atom_site_fract_x
 _atom_site_fract_y
 _atom_site_fract_z
 _atom_site_occupancy
  La  La0  1  0.937283  0.943542  0.557872  1
  La  La1  1  0.559588  0.940607  0.559588  1
  La  La2  1  0.557872  0.943542  0.937283  1
  La  La3  1  0.685859  0.694088  0.309018  1
  La  La4  1  0.157742  0.151689  0.541289  1
  La  La5  1  0.309018  0.694088  0.685859  1
  La  La6  1  0.156998  0.149591  0.156998  1
  La  La7  1  0.541289  0.151689  0.157742  1
  La  La8  1  0.308412  0.692093  0.308412  1
  La  La9  1  0.308502  0.311570  0.685900  1
  La  La10  1  0.687883  0.312612  0.687883  1
  La  La11  1  0.938533  0.559408  0.557288  1
  La  La12  1  0.557288  0.559408  0.938533  1
  La  La13  1  0.155746  0.541826  0.155746  1
  La  La14  1  0.685900  0.311570  0.308502  1
  La  La15  1  0.940254  0.557903  0.940254  1
  Cd  Cd16  1  0.921590  0.234973  0.921590  1
  Co  Co17  1  0.363331  0.917390  0.363331  1
  Co  Co18  1  0.363869  0.355489  0.363869  1
  Hg  Hg19  1  0.248420  0.918191  0.916050  1
  Hg  Hg20  1  0.917668  0.919384  0.917668  1
  Hg  Hg21  1  0.916050  0.918191  0.248420  1
  Ru  Ru22  1  0.914886  0.360575  0.366015  1
  Ru  Ru23  1  0.366015  0.360575  0.914886  1
