# generated using pymatgen
data_TbDy3ThRu2
_symmetry_space_group_name_H-M   'P 1'
_cell_length_a   8.67946958
_cell_length_b   8.67946871
_cell_length_c   7.22269201
_cell_angle_alpha   83.47844072
_cell_angle_beta   83.47844026
_cell_angle_gamma   43.37579077
_symmetry_Int_Tables_number   1
_chemical_formula_structural   TbDy3ThRu2
_chemical_formula_sum   'Tb2 Dy6 Th2 Ru4'
_cell_volume   370.88107266
_cell_formula_units_Z   2
loop_
 _symmetry_equiv_pos_site_id
 _symmetry_equiv_pos_as_xyz
  1  'x, y, z'
loop_
 _atom_site_type_symbol
 _atom_site_label
 _atom_site_symmetry_multiplicity
 _atom_site_fract_x
 _atom_site_fract_y
 _atom_site_fract_z
 _atom_site_occupancy
  Tb  Tb0  1  0.210788  0.356777  0.311287  1
  Tb  Tb1  1  0.643223  0.789212  0.188713  1
  Dy  Dy2  1  0.790699  0.642004  0.685424  1
  Dy  Dy3  1  0.357996  0.209301  0.814576  1
  Dy  Dy4  1  0.978575  0.207269  0.085229  1
  Dy  Dy5  1  0.792731  0.021425  0.414771  1
  Dy  Dy6  1  0.577044  0.422956  0.750000  1
  Dy  Dy7  1  0.420868  0.579132  0.250000  1
  Th  Th8  1  0.201168  0.990643  0.591502  1
  Th  Th9  1  0.009357  0.798832  0.908498  1
  Ru  Ru10  1  0.169887  0.611657  0.586462  1
  Ru  Ru11  1  0.388343  0.830113  0.913538  1
  Ru  Ru12  1  0.841411  0.382090  0.429115  1
  Ru  Ru13  1  0.617910  0.158589  0.070885  1
