# generated using pymatgen
data_CoTcB2Mo
_symmetry_space_group_name_H-M   'P 1'
_cell_length_a   4.49963017
_cell_length_b   4.49963035
_cell_length_c   4.49963081
_cell_angle_alpha   139.33873529
_cell_angle_beta   119.60296016
_cell_angle_gamma   75.37083835
_symmetry_Int_Tables_number   1
_chemical_formula_structural   CoTcB2Mo
_chemical_formula_sum   'Co1 Tc1 B2 Mo1'
_cell_volume   50.39844757
_cell_formula_units_Z   1
loop_
 _symmetry_equiv_pos_site_id
 _symmetry_equiv_pos_as_xyz
  1  'x, y, z'
loop_
 _atom_site_type_symbol
 _atom_site_label
 _atom_site_symmetry_multiplicity
 _atom_site_fract_x
 _atom_site_fract_y
 _atom_site_fract_z
 _atom_site_occupancy
  Co  Co0  1  0.998970  0.998970  0.000000  1
  Tc  Tc1  1  0.697597  0.197597  0.500000  1
  B  B2  1  0.705832  0.501508  0.204324  1
  B  B3  1  0.297185  0.501508  0.795676  1
  Mo  Mo4  1  0.300416  0.800416  0.500000  1
