# generated using pymatgen
data_Ca5Si2Sn
_symmetry_space_group_name_H-M   'P 1'
_cell_length_a   9.36236970
_cell_length_b   9.36236919
_cell_length_c   9.36237029
_cell_angle_alpha   131.03102062
_cell_angle_beta   131.03101822
_cell_angle_gamma   71.76380358
_symmetry_Int_Tables_number   1
_chemical_formula_structural   Ca5Si2Sn
_chemical_formula_sum   'Ca10 Si4 Sn2'
_cell_volume   456.83752608
_cell_formula_units_Z   2
loop_
 _symmetry_equiv_pos_site_id
 _symmetry_equiv_pos_as_xyz
  1  'x, y, z'
loop_
 _atom_site_type_symbol
 _atom_site_label
 _atom_site_symmetry_multiplicity
 _atom_site_fract_x
 _atom_site_fract_y
 _atom_site_fract_z
 _atom_site_occupancy
  Ca  Ca0  1  0.813523  0.313523  0.855064  1
  Ca  Ca1  1  0.186477  0.686477  0.144936  1
  Ca  Ca2  1  0.458459  0.958459  0.144936  1
  Ca  Ca3  1  0.313523  0.458459  0.500000  1
  Ca  Ca4  1  0.041541  0.186477  0.500000  1
  Ca  Ca5  1  0.541541  0.041541  0.855064  1
  Ca  Ca6  1  0.686477  0.541541  0.500000  1
  Ca  Ca7  1  0.958459  0.813523  0.500000  1
  Ca  Ca8  1  0.000000  0.000000  0.000000  1
  Ca  Ca9  1  0.500000  0.500000  0.000000  1
  Si  Si10  1  0.112739  0.612739  0.725479  1
  Si  Si11  1  0.887261  0.387261  0.274521  1
  Si  Si12  1  0.612739  0.887261  0.500000  1
  Si  Si13  1  0.387261  0.112739  0.500000  1
  Sn  Sn14  1  0.250000  0.250000  0.000000  1
  Sn  Sn15  1  0.750000  0.750000  0.000000  1
