# generated using pymatgen
data_HoEr11Co4BiIr
_symmetry_space_group_name_H-M   'P 1'
_cell_length_a   8.24557444
_cell_length_b   8.24557315
_cell_length_c   8.24391721
_cell_angle_alpha   110.71472395
_cell_angle_beta   111.21652006
_cell_angle_gamma   106.53106851
_symmetry_Int_Tables_number   1
_chemical_formula_structural   HoEr11Co4BiIr
_chemical_formula_sum   'Ho1 Er11 Co4 Bi1 Ir1'
_cell_volume   430.56933724
_cell_formula_units_Z   1
loop_
 _symmetry_equiv_pos_site_id
 _symmetry_equiv_pos_as_xyz
  1  'x, y, z'
loop_
 _atom_site_type_symbol
 _atom_site_label
 _atom_site_symmetry_multiplicity
 _atom_site_fract_x
 _atom_site_fract_y
 _atom_site_fract_z
 _atom_site_occupancy
  Ho  Ho0  1  0.284937  0.182675  0.467612  1
  Er  Er1  1  0.715441  0.817691  0.533132  1
  Er  Er2  1  0.284559  0.817417  0.101976  1
  Er  Er3  1  0.715553  0.182413  0.897967  1
  Er  Er4  1  0.621144  0.311919  0.309018  1
  Er  Er5  1  0.379027  0.688389  0.690900  1
  Er  Er6  1  0.002512  0.311872  0.690900  1
  Er  Er7  1  0.997098  0.687875  0.309018  1
  Er  Er8  1  0.212496  0.410667  0.197732  1
  Er  Er9  1  0.787575  0.589570  0.802203  1
  Er  Er10  1  0.212633  0.014629  0.802203  1
  Er  Er11  1  0.787065  0.985236  0.197732  1
  Co  Co12  1  0.999768  0.375980  0.375748  1
  Co  Co13  1  0.000004  0.624109  0.624113  1
  Co  Co14  1  0.389184  0.888707  0.500063  1
  Co  Co15  1  0.611357  0.110879  0.500063  1
  Bi  Bi16  1  0.499980  0.500011  0.999992  1
  Ir  Ir17  1  0.999669  0.999960  0.999628  1
