# generated using pymatgen
data_SbI(OF3)2
_symmetry_space_group_name_H-M   'P 1'
_cell_length_a   5.99228480
_cell_length_b   7.26799857
_cell_length_c   8.22418629
_cell_angle_alpha   86.06130820
_cell_angle_beta   66.71648947
_cell_angle_gamma   79.99994388
_symmetry_Int_Tables_number   1
_chemical_formula_structural   SbI(OF3)2
_chemical_formula_sum   'Sb2 I2 O4 F12'
_cell_volume   324.01059835
_cell_formula_units_Z   2
loop_
 _symmetry_equiv_pos_site_id
 _symmetry_equiv_pos_as_xyz
  1  'x, y, z'
loop_
 _atom_site_type_symbol
 _atom_site_label
 _atom_site_symmetry_multiplicity
 _atom_site_fract_x
 _atom_site_fract_y
 _atom_site_fract_z
 _atom_site_occupancy
  Sb  Sb0  1  0.584846  0.228474  0.754992  1
  Sb  Sb1  1  0.415154  0.771526  0.245008  1
  I  I2  1  0.144815  0.247427  0.207330  1
  I  I3  1  0.855185  0.752573  0.792670  1
  O  O4  1  0.561762  0.719538  0.978406  1
  O  O5  1  0.822193  0.010879  0.798093  1
  O  O6  1  0.438238  0.280462  0.021594  1
  O  O7  1  0.177807  0.989121  0.201907  1
  F  F8  1  0.380060  0.442185  0.716056  1
  F  F9  1  0.316781  0.236337  0.364331  1
  F  F10  1  0.021697  0.750386  0.952143  1
  F  F11  1  0.762106  0.187957  0.503582  1
  F  F12  1  0.237894  0.812043  0.496418  1
  F  F13  1  0.619940  0.557815  0.283944  1
  F  F14  1  0.823912  0.377641  0.748320  1
  F  F15  1  0.176088  0.622359  0.251680  1
  F  F16  1  0.359021  0.069129  0.771439  1
  F  F17  1  0.640979  0.930871  0.228561  1
  F  F18  1  0.683219  0.763663  0.635669  1
  F  F19  1  0.978303  0.249614  0.047857  1
