# generated using pymatgen
data_YU5FeNi5Sb8
_symmetry_space_group_name_H-M   'P 1'
_cell_length_a   8.12625237
_cell_length_b   8.12625233
_cell_length_c   8.12625200
_cell_angle_alpha   109.59216819
_cell_angle_beta   109.22960145
_cell_angle_gamma   109.59216148
_symmetry_Int_Tables_number   1
_chemical_formula_structural   YU5FeNi5Sb8
_chemical_formula_sum   'Y1 U5 Fe1 Ni5 Sb8'
_cell_volume   413.08860803
_cell_formula_units_Z   1
loop_
 _symmetry_equiv_pos_site_id
 _symmetry_equiv_pos_as_xyz
  1  'x, y, z'
loop_
 _atom_site_type_symbol
 _atom_site_label
 _atom_site_symmetry_multiplicity
 _atom_site_fract_x
 _atom_site_fract_y
 _atom_site_fract_z
 _atom_site_occupancy
  Y  Y0  1  0.875000  0.250000  0.125000  1
  U  U1  1  0.625000  0.750000  0.375000  1
  U  U2  1  0.249449  0.125214  0.868599  1
  U  U3  1  0.743385  0.374786  0.624234  1
  U  U4  1  0.131401  0.880850  0.256615  1
  U  U5  1  0.375766  0.619150  0.750551  1
  Fe  Fe6  1  0.375000  0.250000  0.625000  1
  Ni  Ni7  1  0.125000  0.750000  0.875000  1
  Ni  Ni8  1  0.259008  0.630382  0.379620  1
  Ni  Ni9  1  0.749238  0.869618  0.128626  1
  Ni  Ni10  1  0.620380  0.379388  0.250762  1
  Ni  Ni11  1  0.871374  0.120612  0.740992  1
  Sb  Sb12  1  0.666460  0.501125  0.000802  1
  Sb  Sb13  1  0.499677  0.998875  0.665335  1
  Sb  Sb14  1  0.999153  0.661474  0.497835  1
  Sb  Sb15  1  0.836360  0.838526  0.837678  1
  Sb  Sb16  1  0.502165  0.001319  0.163640  1
  Sb  Sb17  1  0.162322  0.498681  0.000847  1
  Sb  Sb18  1  0.999198  0.165658  0.500323  1
  Sb  Sb19  1  0.334665  0.334342  0.333540  1
