# generated using pymatgen
data_DyUReB6
_symmetry_space_group_name_H-M   'P 1'
_cell_length_a   3.63890300
_cell_length_b   9.30232300
_cell_length_c   11.42203600
_cell_angle_alpha   90.00000000
_cell_angle_beta   90.00000000
_cell_angle_gamma   90.00000000
_symmetry_Int_Tables_number   1
_chemical_formula_structural   DyUReB6
_chemical_formula_sum   'Dy4 U4 Re4 B24'
_cell_volume   386.63878635
_cell_formula_units_Z   4
loop_
 _symmetry_equiv_pos_site_id
 _symmetry_equiv_pos_as_xyz
  1  'x, y, z'
loop_
 _atom_site_type_symbol
 _atom_site_label
 _atom_site_symmetry_multiplicity
 _atom_site_fract_x
 _atom_site_fract_y
 _atom_site_fract_z
 _atom_site_occupancy
  Dy  Dy0  1  0.000000  0.336437  0.407596  1
  Dy  Dy1  1  0.000000  0.663563  0.592404  1
  Dy  Dy2  1  0.000000  0.836437  0.092404  1
  Dy  Dy3  1  0.000000  0.163563  0.907596  1
  U  U4  1  0.000000  0.956214  0.396214  1
  U  U5  1  0.000000  0.043786  0.603786  1
  U  U6  1  0.000000  0.456214  0.103786  1
  U  U7  1  0.000000  0.543786  0.896214  1
  Re  Re8  1  0.000000  0.645229  0.318428  1
  Re  Re9  1  0.000000  0.354771  0.681572  1
  Re  Re10  1  0.000000  0.145229  0.181572  1
  Re  Re11  1  0.000000  0.854771  0.818428  1
  B  B12  1  0.500000  0.551736  0.430900  1
  B  B13  1  0.500000  0.448264  0.569100  1
  B  B14  1  0.500000  0.051736  0.069100  1
  B  B15  1  0.500000  0.948264  0.930900  1
  B  B16  1  0.500000  0.742858  0.423008  1
  B  B17  1  0.500000  0.257142  0.576992  1
  B  B18  1  0.500000  0.242858  0.076992  1
  B  B19  1  0.500000  0.757142  0.923008  1
  B  B20  1  0.500000  0.801477  0.275205  1
  B  B21  1  0.500000  0.198523  0.724795  1
  B  B22  1  0.500000  0.301477  0.224795  1
  B  B23  1  0.500000  0.698523  0.775205  1
  B  B24  1  0.500000  0.643653  0.188565  1
  B  B25  1  0.500000  0.356347  0.811435  1
  B  B26  1  0.500000  0.143653  0.311435  1
  B  B27  1  0.500000  0.856347  0.688565  1
  B  B28  1  0.500000  0.988663  0.219645  1
  B  B29  1  0.500000  0.011337  0.780355  1
  B  B30  1  0.500000  0.488663  0.280355  1
  B  B31  1  0.500000  0.511337  0.719645  1
  B  B32  1  0.500000  0.639717  0.038699  1
  B  B33  1  0.500000  0.360283  0.961301  1
  B  B34  1  0.500000  0.139717  0.461301  1
  B  B35  1  0.500000  0.860283  0.538699  1
