# generated using pymatgen
data_CeTm7(TcB6)4
_symmetry_space_group_name_H-M   'P 1'
_cell_length_a   3.66442200
_cell_length_b   9.11237347
_cell_length_c   11.48539759
_cell_angle_alpha   90.03666792
_cell_angle_beta   90.00000000
_cell_angle_gamma   90.00000000
_symmetry_Int_Tables_number   1
_chemical_formula_structural   CeTm7(TcB6)4
_chemical_formula_sum   'Ce1 Tm7 Tc4 B24'
_cell_volume   383.51551456
_cell_formula_units_Z   1
loop_
 _symmetry_equiv_pos_site_id
 _symmetry_equiv_pos_as_xyz
  1  'x, y, z'
loop_
 _atom_site_type_symbol
 _atom_site_label
 _atom_site_symmetry_multiplicity
 _atom_site_fract_x
 _atom_site_fract_y
 _atom_site_fract_z
 _atom_site_occupancy
  Ce  Ce0  1  0.000000  0.323131  0.414174  1
  Tm  Tm1  1  0.000000  0.677453  0.586714  1
  Tm  Tm2  1  0.000000  0.823365  0.085116  1
  Tm  Tm3  1  0.000000  0.175757  0.914141  1
  Tm  Tm4  1  0.000000  0.942237  0.369201  1
  Tm  Tm5  1  0.000000  0.056168  0.631379  1
  Tm  Tm6  1  0.000000  0.443233  0.129470  1
  Tm  Tm7  1  0.000000  0.557486  0.869909  1
  Tc  Tc8  1  0.000000  0.639269  0.320038  1
  Tc  Tc9  1  0.000000  0.361359  0.679738  1
  Tc  Tc10  1  0.000000  0.139204  0.179310  1
  Tc  Tc11  1  0.000000  0.861035  0.820824  1
  B  B12  1  0.500000  0.554718  0.432860  1
  B  B13  1  0.500000  0.446650  0.568024  1
  B  B14  1  0.500000  0.053240  0.066400  1
  B  B15  1  0.500000  0.946780  0.933297  1
  B  B16  1  0.500000  0.750428  0.418967  1
  B  B17  1  0.500000  0.250139  0.582788  1
  B  B18  1  0.500000  0.249583  0.080222  1
  B  B19  1  0.500000  0.750137  0.918977  1
  B  B20  1  0.500000  0.792745  0.264833  1
  B  B21  1  0.500000  0.207457  0.735869  1
  B  B22  1  0.500000  0.291695  0.233849  1
  B  B23  1  0.500000  0.707364  0.764693  1
  B  B24  1  0.500000  0.631419  0.184250  1
  B  B25  1  0.500000  0.369538  0.815477  1
  B  B26  1  0.500000  0.130049  0.314122  1
  B  B27  1  0.500000  0.869018  0.685203  1
  B  B28  1  0.500000  0.981589  0.211301  1
  B  B29  1  0.500000  0.017855  0.788404  1
  B  B30  1  0.500000  0.483765  0.287381  1
  B  B31  1  0.500000  0.518623  0.712671  1
  B  B32  1  0.500000  0.600506  0.027638  1
  B  B33  1  0.500000  0.399765  0.971822  1
  B  B34  1  0.500000  0.098384  0.472681  1
  B  B35  1  0.500000  0.898858  0.528255  1
