# generated using pymatgen
data_Ho5Co17(ReP6)2
_symmetry_space_group_name_H-M   'P 1'
_cell_length_a   12.01188646
_cell_length_b   11.94975747
_cell_length_c   3.69736500
_cell_angle_alpha   90.00000000
_cell_angle_beta   90.00000000
_cell_angle_gamma   119.82904125
_symmetry_Int_Tables_number   1
_chemical_formula_structural   Ho5Co17(ReP6)2
_chemical_formula_sum   'Ho5 Co17 Re2 P12'
_cell_volume   460.40374619
_cell_formula_units_Z   1
loop_
 _symmetry_equiv_pos_site_id
 _symmetry_equiv_pos_as_xyz
  1  'x, y, z'
loop_
 _atom_site_type_symbol
 _atom_site_label
 _atom_site_symmetry_multiplicity
 _atom_site_fract_x
 _atom_site_fract_y
 _atom_site_fract_z
 _atom_site_occupancy
  Ho  Ho0  1  0.665118  0.331606  0.000000  1
  Ho  Ho1  1  0.334882  0.666489  0.000000  1
  Ho  Ho2  1  0.184314  0.184572  0.500000  1
  Ho  Ho3  1  0.815686  0.000257  0.500000  1
  Ho  Ho4  1  0.000000  0.812982  0.500000  1
  Co  Co5  1  0.000000  0.448873  0.000000  1
  Co  Co6  1  0.822726  0.200978  0.000000  1
  Co  Co7  1  0.803063  0.624556  0.000000  1
  Co  Co8  1  0.374090  0.177393  0.000000  1
  Co  Co9  1  0.196937  0.821492  0.000000  1
  Co  Co10  1  0.625910  0.803303  0.000000  1
  Co  Co11  1  0.177274  0.378253  0.000000  1
  Co  Co12  1  0.642258  0.123918  0.500000  1
  Co  Co13  1  0.873202  0.515522  0.500000  1
  Co  Co14  1  0.483596  0.356030  0.500000  1
  Co  Co15  1  0.126798  0.642320  0.500000  1
  Co  Co16  1  0.516404  0.872433  0.500000  1
  Co  Co17  1  0.357742  0.481660  0.500000  1
  Co  Co18  1  0.717661  0.717936  0.500000  1
  Co  Co19  1  0.282339  0.000276  0.500000  1
  Co  Co20  1  0.000000  0.286460  0.500000  1
  Co  Co21  1  0.000000  0.002183  0.000000  1
  Re  Re22  1  0.554181  0.553459  0.000000  1
  Re  Re23  1  0.445819  0.999277  0.000000  1
  P  P24  1  0.360739  0.362103  0.000000  1
  P  P25  1  0.639261  0.001364  0.000000  1
  P  P26  1  0.000000  0.633104  0.000000  1
  P  P27  1  0.833744  0.314190  0.500000  1
  P  P28  1  0.686545  0.520014  0.500000  1
  P  P29  1  0.479296  0.164238  0.500000  1
  P  P30  1  0.313455  0.833470  0.500000  1
  P  P31  1  0.520704  0.684941  0.500000  1
  P  P32  1  0.166256  0.480446  0.500000  1
  P  P33  1  0.823403  0.822996  0.000000  1
  P  P34  1  0.176597  0.999592  0.000000  1
  P  P35  1  0.000000  0.181315  0.000000  1
