# generated using pymatgen
data_Lu10IrOs3
_symmetry_space_group_name_H-M   'P 1'
_cell_length_a   8.21787711
_cell_length_b   8.20068256
_cell_length_c   7.24927211
_cell_angle_alpha   83.19826654
_cell_angle_beta   83.33747835
_cell_angle_gamma   44.71277271
_symmetry_Int_Tables_number   1
_chemical_formula_structural   Lu10IrOs3
_chemical_formula_sum   'Lu10 Ir1 Os3'
_cell_volume   340.94280804
_cell_formula_units_Z   1
loop_
 _symmetry_equiv_pos_site_id
 _symmetry_equiv_pos_as_xyz
  1  'x, y, z'
loop_
 _atom_site_type_symbol
 _atom_site_label
 _atom_site_symmetry_multiplicity
 _atom_site_fract_x
 _atom_site_fract_y
 _atom_site_fract_z
 _atom_site_occupancy
  Lu  Lu0  1  0.419545  0.580216  0.750447  1
  Lu  Lu1  1  0.350176  0.208883  0.318633  1
  Lu  Lu2  1  0.210561  0.969513  0.082659  1
  Lu  Lu3  1  0.792063  0.030053  0.917627  1
  Lu  Lu4  1  0.973443  0.210676  0.582581  1
  Lu  Lu5  1  0.648540  0.789573  0.680155  1
  Lu  Lu6  1  0.206245  0.352971  0.822877  1
  Lu  Lu7  1  0.790000  0.649609  0.179149  1
  Lu  Lu8  1  0.031072  0.791570  0.416079  1
  Lu  Lu9  1  0.580617  0.420244  0.248787  1
  Ir  Ir10  1  0.600830  0.176935  0.578093  1
  Os  Os11  1  0.395634  0.822396  0.423571  1
  Os  Os12  1  0.177260  0.604756  0.077851  1
  Os  Os13  1  0.824012  0.392606  0.921492  1
