# generated using pymatgen
data_La5Pr3(AlIr)2
_symmetry_space_group_name_H-M   'P 1'
_cell_length_a   10.01300948
_cell_length_b   10.01300996
_cell_length_c   10.01301000
_cell_angle_alpha   60.00000648
_cell_angle_beta   60.00000487
_cell_angle_gamma   60.00000486
_symmetry_Int_Tables_number   1
_chemical_formula_structural   La5Pr3(AlIr)2
_chemical_formula_sum   'La10 Pr6 Al4 Ir4'
_cell_volume   709.87025825
_cell_formula_units_Z   2
loop_
 _symmetry_equiv_pos_site_id
 _symmetry_equiv_pos_as_xyz
  1  'x, y, z'
loop_
 _atom_site_type_symbol
 _atom_site_label
 _atom_site_symmetry_multiplicity
 _atom_site_fract_x
 _atom_site_fract_y
 _atom_site_fract_z
 _atom_site_occupancy
  La  La0  1  0.349529  0.349529  0.349529  1
  La  La1  1  0.349529  0.349529  0.951416  1
  La  La2  1  0.349529  0.951416  0.349529  1
  La  La3  1  0.951416  0.349529  0.349529  1
  La  La4  1  0.804294  0.195706  0.195706  1
  La  La5  1  0.195706  0.804294  0.804294  1
  La  La6  1  0.195706  0.804294  0.195706  1
  La  La7  1  0.804294  0.195706  0.804294  1
  La  La8  1  0.195706  0.195706  0.804294  1
  La  La9  1  0.804294  0.804294  0.195706  1
  Pr  Pr10  1  0.935317  0.564683  0.564683  1
  Pr  Pr11  1  0.564683  0.935317  0.935317  1
  Pr  Pr12  1  0.564683  0.935317  0.564683  1
  Pr  Pr13  1  0.935317  0.564683  0.935317  1
  Pr  Pr14  1  0.564683  0.564683  0.935317  1
  Pr  Pr15  1  0.935317  0.935317  0.564683  1
  Al  Al16  1  0.573348  0.573348  0.573348  1
  Al  Al17  1  0.573348  0.573348  0.279957  1
  Al  Al18  1  0.573348  0.279957  0.573348  1
  Al  Al19  1  0.279957  0.573348  0.573348  1
  Ir  Ir20  1  0.140349  0.140349  0.140349  1
  Ir  Ir21  1  0.140349  0.140349  0.578951  1
  Ir  Ir22  1  0.140349  0.578951  0.140349  1
  Ir  Ir23  1  0.578951  0.140349  0.140349  1
