# generated using pymatgen
data_Tb2Er3(ReO6)2
_symmetry_space_group_name_H-M   'P 1'
_cell_length_a   6.81404886
_cell_length_b   6.81404959
_cell_length_c   7.52547799
_cell_angle_alpha   73.94949694
_cell_angle_beta   73.94949461
_cell_angle_gamma   49.15891686
_symmetry_Int_Tables_number   1
_chemical_formula_structural   Tb2Er3(ReO6)2
_chemical_formula_sum   'Tb2 Er3 Re2 O12'
_cell_volume   251.82976494
_cell_formula_units_Z   1
loop_
 _symmetry_equiv_pos_site_id
 _symmetry_equiv_pos_as_xyz
  1  'x, y, z'
loop_
 _atom_site_type_symbol
 _atom_site_label
 _atom_site_symmetry_multiplicity
 _atom_site_fract_x
 _atom_site_fract_y
 _atom_site_fract_z
 _atom_site_occupancy
  Tb  Tb0  1  0.696474  0.696474  0.642033  1
  Tb  Tb1  1  0.303526  0.303526  0.357967  1
  Er  Er2  1  0.685674  0.685674  0.175219  1
  Er  Er3  1  0.314326  0.314326  0.824781  1
  Er  Er4  1  0.000000  0.000000  0.500000  1
  Re  Re5  1  0.786079  0.213921  0.000000  1
  Re  Re6  1  0.213921  0.786079  0.000000  1
  O  O7  1  0.000512  0.000512  0.207580  1
  O  O8  1  0.999488  0.999488  0.792420  1
  O  O9  1  0.582553  0.085810  0.083619  1
  O  O10  1  0.417447  0.914190  0.916381  1
  O  O11  1  0.914190  0.417447  0.916381  1
  O  O12  1  0.085810  0.582553  0.083619  1
  O  O13  1  0.500238  0.500238  0.176845  1
  O  O14  1  0.499762  0.499762  0.823155  1
  O  O15  1  0.404891  0.900398  0.424018  1
  O  O16  1  0.595109  0.099602  0.575982  1
  O  O17  1  0.099602  0.595109  0.575982  1
  O  O18  1  0.900398  0.404891  0.424018  1
