# generated using pymatgen
data_Tm3LuCo16(P3W)4
_symmetry_space_group_name_H-M   'P 1'
_cell_length_a   3.69047700
_cell_length_b   10.38833310
_cell_length_c   11.83009611
_cell_angle_alpha   90.01568407
_cell_angle_beta   90.00000000
_cell_angle_gamma   90.00000000
_symmetry_Int_Tables_number   1
_chemical_formula_structural   Tm3LuCo16(P3W)4
_chemical_formula_sum   'Tm3 Lu1 Co16 P12 W4'
_cell_volume   453.54107632
_cell_formula_units_Z   1
loop_
 _symmetry_equiv_pos_site_id
 _symmetry_equiv_pos_as_xyz
  1  'x, y, z'
loop_
 _atom_site_type_symbol
 _atom_site_label
 _atom_site_symmetry_multiplicity
 _atom_site_fract_x
 _atom_site_fract_y
 _atom_site_fract_z
 _atom_site_occupancy
  Tm  Tm0  1  0.250000  0.582905  0.704591  1
  Tm  Tm1  1  0.250000  0.917063  0.204607  1
  Tm  Tm2  1  0.750000  0.417087  0.295390  1
  Lu  Lu3  1  0.750000  0.082890  0.795436  1
  Co  Co4  1  0.250000  0.405686  0.488526  1
  Co  Co5  1  0.250000  0.094255  0.988122  1
  Co  Co6  1  0.750000  0.594276  0.511481  1
  Co  Co7  1  0.750000  0.905771  0.011437  1
  Co  Co8  1  0.250000  0.222352  0.178341  1
  Co  Co9  1  0.250000  0.277349  0.678428  1
  Co  Co10  1  0.750000  0.777663  0.821663  1
  Co  Co11  1  0.750000  0.722375  0.321660  1
  Co  Co12  1  0.250000  0.888743  0.701001  1
  Co  Co13  1  0.250000  0.611637  0.200808  1
  Co  Co14  1  0.750000  0.111667  0.299218  1
  Co  Co15  1  0.750000  0.388277  0.799164  1
  Co  Co16  1  0.250000  0.465309  0.933107  1
  Co  Co17  1  0.250000  0.034710  0.433192  1
  Co  Co18  1  0.750000  0.534670  0.066865  1
  Co  Co19  1  0.750000  0.965460  0.567041  1
  P  P20  1  0.250000  0.420048  0.116409  1
  P  P21  1  0.250000  0.079974  0.616803  1
  P  P22  1  0.750000  0.579943  0.883573  1
  P  P23  1  0.750000  0.920043  0.383609  1
  P  P24  1  0.250000  0.266975  0.864809  1
  P  P25  1  0.250000  0.232552  0.364996  1
  P  P26  1  0.750000  0.732552  0.135024  1
  P  P27  1  0.750000  0.767411  0.634983  1
  P  P28  1  0.250000  0.593536  0.390353  1
  P  P29  1  0.250000  0.906833  0.890153  1
  P  P30  1  0.750000  0.406491  0.609635  1
  P  P31  1  0.750000  0.093547  0.109677  1
  W  W32  1  0.250000  0.709500  0.987345  1
  W  W33  1  0.250000  0.790564  0.487423  1
  W  W34  1  0.750000  0.290470  0.012503  1
  W  W35  1  0.750000  0.209418  0.512626  1
