# generated using pymatgen
data_Ti8Al14GaPt2Rh5
_symmetry_space_group_name_H-M   'P 1'
_cell_length_a   8.66934447
_cell_length_b   8.65738707
_cell_length_c   8.66934516
_cell_angle_alpha   119.89944411
_cell_angle_beta   119.86149105
_cell_angle_gamma   90.24690364
_symmetry_Int_Tables_number   1
_chemical_formula_structural   Ti8Al14GaPt2Rh5
_chemical_formula_sum   'Ti8 Al14 Ga1 Pt2 Rh5'
_cell_volume   460.75895765
_cell_formula_units_Z   1
loop_
 _symmetry_equiv_pos_site_id
 _symmetry_equiv_pos_as_xyz
  1  'x, y, z'
loop_
 _atom_site_type_symbol
 _atom_site_label
 _atom_site_symmetry_multiplicity
 _atom_site_fract_x
 _atom_site_fract_y
 _atom_site_fract_z
 _atom_site_occupancy
  Ti  Ti0  1  0.791058  0.291756  0.077443  1
  Ti  Ti1  1  0.214313  0.291756  0.500697  1
  Ti  Ti2  1  0.208418  0.709235  0.500816  1
  Ti  Ti3  1  0.212504  0.713640  0.919821  1
  Ti  Ti4  1  0.793820  0.713640  0.501136  1
  Ti  Ti5  1  0.785748  0.285794  0.500046  1
  Ti  Ti6  1  0.382434  0.126941  0.744506  1
  Ti  Ti7  1  0.379406  0.636396  0.256989  1
  Al  Al8  1  0.154632  0.344082  0.189449  1
  Al  Al9  1  0.154855  0.969880  0.815025  1
  Al  Al10  1  0.152855  0.347764  0.810015  1
  Al  Al11  1  0.537748  0.347764  0.194909  1
  Al  Al12  1  0.843730  0.653505  0.809776  1
  Al  Al13  1  0.846446  0.034659  0.188213  1
  Al  Al14  1  0.840645  0.652023  0.182202  1
  Al  Al15  1  0.469821  0.652023  0.811377  1
  Al  Al16  1  0.377488  0.123692  0.261929  1
  Al  Al17  1  0.861766  0.123692  0.746205  1
  Al  Al18  1  0.618616  0.875059  0.256441  1
  Al  Al19  1  0.621391  0.363709  0.742317  1
  Al  Al20  1  0.622819  0.876191  0.739326  1
  Al  Al21  1  0.136863  0.876191  0.253371  1
  Ga  Ga22  1  0.997144  0.495825  0.498681  1
  Pt  Pt23  1  0.000282  0.999174  0.500009  1
  Pt  Pt24  1  0.499164  0.999174  0.998891  1
  Rh  Rh25  1  0.497444  0.498586  0.001142  1
  Rh  Rh26  1  0.498187  0.499534  0.498127  1
  Rh  Rh27  1  0.001407  0.499534  0.001347  1
  Rh  Rh28  1  0.000074  0.999650  0.999575  1
  Rh  Rh29  1  0.498913  0.999130  0.500217  1
