# generated using pymatgen
data_YTh3(Si3Ni5)4
_symmetry_space_group_name_H-M   'P 1'
_cell_length_a   3.86438300
_cell_length_b   6.61920708
_cell_length_c   18.95671781
_cell_angle_alpha   90.09033218
_cell_angle_beta   90.00000000
_cell_angle_gamma   90.00000000
_symmetry_Int_Tables_number   1
_chemical_formula_structural   YTh3(Si3Ni5)4
_chemical_formula_sum   'Y1 Th3 Si12 Ni20'
_cell_volume   484.89615097
_cell_formula_units_Z   1
loop_
 _symmetry_equiv_pos_site_id
 _symmetry_equiv_pos_as_xyz
  1  'x, y, z'
loop_
 _atom_site_type_symbol
 _atom_site_label
 _atom_site_symmetry_multiplicity
 _atom_site_fract_x
 _atom_site_fract_y
 _atom_site_fract_z
 _atom_site_occupancy
  Y  Y0  1  0.250000  0.877789  0.144253  1
  Th  Th1  1  0.250000  0.623814  0.643906  1
  Th  Th2  1  0.750000  0.375446  0.355652  1
  Th  Th3  1  0.750000  0.123879  0.856691  1
  Si  Si4  1  0.250000  0.838791  0.929066  1
  Si  Si5  1  0.750000  0.154417  0.073449  1
  Si  Si6  1  0.750000  0.339248  0.570361  1
  Si  Si7  1  0.250000  0.661644  0.427996  1
  Si  Si8  1  0.750000  0.618703  0.767087  1
  Si  Si9  1  0.250000  0.381100  0.232748  1
  Si  Si10  1  0.250000  0.427361  0.916949  1
  Si  Si11  1  0.750000  0.582117  0.087754  1
  Si  Si12  1  0.750000  0.929971  0.586199  1
  Si  Si13  1  0.250000  0.068078  0.412211  1
  Si  Si14  1  0.250000  0.118948  0.733625  1
  Si  Si15  1  0.750000  0.881440  0.262247  1
  Ni  Ni16  1  0.250000  0.135303  0.994745  1
  Ni  Ni17  1  0.750000  0.390086  0.986565  1
  Ni  Ni18  1  0.750000  0.107671  0.481874  1
  Ni  Ni19  1  0.250000  0.615111  0.018829  1
  Ni  Ni20  1  0.250000  0.350343  0.113067  1
  Ni  Ni21  1  0.750000  0.644918  0.887162  1
  Ni  Ni22  1  0.750000  0.851114  0.383528  1
  Ni  Ni23  1  0.250000  0.149586  0.613541  1
  Ni  Ni24  1  0.250000  0.072560  0.290956  1
  Ni  Ni25  1  0.750000  0.926063  0.707538  1
  Ni  Ni26  1  0.750000  0.572374  0.206802  1
  Ni  Ni27  1  0.250000  0.426052  0.794736  1
  Ni  Ni28  1  0.750000  0.638522  0.505743  1
  Ni  Ni29  1  0.250000  0.361799  0.492858  1
  Ni  Ni30  1  0.250000  0.813485  0.802092  1
  Ni  Ni31  1  0.750000  0.186715  0.197702  1
  Ni  Ni32  1  0.750000  0.313447  0.698395  1
  Ni  Ni33  1  0.250000  0.687422  0.300308  1
  Ni  Ni34  1  0.250000  0.891653  0.516799  1
  Ni  Ni35  1  0.750000  0.863028  0.006567  1
