# generated using pymatgen
data_Pr5Sm(SiPt5)2
_symmetry_space_group_name_H-M   'P 1'
_cell_length_a   8.41748295
_cell_length_b   8.43803960
_cell_length_c   8.43804011
_cell_angle_alpha   127.28881473
_cell_angle_beta   126.35816724
_cell_angle_gamma   78.59741360
_symmetry_Int_Tables_number   1
_chemical_formula_structural   Pr5Sm(SiPt5)2
_chemical_formula_sum   'Pr5 Sm1 Si2 Pt10'
_cell_volume   371.60502341
_cell_formula_units_Z   1
loop_
 _symmetry_equiv_pos_site_id
 _symmetry_equiv_pos_as_xyz
  1  'x, y, z'
loop_
 _atom_site_type_symbol
 _atom_site_label
 _atom_site_symmetry_multiplicity
 _atom_site_fract_x
 _atom_site_fract_y
 _atom_site_fract_z
 _atom_site_occupancy
  Pr  Pr0  1  0.828355  0.549918  0.278436  1
  Pr  Pr1  1  0.613941  0.250095  0.363845  1
  Pr  Pr2  1  0.172363  0.450450  0.721913  1
  Pr  Pr3  1  0.387100  0.749475  0.637625  1
  Pr  Pr4  1  0.229963  0.949987  0.279976  1
  Sm  Sm5  1  0.774995  0.050255  0.724740  1
  Si  Si6  1  0.214728  0.250689  0.964039  1
  Si  Si7  1  0.786601  0.750243  0.036358  1
  Pt  Pt8  1  0.169427  0.908280  0.863100  1
  Pt  Pt9  1  0.827736  0.090988  0.132135  1
  Pt  Pt10  1  0.456163  0.191717  0.861816  1
  Pt  Pt11  1  0.546736  0.405466  0.737406  1
  Pt  Pt12  1  0.827736  0.695600  0.736747  1
  Pt  Pt13  1  0.456163  0.594348  0.264446  1
  Pt  Pt14  1  0.546736  0.809330  0.141271  1
  Pt  Pt15  1  0.169427  0.306327  0.261146  1
  Pt  Pt16  1  0.995915  0.001821  0.500905  1
  Pt  Pt17  1  0.995915  0.495010  0.994094  1
