# generated using pymatgen
data_Sc2Fe2CoP7Ru9
_symmetry_space_group_name_H-M   'P 1'
_cell_length_a   9.25372886
_cell_length_b   9.26954825
_cell_length_c   3.80091100
_cell_angle_alpha   90.00000000
_cell_angle_beta   90.00000000
_cell_angle_gamma   120.19817425
_symmetry_Int_Tables_number   1
_chemical_formula_structural   Sc2Fe2CoP7Ru9
_chemical_formula_sum   'Sc2 Fe2 Co1 P7 Ru9'
_cell_volume   281.78829258
_cell_formula_units_Z   1
loop_
 _symmetry_equiv_pos_site_id
 _symmetry_equiv_pos_as_xyz
  1  'x, y, z'
loop_
 _atom_site_type_symbol
 _atom_site_label
 _atom_site_symmetry_multiplicity
 _atom_site_fract_x
 _atom_site_fract_y
 _atom_site_fract_z
 _atom_site_occupancy
  Sc  Sc0  1  0.666761  0.334247  0.500000  1
  Sc  Sc1  1  0.334959  0.669245  0.000000  1
  Fe  Fe2  1  0.730066  0.888133  0.000000  1
  Fe  Fe3  1  0.111534  0.841606  0.000000  1
  Co  Co4  1  0.159628  0.270236  0.000000  1
  P  P5  1  0.599563  0.719012  0.500000  1
  P  P6  1  0.999967  0.998420  0.000000  1
  P  P7  1  0.281476  0.881883  0.500000  1
  P  P8  1  0.117906  0.401569  0.500000  1
  P  P9  1  0.888586  0.584175  0.000000  1
  P  P10  1  0.416734  0.303621  0.000000  1
  P  P11  1  0.695619  0.110570  0.000000  1
  Ru  Ru12  1  0.558655  0.944951  0.500000  1
  Ru  Ru13  1  0.384646  0.440250  0.500000  1
  Ru  Ru14  1  0.913221  0.117380  0.500000  1
  Ru  Ru15  1  0.204500  0.086863  0.500000  1
  Ru  Ru16  1  0.882172  0.794271  0.500000  1
  Ru  Ru17  1  0.425357  0.064244  0.000000  1
  Ru  Ru18  1  0.935496  0.360424  0.000000  1
  Ru  Ru19  1  0.638169  0.574927  0.000000  1
  Ru  Ru20  1  0.054990  0.613970  0.500000  1
