# generated using pymatgen
data_Cs2KPu3O12
_symmetry_space_group_name_H-M   'P 1'
_cell_length_a   8.06150519
_cell_length_b   8.06150448
_cell_length_c   13.15964199
_cell_angle_alpha   73.47615375
_cell_angle_beta   73.47615509
_cell_angle_gamma   60.02221697
_symmetry_Int_Tables_number   1
_chemical_formula_structural   Cs2KPu3O12
_chemical_formula_sum   'Cs4 K2 Pu6 O24'
_cell_volume   699.70645361
_cell_formula_units_Z   2
loop_
 _symmetry_equiv_pos_site_id
 _symmetry_equiv_pos_as_xyz
  1  'x, y, z'
loop_
 _atom_site_type_symbol
 _atom_site_label
 _atom_site_symmetry_multiplicity
 _atom_site_fract_x
 _atom_site_fract_y
 _atom_site_fract_z
 _atom_site_occupancy
  Cs  Cs0  1  0.906011  0.475185  0.676597  1
  Cs  Cs1  1  0.093989  0.524815  0.323403  1
  Cs  Cs2  1  0.524815  0.093989  0.823403  1
  Cs  Cs3  1  0.475185  0.906011  0.176597  1
  K  K4  1  0.226949  0.773051  0.750000  1
  K  K5  1  0.773051  0.226949  0.250000  1
  Pu  Pu6  1  0.500000  0.000000  0.500000  1
  Pu  Pu7  1  0.000000  0.500000  0.000000  1
  Pu  Pu8  1  0.000000  0.000000  0.500000  1
  Pu  Pu9  1  0.000000  0.000000  0.000000  1
  Pu  Pu10  1  0.500000  0.500000  0.500000  1
  Pu  Pu11  1  0.500000  0.500000  0.000000  1
  O  O12  1  0.894685  0.966912  0.643594  1
  O  O13  1  0.514121  0.894372  0.643387  1
  O  O14  1  0.259051  0.412703  0.031506  1
  O  O15  1  0.680555  0.218109  0.029077  1
  O  O16  1  0.894372  0.514121  0.143387  1
  O  O17  1  0.105628  0.485879  0.856613  1
  O  O18  1  0.485879  0.105628  0.356613  1
  O  O19  1  0.781891  0.319445  0.470923  1
  O  O20  1  0.105315  0.033088  0.356406  1
  O  O21  1  0.587297  0.740949  0.468494  1
  O  O22  1  0.456715  0.510811  0.143065  1
  O  O23  1  0.412703  0.259051  0.531506  1
  O  O24  1  0.510811  0.456715  0.643065  1
  O  O25  1  0.821471  0.931683  0.463238  1
  O  O26  1  0.178529  0.068317  0.536762  1
  O  O27  1  0.543285  0.489189  0.856935  1
  O  O28  1  0.931683  0.821471  0.963238  1
  O  O29  1  0.489189  0.543285  0.356935  1
  O  O30  1  0.740949  0.587297  0.968494  1
  O  O31  1  0.966912  0.894685  0.143594  1
  O  O32  1  0.068317  0.178529  0.036762  1
  O  O33  1  0.319445  0.781891  0.970923  1
  O  O34  1  0.033088  0.105315  0.856406  1
  O  O35  1  0.218109  0.680555  0.529077  1
