# generated using pymatgen
data_Pr11YSc8Al12O48
_symmetry_space_group_name_H-M   'P 1'
_cell_length_a   11.00876139
_cell_length_b   11.00338051
_cell_length_c   11.00876155
_cell_angle_alpha   109.41863885
_cell_angle_beta   109.59620713
_cell_angle_gamma   109.41863457
_symmetry_Int_Tables_number   1
_chemical_formula_structural   Pr11YSc8Al12O48
_chemical_formula_sum   'Pr11 Y1 Sc8 Al12 O48'
_cell_volume   1026.29887354
_cell_formula_units_Z   1
loop_
 _symmetry_equiv_pos_site_id
 _symmetry_equiv_pos_as_xyz
  1  'x, y, z'
loop_
 _atom_site_type_symbol
 _atom_site_label
 _atom_site_symmetry_multiplicity
 _atom_site_fract_x
 _atom_site_fract_y
 _atom_site_fract_z
 _atom_site_occupancy
  Pr  Pr0  1  0.375147  0.125033  0.250079  1
  Pr  Pr1  1  0.125046  0.374967  0.750115  1
  Pr  Pr2  1  0.375000  0.750000  0.125000  1
  Pr  Pr3  1  0.125000  0.250000  0.375000  1
  Pr  Pr4  1  0.249921  0.374967  0.124853  1
  Pr  Pr5  1  0.749885  0.125033  0.374954  1
  Pr  Pr6  1  0.875000  0.750000  0.625000  1
  Pr  Pr7  1  0.874356  0.624102  0.248850  1
  Pr  Pr8  1  0.624748  0.875898  0.750254  1
  Pr  Pr9  1  0.749746  0.624102  0.875252  1
  Pr  Pr10  1  0.251150  0.875898  0.625644  1
  Y  Y11  1  0.625000  0.250000  0.875000  1
  Sc  Sc12  1  0.500297  0.001611  0.999579  1
  Sc  Sc13  1  0.997968  0.498389  0.998685  1
  Sc  Sc14  1  0.000268  0.000083  0.500355  1
  Sc  Sc15  1  0.500421  0.498389  0.999703  1
  Sc  Sc16  1  0.500271  0.499917  0.500184  1
  Sc  Sc17  1  0.999645  0.499917  0.499732  1
  Sc  Sc18  1  0.501315  0.001611  0.502032  1
  Sc  Sc19  1  0.999816  0.000083  0.999729  1
  Al  Al20  1  0.124934  0.750000  0.874934  1
  Al  Al21  1  0.872704  0.250000  0.122704  1
  Al  Al22  1  0.624730  0.374161  0.248544  1
  Al  Al23  1  0.749961  0.874950  0.125007  1
  Al  Al24  1  0.874383  0.125839  0.750569  1
  Al  Al25  1  0.250057  0.625050  0.375012  1
  Al  Al26  1  0.749431  0.374161  0.625617  1
  Al  Al27  1  0.251456  0.125839  0.875270  1
  Al  Al28  1  0.124988  0.874950  0.249943  1
  Al  Al29  1  0.377296  0.250000  0.627296  1
  Al  Al30  1  0.625066  0.750000  0.375066  1
  Al  Al31  1  0.374993  0.625050  0.750039  1
  O  O32  1  0.481549  0.379214  0.291574  1
  O  O33  1  0.310793  0.898201  0.018457  1
  O  O34  1  0.602309  0.913361  0.120471  1
  O  O35  1  0.587184  0.188932  0.208164  1
  O  O36  1  0.120762  0.018936  0.208020  1
  O  O37  1  0.190797  0.208214  0.588169  1
  O  O38  1  0.189083  0.481064  0.601826  1
  O  O39  1  0.207111  0.586639  0.188948  1
  O  O40  1  0.379529  0.586639  0.897691  1
  O  O41  1  0.911831  0.291786  0.309203  1
  O  O42  1  0.291836  0.311068  0.912816  1
  O  O43  1  0.208426  0.120786  0.018451  1
  O  O44  1  0.481543  0.601799  0.189207  1
  O  O45  1  0.897666  0.379214  0.587640  1
  O  O46  1  0.017416  0.208214  0.120044  1
  O  O47  1  0.601748  0.188932  0.480769  1
  O  O48  1  0.587408  0.898201  0.379744  1
  O  O49  1  0.019231  0.311068  0.898252  1
  O  O50  1  0.912360  0.120786  0.602334  1
  O  O51  1  0.620882  0.409223  0.098919  1
  O  O52  1  0.120256  0.601799  0.912592  1
  O  O53  1  0.291980  0.481064  0.379238  1
  O  O54  1  0.898174  0.018936  0.310917  1
  O  O55  1  0.311052  0.913361  0.292889  1
  O  O56  1  0.518793  0.620384  0.708434  1
  O  O57  1  0.685976  0.105205  0.977030  1
  O  O58  1  0.401081  0.090777  0.879118  1
  O  O59  1  0.412684  0.810775  0.792019  1
  O  O60  1  0.878586  0.981377  0.791550  1
  O  O61  1  0.810785  0.791918  0.412640  1
  O  O62  1  0.810174  0.518623  0.397209  1
  O  O63  1  0.788340  0.409223  0.810305  1
  O  O64  1  0.689695  0.090777  0.711660  1
  O  O65  1  0.102791  0.981377  0.689826  1
  O  O66  1  0.708450  0.518623  0.621414  1
  O  O67  1  0.620722  0.708082  0.518867  1
  O  O68  1  0.871825  0.394795  0.080771  1
  O  O69  1  0.088049  0.879616  0.398409  1
  O  O70  1  0.981245  0.689225  0.101909  1
  O  O71  1  0.419229  0.105205  0.628175  1
  O  O72  1  0.398091  0.810775  0.518755  1
  O  O73  1  0.981133  0.791918  0.879278  1
  O  O74  1  0.101591  0.620384  0.411951  1
  O  O75  1  0.522970  0.394795  0.814024  1
  O  O76  1  0.791566  0.879616  0.981207  1
  O  O77  1  0.707981  0.689225  0.087316  1
  O  O78  1  0.087360  0.708082  0.689215  1
  O  O79  1  0.379956  0.291786  0.482584  1
