# generated using pymatgen
data_PdRu3(Pb2O7)2
_symmetry_space_group_name_H-M   'P 1'
_cell_length_a   7.41808024
_cell_length_b   7.34208573
_cell_length_c   7.41807900
_cell_angle_alpha   59.65701343
_cell_angle_beta   60.00000105
_cell_angle_gamma   59.65700785
_symmetry_Int_Tables_number   1
_chemical_formula_structural   PdRu3(Pb2O7)2
_chemical_formula_sum   'Pd1 Ru3 Pb4 O14'
_cell_volume   284.19495873
_cell_formula_units_Z   1
loop_
 _symmetry_equiv_pos_site_id
 _symmetry_equiv_pos_as_xyz
  1  'x, y, z'
loop_
 _atom_site_type_symbol
 _atom_site_label
 _atom_site_symmetry_multiplicity
 _atom_site_fract_x
 _atom_site_fract_y
 _atom_site_fract_z
 _atom_site_occupancy
  Pd  Pd0  1  0.625000  0.125000  0.625000  1
  Ru  Ru1  1  0.625000  0.625000  0.125000  1
  Ru  Ru2  1  0.125000  0.625000  0.625000  1
  Ru  Ru3  1  0.625000  0.625000  0.625000  1
  Pb  Pb4  1  0.125000  0.625000  0.125000  1
  Pb  Pb5  1  0.125000  0.125000  0.625000  1
  Pb  Pb6  1  0.625000  0.125000  0.125000  1
  Pb  Pb7  1  0.125000  0.125000  0.125000  1
  O  O8  1  0.699947  0.696069  0.301992  1
  O  O9  1  0.948008  0.553931  0.550053  1
  O  O10  1  0.546361  0.947164  0.960116  1
  O  O11  1  0.960116  0.947164  0.546361  1
  O  O12  1  0.948008  0.553931  0.948008  1
  O  O13  1  0.546361  0.947164  0.546361  1
  O  O14  1  0.301992  0.696069  0.301992  1
  O  O15  1  0.301992  0.696069  0.699947  1
  O  O16  1  0.703639  0.302836  0.289884  1
  O  O17  1  0.703639  0.302836  0.703639  1
  O  O18  1  0.550053  0.553931  0.948008  1
  O  O19  1  0.289884  0.302836  0.703639  1
  O  O20  1  0.251755  0.244734  0.251755  1
  O  O21  1  0.998245  0.005266  0.998245  1
