# generated using pymatgen
data_RbAlZnF6
_symmetry_space_group_name_H-M   'P 1'
_cell_length_a   7.23245280
_cell_length_b   7.23245253
_cell_length_c   7.23245227
_cell_angle_alpha   120.73517262
_cell_angle_beta   119.79079814
_cell_angle_gamma   89.54705720
_symmetry_Int_Tables_number   1
_chemical_formula_structural   RbAlZnF6
_chemical_formula_sum   'Rb2 Al2 Zn2 F12'
_cell_volume   266.41585453
_cell_formula_units_Z   2
loop_
 _symmetry_equiv_pos_site_id
 _symmetry_equiv_pos_as_xyz
  1  'x, y, z'
loop_
 _atom_site_type_symbol
 _atom_site_label
 _atom_site_symmetry_multiplicity
 _atom_site_fract_x
 _atom_site_fract_y
 _atom_site_fract_z
 _atom_site_occupancy
  Rb  Rb0  1  0.623348  0.873348  0.750000  1
  Rb  Rb1  1  0.376652  0.126652  0.250000  1
  Al  Al2  1  0.000000  0.500000  0.000000  1
  Al  Al3  1  0.000000  0.000000  0.500000  1
  Zn  Zn4  1  0.500000  0.500000  0.000000  1
  Zn  Zn5  1  0.000000  0.500000  0.500000  1
  F  F6  1  0.041830  0.791830  0.250000  1
  F  F7  1  0.664044  0.414044  0.250000  1
  F  F8  1  0.056623  0.843324  0.643682  1
  F  F9  1  0.699643  0.412941  0.856318  1
  F  F10  1  0.699643  0.843324  0.286701  1
  F  F11  1  0.056623  0.412941  0.213299  1
  F  F12  1  0.958170  0.208170  0.750000  1
  F  F13  1  0.335956  0.585956  0.750000  1
  F  F14  1  0.943377  0.156676  0.356318  1
  F  F15  1  0.300357  0.587059  0.143682  1
  F  F16  1  0.300357  0.156676  0.713299  1
  F  F17  1  0.943377  0.587059  0.786701  1
