# generated using pymatgen
data_Sc8Cu4TcAu3
_symmetry_space_group_name_H-M   'P 1'
_cell_length_a   6.72827800
_cell_length_b   4.66504100
_cell_length_c   9.30114200
_cell_angle_alpha   90.00000000
_cell_angle_beta   89.99961897
_cell_angle_gamma   90.00000000
_symmetry_Int_Tables_number   1
_chemical_formula_structural   Sc8Cu4TcAu3
_chemical_formula_sum   'Sc8 Cu4 Tc1 Au3'
_cell_volume   291.94138713
_cell_formula_units_Z   1
loop_
 _symmetry_equiv_pos_site_id
 _symmetry_equiv_pos_as_xyz
  1  'x, y, z'
loop_
 _atom_site_type_symbol
 _atom_site_label
 _atom_site_symmetry_multiplicity
 _atom_site_fract_x
 _atom_site_fract_y
 _atom_site_fract_z
 _atom_site_occupancy
  Sc  Sc0  1  0.506901  0.750000  0.115282  1
  Sc  Sc1  1  0.993101  0.750000  0.115283  1
  Sc  Sc2  1  0.499076  0.249999  0.374908  1
  Sc  Sc3  1  0.000915  0.249999  0.374910  1
  Sc  Sc4  1  0.993212  0.750000  0.634783  1
  Sc  Sc5  1  0.506794  0.750000  0.634785  1
  Sc  Sc6  1  0.988578  0.249999  0.874943  1
  Sc  Sc7  1  0.511425  0.249999  0.874944  1
  Cu  Cu8  1  0.750007  0.249999  0.119598  1
  Cu  Cu9  1  0.250001  0.750000  0.375212  1
  Cu  Cu10  1  0.749985  0.249999  0.630102  1
  Cu  Cu11  1  0.250004  0.750000  0.875247  1
  Tc  Tc12  1  0.750000  0.750000  0.875090  1
  Au  Au13  1  0.249997  0.249999  0.126831  1
  Au  Au14  1  0.749999  0.750000  0.375217  1
  Au  Au15  1  0.250004  0.249999  0.622867  1
