# generated using pymatgen
data_RbHf2Cl9
_symmetry_space_group_name_H-M   'P 1'
_cell_length_a   6.77526300
_cell_length_b   9.87461836
_cell_length_c   12.87542235
_cell_angle_alpha   65.97273777
_cell_angle_beta   90.00000000
_cell_angle_gamma   90.00000000
_symmetry_Int_Tables_number   1
_chemical_formula_structural   RbHf2Cl9
_chemical_formula_sum   'Rb2 Hf4 Cl18'
_cell_volume   786.76686621
_cell_formula_units_Z   2
loop_
 _symmetry_equiv_pos_site_id
 _symmetry_equiv_pos_as_xyz
  1  'x, y, z'
loop_
 _atom_site_type_symbol
 _atom_site_label
 _atom_site_symmetry_multiplicity
 _atom_site_fract_x
 _atom_site_fract_y
 _atom_site_fract_z
 _atom_site_occupancy
  Rb  Rb0  1  0.594100  0.500000  0.750000  1
  Rb  Rb1  1  0.405900  0.500000  0.250000  1
  Hf  Hf2  1  0.254938  0.824293  0.867440  1
  Hf  Hf3  1  0.745062  0.175707  0.132560  1
  Hf  Hf4  1  0.254938  0.175707  0.632560  1
  Hf  Hf5  1  0.745062  0.824293  0.367440  1
  Cl  Cl6  1  0.110074  0.789996  0.042316  1
  Cl  Cl7  1  0.889926  0.210004  0.957684  1
  Cl  Cl8  1  0.110074  0.210004  0.457684  1
  Cl  Cl9  1  0.889926  0.789996  0.542316  1
  Cl  Cl10  1  0.113876  0.620387  0.842007  1
  Cl  Cl11  1  0.886124  0.379613  0.157993  1
  Cl  Cl12  1  0.113876  0.379613  0.657993  1
  Cl  Cl13  1  0.886124  0.620387  0.342007  1
  Cl  Cl14  1  0.978690  0.000000  0.750000  1
  Cl  Cl15  1  0.021310  0.000000  0.250000  1
  Cl  Cl16  1  0.398086  0.080088  0.838615  1
  Cl  Cl17  1  0.601914  0.919912  0.161385  1
  Cl  Cl18  1  0.398086  0.919912  0.661385  1
  Cl  Cl19  1  0.601914  0.080088  0.338615  1
  Cl  Cl20  1  0.561469  0.707579  0.940444  1
  Cl  Cl21  1  0.438531  0.292421  0.059556  1
  Cl  Cl22  1  0.561469  0.292421  0.559556  1
  Cl  Cl23  1  0.438531  0.707579  0.440444  1
