# generated using pymatgen
data_DyEr4Ga2Ru3
_symmetry_space_group_name_H-M   'P 1'
_cell_length_a   8.30487976
_cell_length_b   8.29828056
_cell_length_c   8.30042700
_cell_angle_alpha   109.24808044
_cell_angle_beta   109.81743997
_cell_angle_gamma   109.41449586
_symmetry_Int_Tables_number   1
_chemical_formula_structural   DyEr4Ga2Ru3
_chemical_formula_sum   'Dy2 Er8 Ga4 Ru6'
_cell_volume   439.98243838
_cell_formula_units_Z   2
loop_
 _symmetry_equiv_pos_site_id
 _symmetry_equiv_pos_as_xyz
  1  'x, y, z'
loop_
 _atom_site_type_symbol
 _atom_site_label
 _atom_site_symmetry_multiplicity
 _atom_site_fract_x
 _atom_site_fract_y
 _atom_site_fract_z
 _atom_site_occupancy
  Dy  Dy0  1  0.933795  0.250556  0.184522  1
  Dy  Dy1  1  0.183415  0.931422  0.250426  1
  Er  Er2  1  0.783075  0.783508  0.782644  1
  Er  Er3  1  0.319388  0.569252  0.751685  1
  Er  Er4  1  0.750581  0.319615  0.569902  1
  Er  Er5  1  0.567267  0.749064  0.316349  1
  Er  Er6  1  0.716187  0.500582  0.999371  1
  Er  Er7  1  0.000453  0.717120  0.501866  1
  Er  Er8  1  0.500084  0.998678  0.716139  1
  Er  Er9  1  0.251012  0.182517  0.929923  1
  Ga  Ga10  1  0.414729  0.413232  0.413642  1
  Ga  Ga11  1  0.088215  0.496972  0.998845  1
  Ga  Ga12  1  0.998290  0.086979  0.499148  1
  Ga  Ga13  1  0.499486  0.003141  0.088565  1
  Ru  Ru14  1  0.872373  0.121262  0.747124  1
  Ru  Ru15  1  0.745753  0.872941  0.120909  1
  Ru  Ru16  1  0.123586  0.748889  0.874414  1
  Ru  Ru17  1  0.251159  0.625424  0.377539  1
  Ru  Ru18  1  0.374772  0.249645  0.625814  1
  Ru  Ru19  1  0.626381  0.379202  0.251174  1
