# generated using pymatgen
data_Pm4Np3(IO8)3
_symmetry_space_group_name_H-M   'P 1'
_cell_length_a   6.95615777
_cell_length_b   6.92420167
_cell_length_c   12.49487824
_cell_angle_alpha   76.50512486
_cell_angle_beta   78.98823859
_cell_angle_gamma   106.55097192
_symmetry_Int_Tables_number   1
_chemical_formula_structural   Pm4Np3(IO8)3
_chemical_formula_sum   'Pm4 Np3 I3 O24'
_cell_volume   539.13478453
_cell_formula_units_Z   1
loop_
 _symmetry_equiv_pos_site_id
 _symmetry_equiv_pos_as_xyz
  1  'x, y, z'
loop_
 _atom_site_type_symbol
 _atom_site_label
 _atom_site_symmetry_multiplicity
 _atom_site_fract_x
 _atom_site_fract_y
 _atom_site_fract_z
 _atom_site_occupancy
  Pm  Pm0  1  0.191328  0.431449  0.596293  1
  Pm  Pm1  1  0.792627  0.542264  0.411106  1
  Pm  Pm2  1  0.578867  0.811670  0.899374  1
  Pm  Pm3  1  0.425994  0.206536  0.098140  1
  Np  Np4  1  0.317579  0.990487  0.417758  1
  Np  Np5  1  0.588206  0.413050  0.748199  1
  Np  Np6  1  0.411047  0.590228  0.250944  1
  I  I7  1  0.949845  0.272054  0.971661  1
  I  I8  1  0.044201  0.733626  0.032539  1
  I  I9  1  0.685244  0.995304  0.562578  1
  O  O10  1  0.564483  0.434159  0.588649  1
  O  O11  1  0.412581  0.530944  0.408896  1
  O  O12  1  0.556033  0.441810  0.908006  1
  O  O13  1  0.458441  0.579543  0.092488  1
  O  O14  1  0.547319  0.101642  0.782643  1
  O  O15  1  0.433098  0.931207  0.271344  1
  O  O16  1  0.882580  0.449624  0.725434  1
  O  O17  1  0.127230  0.566413  0.263478  1
  O  O18  1  0.690814  0.054917  0.013191  1
  O  O19  1  0.305658  0.927815  0.015798  1
  O  O20  1  0.907249  0.262388  0.529862  1
  O  O21  1  0.093926  0.707245  0.458374  1
  O  O22  1  0.394132  0.789283  0.548463  1
  O  O23  1  0.609713  0.187004  0.413786  1
  O  O24  1  0.190236  0.608897  0.942766  1
  O  O25  1  0.807457  0.398256  0.062819  1
  O  O26  1  0.288313  0.368746  0.773653  1
  O  O27  1  0.706256  0.642450  0.230832  1
  O  O28  1  0.679287  0.775162  0.707415  1
  O  O29  1  0.308693  0.245401  0.280093  1
  O  O30  1  0.946745  0.864663  0.920706  1
  O  O31  1  0.070164  0.159326  0.075699  1
  O  O32  1  0.211715  0.090670  0.535482  1
  O  O33  1  0.822938  0.895767  0.461532  1
