# generated using pymatgen
data_Ca3Nd(Ga5Ir3)2
_symmetry_space_group_name_H-M   'P 1'
_cell_length_a   8.67908497
_cell_length_b   8.61750683
_cell_length_c   8.61750686
_cell_angle_alpha   140.47840876
_cell_angle_beta   109.94720000
_cell_angle_gamma   83.44476858
_symmetry_Int_Tables_number   1
_chemical_formula_structural   Ca3Nd(Ga5Ir3)2
_chemical_formula_sum   'Ca3 Nd1 Ga10 Ir6'
_cell_volume   373.39537966
_cell_formula_units_Z   1
loop_
 _symmetry_equiv_pos_site_id
 _symmetry_equiv_pos_as_xyz
  1  'x, y, z'
loop_
 _atom_site_type_symbol
 _atom_site_label
 _atom_site_symmetry_multiplicity
 _atom_site_fract_x
 _atom_site_fract_y
 _atom_site_fract_z
 _atom_site_occupancy
  Ca  Ca0  1  0.870564  0.642777  0.227786  1
  Ca  Ca1  1  0.127259  0.355304  0.771956  1
  Ca  Ca2  1  0.414317  0.143017  0.271300  1
  Nd  Nd3  1  0.589160  0.860669  0.728490  1
  Ga  Ga4  1  0.496663  0.747103  0.242512  1
  Ga  Ga5  1  0.496663  0.254152  0.749560  1
  Ga  Ga6  1  0.203664  0.953760  0.750491  1
  Ga  Ga7  1  0.796994  0.542409  0.749697  1
  Ga  Ga8  1  0.796994  0.047297  0.254584  1
  Ga  Ga9  1  0.203664  0.453172  0.249903  1
  Ga  Ga10  1  0.094953  0.915650  0.179304  1
  Ga  Ga11  1  0.910221  0.087325  0.822895  1
  Ga  Ga12  1  0.735893  0.414275  0.321618  1
  Ga  Ga13  1  0.264143  0.584337  0.679806  1
  Ir  Ir14  1  0.999439  0.747229  0.747644  1
  Ir  Ir15  1  0.999439  0.251795  0.252210  1
  Ir  Ir16  1  0.265145  0.850969  0.414177  1
  Ir  Ir17  1  0.733189  0.146529  0.586659  1
  Ir  Ir18  1  0.438270  0.350165  0.088106  1
  Ir  Ir19  1  0.563368  0.652067  0.911300  1
