# generated using pymatgen
data_TaNb2Sb(PO4)6
_symmetry_space_group_name_H-M   'P 1'
_cell_length_a   8.90926550
_cell_length_b   9.01060556
_cell_length_c   12.49132406
_cell_angle_alpha   90.04042747
_cell_angle_beta   90.56382875
_cell_angle_gamma   89.99874831
_symmetry_Int_Tables_number   1
_chemical_formula_structural   TaNb2Sb(PO4)6
_chemical_formula_sum   'Ta2 Nb4 Sb2 P12 O48'
_cell_volume   1002.72817619
_cell_formula_units_Z   2
loop_
 _symmetry_equiv_pos_site_id
 _symmetry_equiv_pos_as_xyz
  1  'x, y, z'
loop_
 _atom_site_type_symbol
 _atom_site_label
 _atom_site_symmetry_multiplicity
 _atom_site_fract_x
 _atom_site_fract_y
 _atom_site_fract_z
 _atom_site_occupancy
  Ta  Ta0  1  0.749727  0.464706  0.116016  1
  Ta  Ta1  1  0.747665  0.035345  0.886544  1
  Nb  Nb2  1  0.751951  0.535095  0.616548  1
  Nb  Nb3  1  0.249821  0.035166  0.617212  1
  Nb  Nb4  1  0.251969  0.964870  0.116299  1
  Nb  Nb5  1  0.248010  0.464714  0.385258  1
  Sb  Sb6  1  0.748635  0.966510  0.378784  1
  Sb  Sb7  1  0.248913  0.533606  0.878644  1
  P  P8  1  0.540517  0.752207  0.004779  1
  P  P9  1  0.970161  0.257117  0.505633  1
  P  P10  1  0.470622  0.243033  0.005670  1
  P  P11  1  0.039753  0.747654  0.504939  1
  P  P12  1  0.612248  0.594998  0.350279  1
  P  P13  1  0.902202  0.120830  0.136790  1
  P  P14  1  0.875641  0.387491  0.853214  1
  P  P15  1  0.602312  0.885762  0.647956  1
  P  P16  1  0.402170  0.380042  0.636750  1
  P  P17  1  0.110209  0.904298  0.851040  1
  P  P18  1  0.100680  0.614932  0.146640  1
  P  P19  1  0.375855  0.111470  0.352808  1
  O  O20  1  0.927276  0.593756  0.142636  1
  O  O21  1  0.545259  0.114142  0.350795  1
  O  O22  1  0.575041  0.404747  0.640425  1
  O  O23  1  0.939398  0.941974  0.850214  1
  O  O24  1  0.044904  0.385293  0.851519  1
  O  O25  1  0.428754  0.905703  0.644378  1
  O  O26  1  0.441191  0.557623  0.349024  1
  O  O27  1  0.075057  0.096360  0.140243  1
  O  O28  1  0.958217  0.823293  0.413641  1
  O  O29  1  0.576412  0.331323  0.082453  1
  O  O30  1  0.566735  0.142414  0.933010  1
  O  O31  1  0.930166  0.663162  0.580523  1
  O  O32  1  0.075531  0.169594  0.582862  1
  O  O33  1  0.458630  0.676937  0.913402  1
  O  O34  1  0.430654  0.836694  0.080424  1
  O  O35  1  0.065854  0.357253  0.432559  1
  O  O36  1  0.685695  0.489390  0.265938  1
  O  O37  1  0.822675  0.017334  0.212032  1
  O  O38  1  0.810953  0.498747  0.767712  1
  O  O39  1  0.658672  0.964923  0.751975  1
  O  O40  1  0.322358  0.484360  0.711347  1
  O  O41  1  0.184165  0.010727  0.767571  1
  O  O42  1  0.157091  0.535907  0.250565  1
  O  O43  1  0.311396  0.999656  0.267319  1
  O  O44  1  0.679218  0.556775  0.462214  1
  O  O45  1  0.849247  0.092845  0.020221  1
  O  O46  1  0.812926  0.437773  0.963633  1
  O  O47  1  0.677261  0.951238  0.551617  1
  O  O48  1  0.349950  0.406127  0.519905  1
  O  O49  1  0.178059  0.942339  0.962825  1
  O  O50  1  0.176420  0.549559  0.050551  1
  O  O51  1  0.313658  0.061794  0.463238  1
  O  O52  1  0.628892  0.638282  0.075573  1
  O  O53  1  0.872061  0.159963  0.436497  1
  O  O54  1  0.873775  0.360909  0.576796  1
  O  O55  1  0.661429  0.861490  0.962215  1
  O  O56  1  0.372839  0.340046  0.936418  1
  O  O57  1  0.127677  0.861358  0.576432  1
  O  O58  1  0.161322  0.639324  0.462415  1
  O  O59  1  0.374350  0.139254  0.076802  1
  O  O60  1  0.631470  0.755611  0.320014  1
  O  O61  1  0.871407  0.288279  0.159445  1
  O  O62  1  0.811573  0.230586  0.825691  1
  O  O63  1  0.636596  0.716644  0.659440  1
  O  O64  1  0.372405  0.212904  0.660850  1
  O  O65  1  0.129912  0.743937  0.820294  1
  O  O66  1  0.134681  0.784001  0.158461  1
  O  O67  1  0.311728  0.267806  0.324087  1
