# generated using pymatgen
data_Tb7PrHf11Si16Hg
_symmetry_space_group_name_H-M   'P 1'
_cell_length_a   7.32890799
_cell_length_b   7.33052861
_cell_length_c   13.34201362
_cell_angle_alpha   89.72570409
_cell_angle_beta   90.17311203
_cell_angle_gamma   89.78525609
_symmetry_Int_Tables_number   1
_chemical_formula_structural   Tb7PrHf11Si16Hg
_chemical_formula_sum   'Tb7 Pr1 Hf11 Si16 Hg1'
_cell_volume   716.78004926
_cell_formula_units_Z   1
loop_
 _symmetry_equiv_pos_site_id
 _symmetry_equiv_pos_as_xyz
  1  'x, y, z'
loop_
 _atom_site_type_symbol
 _atom_site_label
 _atom_site_symmetry_multiplicity
 _atom_site_fract_x
 _atom_site_fract_y
 _atom_site_fract_z
 _atom_site_occupancy
  Tb  Tb0  1  0.004323  0.655911  0.715861  1
  Tb  Tb1  1  0.155208  0.496187  0.465655  1
  Tb  Tb2  1  0.498404  0.847002  0.032245  1
  Tb  Tb3  1  0.847066  0.499227  0.966525  1
  Tb  Tb4  1  0.496153  0.154354  0.535364  1
  Tb  Tb5  1  0.346658  0.997026  0.787992  1
  Tb  Tb6  1  0.655524  0.003792  0.284557  1
  Pr  Pr7  1  0.995595  0.344508  0.210934  1
  Hf  Hf8  1  0.824030  0.824756  0.500530  1
  Hf  Hf9  1  0.324180  0.677584  0.249978  1
  Hf  Hf10  1  0.676839  0.323105  0.750216  1
  Hf  Hf11  1  0.146768  0.997189  0.375911  1
  Hf  Hf12  1  0.855902  0.002459  0.877904  1
  Hf  Hf13  1  0.504866  0.647150  0.626635  1
  Hf  Hf14  1  0.356072  0.491230  0.877103  1
  Hf  Hf15  1  0.490425  0.356042  0.122028  1
  Hf  Hf16  1  0.647265  0.506361  0.374477  1
  Hf  Hf17  1  0.996980  0.145026  0.625113  1
  Hf  Hf18  1  0.002666  0.855267  0.121406  1
  Si  Si19  1  0.363923  0.295354  0.318014  1
  Si  Si20  1  0.639999  0.703523  0.819260  1
  Si  Si21  1  0.207151  0.860916  0.568819  1
  Si  Si22  1  0.131200  0.773320  0.926078  1
  Si  Si23  1  0.768957  0.127681  0.071657  1
  Si  Si24  1  0.860849  0.206337  0.432765  1
  Si  Si25  1  0.296348  0.360014  0.682881  1
  Si  Si26  1  0.700510  0.642700  0.180921  1
  Si  Si27  1  0.299635  0.046447  0.192831  1
  Si  Si28  1  0.705744  0.950789  0.686481  1
  Si  Si29  1  0.449953  0.794612  0.436458  1
  Si  Si30  1  0.213332  0.572898  0.063916  1
  Si  Si31  1  0.568987  0.210929  0.934526  1
  Si  Si32  1  0.794505  0.449977  0.564149  1
  Si  Si33  1  0.048681  0.297550  0.807427  1
  Si  Si34  1  0.949700  0.709390  0.314634  1
  Hg  Hg35  1  0.175601  0.173384  0.998750  1
