# generated using pymatgen
data_Nd6Si2PdPt9
_symmetry_space_group_name_H-M   'P 1'
_cell_length_a   8.39466814
_cell_length_b   8.39466742
_cell_length_c   8.39710382
_cell_angle_alpha   127.08522493
_cell_angle_beta   126.24776954
_cell_angle_gamma   78.77706083
_symmetry_Int_Tables_number   1
_chemical_formula_structural   Nd6Si2PdPt9
_chemical_formula_sum   'Nd6 Si2 Pd1 Pt9'
_cell_volume   368.44742808
_cell_formula_units_Z   1
loop_
 _symmetry_equiv_pos_site_id
 _symmetry_equiv_pos_as_xyz
  1  'x, y, z'
loop_
 _atom_site_type_symbol
 _atom_site_label
 _atom_site_symmetry_multiplicity
 _atom_site_fract_x
 _atom_site_fract_y
 _atom_site_fract_z
 _atom_site_occupancy
  Nd  Nd0  1  0.826663  0.548208  0.276078  1
  Nd  Nd1  1  0.611063  0.250571  0.361634  1
  Nd  Nd2  1  0.173337  0.451792  0.723922  1
  Nd  Nd3  1  0.388937  0.749429  0.638366  1
  Nd  Nd4  1  0.227869  0.949414  0.276078  1
  Nd  Nd5  1  0.772131  0.050586  0.723922  1
  Si  Si6  1  0.214383  0.251971  0.966354  1
  Si  Si7  1  0.785617  0.748029  0.033646  1
  Pd  Pd8  1  0.000000  0.000000  0.500000  1
  Pt  Pt9  1  0.169575  0.907815  0.860899  1
  Pt  Pt10  1  0.830425  0.092185  0.139101  1
  Pt  Pt11  1  0.453084  0.191324  0.860899  1
  Pt  Pt12  1  0.543382  0.405679  0.734569  1
  Pt  Pt13  1  0.828891  0.691188  0.734569  1
  Pt  Pt14  1  0.456618  0.594321  0.265431  1
  Pt  Pt15  1  0.546916  0.808676  0.139101  1
  Pt  Pt16  1  0.171109  0.308812  0.265431  1
  Pt  Pt17  1  0.000000  0.500000  0.000000  1
