# generated using pymatgen
data_Sc2Pb(CO3)4
_symmetry_space_group_name_H-M   'P 1'
_cell_length_a   6.44104084
_cell_length_b   10.07254723
_cell_length_c   8.27462414
_cell_angle_alpha   89.62926653
_cell_angle_beta   108.83216144
_cell_angle_gamma   89.95346693
_symmetry_Int_Tables_number   1
_chemical_formula_structural   Sc2Pb(CO3)4
_chemical_formula_sum   'Sc4 Pb2 C8 O24'
_cell_volume   508.08753923
_cell_formula_units_Z   2
loop_
 _symmetry_equiv_pos_site_id
 _symmetry_equiv_pos_as_xyz
  1  'x, y, z'
loop_
 _atom_site_type_symbol
 _atom_site_label
 _atom_site_symmetry_multiplicity
 _atom_site_fract_x
 _atom_site_fract_y
 _atom_site_fract_z
 _atom_site_occupancy
  Sc  Sc0  1  0.499916  0.750040  0.000028  1
  Sc  Sc1  1  0.500080  0.250028  0.999980  1
  Sc  Sc2  1  0.999716  0.999894  0.500224  1
  Sc  Sc3  1  0.000283  0.500081  0.499766  1
  Pb  Pb4  1  0.499786  0.250060  0.500102  1
  Pb  Pb5  1  0.500214  0.749903  0.499985  1
  C  C6  1  0.025171  0.248665  0.728939  1
  C  C7  1  0.025365  0.748331  0.729086  1
  C  C8  1  0.975046  0.251342  0.271050  1
  C  C9  1  0.974364  0.751651  0.270876  1
  C  C10  1  0.521768  0.999125  0.235448  1
  C  C11  1  0.522082  0.499153  0.235025  1
  C  C12  1  0.478312  0.500940  0.764625  1
  C  C13  1  0.477828  0.000798  0.764878  1
  O  O14  1  0.346539  0.460240  0.615453  1
  O  O15  1  0.345843  0.959630  0.616067  1
  O  O16  1  0.653467  0.039865  0.384619  1
  O  O17  1  0.654149  0.540241  0.383871  1
  O  O18  1  0.579460  0.417252  0.878370  1
  O  O19  1  0.579514  0.917498  0.878987  1
  O  O20  1  0.420702  0.082745  0.121631  1
  O  O21  1  0.420384  0.582496  0.121047  1
  O  O22  1  0.012869  0.375642  0.304736  1
  O  O23  1  0.011020  0.876033  0.304327  1
  O  O24  1  0.987601  0.124339  0.695372  1
  O  O25  1  0.988419  0.623993  0.695507  1
  O  O26  1  0.494577  0.371552  0.213314  1
  O  O27  1  0.493972  0.871564  0.213309  1
  O  O28  1  0.505350  0.128404  0.786552  1
  O  O29  1  0.506137  0.628467  0.786836  1
  O  O30  1  0.900255  0.336211  0.620735  1
  O  O31  1  0.900048  0.835777  0.620919  1
  O  O32  1  0.099880  0.163707  0.379177  1
  O  O33  1  0.099825  0.664352  0.379215  1
  O  O34  1  0.174411  0.289114  0.861387  1
  O  O35  1  0.174343  0.789050  0.861524  1
  O  O36  1  0.825754  0.211017  0.138584  1
  O  O37  1  0.825546  0.710800  0.138450  1
