# generated using pymatgen
data_NaGd3CCl6
_symmetry_space_group_name_H-M   'P 1'
_cell_length_a   8.85669581
_cell_length_b   8.58695421
_cell_length_c   9.29638600
_cell_angle_alpha   67.92770531
_cell_angle_beta   84.05196991
_cell_angle_gamma   87.35340103
_symmetry_Int_Tables_number   1
_chemical_formula_structural   NaGd3CCl6
_chemical_formula_sum   'Na2 Gd6 C2 Cl12'
_cell_volume   651.64530912
_cell_formula_units_Z   2
loop_
 _symmetry_equiv_pos_site_id
 _symmetry_equiv_pos_as_xyz
  1  'x, y, z'
loop_
 _atom_site_type_symbol
 _atom_site_label
 _atom_site_symmetry_multiplicity
 _atom_site_fract_x
 _atom_site_fract_y
 _atom_site_fract_z
 _atom_site_occupancy
  Na  Na0  1  0.374517  0.037168  0.348666  1
  Na  Na1  1  0.625487  0.962974  0.652173  1
  Gd  Gd2  1  0.910808  0.735214  0.005809  1
  Gd  Gd3  1  0.089274  0.265292  0.993545  1
  Gd  Gd4  1  0.743035  0.101308  0.001702  1
  Gd  Gd5  1  0.256828  0.898630  0.998537  1
  Gd  Gd6  1  0.974592  0.851226  0.340496  1
  Gd  Gd7  1  0.025411  0.148319  0.659688  1
  C  C8  1  0.006451  0.033400  0.917073  1
  C  C9  1  0.993605  0.966952  0.082635  1
  Cl  Cl10  1  0.086691  0.167004  0.330129  1
  Cl  Cl11  1  0.913437  0.832847  0.670153  1
  Cl  Cl12  1  0.191654  0.590167  0.997865  1
  Cl  Cl13  1  0.808079  0.409684  0.002013  1
  Cl  Cl14  1  0.397221  0.176813  0.015148  1
  Cl  Cl15  1  0.602668  0.822719  0.984924  1
  Cl  Cl16  1  0.677986  0.996302  0.335652  1
  Cl  Cl17  1  0.322311  0.003804  0.665016  1
  Cl  Cl18  1  0.275059  0.758882  0.318714  1
  Cl  Cl19  1  0.725226  0.241263  0.681220  1
  Cl  Cl20  1  0.866866  0.572238  0.322644  1
  Cl  Cl21  1  0.132792  0.427794  0.676195  1
