# generated using pymatgen
data_Lu3ZrSc2MnTe2
_symmetry_space_group_name_H-M   'P 1'
_cell_length_a   7.83214200
_cell_length_b   7.93440841
_cell_length_c   3.91916000
_cell_angle_alpha   90.00000000
_cell_angle_beta   90.00000000
_cell_angle_gamma   119.57453583
_symmetry_Int_Tables_number   1
_chemical_formula_structural   Lu3ZrSc2MnTe2
_chemical_formula_sum   'Lu3 Zr1 Sc2 Mn1 Te2'
_cell_volume   211.81891696
_cell_formula_units_Z   1
loop_
 _symmetry_equiv_pos_site_id
 _symmetry_equiv_pos_as_xyz
  1  'x, y, z'
loop_
 _atom_site_type_symbol
 _atom_site_label
 _atom_site_symmetry_multiplicity
 _atom_site_fract_x
 _atom_site_fract_y
 _atom_site_fract_z
 _atom_site_occupancy
  Lu  Lu0  1  0.609812  0.000000  0.000000  1
  Lu  Lu1  1  0.001697  0.615622  0.000000  1
  Lu  Lu2  1  0.386075  0.384378  0.000000  1
  Zr  Zr3  1  0.231216  0.000000  0.500000  1
  Sc  Sc4  1  0.001916  0.234514  0.500000  1
  Sc  Sc5  1  0.767403  0.765486  0.500000  1
  Mn  Mn6  1  0.000310  0.000000  0.000000  1
  Te  Te7  1  0.333182  0.664796  0.500000  1
  Te  Te8  1  0.668387  0.335204  0.500000  1
