# generated using pymatgen
data_LiGd7HoPt6
_symmetry_space_group_name_H-M   'P 1'
_cell_length_a   7.63845316
_cell_length_b   7.63845474
_cell_length_c   7.63845400
_cell_angle_alpha   69.62709385
_cell_angle_beta   69.62709746
_cell_angle_gamma   69.62709558
_symmetry_Int_Tables_number   1
_chemical_formula_structural   LiGd7HoPt6
_chemical_formula_sum   'Li1 Gd7 Ho1 Pt6'
_cell_volume   378.37646074
_cell_formula_units_Z   1
loop_
 _symmetry_equiv_pos_site_id
 _symmetry_equiv_pos_as_xyz
  1  'x, y, z'
loop_
 _atom_site_type_symbol
 _atom_site_label
 _atom_site_symmetry_multiplicity
 _atom_site_fract_x
 _atom_site_fract_y
 _atom_site_fract_z
 _atom_site_occupancy
  Li  Li0  1  0.998452  0.998452  0.998452  1
  Gd  Gd1  1  0.183826  0.183826  0.183826  1
  Gd  Gd2  1  0.320353  0.611087  0.859424  1
  Gd  Gd3  1  0.859424  0.320353  0.611087  1
  Gd  Gd4  1  0.611087  0.859424  0.320353  1
  Gd  Gd5  1  0.680592  0.389964  0.139192  1
  Gd  Gd6  1  0.139192  0.680592  0.389964  1
  Gd  Gd7  1  0.389964  0.139192  0.680592  1
  Ho  Ho8  1  0.816685  0.816685  0.816685  1
  Pt  Pt9  1  0.180483  0.950244  0.576932  1
  Pt  Pt10  1  0.576932  0.180483  0.950244  1
  Pt  Pt11  1  0.950244  0.576932  0.180483  1
  Pt  Pt12  1  0.814763  0.049231  0.428771  1
  Pt  Pt13  1  0.428771  0.814763  0.049231  1
  Pt  Pt14  1  0.049231  0.428771  0.814763  1
