# generated using pymatgen
data_SrDy2(FeH6)2
_symmetry_space_group_name_H-M   'P 1'
_cell_length_a   4.80339200
_cell_length_b   4.80339244
_cell_length_c   8.17130300
_cell_angle_alpha   90.00000000
_cell_angle_beta   90.00000000
_cell_angle_gamma   119.99999700
_symmetry_Int_Tables_number   1
_chemical_formula_structural   SrDy2(FeH6)2
_chemical_formula_sum   'Sr1 Dy2 Fe2 H12'
_cell_volume   163.27438628
_cell_formula_units_Z   1
loop_
 _symmetry_equiv_pos_site_id
 _symmetry_equiv_pos_as_xyz
  1  'x, y, z'
loop_
 _atom_site_type_symbol
 _atom_site_label
 _atom_site_symmetry_multiplicity
 _atom_site_fract_x
 _atom_site_fract_y
 _atom_site_fract_z
 _atom_site_occupancy
  Sr  Sr0  1  0.000000  0.000000  0.000000  1
  Dy  Dy1  1  0.666667  0.333333  0.363347  1
  Dy  Dy2  1  0.333333  0.666667  0.636653  1
  Fe  Fe3  1  0.666667  0.333333  0.724183  1
  Fe  Fe4  1  0.333333  0.666667  0.275817  1
  H  H5  1  0.174259  0.825741  0.384106  1
  H  H6  1  0.651483  0.825741  0.384106  1
  H  H7  1  0.174259  0.348517  0.384106  1
  H  H8  1  0.825741  0.174259  0.615894  1
  H  H9  1  0.348517  0.174259  0.615894  1
  H  H10  1  0.825741  0.651483  0.615894  1
  H  H11  1  0.514656  0.029314  0.843663  1
  H  H12  1  0.514656  0.485344  0.843663  1
  H  H13  1  0.970686  0.485344  0.843663  1
  H  H14  1  0.485344  0.970686  0.156337  1
  H  H15  1  0.485344  0.514656  0.156337  1
  H  H16  1  0.029314  0.514656  0.156337  1
