# generated using pymatgen
data_U2Cr12GeP7
_symmetry_space_group_name_H-M   'P 1'
_cell_length_a   7.13303114
_cell_length_b   3.27665000
_cell_length_c   12.25728320
_cell_angle_alpha   90.00000000
_cell_angle_beta   89.79733102
_cell_angle_gamma   90.00000000
_symmetry_Int_Tables_number   1
_chemical_formula_structural   U2Cr12GeP7
_chemical_formula_sum   'U2 Cr12 Ge1 P7'
_cell_volume   286.48090336
_cell_formula_units_Z   1
loop_
 _symmetry_equiv_pos_site_id
 _symmetry_equiv_pos_as_xyz
  1  'x, y, z'
loop_
 _atom_site_type_symbol
 _atom_site_label
 _atom_site_symmetry_multiplicity
 _atom_site_fract_x
 _atom_site_fract_y
 _atom_site_fract_z
 _atom_site_occupancy
  U  U0  1  0.740923  0.250000  0.322872  1
  U  U1  1  0.251167  0.750001  0.681450  1
  Cr  Cr2  1  0.051329  0.250000  0.076950  1
  Cr  Cr3  1  0.445223  0.250000  0.087268  1
  Cr  Cr4  1  0.744538  0.750001  0.115654  1
  Cr  Cr5  1  0.267556  0.250000  0.290991  1
  Cr  Cr6  1  0.051424  0.750001  0.428915  1
  Cr  Cr7  1  0.449504  0.750001  0.421105  1
  Cr  Cr8  1  0.549394  0.250000  0.580906  1
  Cr  Cr9  1  0.947653  0.250000  0.579218  1
  Cr  Cr10  1  0.751229  0.750001  0.715910  1
  Cr  Cr11  1  0.249990  0.250000  0.878749  1
  Cr  Cr12  1  0.553408  0.750001  0.910342  1
  Cr  Cr13  1  0.944280  0.750001  0.911179  1
  Ge  Ge14  1  0.035258  0.750001  0.226174  1
  P  P15  1  0.251008  0.750001  0.009251  1
  P  P16  1  0.469603  0.750001  0.224272  1
  P  P17  1  0.251945  0.250000  0.492189  1
  P  P18  1  0.747388  0.750001  0.512732  1
  P  P19  1  0.531963  0.250000  0.774341  1
  P  P20  1  0.969095  0.250000  0.773331  1
  P  P21  1  0.746119  0.250000  0.986205  1
