# generated using pymatgen
data_NdEr2Al7Pd2
_symmetry_space_group_name_H-M   'P 1'
_cell_length_a   9.19115460
_cell_length_b   9.19115504
_cell_length_c   9.19115430
_cell_angle_alpha   35.11780355
_cell_angle_beta   35.11779826
_cell_angle_gamma   35.11780324
_symmetry_Int_Tables_number   1
_chemical_formula_structural   NdEr2Al7Pd2
_chemical_formula_sum   'Nd1 Er2 Al7 Pd2'
_cell_volume   229.46617329
_cell_formula_units_Z   1
loop_
 _symmetry_equiv_pos_site_id
 _symmetry_equiv_pos_as_xyz
  1  'x, y, z'
loop_
 _atom_site_type_symbol
 _atom_site_label
 _atom_site_symmetry_multiplicity
 _atom_site_fract_x
 _atom_site_fract_y
 _atom_site_fract_z
 _atom_site_occupancy
  Nd  Nd0  1  0.000000  0.000000  0.000000  1
  Er  Er1  1  0.143340  0.143340  0.143340  1
  Er  Er2  1  0.856660  0.856660  0.856660  1
  Al  Al3  1  0.583669  0.583669  0.073402  1
  Al  Al4  1  0.926599  0.416330  0.416332  1
  Al  Al5  1  0.416330  0.926599  0.416332  1
  Al  Al6  1  0.500000  0.500000  0.500000  1
  Al  Al7  1  0.583670  0.073401  0.583668  1
  Al  Al8  1  0.073401  0.583670  0.583668  1
  Al  Al9  1  0.416331  0.416331  0.926598  1
  Pd  Pd10  1  0.335453  0.335453  0.335453  1
  Pd  Pd11  1  0.664548  0.664548  0.664548  1
