# generated using pymatgen
data_Hf5Zr5CuGePb6
_symmetry_space_group_name_H-M   'P 1'
_cell_length_a   8.79266437
_cell_length_b   8.79266675
_cell_length_c   5.91149102
_cell_angle_alpha   89.98703128
_cell_angle_beta   89.98701683
_cell_angle_gamma   120.05775390
_symmetry_Int_Tables_number   1
_chemical_formula_structural   Hf5Zr5CuGePb6
_chemical_formula_sum   'Hf5 Zr5 Cu1 Ge1 Pb6'
_cell_volume   395.56302656
_cell_formula_units_Z   1
loop_
 _symmetry_equiv_pos_site_id
 _symmetry_equiv_pos_as_xyz
  1  'x, y, z'
loop_
 _atom_site_type_symbol
 _atom_site_label
 _atom_site_symmetry_multiplicity
 _atom_site_fract_x
 _atom_site_fract_y
 _atom_site_fract_z
 _atom_site_occupancy
  Hf  Hf0  1  0.666769  0.333403  0.499863  1
  Hf  Hf1  1  0.333404  0.666769  0.499864  1
  Hf  Hf2  1  0.333691  0.666918  0.000319  1
  Hf  Hf3  1  0.666918  0.333691  0.000320  1
  Hf  Hf4  1  0.740114  0.740114  0.249457  1
  Zr  Zr5  1  0.261156  0.000837  0.250657  1
  Zr  Zr6  1  0.000836  0.261156  0.250657  1
  Zr  Zr7  1  0.258399  0.258399  0.749925  1
  Zr  Zr8  1  0.740947  0.999136  0.750380  1
  Zr  Zr9  1  0.999135  0.740946  0.750381  1
  Cu  Cu10  1  0.997798  0.997798  0.494832  1
  Ge  Ge11  1  0.999657  0.999657  0.003086  1
  Pb  Pb12  1  0.390534  0.390533  0.251333  1
  Pb  Pb13  1  0.611375  0.999880  0.251374  1
  Pb  Pb14  1  0.999880  0.611375  0.251374  1
  Pb  Pb15  1  0.609487  0.609487  0.748526  1
  Pb  Pb16  1  0.389898  0.000003  0.748826  1
  Pb  Pb17  1  0.000003  0.389898  0.748826  1
