# generated using pymatgen
data_AcNd2Rh9
_symmetry_space_group_name_H-M   'P 1'
_cell_length_a   5.39057900
_cell_length_b   5.39057894
_cell_length_c   17.75319000
_cell_angle_alpha   90.00000000
_cell_angle_beta   90.00000000
_cell_angle_gamma   120.00000649
_symmetry_Int_Tables_number   1
_chemical_formula_structural   AcNd2Rh9
_chemical_formula_sum   'Ac2 Nd4 Rh18'
_cell_volume   446.76364947
_cell_formula_units_Z   2
loop_
 _symmetry_equiv_pos_site_id
 _symmetry_equiv_pos_as_xyz
  1  'x, y, z'
loop_
 _atom_site_type_symbol
 _atom_site_label
 _atom_site_symmetry_multiplicity
 _atom_site_fract_x
 _atom_site_fract_y
 _atom_site_fract_z
 _atom_site_occupancy
  Ac  Ac0  1  0.333333  0.666667  0.750000  1
  Ac  Ac1  1  0.666667  0.333333  0.250000  1
  Nd  Nd2  1  0.333333  0.666667  0.541818  1
  Nd  Nd3  1  0.666667  0.333333  0.041818  1
  Nd  Nd4  1  0.666667  0.333333  0.458182  1
  Nd  Nd5  1  0.333333  0.666667  0.958182  1
  Rh  Rh6  1  0.166563  0.333126  0.126248  1
  Rh  Rh7  1  0.833437  0.666874  0.626248  1
  Rh  Rh8  1  0.666874  0.833437  0.126248  1
  Rh  Rh9  1  0.166563  0.833437  0.126248  1
  Rh  Rh10  1  0.833437  0.166563  0.626248  1
  Rh  Rh11  1  0.333126  0.166563  0.626248  1
  Rh  Rh12  1  0.833437  0.666874  0.873752  1
  Rh  Rh13  1  0.833437  0.166563  0.873752  1
  Rh  Rh14  1  0.333126  0.166563  0.873752  1
  Rh  Rh15  1  0.666874  0.833437  0.373752  1
  Rh  Rh16  1  0.166563  0.833437  0.373752  1
  Rh  Rh17  1  0.166563  0.333126  0.373752  1
  Rh  Rh18  1  0.000000  0.000000  0.250000  1
  Rh  Rh19  1  0.000000  0.000000  0.750000  1
  Rh  Rh20  1  0.333333  0.666667  0.250000  1
  Rh  Rh21  1  0.666667  0.333333  0.750000  1
  Rh  Rh22  1  0.000000  0.000000  0.000000  1
  Rh  Rh23  1  0.000000  0.000000  0.500000  1
