# generated using pymatgen
data_AgBi3IrRh3O14
_symmetry_space_group_name_H-M   'P 1'
_cell_length_a   7.38477559
_cell_length_b   7.21935573
_cell_length_c   7.38477434
_cell_angle_alpha   59.17527223
_cell_angle_beta   60.00250022
_cell_angle_gamma   59.17527188
_symmetry_Int_Tables_number   1
_chemical_formula_structural   AgBi3IrRh3O14
_chemical_formula_sum   'Ag1 Bi3 Ir1 Rh3 O14'
_cell_volume   274.87684188
_cell_formula_units_Z   1
loop_
 _symmetry_equiv_pos_site_id
 _symmetry_equiv_pos_as_xyz
  1  'x, y, z'
loop_
 _atom_site_type_symbol
 _atom_site_label
 _atom_site_symmetry_multiplicity
 _atom_site_fract_x
 _atom_site_fract_y
 _atom_site_fract_z
 _atom_site_occupancy
  Ag  Ag0  1  0.125000  0.625000  0.125000  1
  Bi  Bi1  1  0.125000  0.125000  0.125000  1
  Bi  Bi2  1  0.625000  0.125000  0.125000  1
  Bi  Bi3  1  0.125000  0.125000  0.625000  1
  Ir  Ir4  1  0.625000  0.625000  0.625000  1
  Rh  Rh5  1  0.625000  0.625000  0.125000  1
  Rh  Rh6  1  0.125000  0.625000  0.625000  1
  Rh  Rh7  1  0.625000  0.125000  0.625000  1
  O  O8  1  0.245052  0.264438  0.245052  1
  O  O9  1  0.297708  0.707824  0.297708  1
  O  O10  1  0.957188  0.962114  0.541226  1
  O  O11  1  0.541911  0.959070  0.541911  1
  O  O12  1  0.693713  0.706678  0.303386  1
  O  O13  1  0.946614  0.543322  0.556287  1
  O  O14  1  0.708089  0.290930  0.708089  1
  O  O15  1  0.292812  0.287886  0.708774  1
  O  O16  1  0.708774  0.287886  0.292812  1
  O  O17  1  0.303386  0.706678  0.693713  1
  O  O18  1  0.952292  0.542176  0.952292  1
  O  O19  1  0.556287  0.543322  0.946614  1
  O  O20  1  0.004948  0.985562  0.004948  1
  O  O21  1  0.541226  0.962114  0.957188  1
