# generated using pymatgen
data_Ta7(Be4Fe3)2
_symmetry_space_group_name_H-M   'P 1'
_cell_length_a   9.70094500
_cell_length_b   9.70094318
_cell_length_c   3.05265300
_cell_angle_alpha   90.00000000
_cell_angle_beta   90.00000000
_cell_angle_gamma   120.00000279
_symmetry_Int_Tables_number   1
_chemical_formula_structural   Ta7(Be4Fe3)2
_chemical_formula_sum   'Ta7 Be8 Fe6'
_cell_volume   248.79180040
_cell_formula_units_Z   1
loop_
 _symmetry_equiv_pos_site_id
 _symmetry_equiv_pos_as_xyz
  1  'x, y, z'
loop_
 _atom_site_type_symbol
 _atom_site_label
 _atom_site_symmetry_multiplicity
 _atom_site_fract_x
 _atom_site_fract_y
 _atom_site_fract_z
 _atom_site_occupancy
  Ta  Ta0  1  0.000000  0.000000  0.000000  1
  Ta  Ta1  1  0.691329  0.607242  0.000000  1
  Ta  Ta2  1  0.392758  0.084085  0.000000  1
  Ta  Ta3  1  0.915915  0.308671  0.000000  1
  Ta  Ta4  1  0.308671  0.392758  0.000000  1
  Ta  Ta5  1  0.607242  0.915915  0.000000  1
  Ta  Ta6  1  0.084085  0.691329  0.000000  1
  Be  Be7  1  0.666667  0.333333  0.000000  1
  Be  Be8  1  0.333333  0.666667  0.000000  1
  Be  Be9  1  0.164894  0.923988  0.500000  1
  Be  Be10  1  0.076012  0.240906  0.500000  1
  Be  Be11  1  0.759094  0.835106  0.500000  1
  Be  Be12  1  0.835106  0.076012  0.500000  1
  Be  Be13  1  0.923988  0.759094  0.500000  1
  Be  Be14  1  0.240906  0.164894  0.500000  1
  Fe  Fe15  1  0.355860  0.841155  0.500000  1
  Fe  Fe16  1  0.158845  0.514705  0.500000  1
  Fe  Fe17  1  0.485295  0.644140  0.500000  1
  Fe  Fe18  1  0.644140  0.158845  0.500000  1
  Fe  Fe19  1  0.841155  0.485295  0.500000  1
  Fe  Fe20  1  0.514705  0.355860  0.500000  1
