# generated using pymatgen
data_Ho7Er9InAg3Rh4
_symmetry_space_group_name_H-M   'P 1'
_cell_length_a   9.48697369
_cell_length_b   9.47995029
_cell_length_c   9.48047881
_cell_angle_alpha   60.18267184
_cell_angle_beta   60.15930297
_cell_angle_gamma   60.18123771
_symmetry_Int_Tables_number   1
_chemical_formula_structural   Ho7Er9InAg3Rh4
_chemical_formula_sum   'Ho7 Er9 In1 Ag3 Rh4'
_cell_volume   605.28649841
_cell_formula_units_Z   1
loop_
 _symmetry_equiv_pos_site_id
 _symmetry_equiv_pos_as_xyz
  1  'x, y, z'
loop_
 _atom_site_type_symbol
 _atom_site_label
 _atom_site_symmetry_multiplicity
 _atom_site_fract_x
 _atom_site_fract_y
 _atom_site_fract_z
 _atom_site_occupancy
  Ho  Ho0  1  0.189425  0.189888  0.810506  1
  Ho  Ho1  1  0.435939  0.063252  0.063224  1
  Ho  Ho2  1  0.435278  0.060893  0.434840  1
  Ho  Ho3  1  0.063171  0.435821  0.063444  1
  Ho  Ho4  1  0.648408  0.053607  0.648113  1
  Ho  Ho5  1  0.188966  0.811980  0.812399  1
  Ho  Ho6  1  0.063136  0.063450  0.435639  1
  Er  Er7  1  0.810359  0.189591  0.189479  1
  Er  Er8  1  0.812278  0.812267  0.189029  1
  Er  Er9  1  0.648296  0.648134  0.053557  1
  Er  Er10  1  0.648782  0.648456  0.648556  1
  Er  Er11  1  0.060511  0.435569  0.435117  1
  Er  Er12  1  0.053239  0.648390  0.648122  1
  Er  Er13  1  0.812097  0.189129  0.812375  1
  Er  Er14  1  0.435325  0.435295  0.060686  1
  Er  Er15  1  0.189584  0.810186  0.189966  1
  In  In16  1  0.420877  0.421408  0.420763  1
  Ag  Ag17  1  0.417590  0.748577  0.417468  1
  Ag  Ag18  1  0.417545  0.417731  0.748914  1
  Ag  Ag19  1  0.748964  0.417707  0.417438  1
  Rh  Rh20  1  0.856188  0.429814  0.856475  1
  Rh  Rh21  1  0.857153  0.856082  0.428990  1
  Rh  Rh22  1  0.429626  0.855830  0.857142  1
  Rh  Rh23  1  0.857266  0.856940  0.857757  1
