# generated using pymatgen
data_TbTm7(AlRu)8
_symmetry_space_group_name_H-M   'P 1'
_cell_length_a   4.06958500
_cell_length_b   6.94231651
_cell_length_c   15.85403114
_cell_angle_alpha   90.05378583
_cell_angle_beta   90.00000000
_cell_angle_gamma   90.00000000
_symmetry_Int_Tables_number   1
_chemical_formula_structural   TbTm7(AlRu)8
_chemical_formula_sum   'Tb1 Tm7 Al8 Ru8'
_cell_volume   447.91339350
_cell_formula_units_Z   1
loop_
 _symmetry_equiv_pos_site_id
 _symmetry_equiv_pos_as_xyz
  1  'x, y, z'
loop_
 _atom_site_type_symbol
 _atom_site_label
 _atom_site_symmetry_multiplicity
 _atom_site_fract_x
 _atom_site_fract_y
 _atom_site_fract_z
 _atom_site_occupancy
  Tb  Tb0  1  0.250000  0.537084  0.719544  1
  Tm  Tm1  1  0.750000  0.962577  0.219136  1
  Tm  Tm2  1  0.250000  0.158259  0.562970  1
  Tm  Tm3  1  0.750000  0.843933  0.435491  1
  Tm  Tm4  1  0.750000  0.462428  0.280919  1
  Tm  Tm5  1  0.750000  0.342044  0.064209  1
  Tm  Tm6  1  0.250000  0.656037  0.937012  1
  Tm  Tm7  1  0.250000  0.037464  0.781634  1
  Al  Al8  1  0.750000  0.503008  0.564742  1
  Al  Al9  1  0.750000  0.364178  0.849740  1
  Al  Al10  1  0.750000  0.000278  0.934856  1
  Al  Al11  1  0.750000  0.868123  0.650643  1
  Al  Al12  1  0.250000  0.499268  0.433534  1
  Al  Al13  1  0.250000  0.997152  0.066709  1
  Al  Al14  1  0.250000  0.633137  0.151864  1
  Al  Al15  1  0.250000  0.134072  0.348204  1
  Ru  Ru16  1  0.750000  0.750065  0.813070  1
  Ru  Ru17  1  0.250000  0.236036  0.938167  1
  Ru  Ru18  1  0.750000  0.263389  0.437386  1
  Ru  Ru19  1  0.250000  0.753114  0.312419  1
  Ru  Ru20  1  0.750000  0.761536  0.062896  1
  Ru  Ru21  1  0.750000  0.244560  0.686549  1
  Ru  Ru22  1  0.250000  0.252413  0.187281  1
  Ru  Ru23  1  0.250000  0.739849  0.561026  1
