# generated using pymatgen
data_Y11Ho9(Ir2Ru)4
_symmetry_space_group_name_H-M   'P 1'
_cell_length_a   10.84596051
_cell_length_b   10.84200807
_cell_length_c   6.43436029
_cell_angle_alpha   89.99270113
_cell_angle_beta   90.03349974
_cell_angle_gamma   90.01079555
_symmetry_Int_Tables_number   1
_chemical_formula_structural   Y11Ho9(Ir2Ru)4
_chemical_formula_sum   'Y11 Ho9 Ir8 Ru4'
_cell_volume   756.62909073
_cell_formula_units_Z   1
loop_
 _symmetry_equiv_pos_site_id
 _symmetry_equiv_pos_as_xyz
  1  'x, y, z'
loop_
 _atom_site_type_symbol
 _atom_site_label
 _atom_site_symmetry_multiplicity
 _atom_site_fract_x
 _atom_site_fract_y
 _atom_site_fract_z
 _atom_site_occupancy
  Y  Y0  1  0.292595  0.086790  0.376988  1
  Y  Y1  1  0.292659  0.913121  0.877070  1
  Y  Y2  1  0.707348  0.086830  0.877111  1
  Y  Y3  1  0.707392  0.913084  0.377159  1
  Y  Y4  1  0.587058  0.792651  0.877069  1
  Y  Y5  1  0.586716  0.207074  0.377171  1
  Y  Y6  1  0.413378  0.793078  0.377439  1
  Y  Y7  1  0.413442  0.207069  0.877394  1
  Y  Y8  1  0.206491  0.413183  0.622879  1
  Y  Y9  1  0.206455  0.586517  0.122593  1
  Y  Y10  1  0.793357  0.413442  0.122901  1
  Ho  Ho11  1  0.794111  0.586438  0.621979  1
  Ho  Ho12  1  0.913739  0.706303  0.121940  1
  Ho  Ho13  1  0.913716  0.293887  0.621779  1
  Ho  Ho14  1  0.085876  0.706218  0.621904  1
  Ho  Ho15  1  0.086101  0.293779  0.121840  1
  Ho  Ho16  1  0.999918  0.999926  0.500256  1
  Ho  Ho17  1  0.000014  0.000017  0.000172  1
  Ho  Ho18  1  0.500178  0.500090  0.000061  1
  Ho  Ho19  1  0.500324  0.500018  0.499990  1
  Ir  Ir20  1  0.849729  0.152090  0.251206  1
  Ir  Ir21  1  0.849623  0.846992  0.750559  1
  Ir  Ir22  1  0.150388  0.152047  0.751372  1
  Ir  Ir23  1  0.150253  0.847968  0.251231  1
  Ir  Ir24  1  0.652615  0.349343  0.749169  1
  Ir  Ir25  1  0.652696  0.651003  0.251081  1
  Ir  Ir26  1  0.347868  0.348693  0.249554  1
  Ir  Ir27  1  0.347810  0.651453  0.749568  1
  Ru  Ru28  1  0.499945  0.000093  0.122745  1
  Ru  Ru29  1  0.499920  0.999844  0.622896  1
  Ru  Ru30  1  0.999269  0.500496  0.876454  1
  Ru  Ru31  1  0.999011  0.500460  0.378471  1
