# generated using pymatgen
data_Rb8Dy5ErBBr20
_symmetry_space_group_name_H-M   'P 1'
_cell_length_a   12.25851590
_cell_length_b   12.25851487
_cell_length_c   12.26667300
_cell_angle_alpha   59.97798004
_cell_angle_beta   59.97798283
_cell_angle_gamma   60.04403249
_symmetry_Int_Tables_number   1
_chemical_formula_structural   Rb8Dy5ErBBr20
_chemical_formula_sum   'Rb8 Dy5 Er1 B1 Br20'
_cell_volume   1303.42828985
_cell_formula_units_Z   1
loop_
 _symmetry_equiv_pos_site_id
 _symmetry_equiv_pos_as_xyz
  1  'x, y, z'
loop_
 _atom_site_type_symbol
 _atom_site_label
 _atom_site_symmetry_multiplicity
 _atom_site_fract_x
 _atom_site_fract_y
 _atom_site_fract_z
 _atom_site_occupancy
  Rb  Rb0  1  0.359632  0.359632  0.359363  1
  Rb  Rb1  1  0.640291  0.640291  0.640702  1
  Rb  Rb2  1  0.359632  0.359632  0.921373  1
  Rb  Rb3  1  0.359298  0.921284  0.359709  1
  Rb  Rb4  1  0.640291  0.640291  0.078716  1
  Rb  Rb5  1  0.640637  0.078627  0.640368  1
  Rb  Rb6  1  0.921284  0.359298  0.359709  1
  Rb  Rb7  1  0.078627  0.640637  0.640368  1
  Dy  Dy8  1  0.848469  0.151257  0.151531  1
  Dy  Dy9  1  0.151257  0.848469  0.848743  1
  Dy  Dy10  1  0.151257  0.848469  0.151531  1
  Dy  Dy11  1  0.848469  0.151257  0.848743  1
  Dy  Dy12  1  0.151384  0.151384  0.848616  1
  Er  Er13  1  0.849384  0.849384  0.150616  1
  B  B14  1  0.999887  0.999887  0.000113  1
  Br  Br15  1  0.330071  0.999899  0.000101  1
  Br  Br16  1  0.671300  0.998348  0.001652  1
  Br  Br17  1  0.999899  0.330071  0.669929  1
  Br  Br18  1  0.998348  0.671300  0.328700  1
  Br  Br19  1  0.999899  0.330071  0.000101  1
  Br  Br20  1  0.671300  0.998348  0.328700  1
  Br  Br21  1  0.998348  0.671300  0.001652  1
  Br  Br22  1  0.330071  0.999899  0.669929  1
  Br  Br23  1  0.999906  0.999906  0.330410  1
  Br  Br24  1  0.999906  0.999906  0.669777  1
  Br  Br25  1  0.669590  0.330223  0.000094  1
  Br  Br26  1  0.330223  0.669590  0.000094  1
  Br  Br27  1  0.680300  0.319146  0.319700  1
  Br  Br28  1  0.319146  0.680300  0.680854  1
  Br  Br29  1  0.319146  0.680300  0.319700  1
  Br  Br30  1  0.680300  0.319146  0.680854  1
  Br  Br31  1  0.319199  0.319199  0.680801  1
  Br  Br32  1  0.683261  0.683261  0.316739  1
  Br  Br33  1  0.249995  0.249995  0.250005  1
  Br  Br34  1  0.749995  0.749995  0.750005  1
