# generated using pymatgen
data_Ac2SmLu(ZnSn)4
_symmetry_space_group_name_H-M   'P 1'
_cell_length_a   4.58340900
_cell_length_b   4.58340920
_cell_length_c   17.17547400
_cell_angle_alpha   90.00000000
_cell_angle_beta   90.00000000
_cell_angle_gamma   120.00002018
_symmetry_Int_Tables_number   1
_chemical_formula_structural   Ac2SmLu(ZnSn)4
_chemical_formula_sum   'Ac2 Sm1 Lu1 Zn4 Sn4'
_cell_volume   312.47589489
_cell_formula_units_Z   1
loop_
 _symmetry_equiv_pos_site_id
 _symmetry_equiv_pos_as_xyz
  1  'x, y, z'
loop_
 _atom_site_type_symbol
 _atom_site_label
 _atom_site_symmetry_multiplicity
 _atom_site_fract_x
 _atom_site_fract_y
 _atom_site_fract_z
 _atom_site_occupancy
  Ac  Ac0  1  0.000000  0.000000  0.502934  1
  Ac  Ac1  1  0.000000  0.000000  0.997066  1
  Sm  Sm2  1  0.000000  0.000000  0.250000  1
  Lu  Lu3  1  0.000000  0.000000  0.750000  1
  Zn  Zn4  1  0.333333  0.666667  0.165547  1
  Zn  Zn5  1  0.666667  0.333333  0.671497  1
  Zn  Zn6  1  0.666667  0.333333  0.828503  1
  Zn  Zn7  1  0.333333  0.666667  0.334453  1
  Sn  Sn8  1  0.666667  0.333333  0.376721  1
  Sn  Sn9  1  0.666667  0.333333  0.123279  1
  Sn  Sn10  1  0.333333  0.666667  0.873057  1
  Sn  Sn11  1  0.333333  0.666667  0.626943  1
