# generated using pymatgen
data_GaFe(ICl6)2
_symmetry_space_group_name_H-M   'P 1'
_cell_length_a   11.94416378
_cell_length_b   6.39591383
_cell_length_c   7.45575882
_cell_angle_alpha   81.48840437
_cell_angle_beta   89.81504169
_cell_angle_gamma   89.80971164
_symmetry_Int_Tables_number   1
_chemical_formula_structural   GaFe(ICl6)2
_chemical_formula_sum   'Ga1 Fe1 I2 Cl12'
_cell_volume   563.29547132
_cell_formula_units_Z   1
loop_
 _symmetry_equiv_pos_site_id
 _symmetry_equiv_pos_as_xyz
  1  'x, y, z'
loop_
 _atom_site_type_symbol
 _atom_site_label
 _atom_site_symmetry_multiplicity
 _atom_site_fract_x
 _atom_site_fract_y
 _atom_site_fract_z
 _atom_site_occupancy
  Ga  Ga0  1  0.091191  0.410875  0.509918  1
  Fe  Fe1  1  0.593596  0.585445  0.491325  1
  I  I2  1  0.742491  0.005611  0.796348  1
  I  I3  1  0.242068  0.993364  0.202750  1
  Cl  Cl4  1  0.764210  0.717347  0.550180  1
  Cl  Cl5  1  0.264110  0.287649  0.450483  1
  Cl  Cl6  1  0.210870  0.735861  0.011682  1
  Cl  Cl7  1  0.710288  0.264097  0.988290  1
  Cl  Cl8  1  0.361827  0.206402  0.999417  1
  Cl  Cl9  1  0.862258  0.792465  0.000814  1
  Cl  Cl10  1  0.053159  0.316955  0.793536  1
  Cl  Cl11  1  0.550761  0.684724  0.209863  1
  Cl  Cl12  1  0.105291  0.769577  0.475323  1
  Cl  Cl13  1  0.605969  0.227548  0.526277  1
  Cl  Cl14  1  0.471015  0.680526  0.676653  1
  Cl  Cl15  1  0.972901  0.321554  0.317141  1
