# generated using pymatgen
data_Ga3Si4Ir3
_symmetry_space_group_name_H-M   'P 1'
_cell_length_a   7.43010273
_cell_length_b   7.43010189
_cell_length_c   7.43010300
_cell_angle_alpha   109.47122365
_cell_angle_beta   109.47122138
_cell_angle_gamma   109.47121446
_symmetry_Int_Tables_number   1
_chemical_formula_structural   Ga3Si4Ir3
_chemical_formula_sum   'Ga6 Si8 Ir6'
_cell_volume   315.76394861
_cell_formula_units_Z   2
loop_
 _symmetry_equiv_pos_site_id
 _symmetry_equiv_pos_as_xyz
  1  'x, y, z'
loop_
 _atom_site_type_symbol
 _atom_site_label
 _atom_site_symmetry_multiplicity
 _atom_site_fract_x
 _atom_site_fract_y
 _atom_site_fract_z
 _atom_site_occupancy
  Ga  Ga0  1  0.500000  0.750000  0.250000  1
  Ga  Ga1  1  0.500000  0.250000  0.750000  1
  Ga  Ga2  1  0.250000  0.500000  0.750000  1
  Ga  Ga3  1  0.750000  0.500000  0.250000  1
  Ga  Ga4  1  0.750000  0.250000  0.500000  1
  Ga  Ga5  1  0.250000  0.750000  0.500000  1
  Si  Si6  1  0.329402  0.329402  0.329402  1
  Si  Si7  1  0.670598  0.670598  0.670598  1
  Si  Si8  1  0.000000  0.000000  0.670598  1
  Si  Si9  1  0.000000  0.670598  0.000000  1
  Si  Si10  1  0.000000  0.000000  0.329402  1
  Si  Si11  1  0.000000  0.329402  0.000000  1
  Si  Si12  1  0.670598  0.000000  0.000000  1
  Si  Si13  1  0.329402  0.000000  0.000000  1
  Ir  Ir14  1  0.000000  0.329223  0.329223  1
  Ir  Ir15  1  0.000000  0.670777  0.670777  1
  Ir  Ir16  1  0.329223  0.000000  0.329223  1
  Ir  Ir17  1  0.670777  0.000000  0.670777  1
  Ir  Ir18  1  0.329223  0.329223  0.000000  1
  Ir  Ir19  1  0.670777  0.670777  0.000000  1
