# generated using pymatgen
data_Ce3Al3Ir2Pd
_symmetry_space_group_name_H-M   'P 1'
_cell_length_a   7.10042300
_cell_length_b   7.10042251
_cell_length_c   4.16049300
_cell_angle_alpha   90.00000000
_cell_angle_beta   90.00000000
_cell_angle_gamma   119.99998829
_symmetry_Int_Tables_number   1
_chemical_formula_structural   Ce3Al3Ir2Pd
_chemical_formula_sum   'Ce3 Al3 Ir2 Pd1'
_cell_volume   181.65355146
_cell_formula_units_Z   1
loop_
 _symmetry_equiv_pos_site_id
 _symmetry_equiv_pos_as_xyz
  1  'x, y, z'
loop_
 _atom_site_type_symbol
 _atom_site_label
 _atom_site_symmetry_multiplicity
 _atom_site_fract_x
 _atom_site_fract_y
 _atom_site_fract_z
 _atom_site_occupancy
  Ce  Ce0  1  0.007092  0.584419  0.500000  1
  Ce  Ce1  1  0.415581  0.422672  0.500000  1
  Ce  Ce2  1  0.577328  0.992908  0.500000  1
  Al  Al3  1  0.003514  0.232502  0.000000  1
  Al  Al4  1  0.767498  0.771012  0.000000  1
  Al  Al5  1  0.228988  0.996486  0.000000  1
  Ir  Ir6  1  0.000000  0.000000  0.500000  1
  Ir  Ir7  1  0.333333  0.666667  0.000000  1
  Pd  Pd8  1  0.666667  0.333333  0.000000  1
