# generated using pymatgen
data_Dy2Al3Cu7
_symmetry_space_group_name_H-M   'P 1'
_cell_length_a   4.17274600
_cell_length_b   5.07518455
_cell_length_c   8.82737978
_cell_angle_alpha   90.65964401
_cell_angle_beta   90.00000000
_cell_angle_gamma   90.00000000
_symmetry_Int_Tables_number   1
_chemical_formula_structural   Dy2Al3Cu7
_chemical_formula_sum   'Dy2 Al3 Cu7'
_cell_volume   186.92905789
_cell_formula_units_Z   1
loop_
 _symmetry_equiv_pos_site_id
 _symmetry_equiv_pos_as_xyz
  1  'x, y, z'
loop_
 _atom_site_type_symbol
 _atom_site_label
 _atom_site_symmetry_multiplicity
 _atom_site_fract_x
 _atom_site_fract_y
 _atom_site_fract_z
 _atom_site_occupancy
  Dy  Dy0  1  0.000000  0.001966  0.999462  1
  Dy  Dy1  1  0.000000  0.498001  0.500527  1
  Al  Al2  1  0.500000  0.513791  0.994847  1
  Al  Al3  1  0.500000  0.986189  0.505156  1
  Al  Al4  1  0.500000  0.249949  0.249990  1
  Cu  Cu5  1  0.000000  0.997547  0.334392  1
  Cu  Cu6  1  0.000000  0.499631  0.831832  1
  Cu  Cu7  1  0.000000  0.502388  0.165608  1
  Cu  Cu8  1  0.000000  0.000367  0.668161  1
  Cu  Cu9  1  0.500000  0.750022  0.750004  1
  Cu  Cu10  1  0.500000  0.749930  0.250028  1
  Cu  Cu11  1  0.500000  0.250019  0.749990  1
