# generated using pymatgen
data_La4Dy5HoSn8
_symmetry_space_group_name_H-M   'P 1'
_cell_length_a   8.15424100
_cell_length_b   8.33013210
_cell_length_c   15.70953600
_cell_angle_alpha   89.99107906
_cell_angle_beta   90.00000000
_cell_angle_gamma   90.00000000
_symmetry_Int_Tables_number   1
_chemical_formula_structural   La4Dy5HoSn8
_chemical_formula_sum   'La8 Dy10 Ho2 Sn16'
_cell_volume   1067.08443249
_cell_formula_units_Z   2
loop_
 _symmetry_equiv_pos_site_id
 _symmetry_equiv_pos_as_xyz
  1  'x, y, z'
loop_
 _atom_site_type_symbol
 _atom_site_label
 _atom_site_symmetry_multiplicity
 _atom_site_fract_x
 _atom_site_fract_y
 _atom_site_fract_z
 _atom_site_occupancy
  La  La0  1  0.513626  0.321734  0.903422  1
  La  La1  1  0.013626  0.178266  0.596578  1
  La  La2  1  0.486331  0.678239  0.403353  1
  La  La3  1  0.986331  0.821761  0.096647  1
  La  La4  1  0.486314  0.678248  0.096610  1
  La  La5  1  0.986314  0.821752  0.403390  1
  La  La6  1  0.513694  0.321770  0.596584  1
  La  La7  1  0.013694  0.178230  0.903416  1
  Dy  Dy8  1  0.640400  0.163975  0.376901  1
  Dy  Dy9  1  0.140400  0.336025  0.123099  1
  Dy  Dy10  1  0.640396  0.164004  0.123113  1
  Dy  Dy11  1  0.140396  0.335996  0.376887  1
  Dy  Dy12  1  0.359594  0.835996  0.623130  1
  Dy  Dy13  1  0.859594  0.664004  0.876870  1
  Dy  Dy14  1  0.193588  0.502884  0.750012  1
  Dy  Dy15  1  0.693588  0.997116  0.749988  1
  Dy  Dy16  1  0.806411  0.497266  0.249998  1
  Dy  Dy17  1  0.306411  0.002734  0.250002  1
  Ho  Ho18  1  0.359613  0.836044  0.876884  1
  Ho  Ho19  1  0.859613  0.663956  0.623116  1
  Sn  Sn20  1  0.305821  0.041131  0.042141  1
  Sn  Sn21  1  0.805821  0.458869  0.457859  1
  Sn  Sn22  1  0.694327  0.958357  0.542408  1
  Sn  Sn23  1  0.194327  0.541643  0.957592  1
  Sn  Sn24  1  0.693965  0.958541  0.957638  1
  Sn  Sn25  1  0.193965  0.541459  0.542362  1
  Sn  Sn26  1  0.305878  0.041318  0.457699  1
  Sn  Sn27  1  0.805878  0.458682  0.042301  1
  Sn  Sn28  1  0.558884  0.624954  0.750005  1
  Sn  Sn29  1  0.058884  0.875046  0.749995  1
  Sn  Sn30  1  0.441069  0.375181  0.249978  1
  Sn  Sn31  1  0.941069  0.124819  0.250022  1
  Sn  Sn32  1  0.322376  0.140572  0.750082  1
  Sn  Sn33  1  0.822376  0.359428  0.749918  1
  Sn  Sn34  1  0.677711  0.859259  0.249988  1
  Sn  Sn35  1  0.177711  0.640741  0.250012  1
