# generated using pymatgen
data_La5Y15(CoSb2)4
_symmetry_space_group_name_H-M   'P 1'
_cell_length_a   8.10214992
_cell_length_b   8.92830522
_cell_length_c   12.20752724
_cell_angle_alpha   90.12117578
_cell_angle_beta   90.10580874
_cell_angle_gamma   90.19953835
_symmetry_Int_Tables_number   1
_chemical_formula_structural   La5Y15(CoSb2)4
_chemical_formula_sum   'La5 Y15 Co4 Sb8'
_cell_volume   883.06496376
_cell_formula_units_Z   1
loop_
 _symmetry_equiv_pos_site_id
 _symmetry_equiv_pos_as_xyz
  1  'x, y, z'
loop_
 _atom_site_type_symbol
 _atom_site_label
 _atom_site_symmetry_multiplicity
 _atom_site_fract_x
 _atom_site_fract_y
 _atom_site_fract_z
 _atom_site_occupancy
  La  La0  1  0.620766  0.751782  0.306911  1
  La  La1  1  0.119417  0.251945  0.189272  1
  La  La2  1  0.383363  0.248048  0.690684  1
  La  La3  1  0.881574  0.750735  0.811346  1
  La  La4  1  0.316974  0.466631  0.435625  1
  Y  Y5  1  0.153384  0.750265  0.200221  1
  Y  Y6  1  0.654064  0.248258  0.297573  1
  Y  Y7  1  0.845916  0.249647  0.798347  1
  Y  Y8  1  0.346357  0.750463  0.702741  1
  Y  Y9  1  0.451255  0.750653  0.996911  1
  Y  Y10  1  0.947523  0.249692  0.502631  1
  Y  Y11  1  0.549559  0.249624  0.001303  1
  Y  Y12  1  0.045406  0.750455  0.498472  1
  Y  Y13  1  0.820805  0.963730  0.067717  1
  Y  Y14  1  0.319475  0.035230  0.432904  1
  Y  Y15  1  0.179532  0.462280  0.932576  1
  Y  Y16  1  0.682806  0.538595  0.569493  1
  Y  Y17  1  0.179542  0.038478  0.932362  1
  Y  Y18  1  0.679056  0.959870  0.568186  1
  Y  Y19  1  0.820356  0.536365  0.067182  1
  Co  Co20  1  0.434260  0.747568  0.488135  1
  Co  Co21  1  0.935126  0.250121  0.010499  1
  Co  Co22  1  0.571697  0.245764  0.512844  1
  Co  Co23  1  0.064068  0.750596  0.988876  1
  Sb  Sb24  1  0.930441  0.991539  0.330471  1
  Sb  Sb25  1  0.428127  0.009338  0.168339  1
  Sb  Sb26  1  0.070628  0.491737  0.671305  1
  Sb  Sb27  1  0.571721  0.509213  0.831004  1
  Sb  Sb28  1  0.071563  0.009053  0.669095  1
  Sb  Sb29  1  0.571951  0.990955  0.831624  1
  Sb  Sb30  1  0.922601  0.509439  0.329639  1
  Sb  Sb31  1  0.430688  0.491932  0.165714  1
