# generated using pymatgen
data_Tb3Dy3Ti2(Co4P3)4
_symmetry_space_group_name_H-M   'P 1'
_cell_length_a   3.69706200
_cell_length_b   10.60464500
_cell_length_c   12.29394200
_cell_angle_alpha   89.99771351
_cell_angle_beta   90.00000000
_cell_angle_gamma   90.00000000
_symmetry_Int_Tables_number   1
_chemical_formula_structural   Tb3Dy3Ti2(Co4P3)4
_chemical_formula_sum   'Tb3 Dy3 Ti2 Co16 P12'
_cell_volume   481.99665933
_cell_formula_units_Z   1
loop_
 _symmetry_equiv_pos_site_id
 _symmetry_equiv_pos_as_xyz
  1  'x, y, z'
loop_
 _atom_site_type_symbol
 _atom_site_label
 _atom_site_symmetry_multiplicity
 _atom_site_fract_x
 _atom_site_fract_y
 _atom_site_fract_z
 _atom_site_occupancy
  Tb  Tb0  1  0.000000  0.500048  0.525165  1
  Tb  Tb1  1  0.500000  0.999965  0.474837  1
  Tb  Tb2  1  0.000000  0.319963  0.795621  1
  Dy  Dy3  1  0.500000  0.820052  0.204302  1
  Dy  Dy4  1  0.500000  0.179989  0.204262  1
  Dy  Dy5  1  0.000000  0.680229  0.795644  1
  Ti  Ti6  1  0.500000  0.500012  0.153423  1
  Ti  Ti7  1  0.000000  0.999816  0.846553  1
  Co  Co8  1  0.500000  0.500410  0.702699  1
  Co  Co9  1  0.000000  0.999994  0.297178  1
  Co  Co10  1  0.000000  0.500114  0.987363  1
  Co  Co11  1  0.500000  0.999826  0.012917  1
  Co  Co12  1  0.500000  0.332253  0.994243  1
  Co  Co13  1  0.500000  0.667921  0.994091  1
  Co  Co14  1  0.000000  0.167598  0.006209  1
  Co  Co15  1  0.000000  0.832289  0.006057  1
  Co  Co16  1  0.500000  0.295693  0.431588  1
  Co  Co17  1  0.500000  0.704322  0.431718  1
  Co  Co18  1  0.000000  0.204139  0.568058  1
  Co  Co19  1  0.000000  0.795793  0.568301  1
  Co  Co20  1  0.500000  0.878545  0.706349  1
  Co  Co21  1  0.500000  0.121046  0.706095  1
  Co  Co22  1  0.000000  0.621429  0.293657  1
  Co  Co23  1  0.000000  0.378539  0.293639  1
  P  P24  1  0.500000  0.500369  0.883622  1
  P  P25  1  0.000000  0.999953  0.116610  1
  P  P26  1  0.500000  0.500008  0.352427  1
  P  P27  1  0.000000  0.000013  0.647494  1
  P  P28  1  0.500000  0.309919  0.615458  1
  P  P29  1  0.500000  0.690095  0.615828  1
  P  P30  1  0.000000  0.189904  0.384060  1
  P  P31  1  0.000000  0.810045  0.384162  1
  P  P32  1  0.500000  0.842770  0.892334  1
  P  P33  1  0.500000  0.156898  0.892582  1
  P  P34  1  0.000000  0.657311  0.107769  1
  P  P35  1  0.000000  0.342731  0.107687  1
