# generated using pymatgen
data_Dy17Tm2MgIr12
_symmetry_space_group_name_H-M   'P 1'
_cell_length_a   10.87521500
_cell_length_b   10.87521500
_cell_length_c   6.29841000
_cell_angle_alpha   90.00000000
_cell_angle_beta   90.00000000
_cell_angle_gamma   90.00000000
_symmetry_Int_Tables_number   1
_chemical_formula_structural   Dy17Tm2MgIr12
_chemical_formula_sum   'Dy17 Tm2 Mg1 Ir12'
_cell_volume   744.91484839
_cell_formula_units_Z   1
loop_
 _symmetry_equiv_pos_site_id
 _symmetry_equiv_pos_as_xyz
  1  'x, y, z'
loop_
 _atom_site_type_symbol
 _atom_site_label
 _atom_site_symmetry_multiplicity
 _atom_site_fract_x
 _atom_site_fract_y
 _atom_site_fract_z
 _atom_site_occupancy
  Dy  Dy0  1  0.283875  0.084633  0.378596  1
  Dy  Dy1  1  0.290555  0.912050  0.878952  1
  Dy  Dy2  1  0.709445  0.087950  0.878952  1
  Dy  Dy3  1  0.716125  0.915367  0.378596  1
  Dy  Dy4  1  0.588338  0.791021  0.878647  1
  Dy  Dy5  1  0.587188  0.208843  0.376905  1
  Dy  Dy6  1  0.412812  0.791157  0.376905  1
  Dy  Dy7  1  0.411662  0.208979  0.878647  1
  Dy  Dy8  1  0.208843  0.412812  0.623095  1
  Dy  Dy9  1  0.208979  0.588338  0.121353  1
  Dy  Dy10  1  0.791021  0.411662  0.121353  1
  Dy  Dy11  1  0.791157  0.587188  0.623095  1
  Dy  Dy12  1  0.912050  0.709445  0.121048  1
  Dy  Dy13  1  0.915367  0.283875  0.621404  1
  Dy  Dy14  1  0.084633  0.716125  0.621404  1
  Dy  Dy15  1  0.087950  0.290555  0.121048  1
  Dy  Dy16  1  0.000000  0.000000  0.000000  1
  Tm  Tm17  1  0.500000  0.500000  0.000000  1
  Tm  Tm18  1  0.500000  0.500000  0.500000  1
  Mg  Mg19  1  0.000000  0.000000  0.500000  1
  Ir  Ir20  1  0.846454  0.154480  0.247566  1
  Ir  Ir21  1  0.845520  0.846454  0.752434  1
  Ir  Ir22  1  0.154480  0.153546  0.752434  1
  Ir  Ir23  1  0.153546  0.845520  0.247566  1
  Ir  Ir24  1  0.653024  0.347414  0.748413  1
  Ir  Ir25  1  0.652586  0.653024  0.251587  1
  Ir  Ir26  1  0.347414  0.346976  0.251587  1
  Ir  Ir27  1  0.346976  0.652586  0.748413  1
  Ir  Ir28  1  0.500000  0.000000  0.123909  1
  Ir  Ir29  1  0.500000  0.000000  0.619900  1
  Ir  Ir30  1  0.000000  0.500000  0.876091  1
  Ir  Ir31  1  0.000000  0.500000  0.380100  1
