# generated using pymatgen
data_Yb3Si(PPd4)5
_symmetry_space_group_name_H-M   'P 1'
_cell_length_a   8.68238173
_cell_length_b   8.67236478
_cell_length_c   8.67236500
_cell_angle_alpha   60.07642147
_cell_angle_beta   59.96178509
_cell_angle_gamma   59.96178177
_symmetry_Int_Tables_number   1
_chemical_formula_structural   Yb3Si(PPd4)5
_chemical_formula_sum   'Yb3 Si1 P5 Pd20'
_cell_volume   461.74028332
_cell_formula_units_Z   1
loop_
 _symmetry_equiv_pos_site_id
 _symmetry_equiv_pos_as_xyz
  1  'x, y, z'
loop_
 _atom_site_type_symbol
 _atom_site_label
 _atom_site_symmetry_multiplicity
 _atom_site_fract_x
 _atom_site_fract_y
 _atom_site_fract_z
 _atom_site_occupancy
  Yb  Yb0  1  0.999320  0.000680  0.000680  1
  Yb  Yb1  1  0.750822  0.749178  0.749178  1
  Yb  Yb2  1  0.250822  0.249178  0.249178  1
  Si  Si3  1  0.733830  0.266170  0.266170  1
  P  P4  1  0.737194  0.735045  0.262806  1
  P  P5  1  0.737194  0.262806  0.735045  1
  P  P6  1  0.264955  0.735045  0.262806  1
  P  P7  1  0.263958  0.736042  0.736042  1
  P  P8  1  0.264955  0.262806  0.735045  1
  Pd  Pd9  1  0.343272  0.001247  0.001247  1
  Pd  Pd10  1  0.998753  0.656728  0.345766  1
  Pd  Pd11  1  0.345388  0.999473  0.654612  1
  Pd  Pd12  1  0.000527  0.654612  0.999473  1
  Pd  Pd13  1  0.654425  0.345575  0.999168  1
  Pd  Pd14  1  0.614785  0.617214  0.153214  1
  Pd  Pd15  1  0.385113  0.845028  0.384746  1
  Pd  Pd16  1  0.154972  0.614887  0.614887  1
  Pd  Pd17  1  0.654425  0.999168  0.345575  1
  Pd  Pd18  1  0.998753  0.345766  0.656728  1
  Pd  Pd19  1  0.654234  0.001247  0.001247  1
  Pd  Pd20  1  0.000832  0.999168  0.345575  1
  Pd  Pd21  1  0.614785  0.153214  0.617214  1
  Pd  Pd22  1  0.345388  0.654612  0.999473  1
  Pd  Pd23  1  0.382786  0.385215  0.385215  1
  Pd  Pd24  1  0.615254  0.614887  0.614887  1
  Pd  Pd25  1  0.385113  0.384746  0.845028  1
  Pd  Pd26  1  0.000527  0.999473  0.654612  1
  Pd  Pd27  1  0.846786  0.385215  0.385215  1
  Pd  Pd28  1  0.000832  0.345575  0.999168  1
