# generated using pymatgen
data_Tl3PSe16
_symmetry_space_group_name_H-M   'P 1'
_cell_length_a   11.79627454
_cell_length_b   11.79627500
_cell_length_c   11.79627400
_cell_angle_alpha   59.99999721
_cell_angle_beta   59.99999591
_cell_angle_gamma   59.99999857
_symmetry_Int_Tables_number   1
_chemical_formula_structural   Tl3PSe16
_chemical_formula_sum   'Tl6 P2 Se32'
_cell_volume   1160.69893681
_cell_formula_units_Z   2
loop_
 _symmetry_equiv_pos_site_id
 _symmetry_equiv_pos_as_xyz
  1  'x, y, z'
loop_
 _atom_site_type_symbol
 _atom_site_label
 _atom_site_symmetry_multiplicity
 _atom_site_fract_x
 _atom_site_fract_y
 _atom_site_fract_z
 _atom_site_occupancy
  Tl  Tl0  1  0.500000  0.500000  0.500000  1
  Tl  Tl1  1  0.750000  0.750000  0.750000  1
  Tl  Tl2  1  0.125000  0.125000  0.125000  1
  Tl  Tl3  1  0.125000  0.125000  0.625000  1
  Tl  Tl4  1  0.125000  0.625000  0.125000  1
  Tl  Tl5  1  0.625000  0.125000  0.125000  1
  P  P6  1  0.250000  0.250000  0.250000  1
  P  P7  1  0.000000  0.000000  0.000000  1
  Se  Se8  1  0.801816  0.177635  0.588617  1
  Se  Se9  1  0.431932  0.801816  0.588617  1
  Se  Se10  1  0.588617  0.801816  0.177635  1
  Se  Se11  1  0.588617  0.177635  0.431932  1
  Se  Se12  1  0.588617  0.431932  0.801816  1
  Se  Se13  1  0.431932  0.588617  0.177635  1
  Se  Se14  1  0.327305  0.327305  0.018084  1
  Se  Se15  1  0.018084  0.327305  0.327305  1
  Se  Se16  1  0.327305  0.018085  0.327305  1
  Se  Se17  1  0.327305  0.327305  0.327305  1
  Se  Se18  1  0.922695  0.922695  0.231915  1
  Se  Se19  1  0.231915  0.922695  0.922695  1
  Se  Se20  1  0.922695  0.231915  0.922695  1
  Se  Se21  1  0.922695  0.922695  0.922695  1
  Se  Se22  1  0.072365  0.448184  0.818068  1
  Se  Se23  1  0.818068  0.072365  0.448184  1
  Se  Se24  1  0.448184  0.818068  0.072365  1
  Se  Se25  1  0.072365  0.661383  0.448184  1
  Se  Se26  1  0.072365  0.818068  0.661383  1
  Se  Se27  1  0.448184  0.661383  0.818068  1
  Se  Se28  1  0.661383  0.072365  0.818068  1
  Se  Se29  1  0.661383  0.448184  0.072365  1
  Se  Se30  1  0.818068  0.448184  0.661383  1
  Se  Se31  1  0.448184  0.072365  0.661383  1
  Se  Se32  1  0.818068  0.661383  0.072365  1
  Se  Se33  1  0.661383  0.818068  0.448184  1
  Se  Se34  1  0.177635  0.801816  0.431932  1
  Se  Se35  1  0.431932  0.177635  0.801816  1
  Se  Se36  1  0.801816  0.431932  0.177635  1
  Se  Se37  1  0.177635  0.588617  0.801816  1
  Se  Se38  1  0.177635  0.431932  0.588617  1
  Se  Se39  1  0.801816  0.588617  0.431932  1
