# generated using pymatgen
data_PrEuP7Ru12
_symmetry_space_group_name_H-M   'P 1'
_cell_length_a   9.51408401
_cell_length_b   9.51408366
_cell_length_c   3.99805700
_cell_angle_alpha   90.00000000
_cell_angle_beta   90.00000000
_cell_angle_gamma   120.00000163
_symmetry_Int_Tables_number   1
_chemical_formula_structural   PrEuP7Ru12
_chemical_formula_sum   'Pr1 Eu1 P7 Ru12'
_cell_volume   313.41050873
_cell_formula_units_Z   1
loop_
 _symmetry_equiv_pos_site_id
 _symmetry_equiv_pos_as_xyz
  1  'x, y, z'
loop_
 _atom_site_type_symbol
 _atom_site_label
 _atom_site_symmetry_multiplicity
 _atom_site_fract_x
 _atom_site_fract_y
 _atom_site_fract_z
 _atom_site_occupancy
  Pr  Pr0  1  0.666667  0.333333  0.500000  1
  Eu  Eu1  1  0.333333  0.666667  0.000000  1
  P  P2  1  0.112211  0.395546  0.500000  1
  P  P3  1  0.604454  0.716666  0.500000  1
  P  P4  1  0.283334  0.887789  0.500000  1
  P  P5  1  0.000000  0.000000  0.000000  1
  P  P6  1  0.422101  0.313464  0.000000  1
  P  P7  1  0.686536  0.108637  0.000000  1
  P  P8  1  0.891363  0.577899  0.000000  1
  Ru  Ru9  1  0.420440  0.064295  0.000000  1
  Ru  Ru10  1  0.935705  0.356144  0.000000  1
  Ru  Ru11  1  0.643856  0.579560  0.000000  1
  Ru  Ru12  1  0.391847  0.439853  0.500000  1
  Ru  Ru13  1  0.560147  0.951994  0.500000  1
  Ru  Ru14  1  0.048006  0.608153  0.500000  1
  Ru  Ru15  1  0.161519  0.269556  0.000000  1
  Ru  Ru16  1  0.730444  0.891964  0.000000  1
  Ru  Ru17  1  0.108036  0.838481  0.000000  1
  Ru  Ru18  1  0.205615  0.085218  0.500000  1
  Ru  Ru19  1  0.914782  0.120398  0.500000  1
  Ru  Ru20  1  0.879602  0.794385  0.500000  1
