# generated using pymatgen
data_GdTm3RuWO12
_symmetry_space_group_name_H-M   'P 1'
_cell_length_a   5.33872100
_cell_length_b   7.68028561
_cell_length_c   11.37727143
_cell_angle_alpha   75.29684684
_cell_angle_beta   90.00000000
_cell_angle_gamma   90.00000000
_symmetry_Int_Tables_number   1
_chemical_formula_structural   GdTm3RuWO12
_chemical_formula_sum   'Gd2 Tm6 Ru2 W2 O24'
_cell_volume   451.22499998
_cell_formula_units_Z   2
loop_
 _symmetry_equiv_pos_site_id
 _symmetry_equiv_pos_as_xyz
  1  'x, y, z'
loop_
 _atom_site_type_symbol
 _atom_site_label
 _atom_site_symmetry_multiplicity
 _atom_site_fract_x
 _atom_site_fract_y
 _atom_site_fract_z
 _atom_site_occupancy
  Gd  Gd0  1  0.683348  0.501520  0.749750  1
  Gd  Gd1  1  0.316652  0.501520  0.249750  1
  Tm  Tm2  1  0.740140  0.999062  0.750164  1
  Tm  Tm3  1  0.259860  0.999062  0.250164  1
  Tm  Tm4  1  0.187385  0.797387  0.577497  1
  Tm  Tm5  1  0.812615  0.797387  0.077497  1
  Tm  Tm6  1  0.181848  0.198489  0.922420  1
  Tm  Tm7  1  0.818152  0.198489  0.422420  1
  Ru  Ru8  1  0.254471  0.722306  0.885830  1
  Ru  Ru9  1  0.745529  0.722306  0.385830  1
  W  W10  1  0.254461  0.274641  0.614835  1
  W  W11  1  0.745539  0.274641  0.114835  1
  O  O12  1  0.032752  0.942711  0.898056  1
  O  O13  1  0.523353  0.849716  0.929849  1
  O  O14  1  0.967248  0.942711  0.398056  1
  O  O15  1  0.465965  0.791717  0.723465  1
  O  O16  1  0.476647  0.849716  0.429849  1
  O  O17  1  0.987918  0.719219  0.769079  1
  O  O18  1  0.534035  0.791717  0.223465  1
  O  O19  1  0.855878  0.635742  0.548341  1
  O  O20  1  0.354103  0.490407  0.888739  1
  O  O21  1  0.012082  0.719219  0.269079  1
  O  O22  1  0.353778  0.511516  0.612233  1
  O  O23  1  0.854101  0.362651  0.951145  1
  O  O24  1  0.144122  0.635742  0.048341  1
  O  O25  1  0.645897  0.490407  0.388739  1
  O  O26  1  0.982421  0.284531  0.730468  1
  O  O27  1  0.646222  0.511516  0.112233  1
  O  O28  1  0.145899  0.362651  0.451145  1
  O  O29  1  0.459561  0.207573  0.774352  1
  O  O30  1  0.017579  0.284531  0.230468  1
  O  O31  1  0.536105  0.152336  0.568832  1
  O  O32  1  0.540439  0.207573  0.274352  1
  O  O33  1  0.041700  0.058478  0.604944  1
  O  O34  1  0.463895  0.152336  0.068832  1
  O  O35  1  0.958300  0.058478  0.104944  1
