# generated using pymatgen
data_Mn3In2SnRh6
_symmetry_space_group_name_H-M   'P 1'
_cell_length_a   4.46469700
_cell_length_b   6.27862200
_cell_length_c   13.35724800
_cell_angle_alpha   90.00003970
_cell_angle_beta   90.00002570
_cell_angle_gamma   89.99996892
_symmetry_Int_Tables_number   1
_chemical_formula_structural   Mn3In2SnRh6
_chemical_formula_sum   'Mn6 In4 Sn2 Rh12'
_cell_volume   374.43231017
_cell_formula_units_Z   2
loop_
 _symmetry_equiv_pos_site_id
 _symmetry_equiv_pos_as_xyz
  1  'x, y, z'
loop_
 _atom_site_type_symbol
 _atom_site_label
 _atom_site_symmetry_multiplicity
 _atom_site_fract_x
 _atom_site_fract_y
 _atom_site_fract_z
 _atom_site_occupancy
  Mn  Mn0  1  0.000003  0.500001  0.998270  1
  Mn  Mn1  1  0.499821  0.000000  0.168443  1
  Mn  Mn2  1  0.999840  0.500001  0.335434  1
  Mn  Mn3  1  0.500003  0.000000  0.500410  1
  Mn  Mn4  1  0.000165  0.500000  0.666249  1
  Mn  Mn5  1  0.500186  0.000000  0.831189  1
  In  In6  1  0.999734  0.000000  0.333866  1
  In  In7  1  0.500005  0.500001  0.500242  1
  In  In8  1  0.000214  0.000000  0.666348  1
  In  In9  1  0.500204  0.500000  0.832843  1
  Sn  Sn10  1  0.999993  0.000000  0.999407  1
  Sn  Sn11  1  0.499794  0.500000  0.167271  1
  Rh  Rh12  1  0.499995  0.248246  0.001799  1
  Rh  Rh13  1  0.499998  0.751752  0.001799  1
  Rh  Rh14  1  0.999799  0.251684  0.164893  1
  Rh  Rh15  1  0.999801  0.748316  0.164893  1
  Rh  Rh16  1  0.499796  0.251010  0.331367  1
  Rh  Rh17  1  0.499795  0.748990  0.331368  1
  Rh  Rh18  1  0.000007  0.251092  0.499685  1
  Rh  Rh19  1  0.000008  0.748909  0.499685  1
  Rh  Rh20  1  0.500211  0.248970  0.666979  1
  Rh  Rh21  1  0.500209  0.751032  0.666980  1
  Rh  Rh22  1  0.000211  0.248977  0.835289  1
  Rh  Rh23  1  0.000212  0.751024  0.835290  1
