# generated using pymatgen
data_Nb3Ga2TcC
_symmetry_space_group_name_H-M   'P 1'
_cell_length_a   8.36391313
_cell_length_b   8.36391303
_cell_length_c   8.36391200
_cell_angle_alpha   59.99999618
_cell_angle_beta   59.99999658
_cell_angle_gamma   59.99999503
_symmetry_Int_Tables_number   1
_chemical_formula_structural   Nb3Ga2TcC
_chemical_formula_sum   'Nb12 Ga8 Tc4 C4'
_cell_volume   413.72659509
_cell_formula_units_Z   4
loop_
 _symmetry_equiv_pos_site_id
 _symmetry_equiv_pos_as_xyz
  1  'x, y, z'
loop_
 _atom_site_type_symbol
 _atom_site_label
 _atom_site_symmetry_multiplicity
 _atom_site_fract_x
 _atom_site_fract_y
 _atom_site_fract_z
 _atom_site_occupancy
  Nb  Nb0  1  0.553169  0.946831  0.553169  1
  Nb  Nb1  1  0.303169  0.696831  0.696831  1
  Nb  Nb2  1  0.696831  0.303169  0.303169  1
  Nb  Nb3  1  0.303169  0.696831  0.303169  1
  Nb  Nb4  1  0.696831  0.696831  0.303169  1
  Nb  Nb5  1  0.303169  0.303169  0.696831  1
  Nb  Nb6  1  0.553169  0.553169  0.946831  1
  Nb  Nb7  1  0.946831  0.553169  0.553169  1
  Nb  Nb8  1  0.553169  0.946831  0.946831  1
  Nb  Nb9  1  0.946831  0.946831  0.553169  1
  Nb  Nb10  1  0.696831  0.303169  0.696831  1
  Nb  Nb11  1  0.946831  0.553169  0.946831  1
  Ga  Ga12  1  0.912287  0.912287  0.912287  1
  Ga  Ga13  1  0.986858  0.337713  0.337713  1
  Ga  Ga14  1  0.337713  0.986858  0.337713  1
  Ga  Ga15  1  0.337713  0.337713  0.986858  1
  Ga  Ga16  1  0.912287  0.263142  0.912287  1
  Ga  Ga17  1  0.912287  0.912287  0.263142  1
  Ga  Ga18  1  0.263142  0.912287  0.912287  1
  Ga  Ga19  1  0.337713  0.337713  0.337713  1
  Tc  Tc20  1  0.125000  0.125000  0.125000  1
  Tc  Tc21  1  0.625000  0.125000  0.125000  1
  Tc  Tc22  1  0.125000  0.625000  0.125000  1
  Tc  Tc23  1  0.125000  0.125000  0.625000  1
  C  C24  1  0.625000  0.625000  0.625000  1
  C  C25  1  0.125000  0.625000  0.625000  1
  C  C26  1  0.625000  0.125000  0.625000  1
  C  C27  1  0.625000  0.625000  0.125000  1
