# generated using pymatgen
data_La9Sm(SnSb)4
_symmetry_space_group_name_H-M   'P 1'
_cell_length_a   8.54613900
_cell_length_b   8.58892900
_cell_length_c   16.32036400
_cell_angle_alpha   90.00000000
_cell_angle_beta   90.00000000
_cell_angle_gamma   90.00000000
_symmetry_Int_Tables_number   1
_chemical_formula_structural   La9Sm(SnSb)4
_chemical_formula_sum   'La18 Sm2 Sn8 Sb8'
_cell_volume   1197.95031387
_cell_formula_units_Z   2
loop_
 _symmetry_equiv_pos_site_id
 _symmetry_equiv_pos_as_xyz
  1  'x, y, z'
loop_
 _atom_site_type_symbol
 _atom_site_label
 _atom_site_symmetry_multiplicity
 _atom_site_fract_x
 _atom_site_fract_y
 _atom_site_fract_z
 _atom_site_occupancy
  La  La0  1  0.395534  0.836398  0.884423  1
  La  La1  1  0.895534  0.663602  0.615577  1
  La  La2  1  0.605502  0.162749  0.383279  1
  La  La3  1  0.105502  0.337251  0.116721  1
  La  La4  1  0.605502  0.162749  0.116721  1
  La  La5  1  0.105502  0.337251  0.383279  1
  La  La6  1  0.395534  0.836398  0.615577  1
  La  La7  1  0.895534  0.663602  0.884423  1
  La  La8  1  0.553332  0.326761  0.893777  1
  La  La9  1  0.053332  0.173239  0.606223  1
  La  La10  1  0.445782  0.672329  0.392975  1
  La  La11  1  0.945782  0.827671  0.107025  1
  La  La12  1  0.445782  0.672329  0.107025  1
  La  La13  1  0.945782  0.827671  0.392975  1
  La  La14  1  0.553332  0.326761  0.606223  1
  La  La15  1  0.053332  0.173239  0.893777  1
  La  La16  1  0.223075  0.496721  0.750000  1
  La  La17  1  0.723075  0.003279  0.750000  1
  Sm  Sm18  1  0.775592  0.503456  0.250000  1
  Sm  Sm19  1  0.275592  0.996544  0.250000  1
  Sn  Sn20  1  0.595453  0.622724  0.750000  1
  Sn  Sn21  1  0.095453  0.877276  0.750000  1
  Sn  Sn22  1  0.408416  0.374865  0.250000  1
  Sn  Sn23  1  0.908416  0.125135  0.250000  1
  Sn  Sn24  1  0.354053  0.134868  0.750000  1
  Sn  Sn25  1  0.854053  0.365132  0.750000  1
  Sn  Sn26  1  0.642194  0.861125  0.250000  1
  Sn  Sn27  1  0.142194  0.638875  0.250000  1
  Sb  Sb28  1  0.265185  0.015292  0.050515  1
  Sb  Sb29  1  0.765185  0.484708  0.449485  1
  Sb  Sb30  1  0.735271  0.984085  0.547344  1
  Sb  Sb31  1  0.235271  0.515915  0.952656  1
  Sb  Sb32  1  0.735271  0.984085  0.952656  1
  Sb  Sb33  1  0.235271  0.515915  0.547344  1
  Sb  Sb34  1  0.265185  0.015292  0.449485  1
  Sb  Sb35  1  0.765185  0.484708  0.050515  1
