# generated using pymatgen
data_Pr4B4Br5
_symmetry_space_group_name_H-M   'P 1'
_cell_length_a   9.38870500
_cell_length_b   9.38870527
_cell_length_c   19.53578524
_cell_angle_alpha   74.20479912
_cell_angle_beta   74.20479784
_cell_angle_gamma   26.48979924
_symmetry_Int_Tables_number   1
_chemical_formula_structural   Pr4B4Br5
_chemical_formula_sum   'Pr8 B8 Br10'
_cell_volume   737.45162705
_cell_formula_units_Z   2
loop_
 _symmetry_equiv_pos_site_id
 _symmetry_equiv_pos_as_xyz
  1  'x, y, z'
loop_
 _atom_site_type_symbol
 _atom_site_label
 _atom_site_symmetry_multiplicity
 _atom_site_fract_x
 _atom_site_fract_y
 _atom_site_fract_z
 _atom_site_occupancy
  Pr  Pr0  1  0.608398  0.608398  0.723140  1
  Pr  Pr1  1  0.391602  0.391602  0.276860  1
  Pr  Pr2  1  0.975330  0.975330  0.628463  1
  Pr  Pr3  1  0.024670  0.024670  0.371537  1
  Pr  Pr4  1  0.327164  0.327164  0.792751  1
  Pr  Pr5  1  0.672836  0.672836  0.207249  1
  Pr  Pr6  1  0.962234  0.962234  0.888579  1
  Pr  Pr7  1  0.037766  0.037766  0.111421  1
  B  B8  1  0.152690  0.783131  0.758753  1
  B  B9  1  0.216869  0.847310  0.241247  1
  B  B10  1  0.847310  0.216869  0.241247  1
  B  B11  1  0.783131  0.152690  0.758753  1
  B  B12  1  0.466073  0.466073  0.808068  1
  B  B13  1  0.533927  0.533927  0.191932  1
  B  B14  1  0.468574  0.468574  0.709559  1
  B  B15  1  0.531426  0.531426  0.290441  1
  Br  Br16  1  0.146596  0.146596  0.604226  1
  Br  Br17  1  0.853404  0.853404  0.395774  1
  Br  Br18  1  0.140588  0.140588  0.828018  1
  Br  Br19  1  0.859412  0.859412  0.171982  1
  Br  Br20  1  0.790333  0.790333  0.911789  1
  Br  Br21  1  0.209667  0.209667  0.088211  1
  Br  Br22  1  0.795937  0.795937  0.686344  1
  Br  Br23  1  0.204063  0.204063  0.313656  1
  Br  Br24  1  0.500000  0.500000  0.500000  1
  Br  Br25  1  0.500000  0.500000  0.000000  1
