# generated using pymatgen
data_YGaSiRh2
_symmetry_space_group_name_H-M   'P 1'
_cell_length_a   5.84273150
_cell_length_b   5.84273185
_cell_length_c   5.84273081
_cell_angle_alpha   138.40922070
_cell_angle_beta   138.40921918
_cell_angle_gamma   60.27683555
_symmetry_Int_Tables_number   1
_chemical_formula_structural   YGaSiRh2
_chemical_formula_sum   'Y1 Ga1 Si1 Rh2'
_cell_volume   86.96916889
_cell_formula_units_Z   1
loop_
 _symmetry_equiv_pos_site_id
 _symmetry_equiv_pos_as_xyz
  1  'x, y, z'
loop_
 _atom_site_type_symbol
 _atom_site_label
 _atom_site_symmetry_multiplicity
 _atom_site_fract_x
 _atom_site_fract_y
 _atom_site_fract_z
 _atom_site_occupancy
  Y  Y0  1  0.997756  0.997756  0.000000  1
  Ga  Ga1  1  0.618512  0.618512  0.000000  1
  Si  Si2  1  0.369473  0.369473  0.000000  1
  Rh  Rh3  1  0.257130  0.757130  0.500000  1
  Rh  Rh4  1  0.757130  0.257130  0.500000  1
