# generated using pymatgen
data_Pu5Re2BC6
_symmetry_space_group_name_H-M   'P 1'
_cell_length_a   8.35115833
_cell_length_b   8.35115818
_cell_length_c   3.40434400
_cell_angle_alpha   90.00000000
_cell_angle_beta   90.00000000
_cell_angle_gamma   124.92888456
_symmetry_Int_Tables_number   1
_chemical_formula_structural   Pu5Re2BC6
_chemical_formula_sum   'Pu5 Re2 B1 C6'
_cell_volume   194.65624003
_cell_formula_units_Z   1
loop_
 _symmetry_equiv_pos_site_id
 _symmetry_equiv_pos_as_xyz
  1  'x, y, z'
loop_
 _atom_site_type_symbol
 _atom_site_label
 _atom_site_symmetry_multiplicity
 _atom_site_fract_x
 _atom_site_fract_y
 _atom_site_fract_z
 _atom_site_occupancy
  Pu  Pu0  1  0.500000  0.500000  0.000000  1
  Pu  Pu1  1  0.060231  0.313618  0.500000  1
  Pu  Pu2  1  0.939769  0.686382  0.500000  1
  Pu  Pu3  1  0.686382  0.939769  0.500000  1
  Pu  Pu4  1  0.313618  0.060231  0.500000  1
  Re  Re5  1  0.708242  0.291758  0.000000  1
  Re  Re6  1  0.291758  0.708242  0.000000  1
  B  B7  1  0.000000  0.000000  0.000000  1
  C  C8  1  0.623301  0.376699  0.500000  1
  C  C9  1  0.376699  0.623301  0.500000  1
  C  C10  1  0.194054  0.194054  0.000000  1
  C  C11  1  0.805946  0.805946  0.000000  1
  C  C12  1  0.000000  0.500000  0.000000  1
  C  C13  1  0.500000  0.000000  0.000000  1
