# generated using pymatgen
data_SrTbTmGa8Ag3
_symmetry_space_group_name_H-M   'P 1'
_cell_length_a   4.38149363
_cell_length_b   8.48189808
_cell_length_c   8.48189879
_cell_angle_alpha   68.81009583
_cell_angle_beta   75.03169011
_cell_angle_gamma   75.03167861
_symmetry_Int_Tables_number   1
_chemical_formula_structural   SrTbTmGa8Ag3
_chemical_formula_sum   'Sr1 Tb1 Tm1 Ga8 Ag3'
_cell_volume   279.13108734
_cell_formula_units_Z   1
loop_
 _symmetry_equiv_pos_site_id
 _symmetry_equiv_pos_as_xyz
  1  'x, y, z'
loop_
 _atom_site_type_symbol
 _atom_site_label
 _atom_site_symmetry_multiplicity
 _atom_site_fract_x
 _atom_site_fract_y
 _atom_site_fract_z
 _atom_site_occupancy
  Sr  Sr0  1  0.500278  0.499722  0.499722  1
  Tb  Tb1  1  0.200263  0.799737  0.799737  1
  Tm  Tm2  1  0.800195  0.199805  0.199805  1
  Ga  Ga3  1  0.353665  0.362123  0.930548  1
  Ga  Ga4  1  0.646224  0.636884  0.070668  1
  Ga  Ga5  1  0.353665  0.930548  0.362123  1
  Ga  Ga6  1  0.646224  0.070668  0.636884  1
  Ga  Ga7  1  0.163350  0.469868  0.203433  1
  Ga  Ga8  1  0.837201  0.529028  0.796570  1
  Ga  Ga9  1  0.163350  0.203433  0.469868  1
  Ga  Ga10  1  0.837201  0.796570  0.529028  1
  Ag  Ag11  1  0.499489  0.000511  0.000511  1
  Ag  Ag12  1  0.999449  0.809492  0.191611  1
  Ag  Ag13  1  0.999449  0.191611  0.809492  1
