# generated using pymatgen
data_Sc2Si2Ni7(PRu)5
_symmetry_space_group_name_H-M   'P 1'
_cell_length_a   9.16218912
_cell_length_b   9.23338694
_cell_length_c   3.65960900
_cell_angle_alpha   90.00000000
_cell_angle_beta   90.00000000
_cell_angle_gamma   119.91386332
_symmetry_Int_Tables_number   1
_chemical_formula_structural   Sc2Si2Ni7(PRu)5
_chemical_formula_sum   'Sc2 Si2 Ni7 P5 Ru5'
_cell_volume   268.35019009
_cell_formula_units_Z   1
loop_
 _symmetry_equiv_pos_site_id
 _symmetry_equiv_pos_as_xyz
  1  'x, y, z'
loop_
 _atom_site_type_symbol
 _atom_site_label
 _atom_site_symmetry_multiplicity
 _atom_site_fract_x
 _atom_site_fract_y
 _atom_site_fract_z
 _atom_site_occupancy
  Sc  Sc0  1  0.669707  0.329471  0.500000  1
  Sc  Sc1  1  0.336232  0.665996  0.000000  1
  Si  Si2  1  0.997758  0.999415  0.000000  1
  Si  Si3  1  0.411641  0.289145  0.000000  1
  Ni  Ni4  1  0.707317  0.878749  0.000000  1
  Ni  Ni5  1  0.126343  0.837837  0.000000  1
  Ni  Ni6  1  0.156407  0.283367  0.000000  1
  Ni  Ni7  1  0.929396  0.368624  0.000000  1
  Ni  Ni8  1  0.634817  0.568020  0.000000  1
  Ni  Ni9  1  0.441042  0.059126  0.000000  1
  Ni  Ni10  1  0.557649  0.946433  0.500000  1
  P  P11  1  0.594069  0.718171  0.500000  1
  P  P12  1  0.292175  0.881990  0.500000  1
  P  P13  1  0.118741  0.405244  0.500000  1
  P  P14  1  0.705939  0.118801  0.000000  1
  P  P15  1  0.879927  0.585448  0.000000  1
  Ru  Ru16  1  0.389606  0.446098  0.500000  1
  Ru  Ru17  1  0.053005  0.612022  0.500000  1
  Ru  Ru18  1  0.219053  0.091776  0.500000  1
  Ru  Ru19  1  0.878153  0.788656  0.500000  1
  Ru  Ru20  1  0.901024  0.125611  0.500000  1
