# generated using pymatgen
data_Ho2Tm2MoRu7
_symmetry_space_group_name_H-M   'P 1'
_cell_length_a   5.45075403
_cell_length_b   5.18038317
_cell_length_c   8.99319206
_cell_angle_alpha   89.98647727
_cell_angle_beta   90.00541438
_cell_angle_gamma   121.96802119
_symmetry_Int_Tables_number   1
_chemical_formula_structural   Ho2Tm2MoRu7
_chemical_formula_sum   'Ho2 Tm2 Mo1 Ru7'
_cell_volume   215.42900693
_cell_formula_units_Z   1
loop_
 _symmetry_equiv_pos_site_id
 _symmetry_equiv_pos_as_xyz
  1  'x, y, z'
loop_
 _atom_site_type_symbol
 _atom_site_label
 _atom_site_symmetry_multiplicity
 _atom_site_fract_x
 _atom_site_fract_y
 _atom_site_fract_z
 _atom_site_occupancy
  Ho  Ho0  1  0.672184  0.344973  0.563412  1
  Ho  Ho1  1  0.334892  0.670121  0.431659  1
  Tm  Tm2  1  0.334576  0.669435  0.068015  1
  Tm  Tm3  1  0.672515  0.345652  0.936849  1
  Mo  Mo4  1  0.161831  0.324095  0.751012  1
  Ru  Ru5  1  0.008475  0.017889  0.498316  1
  Ru  Ru6  1  0.008579  0.018107  0.001741  1
  Ru  Ru7  1  0.170820  0.820628  0.751323  1
  Ru  Ru8  1  0.651237  0.821064  0.751254  1
  Ru  Ru9  1  0.821312  0.642533  0.248792  1
  Ru  Ru10  1  0.831634  0.162351  0.248824  1
  Ru  Ru11  1  0.331947  0.163151  0.248803  1
