# generated using pymatgen
data_LaYb(CuH4)2
_symmetry_space_group_name_H-M   'P 1'
_cell_length_a   6.25425272
_cell_length_b   6.25425307
_cell_length_c   4.91321712
_cell_angle_alpha   89.51414730
_cell_angle_beta   90.48584981
_cell_angle_gamma   144.55911465
_symmetry_Int_Tables_number   1
_chemical_formula_structural   LaYb(CuH4)2
_chemical_formula_sum   'La1 Yb1 Cu2 H8'
_cell_volume   111.43581356
_cell_formula_units_Z   1
loop_
 _symmetry_equiv_pos_site_id
 _symmetry_equiv_pos_as_xyz
  1  'x, y, z'
loop_
 _atom_site_type_symbol
 _atom_site_label
 _atom_site_symmetry_multiplicity
 _atom_site_fract_x
 _atom_site_fract_y
 _atom_site_fract_z
 _atom_site_occupancy
  La  La0  1  0.869959  0.130041  0.788838  1
  Yb  Yb1  1  0.132828  0.867172  0.288441  1
  Cu  Cu2  1  0.403655  0.596345  0.290207  1
  Cu  Cu3  1  0.599430  0.400570  0.793282  1
  H  H4  1  0.307287  0.692713  0.039807  1
  H  H5  1  0.690739  0.309261  0.536905  1
  H  H6  1  0.304874  0.695126  0.531484  1
  H  H7  1  0.695060  0.304940  0.042814  1
  H  H8  1  0.083916  0.916084  0.791572  1
  H  H9  1  0.914491  0.085509  0.289922  1
  H  H10  1  0.503328  0.496672  0.049209  1
  H  H11  1  0.494434  0.505566  0.555517  1
