# generated using pymatgen
data_La4Ni3Sb8
_symmetry_space_group_name_H-M   'P 1'
_cell_length_a   10.89228367
_cell_length_b   10.89228377
_cell_length_c   10.89228383
_cell_angle_alpha   146.56410099
_cell_angle_beta   146.56410234
_cell_angle_gamma   48.00964067
_symmetry_Int_Tables_number   1
_chemical_formula_structural   La4Ni3Sb8
_chemical_formula_sum   'La4 Ni3 Sb8'
_cell_volume   390.74315776
_cell_formula_units_Z   1
loop_
 _symmetry_equiv_pos_site_id
 _symmetry_equiv_pos_as_xyz
  1  'x, y, z'
loop_
 _atom_site_type_symbol
 _atom_site_label
 _atom_site_symmetry_multiplicity
 _atom_site_fract_x
 _atom_site_fract_y
 _atom_site_fract_z
 _atom_site_occupancy
  La  La0  1  0.633301  0.633301  0.502190  1
  La  La1  1  0.131109  0.131109  0.497810  1
  La  La2  1  0.366699  0.868891  0.000000  1
  La  La3  1  0.868891  0.366699  0.000000  1
  Ni  Ni4  1  0.000000  0.000000  0.000000  1
  Ni  Ni5  1  0.000000  0.500000  0.500000  1
  Ni  Ni6  1  0.500000  0.000000  0.500000  1
  Sb  Sb7  1  0.317681  0.317681  0.511274  1
  Sb  Sb8  1  0.806407  0.806407  0.488726  1
  Sb  Sb9  1  0.682319  0.193593  0.000000  1
  Sb  Sb10  1  0.193593  0.682319  0.000000  1
  Sb  Sb11  1  0.249850  0.249850  0.000000  1
  Sb  Sb12  1  0.750150  0.750150  0.000000  1
  Sb  Sb13  1  0.750000  0.250000  0.500000  1
  Sb  Sb14  1  0.250000  0.750000  0.500000  1
