# generated using pymatgen
data_Ho10Tm6In4NiRh3
_symmetry_space_group_name_H-M   'P 1'
_cell_length_a   9.55985115
_cell_length_b   9.56213465
_cell_length_c   9.58267355
_cell_angle_alpha   60.02810696
_cell_angle_beta   60.01364720
_cell_angle_gamma   60.08360981
_symmetry_Int_Tables_number   1
_chemical_formula_structural   Ho10Tm6In4NiRh3
_chemical_formula_sum   'Ho10 Tm6 In4 Ni1 Rh3'
_cell_volume   619.99542344
_cell_formula_units_Z   1
loop_
 _symmetry_equiv_pos_site_id
 _symmetry_equiv_pos_as_xyz
  1  'x, y, z'
loop_
 _atom_site_type_symbol
 _atom_site_label
 _atom_site_symmetry_multiplicity
 _atom_site_fract_x
 _atom_site_fract_y
 _atom_site_fract_z
 _atom_site_occupancy
  Ho  Ho0  1  0.062319  0.063211  0.438144  1
  Ho  Ho1  1  0.435432  0.063983  0.438076  1
  Ho  Ho2  1  0.061310  0.438675  0.060696  1
  Ho  Ho3  1  0.047777  0.651161  0.647507  1
  Ho  Ho4  1  0.438621  0.438311  0.060970  1
  Ho  Ho5  1  0.651393  0.048108  0.646896  1
  Ho  Ho6  1  0.188167  0.810442  0.190256  1
  Ho  Ho7  1  0.188238  0.188841  0.811416  1
  Ho  Ho8  1  0.810912  0.810975  0.191601  1
  Ho  Ho9  1  0.439320  0.061390  0.059546  1
  Tm  Tm10  1  0.810523  0.188760  0.189636  1
  Tm  Tm11  1  0.062745  0.436067  0.438659  1
  Tm  Tm12  1  0.810675  0.190517  0.810930  1
  Tm  Tm13  1  0.190410  0.810469  0.810906  1
  Tm  Tm14  1  0.648751  0.647873  0.051291  1
  Tm  Tm15  1  0.653239  0.653165  0.649776  1
  In  In16  1  0.415873  0.415710  0.417817  1
  In  In17  1  0.748815  0.417270  0.418383  1
  In  In18  1  0.417613  0.747999  0.418249  1
  In  In19  1  0.418071  0.417713  0.746641  1
  Ni  Ni20  1  0.858169  0.858498  0.425563  1
  Rh  Rh21  1  0.857658  0.857565  0.858816  1
  Rh  Rh22  1  0.428196  0.855892  0.858598  1
  Rh  Rh23  1  0.855772  0.427407  0.859633  1
