# generated using pymatgen
data_Dy3ErAlRu
_symmetry_space_group_name_H-M   'P 1'
_cell_length_a   9.49014332
_cell_length_b   9.49014291
_cell_length_c   9.49014300
_cell_angle_alpha   59.99999619
_cell_angle_beta   59.99999762
_cell_angle_gamma   59.99999899
_symmetry_Int_Tables_number   1
_chemical_formula_structural   Dy3ErAlRu
_chemical_formula_sum   'Dy12 Er4 Al4 Ru4'
_cell_volume   604.37050078
_cell_formula_units_Z   4
loop_
 _symmetry_equiv_pos_site_id
 _symmetry_equiv_pos_as_xyz
  1  'x, y, z'
loop_
 _atom_site_type_symbol
 _atom_site_label
 _atom_site_symmetry_multiplicity
 _atom_site_fract_x
 _atom_site_fract_y
 _atom_site_fract_z
 _atom_site_occupancy
  Dy  Dy0  1  0.055593  0.444407  0.444407  1
  Dy  Dy1  1  0.444407  0.055593  0.055593  1
  Dy  Dy2  1  0.444407  0.055593  0.444407  1
  Dy  Dy3  1  0.055593  0.444407  0.055593  1
  Dy  Dy4  1  0.444407  0.444407  0.055593  1
  Dy  Dy5  1  0.055593  0.055593  0.444407  1
  Dy  Dy6  1  0.189685  0.810315  0.810315  1
  Dy  Dy7  1  0.810315  0.189685  0.189685  1
  Dy  Dy8  1  0.810315  0.189685  0.810315  1
  Dy  Dy9  1  0.189685  0.810315  0.189685  1
  Dy  Dy10  1  0.810315  0.810315  0.189685  1
  Dy  Dy11  1  0.189685  0.189685  0.810315  1
  Er  Er12  1  0.601012  0.601012  0.601012  1
  Er  Er13  1  0.601012  0.601012  0.196962  1
  Er  Er14  1  0.601012  0.196962  0.601012  1
  Er  Er15  1  0.196962  0.601012  0.601012  1
  Al  Al16  1  0.826694  0.826694  0.826694  1
  Al  Al17  1  0.826694  0.826694  0.519917  1
  Al  Al18  1  0.826694  0.519917  0.826694  1
  Al  Al19  1  0.519917  0.826694  0.826694  1
  Ru  Ru20  1  0.390379  0.390379  0.390379  1
  Ru  Ru21  1  0.390379  0.390379  0.828865  1
  Ru  Ru22  1  0.390379  0.828865  0.390379  1
  Ru  Ru23  1  0.828865  0.390379  0.390379  1
