# generated using pymatgen
data_CePr4(BN3)2
_symmetry_space_group_name_H-M   'P 1'
_cell_length_a   6.46041595
_cell_length_b   6.46041623
_cell_length_c   8.85806441
_cell_angle_alpha   74.58838500
_cell_angle_beta   74.58838592
_cell_angle_gamma   32.55858697
_symmetry_Int_Tables_number   1
_chemical_formula_structural   CePr4(BN3)2
_chemical_formula_sum   'Ce1 Pr4 B2 N6'
_cell_volume   191.18621208
_cell_formula_units_Z   1
loop_
 _symmetry_equiv_pos_site_id
 _symmetry_equiv_pos_as_xyz
  1  'x, y, z'
loop_
 _atom_site_type_symbol
 _atom_site_label
 _atom_site_symmetry_multiplicity
 _atom_site_fract_x
 _atom_site_fract_y
 _atom_site_fract_z
 _atom_site_occupancy
  Ce  Ce0  1  0.000000  0.000000  0.000000  1
  Pr  Pr1  1  0.623346  0.623346  0.625640  1
  Pr  Pr2  1  0.309824  0.309824  0.816152  1
  Pr  Pr3  1  0.690176  0.690176  0.183848  1
  Pr  Pr4  1  0.376654  0.376654  0.374360  1
  B  B5  1  0.054300  0.054300  0.410064  1
  B  B6  1  0.945700  0.945700  0.589936  1
  N  N7  1  0.026317  0.026317  0.256191  1
  N  N8  1  0.355709  0.355709  0.076129  1
  N  N9  1  0.826676  0.826676  0.589097  1
  N  N10  1  0.973683  0.973683  0.743809  1
  N  N11  1  0.644291  0.644291  0.923871  1
  N  N12  1  0.173324  0.173324  0.410903  1
