# generated using pymatgen
data_ZrGa4RuAu
_symmetry_space_group_name_H-M   'P 1'
_cell_length_a   4.34859300
_cell_length_b   4.34859300
_cell_length_c   6.50688900
_cell_angle_alpha   90.00000000
_cell_angle_beta   90.00000000
_cell_angle_gamma   90.00000000
_symmetry_Int_Tables_number   1
_chemical_formula_structural   ZrGa4RuAu
_chemical_formula_sum   'Zr1 Ga4 Ru1 Au1'
_cell_volume   123.04696981
_cell_formula_units_Z   1
loop_
 _symmetry_equiv_pos_site_id
 _symmetry_equiv_pos_as_xyz
  1  'x, y, z'
loop_
 _atom_site_type_symbol
 _atom_site_label
 _atom_site_symmetry_multiplicity
 _atom_site_fract_x
 _atom_site_fract_y
 _atom_site_fract_z
 _atom_site_occupancy
  Zr  Zr0  1  0.000000  0.000000  0.000000  1
  Ga  Ga1  1  0.000000  0.500000  0.292942  1
  Ga  Ga2  1  0.000000  0.500000  0.707058  1
  Ga  Ga3  1  0.500000  0.000000  0.292942  1
  Ga  Ga4  1  0.500000  0.000000  0.707058  1
  Ru  Ru5  1  0.000000  0.000000  0.500000  1
  Au  Au6  1  0.500000  0.500000  0.000000  1
