# generated using pymatgen
data_RbMn3AlO8
_symmetry_space_group_name_H-M   'P 1'
_cell_length_a   2.94348121
_cell_length_b   7.16405235
_cell_length_c   7.16196186
_cell_angle_alpha   87.39356372
_cell_angle_beta   101.86564727
_cell_angle_gamma   101.86416195
_symmetry_Int_Tables_number   1
_chemical_formula_structural   RbMn3AlO8
_chemical_formula_sum   'Rb1 Mn3 Al1 O8'
_cell_volume   144.64092123
_cell_formula_units_Z   1
loop_
 _symmetry_equiv_pos_site_id
 _symmetry_equiv_pos_as_xyz
  1  'x, y, z'
loop_
 _atom_site_type_symbol
 _atom_site_label
 _atom_site_symmetry_multiplicity
 _atom_site_fract_x
 _atom_site_fract_y
 _atom_site_fract_z
 _atom_site_occupancy
  Rb  Rb0  1  0.038046  0.005816  0.003823  1
  Mn  Mn1  1  0.860506  0.511359  0.175633  1
  Mn  Mn2  1  0.682096  0.811418  0.518234  1
  Mn  Mn3  1  0.353332  0.183124  0.489229  1
  Al  Al4  1  0.167126  0.488448  0.812746  1
  O  O5  1  0.347461  0.371369  0.288936  1
  O  O6  1  0.680895  0.622621  0.706273  1
  O  O7  1  0.976454  0.291238  0.626714  1
  O  O8  1  0.059804  0.709961  0.375622  1
  O  O9  1  0.362743  0.641265  0.049190  1
  O  O10  1  0.673294  0.363829  0.948026  1
  O  O11  1  0.723161  0.049439  0.361069  1
  O  O12  1  0.315080  0.950112  0.644506  1
