# generated using pymatgen
data_HfZr5BeBi2
_symmetry_space_group_name_H-M   'P 1'
_cell_length_a   3.82694200
_cell_length_b   7.76229678
_cell_length_c   7.77346968
_cell_angle_alpha   119.95245463
_cell_angle_beta   90.00000000
_cell_angle_gamma   90.00000000
_symmetry_Int_Tables_number   1
_chemical_formula_structural   HfZr5BeBi2
_chemical_formula_sum   'Hf1 Zr5 Be1 Bi2'
_cell_volume   200.07624787
_cell_formula_units_Z   1
loop_
 _symmetry_equiv_pos_site_id
 _symmetry_equiv_pos_as_xyz
  1  'x, y, z'
loop_
 _atom_site_type_symbol
 _atom_site_label
 _atom_site_symmetry_multiplicity
 _atom_site_fract_x
 _atom_site_fract_y
 _atom_site_fract_z
 _atom_site_occupancy
  Hf  Hf0  1  0.500000  0.227772  0.000000  1
  Zr  Zr1  1  0.500000  0.770380  0.769227  1
  Zr  Zr2  1  0.500000  0.001152  0.230773  1
  Zr  Zr3  1  0.000000  0.386400  0.385951  1
  Zr  Zr4  1  0.000000  0.000450  0.614049  1
  Zr  Zr5  1  0.000000  0.611961  0.000000  1
  Be  Be6  1  0.000000  0.002124  0.000000  1
  Bi  Bi7  1  0.500000  0.666092  0.332423  1
  Bi  Bi8  1  0.500000  0.333668  0.667577  1
