# generated using pymatgen
data_Li4DyNi9As7
_symmetry_space_group_name_H-M   'P 1'
_cell_length_a   9.41060100
_cell_length_b   9.41059992
_cell_length_c   3.82724200
_cell_angle_alpha   90.00000000
_cell_angle_beta   90.00000000
_cell_angle_gamma   120.00000730
_symmetry_Int_Tables_number   1
_chemical_formula_structural   Li4DyNi9As7
_chemical_formula_sum   'Li4 Dy1 Ni9 As7'
_cell_volume   293.52912122
_cell_formula_units_Z   1
loop_
 _symmetry_equiv_pos_site_id
 _symmetry_equiv_pos_as_xyz
  1  'x, y, z'
loop_
 _atom_site_type_symbol
 _atom_site_label
 _atom_site_symmetry_multiplicity
 _atom_site_fract_x
 _atom_site_fract_y
 _atom_site_fract_z
 _atom_site_occupancy
  Li  Li0  1  0.772383  0.545362  0.500000  1
  Li  Li1  1  0.454638  0.227020  0.500000  1
  Li  Li2  1  0.772980  0.227617  0.500000  1
  Li  Li3  1  0.000000  0.000000  0.500000  1
  Dy  Dy4  1  0.333333  0.666667  0.000000  1
  Ni  Ni5  1  0.274177  0.374473  0.500000  1
  Ni  Ni6  1  0.625527  0.899704  0.500000  1
  Ni  Ni7  1  0.100296  0.725823  0.500000  1
  Ni  Ni8  1  0.495990  0.451729  0.000000  1
  Ni  Ni9  1  0.548271  0.044261  0.000000  1
  Ni  Ni10  1  0.955739  0.504010  0.000000  1
  Ni  Ni11  1  0.715819  0.762066  0.000000  1
  Ni  Ni12  1  0.237934  0.953753  0.000000  1
  Ni  Ni13  1  0.046247  0.284181  0.000000  1
  As  As14  1  0.962802  0.756150  0.000000  1
  As  As15  1  0.243850  0.206652  0.000000  1
  As  As16  1  0.793348  0.037198  0.000000  1
  As  As17  1  0.666667  0.333333  0.000000  1
  As  As18  1  0.544914  0.618871  0.500000  1
  As  As19  1  0.381129  0.926043  0.500000  1
  As  As20  1  0.073957  0.455086  0.500000  1
