# generated using pymatgen
data_Zr8FeTc3Os4
_symmetry_space_group_name_H-M   'P 1'
_cell_length_a   6.53220100
_cell_length_b   4.64909800
_cell_length_c   9.28064800
_cell_angle_alpha   90.00000000
_cell_angle_beta   90.00075636
_cell_angle_gamma   90.00000000
_symmetry_Int_Tables_number   1
_chemical_formula_structural   Zr8FeTc3Os4
_chemical_formula_sum   'Zr8 Fe1 Tc3 Os4'
_cell_volume   281.84253837
_cell_formula_units_Z   1
loop_
 _symmetry_equiv_pos_site_id
 _symmetry_equiv_pos_as_xyz
  1  'x, y, z'
loop_
 _atom_site_type_symbol
 _atom_site_label
 _atom_site_symmetry_multiplicity
 _atom_site_fract_x
 _atom_site_fract_y
 _atom_site_fract_z
 _atom_site_occupancy
  Zr  Zr0  1  0.998322  0.749999  0.125005  1
  Zr  Zr1  1  0.501759  0.749999  0.125009  1
  Zr  Zr2  1  0.999533  0.249999  0.373778  1
  Zr  Zr3  1  0.500577  0.249999  0.373780  1
  Zr  Zr4  1  0.499537  0.749999  0.625008  1
  Zr  Zr5  1  0.000348  0.749999  0.625015  1
  Zr  Zr6  1  0.500472  0.249999  0.876189  1
  Zr  Zr7  1  0.999425  0.249999  0.876198  1
  Fe  Fe8  1  0.750063  0.249999  0.125014  1
  Tc  Tc9  1  0.250049  0.749999  0.373687  1
  Tc  Tc10  1  0.749962  0.249999  0.625007  1
  Tc  Tc11  1  0.249957  0.749999  0.876308  1
  Os  Os12  1  0.250040  0.249999  0.124999  1
  Os  Os13  1  0.750049  0.749999  0.373134  1
  Os  Os14  1  0.249946  0.249999  0.625000  1
  Os  Os15  1  0.749961  0.749999  0.876871  1
