# generated using pymatgen
data_Sr5CdSi9(Pb3O11)3
_symmetry_space_group_name_H-M   'P 1'
_cell_length_a   10.10244600
_cell_length_b   10.10244524
_cell_length_c   10.61025800
_cell_angle_alpha   90.00000000
_cell_angle_beta   90.00000000
_cell_angle_gamma   119.99999681
_symmetry_Int_Tables_number   1
_chemical_formula_structural   Sr5CdSi9(Pb3O11)3
_chemical_formula_sum   'Sr5 Cd1 Si9 Pb9 O33'
_cell_volume   937.79871390
_cell_formula_units_Z   1
loop_
 _symmetry_equiv_pos_site_id
 _symmetry_equiv_pos_as_xyz
  1  'x, y, z'
loop_
 _atom_site_type_symbol
 _atom_site_label
 _atom_site_symmetry_multiplicity
 _atom_site_fract_x
 _atom_site_fract_y
 _atom_site_fract_z
 _atom_site_occupancy
  Sr  Sr0  1  0.000000  0.000000  0.164861  1
  Sr  Sr1  1  0.333333  0.666667  0.176679  1
  Sr  Sr2  1  0.000000  0.000000  0.835139  1
  Sr  Sr3  1  0.333333  0.666667  0.823321  1
  Sr  Sr4  1  0.000000  0.000000  0.500000  1
  Cd  Cd5  1  0.333333  0.666667  0.500000  1
  Si  Si6  1  0.269917  0.954630  0.354533  1
  Si  Si7  1  0.045370  0.315287  0.354533  1
  Si  Si8  1  0.645204  0.933196  0.000000  1
  Si  Si9  1  0.684713  0.730083  0.645467  1
  Si  Si10  1  0.287994  0.354796  0.000000  1
  Si  Si11  1  0.269917  0.954630  0.645467  1
  Si  Si12  1  0.066804  0.712006  0.000000  1
  Si  Si13  1  0.045370  0.315287  0.645467  1
  Si  Si14  1  0.684713  0.730083  0.354533  1
  Pb  Pb15  1  0.937130  0.601495  0.681320  1
  Pb  Pb16  1  0.398505  0.335635  0.318680  1
  Pb  Pb17  1  0.653477  0.589979  0.000000  1
  Pb  Pb18  1  0.936502  0.346523  0.000000  1
  Pb  Pb19  1  0.664365  0.062870  0.681320  1
  Pb  Pb20  1  0.410021  0.063498  0.000000  1
  Pb  Pb21  1  0.937130  0.601495  0.318680  1
  Pb  Pb22  1  0.398505  0.335635  0.681320  1
  Pb  Pb23  1  0.664365  0.062870  0.318680  1
  O  O24  1  0.179737  0.171542  0.000000  1
  O  O25  1  0.294775  0.035345  0.500000  1
  O  O26  1  0.964655  0.259429  0.500000  1
  O  O27  1  0.407755  0.422904  0.121682  1
  O  O28  1  0.133734  0.214916  0.333358  1
  O  O29  1  0.351101  0.094553  0.748576  1
  O  O30  1  0.161362  0.497537  0.650674  1
  O  O31  1  0.015148  0.592245  0.121682  1
  O  O32  1  0.336175  0.838638  0.349326  1
  O  O33  1  0.161362  0.497537  0.349326  1
  O  O34  1  0.785084  0.918817  0.333358  1
  O  O35  1  0.336175  0.838638  0.650674  1
  O  O36  1  0.905447  0.256548  0.748576  1
  O  O37  1  0.351101  0.094553  0.251424  1
  O  O38  1  0.991805  0.820263  0.000000  1
  O  O39  1  0.743452  0.648899  0.748576  1
  O  O40  1  0.743452  0.648899  0.251424  1
  O  O41  1  0.740571  0.705225  0.500000  1
  O  O42  1  0.550924  0.743163  0.000000  1
  O  O43  1  0.133734  0.214916  0.666642  1
  O  O44  1  0.577096  0.984852  0.878318  1
  O  O45  1  0.081183  0.866266  0.333358  1
  O  O46  1  0.905447  0.256548  0.251424  1
  O  O47  1  0.502463  0.663825  0.650674  1
  O  O48  1  0.081183  0.866266  0.666642  1
  O  O49  1  0.577096  0.984852  0.121682  1
  O  O50  1  0.256837  0.807760  0.000000  1
  O  O51  1  0.192240  0.449076  0.000000  1
  O  O52  1  0.502463  0.663825  0.349326  1
  O  O53  1  0.785084  0.918817  0.666642  1
  O  O54  1  0.828458  0.008195  0.000000  1
  O  O55  1  0.015148  0.592245  0.878318  1
  O  O56  1  0.407755  0.422904  0.878318  1
