# generated using pymatgen
data_LiHo8Zn(Si6Rh)2
_symmetry_space_group_name_H-M   'P 1'
_cell_length_a   8.14177300
_cell_length_b   8.14177303
_cell_length_c   7.93042200
_cell_angle_alpha   90.00000000
_cell_angle_beta   90.00000000
_cell_angle_gamma   120.00000393
_symmetry_Int_Tables_number   1
_chemical_formula_structural   LiHo8Zn(Si6Rh)2
_chemical_formula_sum   'Li1 Ho8 Zn1 Si12 Rh2'
_cell_volume   455.26566029
_cell_formula_units_Z   1
loop_
 _symmetry_equiv_pos_site_id
 _symmetry_equiv_pos_as_xyz
  1  'x, y, z'
loop_
 _atom_site_type_symbol
 _atom_site_label
 _atom_site_symmetry_multiplicity
 _atom_site_fract_x
 _atom_site_fract_y
 _atom_site_fract_z
 _atom_site_occupancy
  Li  Li0  1  0.333333  0.666667  0.463517  1
  Ho  Ho1  1  0.000000  0.000000  0.251435  1
  Ho  Ho2  1  0.000000  0.000000  0.747525  1
  Ho  Ho3  1  0.508213  0.491787  0.244412  1
  Ho  Ho4  1  0.508213  0.016427  0.244412  1
  Ho  Ho5  1  0.983573  0.491787  0.244412  1
  Ho  Ho6  1  0.493276  0.506724  0.755491  1
  Ho  Ho7  1  0.493276  0.986550  0.755491  1
  Ho  Ho8  1  0.013450  0.506724  0.755491  1
  Zn  Zn9  1  0.666667  0.333333  0.536341  1
  Si  Si10  1  0.167549  0.832451  0.506722  1
  Si  Si11  1  0.167549  0.335096  0.506722  1
  Si  Si12  1  0.664904  0.832451  0.506722  1
  Si  Si13  1  0.834786  0.165214  0.493180  1
  Si  Si14  1  0.834786  0.669573  0.493180  1
  Si  Si15  1  0.330427  0.165214  0.493180  1
  Si  Si16  1  0.833809  0.166191  0.993696  1
  Si  Si17  1  0.833809  0.667619  0.993696  1
  Si  Si18  1  0.332381  0.166191  0.993696  1
  Si  Si19  1  0.166976  0.833024  0.007444  1
  Si  Si20  1  0.166976  0.333953  0.007444  1
  Si  Si21  1  0.666047  0.833024  0.007444  1
  Rh  Rh22  1  0.666667  0.333333  0.979357  1
  Rh  Rh23  1  0.333333  0.666667  0.018990  1
