# generated using pymatgen
data_Ho4Er8Co4BiOs
_symmetry_space_group_name_H-M   'P 1'
_cell_length_a   8.26700529
_cell_length_b   8.26700437
_cell_length_c   8.26700468
_cell_angle_alpha   110.44694356
_cell_angle_beta   111.42880539
_cell_angle_gamma   106.57769077
_symmetry_Int_Tables_number   1
_chemical_formula_structural   Ho4Er8Co4BiOs
_chemical_formula_sum   'Ho4 Er8 Co4 Bi1 Os1'
_cell_volume   434.07307520
_cell_formula_units_Z   1
loop_
 _symmetry_equiv_pos_site_id
 _symmetry_equiv_pos_as_xyz
  1  'x, y, z'
loop_
 _atom_site_type_symbol
 _atom_site_label
 _atom_site_symmetry_multiplicity
 _atom_site_fract_x
 _atom_site_fract_y
 _atom_site_fract_z
 _atom_site_occupancy
  Ho  Ho0  1  0.281134  0.181334  0.462467  1
  Ho  Ho1  1  0.718866  0.818666  0.537533  1
  Ho  Ho2  1  0.281134  0.818666  0.099800  1
  Ho  Ho3  1  0.718866  0.181334  0.900200  1
  Er  Er4  1  0.620670  0.311651  0.309019  1
  Er  Er5  1  0.379330  0.688349  0.690981  1
  Er  Er6  1  0.002633  0.311651  0.690981  1
  Er  Er7  1  0.997367  0.688349  0.309019  1
  Er  Er8  1  0.214021  0.410869  0.196848  1
  Er  Er9  1  0.785979  0.589131  0.803152  1
  Er  Er10  1  0.214021  0.017173  0.803152  1
  Er  Er11  1  0.785979  0.982827  0.196848  1
  Co  Co12  1  0.000000  0.376065  0.376065  1
  Co  Co13  1  0.000000  0.623935  0.623935  1
  Co  Co14  1  0.388848  0.888848  0.500000  1
  Co  Co15  1  0.611152  0.111152  0.500000  1
  Bi  Bi16  1  0.500000  0.500000  0.000000  1
  Os  Os17  1  0.000000  0.000000  0.000000  1
