# generated using pymatgen
data_Y3Er8LuRu4
_symmetry_space_group_name_H-M   'P 1'
_cell_length_a   6.26823491
_cell_length_b   7.31194912
_cell_length_c   9.03690087
_cell_angle_alpha   90.03993399
_cell_angle_beta   90.12425776
_cell_angle_gamma   89.87936986
_symmetry_Int_Tables_number   1
_chemical_formula_structural   Y3Er8LuRu4
_chemical_formula_sum   'Y3 Er8 Lu1 Ru4'
_cell_volume   414.18641952
_cell_formula_units_Z   1
loop_
 _symmetry_equiv_pos_site_id
 _symmetry_equiv_pos_as_xyz
  1  'x, y, z'
loop_
 _atom_site_type_symbol
 _atom_site_label
 _atom_site_symmetry_multiplicity
 _atom_site_fract_x
 _atom_site_fract_y
 _atom_site_fract_z
 _atom_site_occupancy
  Y  Y0  1  0.870036  0.539241  0.249567  1
  Y  Y1  1  0.630721  0.040824  0.249204  1
  Y  Y2  1  0.131340  0.460056  0.750605  1
  Er  Er3  1  0.333341  0.676969  0.063722  1
  Er  Er4  1  0.167180  0.175301  0.435640  1
  Er  Er5  1  0.666135  0.323233  0.564437  1
  Er  Er6  1  0.832968  0.825261  0.936238  1
  Er  Er7  1  0.666045  0.323035  0.936044  1
  Er  Er8  1  0.832483  0.824708  0.564292  1
  Er  Er9  1  0.333624  0.676581  0.436080  1
  Er  Er10  1  0.367296  0.958893  0.750705  1
  Lu  Lu11  1  0.167011  0.174530  0.063898  1
  Ru  Ru12  1  0.043900  0.885925  0.249324  1
  Ru  Ru13  1  0.454906  0.385024  0.249327  1
  Ru  Ru14  1  0.960918  0.113981  0.751218  1
  Ru  Ru15  1  0.542096  0.616438  0.749700  1
