# generated using pymatgen
data_DyY3Sc4(CrB6)4
_symmetry_space_group_name_H-M   'P 1'
_cell_length_a   3.46565800
_cell_length_b   9.00103100
_cell_length_c   11.36031400
_cell_angle_alpha   89.99973519
_cell_angle_beta   90.00000000
_cell_angle_gamma   90.00000000
_symmetry_Int_Tables_number   1
_chemical_formula_structural   DyY3Sc4(CrB6)4
_chemical_formula_sum   'Dy1 Y3 Sc4 Cr4 B24'
_cell_volume   354.37925933
_cell_formula_units_Z   1
loop_
 _symmetry_equiv_pos_site_id
 _symmetry_equiv_pos_as_xyz
  1  'x, y, z'
loop_
 _atom_site_type_symbol
 _atom_site_label
 _atom_site_symmetry_multiplicity
 _atom_site_fract_x
 _atom_site_fract_y
 _atom_site_fract_z
 _atom_site_occupancy
  Dy  Dy0  1  0.000000  0.822864  0.085268  1
  Y  Y1  1  0.000000  0.177132  0.914801  1
  Y  Y2  1  0.000000  0.322830  0.414738  1
  Y  Y3  1  0.000000  0.677208  0.585214  1
  Sc  Sc4  1  0.000000  0.443250  0.130913  1
  Sc  Sc5  1  0.000000  0.556866  0.869156  1
  Sc  Sc6  1  0.000000  0.943218  0.369083  1
  Sc  Sc7  1  0.000000  0.056705  0.630873  1
  Cr  Cr8  1  0.000000  0.141580  0.182141  1
  Cr  Cr9  1  0.000000  0.858307  0.817946  1
  Cr  Cr10  1  0.000000  0.641749  0.317749  1
  Cr  Cr11  1  0.000000  0.358338  0.682137  1
  B  B12  1  0.500000  0.054800  0.067975  1
  B  B13  1  0.500000  0.944895  0.932136  1
  B  B14  1  0.500000  0.555008  0.432024  1
  B  B15  1  0.500000  0.445033  0.567945  1
  B  B16  1  0.500000  0.253154  0.082891  1
  B  B17  1  0.500000  0.746858  0.917240  1
  B  B18  1  0.500000  0.753213  0.417069  1
  B  B19  1  0.500000  0.246772  0.582884  1
  B  B20  1  0.500000  0.294538  0.235460  1
  B  B21  1  0.500000  0.705458  0.764559  1
  B  B22  1  0.500000  0.794580  0.264393  1
  B  B23  1  0.500000  0.205424  0.735495  1
  B  B24  1  0.500000  0.129429  0.316498  1
  B  B25  1  0.500000  0.870517  0.683475  1
  B  B26  1  0.500000  0.629612  0.183373  1
  B  B27  1  0.500000  0.370522  0.816567  1
  B  B28  1  0.500000  0.482866  0.286352  1
  B  B29  1  0.500000  0.517239  0.713648  1
  B  B30  1  0.500000  0.982673  0.213534  1
  B  B31  1  0.500000  0.017185  0.786409  1
  B  B32  1  0.500000  0.095834  0.474002  1
  B  B33  1  0.500000  0.904158  0.525985  1
  B  B34  1  0.500000  0.595986  0.026045  1
  B  B35  1  0.500000  0.404200  0.974021  1
