# generated using pymatgen
data_Ce4In2GeIr3
_symmetry_space_group_name_H-M   'P 1'
_cell_length_a   7.70917952
_cell_length_b   7.70918002
_cell_length_c   3.83162800
_cell_angle_alpha   90.00000000
_cell_angle_beta   90.00000000
_cell_angle_gamma   89.72734388
_symmetry_Int_Tables_number   1
_chemical_formula_structural   Ce4In2GeIr3
_chemical_formula_sum   'Ce4 In2 Ge1 Ir3'
_cell_volume   227.71663989
_cell_formula_units_Z   1
loop_
 _symmetry_equiv_pos_site_id
 _symmetry_equiv_pos_as_xyz
  1  'x, y, z'
loop_
 _atom_site_type_symbol
 _atom_site_label
 _atom_site_symmetry_multiplicity
 _atom_site_fract_x
 _atom_site_fract_y
 _atom_site_fract_z
 _atom_site_occupancy
  Ce  Ce0  1  0.685137  0.167655  0.500000  1
  Ce  Ce1  1  0.332345  0.814863  0.500000  1
  Ce  Ce2  1  0.160814  0.339186  0.500000  1
  Ce  Ce3  1  0.827240  0.672760  0.500000  1
  In  In4  1  0.999756  0.995288  0.000000  1
  In  In5  1  0.504712  0.500244  0.000000  1
  Ge  Ge6  1  0.373947  0.126053  0.000000  1
  Ir  Ir7  1  0.136533  0.635106  0.000000  1
  Ir  Ir8  1  0.864894  0.363467  0.000000  1
  Ir  Ir9  1  0.614621  0.885379  0.000000  1
