# generated using pymatgen
data_Lu4NpTc6Mo
_symmetry_space_group_name_H-M   'P 1'
_cell_length_a   5.27506518
_cell_length_b   5.27506614
_cell_length_c   8.92350700
_cell_angle_alpha   90.00000000
_cell_angle_beta   90.00000000
_cell_angle_gamma   115.83380141
_symmetry_Int_Tables_number   1
_chemical_formula_structural   Lu4NpTc6Mo
_chemical_formula_sum   'Lu4 Np1 Tc6 Mo1'
_cell_volume   223.49286494
_cell_formula_units_Z   1
loop_
 _symmetry_equiv_pos_site_id
 _symmetry_equiv_pos_as_xyz
  1  'x, y, z'
loop_
 _atom_site_type_symbol
 _atom_site_label
 _atom_site_symmetry_multiplicity
 _atom_site_fract_x
 _atom_site_fract_y
 _atom_site_fract_z
 _atom_site_occupancy
  Lu  Lu0  1  0.329838  0.670162  0.444517  1
  Lu  Lu1  1  0.663863  0.336137  0.570156  1
  Lu  Lu2  1  0.663863  0.336137  0.929844  1
  Lu  Lu3  1  0.329838  0.670162  0.055483  1
  Np  Np4  1  0.849022  0.150978  0.250000  1
  Tc  Tc5  1  0.991027  0.008973  0.487561  1
  Tc  Tc6  1  0.991027  0.008973  0.012439  1
  Tc  Tc7  1  0.838766  0.623256  0.250000  1
  Tc  Tc8  1  0.376744  0.161234  0.250000  1
  Tc  Tc9  1  0.163269  0.352888  0.750000  1
  Tc  Tc10  1  0.647112  0.836731  0.750000  1
  Mo  Mo11  1  0.155627  0.844373  0.750000  1
