# generated using pymatgen
data_Ta18Al9Si
_symmetry_space_group_name_H-M   'P 1'
_cell_length_a   9.93595699
_cell_length_b   9.93593714
_cell_length_c   9.93595000
_cell_angle_alpha   93.82805681
_cell_angle_beta   93.82760992
_cell_angle_gamma   150.05151051
_symmetry_Int_Tables_number   1
_chemical_formula_structural   Ta18Al9Si
_chemical_formula_sum   'Ta18 Al9 Si1'
_cell_volume   473.06293515
_cell_formula_units_Z   1
loop_
 _symmetry_equiv_pos_site_id
 _symmetry_equiv_pos_as_xyz
  1  'x, y, z'
loop_
 _atom_site_type_symbol
 _atom_site_label
 _atom_site_symmetry_multiplicity
 _atom_site_fract_x
 _atom_site_fract_y
 _atom_site_fract_z
 _atom_site_occupancy
  Ta  Ta0  1  0.565063  0.791720  0.355565  1
  Ta  Ta1  1  0.084499  0.157789  0.239162  1
  Ta  Ta2  1  0.581378  0.342206  0.926718  1
  Ta  Ta3  1  0.654667  0.581364  0.239161  1
  Ta  Ta4  1  0.342216  0.415504  0.760848  1
  Ta  Ta5  1  0.791707  0.436146  0.226641  1
  Ta  Ta6  1  0.415503  0.654660  0.073296  1
  Ta  Ta7  1  0.157786  0.918628  0.073292  1
  Ta  Ta8  1  0.708295  0.934933  0.644430  1
  Ta  Ta9  1  0.436163  0.209500  0.644446  1
  Ta  Ta10  1  0.918632  0.845340  0.760827  1
  Ta  Ta11  1  0.063838  0.708284  0.773338  1
  Ta  Ta12  1  0.209509  0.565075  0.773360  1
  Ta  Ta13  1  0.250014  0.750022  0.500002  1
  Ta  Ta14  1  0.290486  0.063841  0.355557  1
  Ta  Ta15  1  0.749979  0.249980  0.499995  1
  Ta  Ta16  1  0.845343  0.084492  0.926703  1
  Ta  Ta17  1  0.934937  0.290500  0.226656  1
  Al  Al18  1  0.372390  0.872415  0.244810  1
  Al  Al19  1  0.872397  0.627598  0.499998  1
  Al  Al20  1  0.499937  0.000058  0.000000  1
  Al  Al21  1  0.127597  0.372408  0.500001  1
  Al  Al22  1  0.627589  0.127613  0.755198  1
  Al  Al23  1  0.000031  0.499971  0.000000  1
  Al  Al24  1  0.499959  0.499941  0.499908  1
  Al  Al25  1  0.000058  0.000041  0.500088  1
  Al  Al26  1  0.750015  0.749983  0.999998  1
  Si  Si27  1  0.250013  0.249988  0.000001  1
