# generated using pymatgen
data_Hf2TaGa2Ge
_symmetry_space_group_name_H-M   'P 1'
_cell_length_a   5.52342600
_cell_length_b   8.39652400
_cell_length_c   9.13086300
_cell_angle_alpha   90.00000000
_cell_angle_beta   90.00000000
_cell_angle_gamma   90.00000000
_symmetry_Int_Tables_number   1
_chemical_formula_structural   Hf2TaGa2Ge
_chemical_formula_sum   'Hf8 Ta4 Ga8 Ge4'
_cell_volume   423.46731986
_cell_formula_units_Z   4
loop_
 _symmetry_equiv_pos_site_id
 _symmetry_equiv_pos_as_xyz
  1  'x, y, z'
loop_
 _atom_site_type_symbol
 _atom_site_label
 _atom_site_symmetry_multiplicity
 _atom_site_fract_x
 _atom_site_fract_y
 _atom_site_fract_z
 _atom_site_occupancy
  Hf  Hf0  1  0.750000  0.470315  0.626395  1
  Hf  Hf1  1  0.250000  0.529685  0.373605  1
  Hf  Hf2  1  0.750000  0.970315  0.373605  1
  Hf  Hf3  1  0.250000  0.029685  0.626395  1
  Hf  Hf4  1  0.750000  0.371418  0.182972  1
  Hf  Hf5  1  0.250000  0.628582  0.817028  1
  Hf  Hf6  1  0.750000  0.871418  0.817028  1
  Hf  Hf7  1  0.250000  0.128582  0.182972  1
  Ta  Ta8  1  0.000000  0.750000  0.109592  1
  Ta  Ta9  1  0.500000  0.250000  0.890408  1
  Ta  Ta10  1  0.000000  0.250000  0.890408  1
  Ta  Ta11  1  0.500000  0.750000  0.109592  1
  Ga  Ga12  1  0.000000  0.750000  0.570773  1
  Ga  Ga13  1  0.500000  0.250000  0.429227  1
  Ga  Ga14  1  0.000000  0.250000  0.429227  1
  Ga  Ga15  1  0.500000  0.750000  0.570773  1
  Ga  Ga16  1  0.750000  0.134692  0.650271  1
  Ga  Ga17  1  0.250000  0.865308  0.349729  1
  Ga  Ga18  1  0.750000  0.634692  0.349729  1
  Ga  Ga19  1  0.250000  0.365308  0.650271  1
  Ge  Ge20  1  0.750000  0.049281  0.080525  1
  Ge  Ge21  1  0.250000  0.950719  0.919475  1
  Ge  Ge22  1  0.750000  0.549281  0.919475  1
  Ge  Ge23  1  0.250000  0.450719  0.080525  1
