# generated using pymatgen
data_YH5Os
_symmetry_space_group_name_H-M   'P 1'
_cell_length_a   4.43408600
_cell_length_b   4.74687200
_cell_length_c   11.68087300
_cell_angle_alpha   90.00000000
_cell_angle_beta   90.00000000
_cell_angle_gamma   90.00000000
_symmetry_Int_Tables_number   1
_chemical_formula_structural   YH5Os
_chemical_formula_sum   'Y4 H20 Os4'
_cell_volume   245.85946671
_cell_formula_units_Z   4
loop_
 _symmetry_equiv_pos_site_id
 _symmetry_equiv_pos_as_xyz
  1  'x, y, z'
loop_
 _atom_site_type_symbol
 _atom_site_label
 _atom_site_symmetry_multiplicity
 _atom_site_fract_x
 _atom_site_fract_y
 _atom_site_fract_z
 _atom_site_occupancy
  Y  Y0  1  0.280450  0.143628  0.648751  1
  Y  Y1  1  0.780450  0.356372  0.351249  1
  Y  Y2  1  0.219550  0.856372  0.148751  1
  Y  Y3  1  0.719550  0.643628  0.851249  1
  H  H4  1  0.562013  0.366516  0.519942  1
  H  H5  1  0.062013  0.133484  0.480058  1
  H  H6  1  0.937987  0.633484  0.019942  1
  H  H7  1  0.437987  0.866516  0.980058  1
  H  H8  1  0.116444  0.943668  0.818125  1
  H  H9  1  0.616444  0.556332  0.181875  1
  H  H10  1  0.383556  0.056332  0.318125  1
  H  H11  1  0.883556  0.443668  0.681875  1
  H  H12  1  0.201611  0.442016  0.830469  1
  H  H13  1  0.701611  0.057984  0.169531  1
  H  H14  1  0.298389  0.557984  0.330469  1
  H  H15  1  0.798389  0.942016  0.669531  1
  H  H16  1  0.614991  0.136963  0.823844  1
  H  H17  1  0.114991  0.363037  0.176156  1
  H  H18  1  0.885009  0.863037  0.323844  1
  H  H19  1  0.385009  0.636963  0.676156  1
  H  H20  1  0.974405  0.092856  0.996639  1
  H  H21  1  0.474405  0.407144  0.003361  1
  H  H22  1  0.525595  0.907144  0.496639  1
  H  H23  1  0.025595  0.592856  0.503361  1
  Os  Os24  1  0.311242  0.151244  0.908581  1
  Os  Os25  1  0.811242  0.348756  0.091419  1
  Os  Os26  1  0.188758  0.848756  0.408581  1
  Os  Os27  1  0.688758  0.651244  0.591419  1
