# generated using pymatgen
data_CaEr3As6Ir7
_symmetry_space_group_name_H-M   'P 1'
_cell_length_a   7.28796250
_cell_length_b   7.28796292
_cell_length_c   7.25241500
_cell_angle_alpha   109.37243858
_cell_angle_beta   109.37243976
_cell_angle_gamma   109.56982337
_symmetry_Int_Tables_number   1
_chemical_formula_structural   CaEr3As6Ir7
_chemical_formula_sum   'Ca1 Er3 As6 Ir7'
_cell_volume   296.89372860
_cell_formula_units_Z   1
loop_
 _symmetry_equiv_pos_site_id
 _symmetry_equiv_pos_as_xyz
  1  'x, y, z'
loop_
 _atom_site_type_symbol
 _atom_site_label
 _atom_site_symmetry_multiplicity
 _atom_site_fract_x
 _atom_site_fract_y
 _atom_site_fract_z
 _atom_site_occupancy
  Ca  Ca0  1  0.000000  0.000000  0.500000  1
  Er  Er1  1  0.500000  0.000000  0.000000  1
  Er  Er2  1  0.000000  0.500000  0.000000  1
  Er  Er3  1  0.500000  0.500000  0.500000  1
  As  As4  1  0.682920  0.682920  0.001961  1
  As  As5  1  0.317080  0.317080  0.998039  1
  As  As6  1  0.000000  0.682920  0.680959  1
  As  As7  1  0.000000  0.317080  0.319041  1
  As  As8  1  0.682920  0.000000  0.680959  1
  As  As9  1  0.317080  0.000000  0.319041  1
  Ir  Ir10  1  0.000000  0.000000  0.000000  1
  Ir  Ir11  1  0.251983  0.503967  0.751983  1
  Ir  Ir12  1  0.748017  0.251983  0.500000  1
  Ir  Ir13  1  0.503967  0.251983  0.751983  1
  Ir  Ir14  1  0.496033  0.748017  0.248017  1
  Ir  Ir15  1  0.748017  0.496033  0.248017  1
  Ir  Ir16  1  0.251983  0.748017  0.500000  1
