# generated using pymatgen
data_TbYb3(Os2O7)2
_symmetry_space_group_name_H-M   'P 1'
_cell_length_a   7.25502010
_cell_length_b   7.26720596
_cell_length_c   7.26720600
_cell_angle_alpha   59.99999980
_cell_angle_beta   59.94442203
_cell_angle_gamma   59.94442471
_symmetry_Int_Tables_number   1
_chemical_formula_structural   TbYb3(Os2O7)2
_chemical_formula_sum   'Tb1 Yb3 Os4 O14'
_cell_volume   270.70309736
_cell_formula_units_Z   1
loop_
 _symmetry_equiv_pos_site_id
 _symmetry_equiv_pos_as_xyz
  1  'x, y, z'
loop_
 _atom_site_type_symbol
 _atom_site_label
 _atom_site_symmetry_multiplicity
 _atom_site_fract_x
 _atom_site_fract_y
 _atom_site_fract_z
 _atom_site_occupancy
  Tb  Tb0  1  0.125000  0.625000  0.625000  1
  Yb  Yb1  1  0.625000  0.625000  0.125000  1
  Yb  Yb2  1  0.625000  0.625000  0.625000  1
  Yb  Yb3  1  0.625000  0.125000  0.625000  1
  Os  Os4  1  0.125000  0.125000  0.125000  1
  Os  Os5  1  0.625000  0.125000  0.125000  1
  Os  Os6  1  0.125000  0.625000  0.125000  1
  Os  Os7  1  0.125000  0.125000  0.625000  1
  O  O8  1  0.051944  0.449885  0.449885  1
  O  O9  1  0.803900  0.802449  0.196825  1
  O  O10  1  0.803900  0.196825  0.196825  1
  O  O11  1  0.446100  0.053175  0.447551  1
  O  O12  1  0.051944  0.449885  0.048286  1
  O  O13  1  0.756440  0.747854  0.747854  1
  O  O14  1  0.051944  0.048286  0.449885  1
  O  O15  1  0.198056  0.800115  0.201714  1
  O  O16  1  0.198056  0.201714  0.800115  1
  O  O17  1  0.493560  0.502146  0.502146  1
  O  O18  1  0.803900  0.196825  0.802449  1
  O  O19  1  0.446100  0.053175  0.053175  1
  O  O20  1  0.446100  0.447551  0.053175  1
  O  O21  1  0.198056  0.800115  0.800115  1
