# generated using pymatgen
data_Cs4TaRhCl12
_symmetry_space_group_name_H-M   'P 1'
_cell_length_a   7.51252400
_cell_length_b   7.51252400
_cell_length_c   10.92115100
_cell_angle_alpha   90.00000000
_cell_angle_beta   90.00000000
_cell_angle_gamma   90.00000000
_symmetry_Int_Tables_number   1
_chemical_formula_structural   Cs4TaRhCl12
_chemical_formula_sum   'Cs4 Ta1 Rh1 Cl12'
_cell_volume   616.36810417
_cell_formula_units_Z   1
loop_
 _symmetry_equiv_pos_site_id
 _symmetry_equiv_pos_as_xyz
  1  'x, y, z'
loop_
 _atom_site_type_symbol
 _atom_site_label
 _atom_site_symmetry_multiplicity
 _atom_site_fract_x
 _atom_site_fract_y
 _atom_site_fract_z
 _atom_site_occupancy
  Cs  Cs0  1  0.500000  0.000000  0.784830  1
  Cs  Cs1  1  0.000000  0.500000  0.215170  1
  Cs  Cs2  1  0.500000  0.000000  0.215170  1
  Cs  Cs3  1  0.000000  0.500000  0.784830  1
  Ta  Ta4  1  0.500000  0.500000  0.500000  1
  Rh  Rh5  1  0.000000  0.000000  0.000000  1
  Cl  Cl6  1  0.000000  0.000000  0.781443  1
  Cl  Cl7  1  0.500000  0.500000  0.281741  1
  Cl  Cl8  1  0.723012  0.723012  0.500000  1
  Cl  Cl9  1  0.224128  0.224128  0.000000  1
  Cl  Cl10  1  0.723012  0.276988  0.500000  1
  Cl  Cl11  1  0.224128  0.775872  0.000000  1
  Cl  Cl12  1  0.000000  0.000000  0.218557  1
  Cl  Cl13  1  0.500000  0.500000  0.718259  1
  Cl  Cl14  1  0.276988  0.276988  0.500000  1
  Cl  Cl15  1  0.775872  0.775872  0.000000  1
  Cl  Cl16  1  0.276988  0.723012  0.500000  1
  Cl  Cl17  1  0.775872  0.224128  0.000000  1
