# generated using pymatgen
data_Yb5Pd2Rh
_symmetry_space_group_name_H-M   'P 1'
_cell_length_a   10.91836500
_cell_length_b   10.91836500
_cell_length_c   6.16977900
_cell_angle_alpha   90.00000000
_cell_angle_beta   90.00000000
_cell_angle_gamma   90.00000000
_symmetry_Int_Tables_number   1
_chemical_formula_structural   Yb5Pd2Rh
_chemical_formula_sum   'Yb20 Pd8 Rh4'
_cell_volume   735.50363810
_cell_formula_units_Z   4
loop_
 _symmetry_equiv_pos_site_id
 _symmetry_equiv_pos_as_xyz
  1  'x, y, z'
loop_
 _atom_site_type_symbol
 _atom_site_label
 _atom_site_symmetry_multiplicity
 _atom_site_fract_x
 _atom_site_fract_y
 _atom_site_fract_z
 _atom_site_occupancy
  Yb  Yb0  1  0.295013  0.081807  0.339454  1
  Yb  Yb1  1  0.295013  0.918193  0.839454  1
  Yb  Yb2  1  0.704987  0.081807  0.839454  1
  Yb  Yb3  1  0.704987  0.918193  0.339454  1
  Yb  Yb4  1  0.581807  0.795013  0.839454  1
  Yb  Yb5  1  0.581807  0.204987  0.339454  1
  Yb  Yb6  1  0.418193  0.795013  0.339454  1
  Yb  Yb7  1  0.418193  0.204987  0.839454  1
  Yb  Yb8  1  0.204987  0.418193  0.660546  1
  Yb  Yb9  1  0.204987  0.581807  0.160546  1
  Yb  Yb10  1  0.795013  0.418193  0.160546  1
  Yb  Yb11  1  0.795013  0.581807  0.660546  1
  Yb  Yb12  1  0.918193  0.704987  0.160546  1
  Yb  Yb13  1  0.918193  0.295013  0.660546  1
  Yb  Yb14  1  0.081807  0.704987  0.660546  1
  Yb  Yb15  1  0.081807  0.295013  0.160546  1
  Yb  Yb16  1  0.000000  0.000000  0.500000  1
  Yb  Yb17  1  0.000000  0.000000  0.000000  1
  Yb  Yb18  1  0.500000  0.500000  0.000000  1
  Yb  Yb19  1  0.500000  0.500000  0.500000  1
  Pd  Pd20  1  0.844172  0.155828  0.250000  1
  Pd  Pd21  1  0.844172  0.844172  0.750000  1
  Pd  Pd22  1  0.155828  0.155828  0.750000  1
  Pd  Pd23  1  0.155828  0.844172  0.250000  1
  Pd  Pd24  1  0.655828  0.344172  0.750000  1
  Pd  Pd25  1  0.655828  0.655828  0.250000  1
  Pd  Pd26  1  0.344172  0.344172  0.250000  1
  Pd  Pd27  1  0.344172  0.655828  0.750000  1
  Rh  Rh28  1  0.500000  0.000000  0.086496  1
  Rh  Rh29  1  0.500000  0.000000  0.586496  1
  Rh  Rh30  1  0.000000  0.500000  0.913504  1
  Rh  Rh31  1  0.000000  0.500000  0.413504  1
