# generated using pymatgen
data_Ho8Zn(Si4Pt)3
_symmetry_space_group_name_H-M   'P 1'
_cell_length_a   8.11949500
_cell_length_b   8.11949481
_cell_length_c   8.10574000
_cell_angle_alpha   90.00000000
_cell_angle_beta   90.00000000
_cell_angle_gamma   119.99999672
_symmetry_Int_Tables_number   1
_chemical_formula_structural   Ho8Zn(Si4Pt)3
_chemical_formula_sum   'Ho8 Zn1 Si12 Pt3'
_cell_volume   462.78720399
_cell_formula_units_Z   1
loop_
 _symmetry_equiv_pos_site_id
 _symmetry_equiv_pos_as_xyz
  1  'x, y, z'
loop_
 _atom_site_type_symbol
 _atom_site_label
 _atom_site_symmetry_multiplicity
 _atom_site_fract_x
 _atom_site_fract_y
 _atom_site_fract_z
 _atom_site_occupancy
  Ho  Ho0  1  0.502349  0.004696  0.251161  1
  Ho  Ho1  1  0.498795  0.997592  0.749012  1
  Ho  Ho2  1  0.995304  0.497651  0.251161  1
  Ho  Ho3  1  0.002408  0.501205  0.749012  1
  Ho  Ho4  1  0.502349  0.497651  0.251161  1
  Ho  Ho5  1  0.498795  0.501205  0.749012  1
  Ho  Ho6  1  0.000000  0.000000  0.249508  1
  Ho  Ho7  1  0.000000  0.000000  0.749086  1
  Zn  Zn8  1  0.333333  0.666667  0.010479  1
  Si  Si9  1  0.165695  0.331389  0.997937  1
  Si  Si10  1  0.833607  0.667215  0.000799  1
  Si  Si11  1  0.668611  0.834305  0.997937  1
  Si  Si12  1  0.834465  0.668930  0.501568  1
  Si  Si13  1  0.332785  0.166393  0.000799  1
  Si  Si14  1  0.165575  0.331149  0.498050  1
  Si  Si15  1  0.165695  0.834305  0.997937  1
  Si  Si16  1  0.331070  0.165535  0.501568  1
  Si  Si17  1  0.833607  0.166393  0.000799  1
  Si  Si18  1  0.668851  0.834425  0.498050  1
  Si  Si19  1  0.834465  0.165535  0.501568  1
  Si  Si20  1  0.165575  0.834425  0.498050  1
  Pt  Pt21  1  0.666667  0.333333  0.995297  1
  Pt  Pt22  1  0.666667  0.333333  0.503774  1
  Pt  Pt23  1  0.333333  0.666667  0.496277  1
