# generated using pymatgen
data_TbTa9Se16
_symmetry_space_group_name_H-M   'P 1'
_cell_length_a   6.99745300
_cell_length_b   6.99745233
_cell_length_c   13.91112200
_cell_angle_alpha   90.00000000
_cell_angle_beta   90.00000000
_cell_angle_gamma   120.00000788
_symmetry_Int_Tables_number   1
_chemical_formula_structural   TbTa9Se16
_chemical_formula_sum   'Tb1 Ta9 Se16'
_cell_volume   589.89225665
_cell_formula_units_Z   1
loop_
 _symmetry_equiv_pos_site_id
 _symmetry_equiv_pos_as_xyz
  1  'x, y, z'
loop_
 _atom_site_type_symbol
 _atom_site_label
 _atom_site_symmetry_multiplicity
 _atom_site_fract_x
 _atom_site_fract_y
 _atom_site_fract_z
 _atom_site_occupancy
  Tb  Tb0  1  0.000000  0.000000  0.500000  1
  Ta  Ta1  1  0.506694  0.493306  0.762728  1
  Ta  Ta2  1  0.013388  0.506694  0.237272  1
  Ta  Ta3  1  0.493306  0.986612  0.237272  1
  Ta  Ta4  1  0.506694  0.013388  0.762728  1
  Ta  Ta5  1  0.986612  0.493306  0.762728  1
  Ta  Ta6  1  0.493306  0.506694  0.237272  1
  Ta  Ta7  1  0.000000  0.000000  0.761584  1
  Ta  Ta8  1  0.000000  0.000000  0.238416  1
  Ta  Ta9  1  0.000000  0.000000  0.000000  1
  Se  Se10  1  0.830106  0.169894  0.357263  1
  Se  Se11  1  0.830106  0.660212  0.357263  1
  Se  Se12  1  0.339788  0.169894  0.357263  1
  Se  Se13  1  0.664084  0.832043  0.882378  1
  Se  Se14  1  0.169894  0.339788  0.642737  1
  Se  Se15  1  0.167957  0.832043  0.882378  1
  Se  Se16  1  0.167957  0.335916  0.882378  1
  Se  Se17  1  0.832043  0.167957  0.117622  1
  Se  Se18  1  0.335916  0.167957  0.117622  1
  Se  Se19  1  0.660212  0.830106  0.642737  1
  Se  Se20  1  0.333333  0.666667  0.113958  1
  Se  Se21  1  0.666667  0.333333  0.638441  1
  Se  Se22  1  0.666667  0.333333  0.886042  1
  Se  Se23  1  0.333333  0.666667  0.361559  1
  Se  Se24  1  0.832043  0.664084  0.117622  1
  Se  Se25  1  0.169894  0.830106  0.642737  1
