# generated using pymatgen
data_Hf8Zr2Ga2(SnBi)3
_symmetry_space_group_name_H-M   'P 1'
_cell_length_a   8.77083350
_cell_length_b   8.73401153
_cell_length_c   5.86376800
_cell_angle_alpha   90.00000000
_cell_angle_beta   90.00000000
_cell_angle_gamma   119.97108993
_symmetry_Int_Tables_number   1
_chemical_formula_structural   Hf8Zr2Ga2(SnBi)3
_chemical_formula_sum   'Hf8 Zr2 Ga2 Sn3 Bi3'
_cell_volume   389.12441626
_cell_formula_units_Z   1
loop_
 _symmetry_equiv_pos_site_id
 _symmetry_equiv_pos_as_xyz
  1  'x, y, z'
loop_
 _atom_site_type_symbol
 _atom_site_label
 _atom_site_symmetry_multiplicity
 _atom_site_fract_x
 _atom_site_fract_y
 _atom_site_fract_z
 _atom_site_occupancy
  Hf  Hf0  1  0.000439  0.268318  0.250000  1
  Hf  Hf1  1  0.736231  0.000758  0.750000  1
  Hf  Hf2  1  0.739656  0.732135  0.250000  1
  Hf  Hf3  1  0.673071  0.339577  0.501829  1
  Hf  Hf4  1  0.992736  0.727336  0.750000  1
  Hf  Hf5  1  0.329896  0.663081  0.998154  1
  Hf  Hf6  1  0.673071  0.339577  0.998171  1
  Hf  Hf7  1  0.329896  0.663081  0.501846  1
  Zr  Zr8  1  0.264307  0.271381  0.750000  1
  Zr  Zr9  1  0.261315  0.994311  0.250000  1
  Ga  Ga10  1  0.999148  0.999797  0.998233  1
  Ga  Ga11  1  0.999148  0.999797  0.501767  1
  Sn  Sn12  1  0.000965  0.608489  0.250000  1
  Sn  Sn13  1  0.998858  0.389848  0.750000  1
  Sn  Sn14  1  0.610957  0.612888  0.750000  1
  Bi  Bi15  1  0.611541  0.999242  0.250000  1
  Bi  Bi16  1  0.387621  0.000544  0.750000  1
  Bi  Bi17  1  0.391144  0.389839  0.250000  1
