# generated using pymatgen
data_Ho9Er3TlCo4Cu
_symmetry_space_group_name_H-M   'P 1'
_cell_length_a   8.25932213
_cell_length_b   8.25877749
_cell_length_c   8.25932250
_cell_angle_alpha   111.06785850
_cell_angle_beta   110.68213836
_cell_angle_gamma   106.70151215
_symmetry_Int_Tables_number   1
_chemical_formula_structural   Ho9Er3TlCo4Cu
_chemical_formula_sum   'Ho9 Er3 Tl1 Co4 Cu1'
_cell_volume   432.91841550
_cell_formula_units_Z   1
loop_
 _symmetry_equiv_pos_site_id
 _symmetry_equiv_pos_as_xyz
  1  'x, y, z'
loop_
 _atom_site_type_symbol
 _atom_site_label
 _atom_site_symmetry_multiplicity
 _atom_site_fract_x
 _atom_site_fract_y
 _atom_site_fract_z
 _atom_site_occupancy
  Ho  Ho0  1  0.684246  0.989872  0.305624  1
  Ho  Ho1  1  0.185328  0.290211  0.475333  1
  Ho  Ho2  1  0.814861  0.709774  0.524772  1
  Ho  Ho3  1  0.185002  0.709774  0.894911  1
  Ho  Ho4  1  0.814878  0.290211  0.104885  1
  Ho  Ho5  1  0.416865  0.217843  0.199193  1
  Ho  Ho6  1  0.582995  0.782228  0.800622  1
  Ho  Ho7  1  0.018649  0.217843  0.800978  1
  Ho  Ho8  1  0.981606  0.782228  0.199233  1
  Er  Er9  1  0.315781  0.621678  0.305897  1
  Er  Er10  1  0.684128  0.378379  0.694251  1
  Er  Er11  1  0.315847  0.009959  0.694114  1
  Tl  Tl12  1  0.499942  0.499842  0.999901  1
  Co  Co13  1  0.112838  0.612818  0.499981  1
  Co  Co14  1  0.887297  0.387396  0.500099  1
  Co  Co15  1  0.376835  0.999978  0.377061  1
  Co  Co16  1  0.622916  0.999978  0.623144  1
  Cu  Cu17  1  0.999988  0.999987  0.000000  1
