# generated using pymatgen
data_Ba3CuRh2N3
_symmetry_space_group_name_H-M   'P 1'
_cell_length_a   8.03052058
_cell_length_b   8.03052034
_cell_length_c   9.73697092
_cell_angle_alpha   78.60663671
_cell_angle_beta   78.60663957
_cell_angle_gamma   40.89204960
_symmetry_Int_Tables_number   1
_chemical_formula_structural   Ba3CuRh2N3
_chemical_formula_sum   'Ba6 Cu2 Rh4 N6'
_cell_volume   401.82634135
_cell_formula_units_Z   2
loop_
 _symmetry_equiv_pos_site_id
 _symmetry_equiv_pos_as_xyz
  1  'x, y, z'
loop_
 _atom_site_type_symbol
 _atom_site_label
 _atom_site_symmetry_multiplicity
 _atom_site_fract_x
 _atom_site_fract_y
 _atom_site_fract_z
 _atom_site_occupancy
  Ba  Ba0  1  0.285303  0.714697  0.750000  1
  Ba  Ba1  1  0.714697  0.285303  0.250000  1
  Ba  Ba2  1  0.925178  0.411785  0.869420  1
  Ba  Ba3  1  0.588215  0.074822  0.630580  1
  Ba  Ba4  1  0.074822  0.588215  0.130580  1
  Ba  Ba5  1  0.411785  0.925178  0.369420  1
  Cu  Cu6  1  0.500000  0.000000  0.000000  1
  Cu  Cu7  1  0.000000  0.500000  0.500000  1
  Rh  Rh8  1  0.300555  0.857094  0.052033  1
  Rh  Rh9  1  0.142906  0.699445  0.447967  1
  Rh  Rh10  1  0.699445  0.142906  0.947967  1
  Rh  Rh11  1  0.857094  0.300555  0.552033  1
  N  N12  1  0.000000  0.000000  0.500000  1
  N  N13  1  0.000000  0.000000  0.000000  1
  N  N14  1  0.701307  0.620838  0.606081  1
  N  N15  1  0.379162  0.298693  0.893919  1
  N  N16  1  0.298693  0.379162  0.393919  1
  N  N17  1  0.620838  0.701307  0.106081  1
