# generated using pymatgen
data_YbMnH9
_symmetry_space_group_name_H-M   'P 1'
_cell_length_a   4.61919300
_cell_length_b   4.61919370
_cell_length_c   8.31644700
_cell_angle_alpha   90.00000000
_cell_angle_beta   90.00000000
_cell_angle_gamma   120.00000216
_symmetry_Int_Tables_number   1
_chemical_formula_structural   YbMnH9
_chemical_formula_sum   'Yb2 Mn2 H18'
_cell_volume   153.67411785
_cell_formula_units_Z   2
loop_
 _symmetry_equiv_pos_site_id
 _symmetry_equiv_pos_as_xyz
  1  'x, y, z'
loop_
 _atom_site_type_symbol
 _atom_site_label
 _atom_site_symmetry_multiplicity
 _atom_site_fract_x
 _atom_site_fract_y
 _atom_site_fract_z
 _atom_site_occupancy
  Yb  Yb0  1  0.000000  0.000000  0.000000  1
  Yb  Yb1  1  0.000000  0.000000  0.500000  1
  Mn  Mn2  1  0.333333  0.666667  0.250000  1
  Mn  Mn3  1  0.666667  0.333333  0.750000  1
  H  H4  1  0.472982  0.527018  0.379419  1
  H  H5  1  0.472982  0.945966  0.379419  1
  H  H6  1  0.054034  0.527018  0.379419  1
  H  H7  1  0.945966  0.472982  0.879419  1
  H  H8  1  0.143946  0.287894  0.250000  1
  H  H9  1  0.856054  0.143946  0.750000  1
  H  H10  1  0.287894  0.143946  0.750000  1
  H  H11  1  0.712106  0.856054  0.250000  1
  H  H12  1  0.143946  0.856054  0.250000  1
  H  H13  1  0.856054  0.712106  0.750000  1
  H  H14  1  0.472982  0.945966  0.120581  1
  H  H15  1  0.527018  0.472982  0.620581  1
  H  H16  1  0.945966  0.472982  0.620581  1
  H  H17  1  0.054034  0.527018  0.120581  1
  H  H18  1  0.472982  0.527018  0.120581  1
  H  H19  1  0.527018  0.054034  0.879419  1
  H  H20  1  0.527018  0.472982  0.879419  1
  H  H21  1  0.527018  0.054034  0.620581  1
