# generated using pymatgen
data_NdHoTa2Bi2O11
_symmetry_space_group_name_H-M   'P 1'
_cell_length_a   6.60532924
_cell_length_b   7.71989579
_cell_length_c   9.81228536
_cell_angle_alpha   101.37289553
_cell_angle_beta   90.02172854
_cell_angle_gamma   90.09769497
_symmetry_Int_Tables_number   1
_chemical_formula_structural   NdHoTa2Bi2O11
_chemical_formula_sum   'Nd2 Ho2 Ta4 Bi4 O22'
_cell_volume   490.52702277
_cell_formula_units_Z   2
loop_
 _symmetry_equiv_pos_site_id
 _symmetry_equiv_pos_as_xyz
  1  'x, y, z'
loop_
 _atom_site_type_symbol
 _atom_site_label
 _atom_site_symmetry_multiplicity
 _atom_site_fract_x
 _atom_site_fract_y
 _atom_site_fract_z
 _atom_site_occupancy
  Nd  Nd0  1  0.750924  0.368557  0.489531  1
  Nd  Nd1  1  0.249076  0.631443  0.510469  1
  Ho  Ho2  1  0.757591  0.872541  0.480677  1
  Ho  Ho3  1  0.242409  0.127459  0.519323  1
  Ta  Ta4  1  0.912720  0.701741  0.804428  1
  Ta  Ta5  1  0.087280  0.298259  0.195572  1
  Ta  Ta6  1  0.912877  0.200521  0.806274  1
  Ta  Ta7  1  0.087123  0.799479  0.193726  1
  Bi  Bi8  1  0.437690  0.955040  0.814969  1
  Bi  Bi9  1  0.562310  0.044960  0.185031  1
  Bi  Bi10  1  0.385895  0.456833  0.827743  1
  Bi  Bi11  1  0.614105  0.543167  0.172257  1
  O  O12  1  0.215983  0.727310  0.758709  1
  O  O13  1  0.784017  0.272690  0.241291  1
  O  O14  1  0.628462  0.662272  0.839222  1
  O  O15  1  0.371538  0.337728  0.160778  1
  O  O16  1  0.628529  0.255789  0.840559  1
  O  O17  1  0.371471  0.744211  0.159441  1
  O  O18  1  0.891197  0.137174  0.590929  1
  O  O19  1  0.108803  0.862826  0.409071  1
  O  O20  1  0.215058  0.149233  0.755307  1
  O  O21  1  0.784942  0.850767  0.244693  1
  O  O22  1  0.891197  0.658305  0.590616  1
  O  O23  1  0.108803  0.341695  0.409384  1
  O  O24  1  0.032632  0.555404  0.220285  1
  O  O25  1  0.967368  0.444596  0.779715  1
  O  O26  1  0.997572  0.756961  0.000435  1
  O  O27  1  0.002428  0.243039  0.999565  1
  O  O28  1  0.577759  0.602049  0.390961  1
  O  O29  1  0.422241  0.397951  0.609039  1
  O  O30  1  0.162313  0.050329  0.200154  1
  O  O31  1  0.837687  0.949671  0.799846  1
  O  O32  1  0.535818  0.099047  0.402101  1
  O  O33  1  0.464182  0.900953  0.597899  1
