# generated using pymatgen
data_YThCdPt2
_symmetry_space_group_name_H-M   'P 1'
_cell_length_a   7.84208700
_cell_length_b   7.93187200
_cell_length_c   3.76151700
_cell_angle_alpha   90.00000000
_cell_angle_beta   90.00000000
_cell_angle_gamma   90.00000000
_symmetry_Int_Tables_number   1
_chemical_formula_structural   YThCdPt2
_chemical_formula_sum   'Y2 Th2 Cd2 Pt4'
_cell_volume   233.97549900
_cell_formula_units_Z   2
loop_
 _symmetry_equiv_pos_site_id
 _symmetry_equiv_pos_as_xyz
  1  'x, y, z'
loop_
 _atom_site_type_symbol
 _atom_site_label
 _atom_site_symmetry_multiplicity
 _atom_site_fract_x
 _atom_site_fract_y
 _atom_site_fract_z
 _atom_site_occupancy
  Y  Y0  1  0.171867  0.329898  0.500000  1
  Y  Y1  1  0.328133  0.829898  0.500000  1
  Th  Th2  1  0.835435  0.669950  0.500000  1
  Th  Th3  1  0.664565  0.169950  0.500000  1
  Cd  Cd4  1  0.492047  0.502733  0.000000  1
  Cd  Cd5  1  0.007953  0.002733  0.000000  1
  Pt  Pt6  1  0.635046  0.868201  0.000000  1
  Pt  Pt7  1  0.125048  0.629219  0.000000  1
  Pt  Pt8  1  0.864954  0.368201  0.000000  1
  Pt  Pt9  1  0.374952  0.129219  0.000000  1
