# generated using pymatgen
data_Zr(BeAu)6
_symmetry_space_group_name_H-M   'P 1'
_cell_length_a   4.92318600
_cell_length_b   4.92318451
_cell_length_c   8.50525900
_cell_angle_alpha   90.00000000
_cell_angle_beta   90.00000000
_cell_angle_gamma   119.99999658
_symmetry_Int_Tables_number   1
_chemical_formula_structural   Zr(BeAu)6
_chemical_formula_sum   'Zr1 Be6 Au6'
_cell_volume   178.52972919
_cell_formula_units_Z   1
loop_
 _symmetry_equiv_pos_site_id
 _symmetry_equiv_pos_as_xyz
  1  'x, y, z'
loop_
 _atom_site_type_symbol
 _atom_site_label
 _atom_site_symmetry_multiplicity
 _atom_site_fract_x
 _atom_site_fract_y
 _atom_site_fract_z
 _atom_site_occupancy
  Zr  Zr0  1  0.000000  0.000000  0.000000  1
  Be  Be1  1  0.500000  0.000000  0.248010  1
  Be  Be2  1  0.500000  0.500000  0.248010  1
  Be  Be3  1  0.000000  0.500000  0.248010  1
  Be  Be4  1  0.500000  0.000000  0.751990  1
  Be  Be5  1  0.500000  0.500000  0.751990  1
  Be  Be6  1  0.000000  0.500000  0.751990  1
  Au  Au7  1  0.333333  0.666667  0.000000  1
  Au  Au8  1  0.666667  0.333333  0.000000  1
  Au  Au9  1  0.333333  0.666667  0.500000  1
  Au  Au10  1  0.666667  0.333333  0.500000  1
  Au  Au11  1  0.000000  0.000000  0.331594  1
  Au  Au12  1  0.000000  0.000000  0.668406  1
