# generated using pymatgen
data_Dy3Th3V2(Co4P3)4
_symmetry_space_group_name_H-M   'P 1'
_cell_length_a   3.75926600
_cell_length_b   10.62638945
_cell_length_c   12.30353917
_cell_angle_alpha   90.14671506
_cell_angle_beta   90.00000000
_cell_angle_gamma   90.00000000
_symmetry_Int_Tables_number   1
_chemical_formula_structural   Dy3Th3V2(Co4P3)4
_chemical_formula_sum   'Dy3 Th3 V2 Co16 P12'
_cell_volume   491.49309161
_cell_formula_units_Z   1
loop_
 _symmetry_equiv_pos_site_id
 _symmetry_equiv_pos_as_xyz
  1  'x, y, z'
loop_
 _atom_site_type_symbol
 _atom_site_label
 _atom_site_symmetry_multiplicity
 _atom_site_fract_x
 _atom_site_fract_y
 _atom_site_fract_z
 _atom_site_occupancy
  Dy  Dy0  1  0.500000  0.185353  0.201767  1
  Dy  Dy1  1  0.000000  0.682422  0.798697  1
  Dy  Dy2  1  0.000000  0.316782  0.796502  1
  Th  Th3  1  0.000000  0.499712  0.525635  1
  Th  Th4  1  0.500000  0.001567  0.476539  1
  Th  Th5  1  0.500000  0.819968  0.204961  1
  V  V6  1  0.500000  0.498631  0.150909  1
  V  V7  1  0.000000  0.000217  0.848766  1
  Co  Co8  1  0.500000  0.498976  0.701242  1
  Co  Co9  1  0.000000  0.998880  0.297933  1
  Co  Co10  1  0.000000  0.497687  0.984184  1
  Co  Co11  1  0.500000  0.002588  0.011827  1
  Co  Co12  1  0.500000  0.332851  0.991422  1
  Co  Co13  1  0.500000  0.665982  0.991746  1
  Co  Co14  1  0.000000  0.169472  0.005571  1
  Co  Co15  1  0.000000  0.833726  0.006629  1
  Co  Co16  1  0.500000  0.296579  0.430746  1
  Co  Co17  1  0.500000  0.702218  0.433973  1
  Co  Co18  1  0.000000  0.203142  0.568919  1
  Co  Co19  1  0.000000  0.796894  0.572319  1
  Co  Co20  1  0.500000  0.879532  0.712273  1
  Co  Co21  1  0.500000  0.119560  0.710180  1
  Co  Co22  1  0.000000  0.619765  0.288982  1
  Co  Co23  1  0.000000  0.379785  0.288882  1
  P  P24  1  0.500000  0.498765  0.880595  1
  P  P25  1  0.000000  0.005691  0.114944  1
  P  P26  1  0.500000  0.499209  0.339936  1
  P  P27  1  0.000000  0.999379  0.661046  1
  P  P28  1  0.500000  0.305871  0.618168  1
  P  P29  1  0.500000  0.692521  0.620863  1
  P  P30  1  0.000000  0.193511  0.380793  1
  P  P31  1  0.000000  0.804820  0.388564  1
  P  P32  1  0.500000  0.846324  0.893977  1
  P  P33  1  0.500000  0.154903  0.891769  1
  P  P34  1  0.000000  0.649939  0.102798  1
  P  P35  1  0.000000  0.346779  0.105944  1
