# generated using pymatgen
data_Ca3NdGe3Rh4
_symmetry_space_group_name_H-M   'P 1'
_cell_length_a   11.00515080
_cell_length_b   11.00515154
_cell_length_c   7.77742354
_cell_angle_alpha   71.99108480
_cell_angle_beta   71.99108296
_cell_angle_gamma   30.27304307
_symmetry_Int_Tables_number   1
_chemical_formula_structural   Ca3NdGe3Rh4
_chemical_formula_sum   'Ca6 Nd2 Ge6 Rh8'
_cell_volume   449.84350002
_cell_formula_units_Z   2
loop_
 _symmetry_equiv_pos_site_id
 _symmetry_equiv_pos_as_xyz
  1  'x, y, z'
loop_
 _atom_site_type_symbol
 _atom_site_label
 _atom_site_symmetry_multiplicity
 _atom_site_fract_x
 _atom_site_fract_y
 _atom_site_fract_z
 _atom_site_occupancy
  Ca  Ca0  1  0.446852  0.213253  0.905223  1
  Ca  Ca1  1  0.926809  0.206563  0.335659  1
  Ca  Ca2  1  0.793437  0.073191  0.164341  1
  Ca  Ca3  1  0.073805  0.792453  0.667708  1
  Ca  Ca4  1  0.207547  0.926195  0.832292  1
  Ca  Ca5  1  0.786747  0.553148  0.594777  1
  Nd  Nd6  1  0.211486  0.443216  0.405331  1
  Nd  Nd7  1  0.556784  0.788514  0.094669  1
  Ge  Ge8  1  0.615096  0.384904  0.750000  1
  Ge  Ge9  1  0.386743  0.613257  0.250000  1
  Ge  Ge10  1  0.301379  0.041395  0.443596  1
  Ge  Ge11  1  0.958605  0.698621  0.056404  1
  Ge  Ge12  1  0.702520  0.957956  0.559992  1
  Ge  Ge13  1  0.042044  0.297480  0.940008  1
  Rh  Rh14  1  0.299411  0.577188  0.026092  1
  Rh  Rh15  1  0.572916  0.303857  0.524204  1
  Rh  Rh16  1  0.696143  0.427084  0.975796  1
  Rh  Rh17  1  0.077156  0.366521  0.187041  1
  Rh  Rh18  1  0.633479  0.922844  0.312959  1
  Rh  Rh19  1  0.422812  0.700589  0.473908  1
  Rh  Rh20  1  0.920827  0.632596  0.811670  1
  Rh  Rh21  1  0.367404  0.079173  0.688330  1
