# generated using pymatgen
data_Hf2Mg4Ta5WN12
_symmetry_space_group_name_H-M   'P 1'
_cell_length_a   5.25852683
_cell_length_b   5.24907896
_cell_length_c   10.59063600
_cell_angle_alpha   90.00000000
_cell_angle_beta   90.00000000
_cell_angle_gamma   119.94057924
_symmetry_Int_Tables_number   1
_chemical_formula_structural   Hf2Mg4Ta5WN12
_chemical_formula_sum   'Hf2 Mg4 Ta5 W1 N12'
_cell_volume   253.31423806
_cell_formula_units_Z   1
loop_
 _symmetry_equiv_pos_site_id
 _symmetry_equiv_pos_as_xyz
  1  'x, y, z'
loop_
 _atom_site_type_symbol
 _atom_site_label
 _atom_site_symmetry_multiplicity
 _atom_site_fract_x
 _atom_site_fract_y
 _atom_site_fract_z
 _atom_site_occupancy
  Hf  Hf0  1  0.000000  0.000012  0.502346  1
  Hf  Hf1  1  0.000000  0.000012  0.997654  1
  Mg  Mg2  1  0.333249  0.666598  0.999638  1
  Mg  Mg3  1  0.333249  0.666598  0.500362  1
  Mg  Mg4  1  0.666751  0.333348  0.500362  1
  Mg  Mg5  1  0.666751  0.333348  0.999638  1
  Ta  Ta6  1  0.660330  0.999749  0.750000  1
  Ta  Ta7  1  0.339670  0.339419  0.750000  1
  Ta  Ta8  1  0.664275  0.664350  0.250000  1
  Ta  Ta9  1  0.335725  0.000075  0.250000  1
  Ta  Ta10  1  0.000000  0.660348  0.750000  1
  W  W11  1  0.000000  0.335674  0.250000  1
  N  N12  1  0.666619  0.666627  0.623536  1
  N  N13  1  0.666619  0.666627  0.876464  1
  N  N14  1  0.332369  0.333864  0.124878  1
  N  N15  1  0.332369  0.333864  0.375122  1
  N  N16  1  0.333381  0.000009  0.876464  1
  N  N17  1  0.333381  0.000009  0.623536  1
  N  N18  1  0.000000  0.665152  0.375164  1
  N  N19  1  0.000000  0.665152  0.124836  1
  N  N20  1  0.667631  0.001495  0.124878  1
  N  N21  1  0.667631  0.001495  0.375122  1
  N  N22  1  0.000000  0.333088  0.876776  1
  N  N23  1  0.000000  0.333088  0.623224  1
