# generated using pymatgen
data_La7Tm(Sc3Sn4)4
_symmetry_space_group_name_H-M   'P 1'
_cell_length_a   7.90312395
_cell_length_b   8.10116914
_cell_length_c   15.11412752
_cell_angle_alpha   89.95326323
_cell_angle_beta   89.95345273
_cell_angle_gamma   90.11997438
_symmetry_Int_Tables_number   1
_chemical_formula_structural   La7Tm(Sc3Sn4)4
_chemical_formula_sum   'La7 Tm1 Sc12 Sn16'
_cell_volume   967.67235663
_cell_formula_units_Z   1
loop_
 _symmetry_equiv_pos_site_id
 _symmetry_equiv_pos_as_xyz
  1  'x, y, z'
loop_
 _atom_site_type_symbol
 _atom_site_label
 _atom_site_symmetry_multiplicity
 _atom_site_fract_x
 _atom_site_fract_y
 _atom_site_fract_z
 _atom_site_occupancy
  La  La0  1  0.994547  0.172989  0.094203  1
  La  La1  1  0.005478  0.825548  0.903634  1
  La  La2  1  0.504262  0.673173  0.906358  1
  La  La3  1  0.005173  0.824994  0.594047  1
  La  La4  1  0.494931  0.326766  0.093980  1
  La  La5  1  0.996531  0.173963  0.407582  1
  La  La6  1  0.494000  0.327058  0.407439  1
  Tm  Tm7  1  0.508545  0.678063  0.596482  1
  Sc  Sc8  1  0.166773  0.495200  0.748778  1
  Sc  Sc9  1  0.833132  0.506428  0.250487  1
  Sc  Sc10  1  0.333947  0.993147  0.250457  1
  Sc  Sc11  1  0.665415  0.005923  0.748955  1
  Sc  Sc12  1  0.337256  0.161107  0.628149  1
  Sc  Sc13  1  0.661914  0.837065  0.372809  1
  Sc  Sc14  1  0.162913  0.660931  0.373078  1
  Sc  Sc15  1  0.663211  0.839083  0.127940  1
  Sc  Sc16  1  0.836185  0.340614  0.627086  1
  Sc  Sc17  1  0.337282  0.160519  0.870444  1
  Sc  Sc18  1  0.836402  0.338917  0.871367  1
  Sc  Sc19  1  0.162788  0.661635  0.127984  1
  Sn  Sn20  1  0.028168  0.131796  0.749229  1
  Sn  Sn21  1  0.971305  0.868492  0.250702  1
  Sn  Sn22  1  0.470785  0.631222  0.249912  1
  Sn  Sn23  1  0.528814  0.372075  0.748866  1
  Sn  Sn24  1  0.313022  0.853061  0.746797  1
  Sn  Sn25  1  0.690560  0.142705  0.250409  1
  Sn  Sn26  1  0.190170  0.357216  0.250211  1
  Sn  Sn27  1  0.804925  0.643385  0.747872  1
  Sn  Sn28  1  0.182941  0.459591  0.545719  1
  Sn  Sn29  1  0.819404  0.546419  0.457881  1
  Sn  Sn30  1  0.328373  0.951133  0.457655  1
  Sn  Sn31  1  0.826260  0.545485  0.044079  1
  Sn  Sn32  1  0.671647  0.039826  0.544947  1
  Sn  Sn33  1  0.172975  0.454061  0.955261  1
  Sn  Sn34  1  0.674165  0.045144  0.955318  1
  Sn  Sn35  1  0.325801  0.955265  0.043882  1
