# generated using pymatgen
data_Yb2DySc(Ga2Ag)4
_symmetry_space_group_name_H-M   'P 1'
_cell_length_a   4.30369500
_cell_length_b   6.94182188
_cell_length_c   10.33636310
_cell_angle_alpha   90.58238561
_cell_angle_beta   90.00000000
_cell_angle_gamma   90.00000000
_symmetry_Int_Tables_number   1
_chemical_formula_structural   Yb2DySc(Ga2Ag)4
_chemical_formula_sum   'Yb2 Dy1 Sc1 Ga8 Ag4'
_cell_volume   308.78789916
_cell_formula_units_Z   1
loop_
 _symmetry_equiv_pos_site_id
 _symmetry_equiv_pos_as_xyz
  1  'x, y, z'
loop_
 _atom_site_type_symbol
 _atom_site_label
 _atom_site_symmetry_multiplicity
 _atom_site_fract_x
 _atom_site_fract_y
 _atom_site_fract_z
 _atom_site_occupancy
  Yb  Yb0  1  0.750000  0.225497  0.172894  1
  Yb  Yb1  1  0.750000  0.725549  0.325892  1
  Dy  Dy2  1  0.250000  0.279537  0.674677  1
  Sc  Sc3  1  0.250000  0.779034  0.830599  1
  Ga  Ga4  1  0.250000  0.708178  0.539626  1
  Ga  Ga5  1  0.750000  0.299599  0.467089  1
  Ga  Ga6  1  0.750000  0.794104  0.029213  1
  Ga  Ga7  1  0.250000  0.195747  0.964548  1
  Ga  Ga8  1  0.250000  0.926734  0.148499  1
  Ga  Ga9  1  0.750000  0.064051  0.841653  1
  Ga  Ga10  1  0.750000  0.580464  0.660131  1
  Ga  Ga11  1  0.250000  0.430060  0.351906  1
  Ag  Ag12  1  0.250000  0.540478  0.096675  1
  Ag  Ag13  1  0.750000  0.453659  0.900714  1
  Ag  Ag14  1  0.750000  0.956595  0.596838  1
  Ag  Ag15  1  0.250000  0.040711  0.399047  1
