# generated using pymatgen
data_TbCuNi3Hg
_symmetry_space_group_name_H-M   'P 1'
_cell_length_a   5.03775624
_cell_length_b   5.03775751
_cell_length_c   5.00076600
_cell_angle_alpha   59.75500163
_cell_angle_beta   59.75499393
_cell_angle_gamma   60.00000385
_symmetry_Int_Tables_number   1
_chemical_formula_structural   TbCuNi3Hg
_chemical_formula_sum   'Tb1 Cu1 Ni3 Hg1'
_cell_volume   89.40827343
_cell_formula_units_Z   1
loop_
 _symmetry_equiv_pos_site_id
 _symmetry_equiv_pos_as_xyz
  1  'x, y, z'
loop_
 _atom_site_type_symbol
 _atom_site_label
 _atom_site_symmetry_multiplicity
 _atom_site_fract_x
 _atom_site_fract_y
 _atom_site_fract_z
 _atom_site_occupancy
  Tb  Tb0  1  0.249113  0.249113  0.252660  1
  Cu  Cu1  1  0.625705  0.625705  0.122885  1
  Ni  Ni2  1  0.626130  0.122409  0.625330  1
  Ni  Ni3  1  0.122409  0.626130  0.625330  1
  Ni  Ni4  1  0.626130  0.626130  0.625330  1
  Hg  Hg5  1  0.000513  0.000513  0.998463  1
