# generated using pymatgen
data_YbTh(Be12Cu)2
_symmetry_space_group_name_H-M   'P 1'
_cell_length_a   7.34878901
_cell_length_b   7.39843541
_cell_length_c   7.31763100
_cell_angle_alpha   59.91390767
_cell_angle_beta   59.92655976
_cell_angle_gamma   59.49719057
_symmetry_Int_Tables_number   1
_chemical_formula_structural   YbTh(Be12Cu)2
_chemical_formula_sum   'Yb1 Th1 Be24 Cu2'
_cell_volume   279.90645753
_cell_formula_units_Z   1
loop_
 _symmetry_equiv_pos_site_id
 _symmetry_equiv_pos_as_xyz
  1  'x, y, z'
loop_
 _atom_site_type_symbol
 _atom_site_label
 _atom_site_symmetry_multiplicity
 _atom_site_fract_x
 _atom_site_fract_y
 _atom_site_fract_z
 _atom_site_occupancy
  Yb  Yb0  1  0.249578  0.250422  0.249578  1
  Th  Th1  1  0.747730  0.752270  0.747730  1
  Be  Be2  1  0.500148  0.499852  0.500148  1
  Be  Be3  1  0.999879  0.000121  0.999879  1
  Be  Be4  1  0.565861  0.790661  0.434060  1
  Be  Be5  1  0.434060  0.209418  0.565861  1
  Be  Be6  1  0.288642  0.935747  0.711539  1
  Be  Be7  1  0.711539  0.064072  0.288642  1
  Be  Be8  1  0.929895  0.278436  0.068517  1
  Be  Be9  1  0.068517  0.723153  0.929895  1
  Be  Be10  1  0.209793  0.796296  0.559165  1
  Be  Be11  1  0.789141  0.203305  0.441340  1
  Be  Be12  1  0.441340  0.566215  0.789141  1
  Be  Be13  1  0.559165  0.434747  0.209793  1
  Be  Be14  1  0.713120  0.286629  0.935394  1
  Be  Be15  1  0.288340  0.715943  0.062822  1
  Be  Be16  1  0.062822  0.932894  0.288340  1
  Be  Be17  1  0.935394  0.064856  0.713120  1
  Be  Be18  1  0.568077  0.208107  0.789106  1
  Be  Be19  1  0.433294  0.791438  0.210045  1
  Be  Be20  1  0.789106  0.434712  0.568077  1
  Be  Be21  1  0.210045  0.565222  0.433294  1
  Be  Be22  1  0.936272  0.714790  0.288495  1
  Be  Be23  1  0.062962  0.286358  0.712451  1
  Be  Be24  1  0.288495  0.060444  0.936272  1
  Be  Be25  1  0.712451  0.938227  0.062962  1
  Cu  Cu26  1  0.804293  0.556186  0.200045  1
  Cu  Cu27  1  0.200045  0.439477  0.804293  1
