# generated using pymatgen
data_Y4Ga2CoRu5
_symmetry_space_group_name_H-M   'P 1'
_cell_length_a   5.29318000
_cell_length_b   5.28296233
_cell_length_c   8.77558000
_cell_angle_alpha   90.00000000
_cell_angle_beta   90.00000000
_cell_angle_gamma   121.30930549
_symmetry_Int_Tables_number   1
_chemical_formula_structural   Y4Ga2CoRu5
_chemical_formula_sum   'Y4 Ga2 Co1 Ru5'
_cell_volume   209.66129092
_cell_formula_units_Z   1
loop_
 _symmetry_equiv_pos_site_id
 _symmetry_equiv_pos_as_xyz
  1  'x, y, z'
loop_
 _atom_site_type_symbol
 _atom_site_label
 _atom_site_symmetry_multiplicity
 _atom_site_fract_x
 _atom_site_fract_y
 _atom_site_fract_z
 _atom_site_occupancy
  Y  Y0  1  0.332025  0.664916  0.437173  1
  Y  Y1  1  0.660608  0.330926  0.565236  1
  Y  Y2  1  0.660608  0.330926  0.934764  1
  Y  Y3  1  0.332025  0.664916  0.062827  1
  Ga  Ga4  1  0.176798  0.345776  0.750000  1
  Ga  Ga5  1  0.334796  0.167912  0.250000  1
  Co  Co6  1  0.177998  0.834197  0.750000  1
  Ru  Ru7  1  0.834215  0.662831  0.250000  1
  Ru  Ru8  1  0.673829  0.837591  0.750000  1
  Ru  Ru9  1  0.992402  0.991527  0.996594  1
  Ru  Ru10  1  0.832293  0.176957  0.250000  1
  Ru  Ru11  1  0.992402  0.991527  0.503406  1
