# generated using pymatgen
data_Mg4Zn2B4PtRh9
_symmetry_space_group_name_H-M   'P 1'
_cell_length_a   9.45194323
_cell_length_b   2.93951300
_cell_length_c   9.46657423
_cell_angle_alpha   90.00000000
_cell_angle_beta   90.09467875
_cell_angle_gamma   90.00000000
_symmetry_Int_Tables_number   1
_chemical_formula_structural   Mg4Zn2B4PtRh9
_chemical_formula_sum   'Mg4 Zn2 B4 Pt1 Rh9'
_cell_volume   263.01998055
_cell_formula_units_Z   1
loop_
 _symmetry_equiv_pos_site_id
 _symmetry_equiv_pos_as_xyz
  1  'x, y, z'
loop_
 _atom_site_type_symbol
 _atom_site_label
 _atom_site_symmetry_multiplicity
 _atom_site_fract_x
 _atom_site_fract_y
 _atom_site_fract_z
 _atom_site_occupancy
  Mg  Mg0  1  0.322944  0.000000  0.176203  1
  Mg  Mg1  1  0.825081  0.000000  0.328410  1
  Mg  Mg2  1  0.175916  0.000000  0.675727  1
  Mg  Mg3  1  0.674625  0.000000  0.819160  1
  Zn  Zn4  1  0.004138  0.000000  0.998865  1
  Zn  Zn5  1  0.499608  0.000000  0.500539  1
  B  B6  1  0.617901  0.000000  0.128826  1
  B  B7  1  0.125911  0.000000  0.374122  1
  B  B8  1  0.873601  0.000000  0.626357  1
  B  B9  1  0.373301  0.000000  0.871093  1
  Pt  Pt10  1  0.785710  0.500000  0.071828  1
  Rh  Rh11  1  0.501701  0.500000  0.999294  1
  Rh  Rh12  1  0.070964  0.500000  0.216990  1
  Rh  Rh13  1  0.573348  0.500000  0.284751  1
  Rh  Rh14  1  0.283574  0.500000  0.427656  1
  Rh  Rh15  1  0.000645  0.500000  0.501094  1
  Rh  Rh16  1  0.716497  0.500000  0.570923  1
  Rh  Rh17  1  0.428397  0.500000  0.716128  1
  Rh  Rh18  1  0.928081  0.500000  0.783772  1
  Rh  Rh19  1  0.218062  0.500000  0.928266  1
