# generated using pymatgen
data_Lu20PtRh11
_symmetry_space_group_name_H-M   'P 1'
_cell_length_a   10.65727118
_cell_length_b   10.65727135
_cell_length_c   6.27642200
_cell_angle_alpha   90.01062340
_cell_angle_beta   90.01062878
_cell_angle_gamma   90.05643754
_symmetry_Int_Tables_number   1
_chemical_formula_structural   Lu20PtRh11
_chemical_formula_sum   'Lu20 Pt1 Rh11'
_cell_volume   712.85951558
_cell_formula_units_Z   1
loop_
 _symmetry_equiv_pos_site_id
 _symmetry_equiv_pos_as_xyz
  1  'x, y, z'
loop_
 _atom_site_type_symbol
 _atom_site_label
 _atom_site_symmetry_multiplicity
 _atom_site_fract_x
 _atom_site_fract_y
 _atom_site_fract_z
 _atom_site_occupancy
  Lu  Lu0  1  0.291212  0.088087  0.378216  1
  Lu  Lu1  1  0.291257  0.913335  0.878668  1
  Lu  Lu2  1  0.708744  0.087890  0.877746  1
  Lu  Lu3  1  0.708509  0.911751  0.377881  1
  Lu  Lu4  1  0.588679  0.791750  0.878513  1
  Lu  Lu5  1  0.588253  0.208532  0.377672  1
  Lu  Lu6  1  0.412818  0.792568  0.375990  1
  Lu  Lu7  1  0.411863  0.208824  0.877473  1
  Lu  Lu8  1  0.208250  0.411321  0.621487  1
  Lu  Lu9  1  0.207432  0.587182  0.124010  1
  Lu  Lu10  1  0.791468  0.411747  0.122328  1
  Lu  Lu11  1  0.791176  0.588137  0.622527  1
  Lu  Lu12  1  0.911913  0.708788  0.121784  1
  Lu  Lu13  1  0.912110  0.291256  0.622254  1
  Lu  Lu14  1  0.086665  0.708743  0.621332  1
  Lu  Lu15  1  0.088249  0.291491  0.122119  1
  Lu  Lu16  1  0.999757  0.000018  0.500049  1
  Lu  Lu17  1  0.999982  0.000243  0.999951  1
  Lu  Lu18  1  0.501348  0.498662  0.000814  1
  Lu  Lu19  1  0.501338  0.498652  0.499186  1
  Pt  Pt20  1  0.345066  0.654934  0.750000  1
  Rh  Rh21  1  0.845894  0.154106  0.250000  1
  Rh  Rh22  1  0.845797  0.845748  0.750089  1
  Rh  Rh23  1  0.154252  0.154203  0.749911  1
  Rh  Rh24  1  0.154231  0.845769  0.250000  1
  Rh  Rh25  1  0.654025  0.345975  0.750000  1
  Rh  Rh26  1  0.653895  0.654200  0.249749  1
  Rh  Rh27  1  0.345800  0.346105  0.250251  1
  Rh  Rh28  1  0.499599  0.999541  0.125914  1
  Rh  Rh29  1  0.499926  0.999964  0.626363  1
  Rh  Rh30  1  0.000036  0.500074  0.873637  1
  Rh  Rh31  1  0.000459  0.500401  0.374086  1
