# generated using pymatgen
data_Tm3ThAl13Ga5Ir6
_symmetry_space_group_name_H-M   'P 1'
_cell_length_a   7.54595666
_cell_length_b   7.55371983
_cell_length_c   9.53855100
_cell_angle_alpha   90.00000000
_cell_angle_beta   90.00000000
_cell_angle_gamma   119.65655891
_symmetry_Int_Tables_number   1
_chemical_formula_structural   Tm3ThAl13Ga5Ir6
_chemical_formula_sum   'Tm3 Th1 Al13 Ga5 Ir6'
_cell_volume   472.47715889
_cell_formula_units_Z   1
loop_
 _symmetry_equiv_pos_site_id
 _symmetry_equiv_pos_as_xyz
  1  'x, y, z'
loop_
 _atom_site_type_symbol
 _atom_site_label
 _atom_site_symmetry_multiplicity
 _atom_site_fract_x
 _atom_site_fract_y
 _atom_site_fract_z
 _atom_site_occupancy
  Tm  Tm0  1  0.998930  0.325327  0.750000  1
  Tm  Tm1  1  0.672221  0.996783  0.250000  1
  Tm  Tm2  1  0.328932  0.005735  0.750000  1
  Th  Th3  1  0.994853  0.670589  0.250000  1
  Al  Al4  1  0.002663  0.330713  0.070167  1
  Al  Al5  1  0.000425  0.664860  0.918611  1
  Al  Al6  1  0.000425  0.664860  0.581389  1
  Al  Al7  1  0.340080  0.005415  0.430101  1
  Al  Al8  1  0.002663  0.330713  0.429833  1
  Al  Al9  1  0.664329  0.999749  0.575765  1
  Al  Al10  1  0.664329  0.999749  0.924235  1
  Al  Al11  1  0.340080  0.005415  0.069899  1
  Al  Al12  1  0.332070  0.332548  0.563141  1
  Al  Al13  1  0.662477  0.666056  0.453708  1
  Al  Al14  1  0.662477  0.666056  0.046292  1
  Al  Al15  1  0.332070  0.332548  0.936859  1
  Al  Al16  1  0.447085  0.661826  0.750000  1
  Ga  Ga17  1  0.131655  0.134961  0.250000  1
  Ga  Ga18  1  0.870321  0.872552  0.750000  1
  Ga  Ga19  1  0.346730  0.549846  0.250000  1
  Ga  Ga20  1  0.657810  0.449724  0.750000  1
  Ga  Ga21  1  0.542370  0.335394  0.250000  1
  Ir  Ir22  1  0.674172  0.329134  0.000437  1
  Ir  Ir23  1  0.327412  0.671435  0.998239  1
  Ir  Ir24  1  0.327412  0.671435  0.501761  1
  Ir  Ir25  1  0.674172  0.329134  0.499563  1
  Ir  Ir26  1  0.000917  0.998721  0.000542  1
  Ir  Ir27  1  0.000917  0.998721  0.499458  1
