# generated using pymatgen
data_LiNb5As4
_symmetry_space_group_name_H-M   'P 1'
_cell_length_a   10.07939500
_cell_length_b   10.07939500
_cell_length_c   3.51171000
_cell_angle_alpha   90.00000000
_cell_angle_beta   90.00000000
_cell_angle_gamma   90.00000000
_symmetry_Int_Tables_number   1
_chemical_formula_structural   LiNb5As4
_chemical_formula_sum   'Li2 Nb10 As8'
_cell_volume   356.76938060
_cell_formula_units_Z   2
loop_
 _symmetry_equiv_pos_site_id
 _symmetry_equiv_pos_as_xyz
  1  'x, y, z'
loop_
 _atom_site_type_symbol
 _atom_site_label
 _atom_site_symmetry_multiplicity
 _atom_site_fract_x
 _atom_site_fract_y
 _atom_site_fract_z
 _atom_site_occupancy
  Li  Li0  1  0.500000  0.000000  0.500000  1
  Li  Li1  1  0.000000  0.500000  0.500000  1
  Nb  Nb2  1  0.188704  0.133688  0.500000  1
  Nb  Nb3  1  0.133688  0.811296  0.500000  1
  Nb  Nb4  1  0.866312  0.188704  0.500000  1
  Nb  Nb5  1  0.811296  0.866312  0.500000  1
  Nb  Nb6  1  0.295946  0.379911  0.000000  1
  Nb  Nb7  1  0.379911  0.704054  0.000000  1
  Nb  Nb8  1  0.620089  0.295946  0.000000  1
  Nb  Nb9  1  0.704054  0.620089  0.000000  1
  Nb  Nb10  1  0.500000  0.500000  0.500000  1
  Nb  Nb11  1  0.000000  0.000000  0.000000  1
  As  As12  1  0.429005  0.235090  0.500000  1
  As  As13  1  0.235090  0.570995  0.500000  1
  As  As14  1  0.764910  0.429005  0.500000  1
  As  As15  1  0.570995  0.764910  0.500000  1
  As  As16  1  0.048602  0.279156  0.000000  1
  As  As17  1  0.279156  0.951398  0.000000  1
  As  As18  1  0.720844  0.048602  0.000000  1
  As  As19  1  0.951398  0.720844  0.000000  1
