# generated using pymatgen
data_SmTh3Os8
_symmetry_space_group_name_H-M   'P 1'
_cell_length_a   5.41246400
_cell_length_b   5.41246236
_cell_length_c   9.06518500
_cell_angle_alpha   90.00000000
_cell_angle_beta   90.00000000
_cell_angle_gamma   119.99999782
_symmetry_Int_Tables_number   1
_chemical_formula_structural   SmTh3Os8
_chemical_formula_sum   'Sm1 Th3 Os8'
_cell_volume   229.98378770
_cell_formula_units_Z   1
loop_
 _symmetry_equiv_pos_site_id
 _symmetry_equiv_pos_as_xyz
  1  'x, y, z'
loop_
 _atom_site_type_symbol
 _atom_site_label
 _atom_site_symmetry_multiplicity
 _atom_site_fract_x
 _atom_site_fract_y
 _atom_site_fract_z
 _atom_site_occupancy
  Sm  Sm0  1  0.333333  0.666667  0.065692  1
  Th  Th1  1  0.333333  0.666667  0.429053  1
  Th  Th2  1  0.666667  0.333333  0.569280  1
  Th  Th3  1  0.666667  0.333333  0.933586  1
  Os  Os4  1  0.170757  0.341514  0.751164  1
  Os  Os5  1  0.170757  0.829243  0.751164  1
  Os  Os6  1  0.341052  0.170526  0.248977  1
  Os  Os7  1  0.829474  0.658948  0.248977  1
  Os  Os8  1  0.658486  0.829243  0.751164  1
  Os  Os9  1  0.000000  0.000000  0.002118  1
  Os  Os10  1  0.829474  0.170526  0.248977  1
  Os  Os11  1  0.000000  0.000000  0.499849  1
