# generated using pymatgen
data_TiPt3(SeO3)8
_symmetry_space_group_name_H-M   'P 1'
_cell_length_a   7.93751427
_cell_length_b   7.93751486
_cell_length_c   7.93751400
_cell_angle_alpha   90.34183432
_cell_angle_beta   89.65816565
_cell_angle_gamma   90.34183933
_symmetry_Int_Tables_number   1
_chemical_formula_structural   TiPt3(SeO3)8
_chemical_formula_sum   'Ti1 Pt3 Se8 O24'
_cell_volume   500.06962760
_cell_formula_units_Z   1
loop_
 _symmetry_equiv_pos_site_id
 _symmetry_equiv_pos_as_xyz
  1  'x, y, z'
loop_
 _atom_site_type_symbol
 _atom_site_label
 _atom_site_symmetry_multiplicity
 _atom_site_fract_x
 _atom_site_fract_y
 _atom_site_fract_z
 _atom_site_occupancy
  Ti  Ti0  1  0.000000  0.500000  0.500000  1
  Pt  Pt1  1  0.500000  0.500000  0.000000  1
  Pt  Pt2  1  0.500000  0.000000  0.500000  1
  Pt  Pt3  1  0.000000  0.000000  0.000000  1
  Se  Se4  1  0.832700  0.151555  0.670949  1
  Se  Se5  1  0.167300  0.848445  0.329051  1
  Se  Se6  1  0.651555  0.670949  0.667300  1
  Se  Se7  1  0.170949  0.667300  0.848445  1
  Se  Se8  1  0.337361  0.162639  0.837361  1
  Se  Se9  1  0.829051  0.332700  0.151555  1
  Se  Se10  1  0.662639  0.837361  0.162639  1
  Se  Se11  1  0.348445  0.329051  0.332700  1
  O  O12  1  0.240852  0.463671  0.463925  1
  O  O13  1  0.976785  0.252307  0.006562  1
  O  O14  1  0.036075  0.740852  0.463671  1
  O  O15  1  0.480027  0.248111  0.982346  1
  O  O16  1  0.247693  0.993438  0.476785  1
  O  O17  1  0.506562  0.523215  0.747693  1
  O  O18  1  0.983631  0.011331  0.747660  1
  O  O19  1  0.519973  0.751889  0.017654  1
  O  O20  1  0.517654  0.980027  0.248111  1
  O  O21  1  0.482346  0.019973  0.751889  1
  O  O22  1  0.748111  0.982346  0.019973  1
  O  O23  1  0.247660  0.516369  0.988669  1
  O  O24  1  0.036329  0.536075  0.740852  1
  O  O25  1  0.016369  0.988669  0.252340  1
  O  O26  1  0.251889  0.017654  0.980027  1
  O  O27  1  0.493438  0.476785  0.252307  1
  O  O28  1  0.759148  0.536329  0.536075  1
  O  O29  1  0.963671  0.463925  0.259148  1
  O  O30  1  0.023215  0.747693  0.993438  1
  O  O31  1  0.488669  0.252340  0.483631  1
  O  O32  1  0.511331  0.747660  0.516369  1
  O  O33  1  0.963925  0.259148  0.536329  1
  O  O34  1  0.752307  0.006562  0.523215  1
  O  O35  1  0.752340  0.483631  0.011331  1
