# generated using pymatgen
data_Tm4Mg4IrPt3
_symmetry_space_group_name_H-M   'P 1'
_cell_length_a   4.14453800
_cell_length_b   6.99926423
_cell_length_c   8.57810078
_cell_angle_alpha   89.51672268
_cell_angle_beta   90.00000000
_cell_angle_gamma   90.00000000
_symmetry_Int_Tables_number   1
_chemical_formula_structural   Tm4Mg4IrPt3
_chemical_formula_sum   'Tm4 Mg4 Ir1 Pt3'
_cell_volume   248.83084260
_cell_formula_units_Z   1
loop_
 _symmetry_equiv_pos_site_id
 _symmetry_equiv_pos_as_xyz
  1  'x, y, z'
loop_
 _atom_site_type_symbol
 _atom_site_label
 _atom_site_symmetry_multiplicity
 _atom_site_fract_x
 _atom_site_fract_y
 _atom_site_fract_z
 _atom_site_occupancy
  Tm  Tm0  1  0.250000  0.042173  0.669580  1
  Tm  Tm1  1  0.250000  0.538153  0.826083  1
  Tm  Tm2  1  0.750000  0.970270  0.327893  1
  Tm  Tm3  1  0.750000  0.455612  0.178840  1
  Mg  Mg4  1  0.250000  0.135048  0.062915  1
  Mg  Mg5  1  0.250000  0.635764  0.438614  1
  Mg  Mg6  1  0.750000  0.863511  0.938189  1
  Mg  Mg7  1  0.750000  0.363161  0.559379  1
  Ir  Ir8  1  0.250000  0.245483  0.373931  1
  Pt  Pt9  1  0.250000  0.743856  0.122716  1
  Pt  Pt10  1  0.750000  0.753250  0.627116  1
  Pt  Pt11  1  0.750000  0.253721  0.874743  1
