# generated using pymatgen
data_Dy2Ho2B16Ir3Rh
_symmetry_space_group_name_H-M   'P 1'
_cell_length_a   3.57093600
_cell_length_b   5.97104589
_cell_length_c   11.57944750
_cell_angle_alpha   89.93747094
_cell_angle_beta   90.00000000
_cell_angle_gamma   90.00000000
_symmetry_Int_Tables_number   1
_chemical_formula_structural   Dy2Ho2B16Ir3Rh
_chemical_formula_sum   'Dy2 Ho2 B16 Ir3 Rh1'
_cell_volume   246.89941187
_cell_formula_units_Z   1
loop_
 _symmetry_equiv_pos_site_id
 _symmetry_equiv_pos_as_xyz
  1  'x, y, z'
loop_
 _atom_site_type_symbol
 _atom_site_label
 _atom_site_symmetry_multiplicity
 _atom_site_fract_x
 _atom_site_fract_y
 _atom_site_fract_z
 _atom_site_occupancy
  Dy  Dy0  1  0.500000  0.369134  0.148226  1
  Dy  Dy1  1  0.500000  0.630683  0.852101  1
  Ho  Ho2  1  0.500000  0.130996  0.648655  1
  Ho  Ho3  1  0.500000  0.868972  0.350798  1
  B  B4  1  0.000000  0.112238  0.046217  1
  B  B5  1  0.000000  0.887854  0.953175  1
  B  B6  1  0.000000  0.387493  0.546703  1
  B  B7  1  0.000000  0.612540  0.453238  1
  B  B8  1  0.000000  0.136069  0.469525  1
  B  B9  1  0.000000  0.864044  0.530186  1
  B  B10  1  0.000000  0.363718  0.969719  1
  B  B11  1  0.000000  0.636493  0.030267  1
  B  B12  1  0.000000  0.023231  0.192845  1
  B  B13  1  0.000000  0.977068  0.807089  1
  B  B14  1  0.000000  0.475106  0.692424  1
  B  B15  1  0.000000  0.525411  0.307326  1
  B  B16  1  0.000000  0.209028  0.312189  1
  B  B17  1  0.000000  0.791063  0.687737  1
  B  B18  1  0.000000  0.289586  0.812276  1
  B  B19  1  0.000000  0.710535  0.187765  1
  Ir  Ir20  1  0.500000  0.356247  0.403972  1
  Ir  Ir21  1  0.500000  0.644327  0.596767  1
  Ir  Ir22  1  0.500000  0.140988  0.904408  1
  Rh  Rh23  1  0.500000  0.857174  0.096391  1
