# generated using pymatgen
data_La2Ga10Pt
_symmetry_space_group_name_H-M   'P 1'
_cell_length_a   4.44483647
_cell_length_b   4.44483693
_cell_length_c   13.62219805
_cell_angle_alpha   99.38958316
_cell_angle_beta   99.38959724
_cell_angle_gamma   90.00001158
_symmetry_Int_Tables_number   1
_chemical_formula_structural   La2Ga10Pt
_chemical_formula_sum   'La2 Ga10 Pt1'
_cell_volume   261.86665655
_cell_formula_units_Z   1
loop_
 _symmetry_equiv_pos_site_id
 _symmetry_equiv_pos_as_xyz
  1  'x, y, z'
loop_
 _atom_site_type_symbol
 _atom_site_label
 _atom_site_symmetry_multiplicity
 _atom_site_fract_x
 _atom_site_fract_y
 _atom_site_fract_z
 _atom_site_occupancy
  La  La0  1  0.643351  0.643351  0.286704  1
  La  La1  1  0.356649  0.356649  0.713296  1
  Ga  Ga2  1  0.551062  0.051062  0.102123  1
  Ga  Ga3  1  0.051062  0.551062  0.102123  1
  Ga  Ga4  1  0.104442  0.104442  0.208884  1
  Ga  Ga5  1  0.197149  0.197149  0.394298  1
  Ga  Ga6  1  0.750000  0.250000  0.500000  1
  Ga  Ga7  1  0.250000  0.750000  0.500000  1
  Ga  Ga8  1  0.802851  0.802851  0.605702  1
  Ga  Ga9  1  0.895558  0.895558  0.791115  1
  Ga  Ga10  1  0.948938  0.448938  0.897876  1
  Ga  Ga11  1  0.448938  0.948938  0.897876  1
  Pt  Pt12  1  0.500000  0.500000  0.000000  1
