# generated using pymatgen
data_Tb2Er2ReRu7
_symmetry_space_group_name_H-M   'P 1'
_cell_length_a   5.19993413
_cell_length_b   5.44302490
_cell_length_c   8.99211803
_cell_angle_alpha   89.99999978
_cell_angle_beta   89.99219511
_cell_angle_gamma   121.55888013
_symmetry_Int_Tables_number   1
_chemical_formula_structural   Tb2Er2ReRu7
_chemical_formula_sum   'Tb2 Er2 Re1 Ru7'
_cell_volume   216.86633118
_cell_formula_units_Z   1
loop_
 _symmetry_equiv_pos_site_id
 _symmetry_equiv_pos_as_xyz
  1  'x, y, z'
loop_
 _atom_site_type_symbol
 _atom_site_label
 _atom_site_symmetry_multiplicity
 _atom_site_fract_x
 _atom_site_fract_y
 _atom_site_fract_z
 _atom_site_occupancy
  Tb  Tb0  1  0.328727  0.664365  0.433209  1
  Tb  Tb1  1  0.656926  0.328462  0.565183  1
  Er  Er2  1  0.655513  0.327755  0.934930  1
  Er  Er3  1  0.329419  0.664710  0.066429  1
  Re  Re4  1  0.684054  0.842028  0.751597  1
  Ru  Ru5  1  0.975532  0.987766  0.499831  1
  Ru  Ru6  1  0.974841  0.987421  0.000415  1
  Ru  Ru7  1  0.836556  0.167826  0.248166  1
  Ru  Ru8  1  0.836556  0.668731  0.248166  1
  Ru  Ru9  1  0.353860  0.176929  0.247850  1
  Ru  Ru10  1  0.184007  0.830422  0.752112  1
  Ru  Ru11  1  0.184007  0.353585  0.752112  1
