# generated using pymatgen
data_Sm8DyTm11Sn16
_symmetry_space_group_name_H-M   'P 1'
_cell_length_a   8.03544239
_cell_length_b   8.18431042
_cell_length_c   15.44366018
_cell_angle_alpha   89.98665608
_cell_angle_beta   89.98846422
_cell_angle_gamma   89.96598870
_symmetry_Int_Tables_number   1
_chemical_formula_structural   Sm8DyTm11Sn16
_chemical_formula_sum   'Sm8 Dy1 Tm11 Sn16'
_cell_volume   1015.64521071
_cell_formula_units_Z   1
loop_
 _symmetry_equiv_pos_site_id
 _symmetry_equiv_pos_as_xyz
  1  'x, y, z'
loop_
 _atom_site_type_symbol
 _atom_site_label
 _atom_site_symmetry_multiplicity
 _atom_site_fract_x
 _atom_site_fract_y
 _atom_site_fract_z
 _atom_site_occupancy
  Sm  Sm0  1  0.519484  0.320928  0.902488  1
  Sm  Sm1  1  0.019455  0.179246  0.597466  1
  Sm  Sm2  1  0.480490  0.679172  0.402474  1
  Sm  Sm3  1  0.980611  0.820923  0.097492  1
  Sm  Sm4  1  0.480622  0.679102  0.097745  1
  Sm  Sm5  1  0.980498  0.820816  0.402494  1
  Sm  Sm6  1  0.519493  0.320819  0.597442  1
  Sm  Sm7  1  0.019319  0.179277  0.902541  1
  Dy  Dy8  1  0.365894  0.835524  0.877580  1
  Tm  Tm9  1  0.865908  0.664332  0.622487  1
  Tm  Tm10  1  0.634212  0.164377  0.377424  1
  Tm  Tm11  1  0.134182  0.335637  0.122679  1
  Tm  Tm12  1  0.634153  0.164288  0.122522  1
  Tm  Tm13  1  0.134196  0.335664  0.377442  1
  Tm  Tm14  1  0.365822  0.835690  0.622479  1
  Tm  Tm15  1  0.865723  0.664387  0.877412  1
  Tm  Tm16  1  0.197081  0.504038  0.749817  1
  Tm  Tm17  1  0.697502  0.995746  0.749875  1
  Tm  Tm18  1  0.802710  0.495605  0.250003  1
  Tm  Tm19  1  0.302717  0.004400  0.250032  1
  Sn  Sn20  1  0.297222  0.038803  0.042428  1
  Sn  Sn21  1  0.797391  0.461754  0.458070  1
  Sn  Sn22  1  0.702591  0.961791  0.541895  1
  Sn  Sn23  1  0.201988  0.537327  0.958271  1
  Sn  Sn24  1  0.703548  0.962039  0.958237  1
  Sn  Sn25  1  0.202612  0.538217  0.541914  1
  Sn  Sn26  1  0.297378  0.038223  0.458102  1
  Sn  Sn27  1  0.797452  0.461771  0.041911  1
  Sn  Sn28  1  0.564264  0.622432  0.749719  1
  Sn  Sn29  1  0.063236  0.877126  0.749725  1
  Sn  Sn30  1  0.436229  0.377132  0.250034  1
  Sn  Sn31  1  0.936168  0.122859  0.250030  1
  Sn  Sn32  1  0.327585  0.144814  0.749797  1
  Sn  Sn33  1  0.827619  0.355681  0.749975  1
  Sn  Sn34  1  0.672285  0.855651  0.250002  1
  Sn  Sn35  1  0.172364  0.644408  0.249995  1
