# generated using pymatgen
data_Hf4MnCo2Si4Pt
_symmetry_space_group_name_H-M   'P 1'
_cell_length_a   3.84495100
_cell_length_b   6.44948119
_cell_length_c   7.33368674
_cell_angle_alpha   90.79124215
_cell_angle_beta   90.00000000
_cell_angle_gamma   90.00000000
_symmetry_Int_Tables_number   1
_chemical_formula_structural   Hf4MnCo2Si4Pt
_chemical_formula_sum   'Hf4 Mn1 Co2 Si4 Pt1'
_cell_volume   181.84297647
_cell_formula_units_Z   1
loop_
 _symmetry_equiv_pos_site_id
 _symmetry_equiv_pos_as_xyz
  1  'x, y, z'
loop_
 _atom_site_type_symbol
 _atom_site_label
 _atom_site_symmetry_multiplicity
 _atom_site_fract_x
 _atom_site_fract_y
 _atom_site_fract_z
 _atom_site_occupancy
  Hf  Hf0  1  0.750000  0.489610  0.322092  1
  Hf  Hf1  1  0.250000  0.014213  0.807995  1
  Hf  Hf2  1  0.750000  0.974279  0.190960  1
  Hf  Hf3  1  0.250000  0.517422  0.674646  1
  Mn  Mn4  1  0.250000  0.654280  0.066463  1
  Co  Co5  1  0.250000  0.145666  0.439103  1
  Co  Co6  1  0.750000  0.854653  0.565603  1
  Si  Si7  1  0.250000  0.271224  0.133620  1
  Si  Si8  1  0.250000  0.783938  0.392316  1
  Si  Si9  1  0.750000  0.729599  0.873327  1
  Si  Si10  1  0.750000  0.216786  0.599908  1
  Pt  Pt11  1  0.750000  0.348330  0.933968  1
