# generated using pymatgen
data_Y4Si10(OsRu)3
_symmetry_space_group_name_H-M   'P 1'
_cell_length_a   8.23723776
_cell_length_b   8.29002898
_cell_length_c   8.29002904
_cell_angle_alpha   140.16401268
_cell_angle_beta   108.34069504
_cell_angle_gamma   85.35046635
_symmetry_Int_Tables_number   1
_chemical_formula_structural   Y4Si10(OsRu)3
_chemical_formula_sum   'Y4 Si10 Os3 Ru3'
_cell_volume   332.00015550
_cell_formula_units_Z   1
loop_
 _symmetry_equiv_pos_site_id
 _symmetry_equiv_pos_as_xyz
  1  'x, y, z'
loop_
 _atom_site_type_symbol
 _atom_site_label
 _atom_site_symmetry_multiplicity
 _atom_site_fract_x
 _atom_site_fract_y
 _atom_site_fract_z
 _atom_site_occupancy
  Y  Y0  1  0.867411  0.632495  0.234918  1
  Y  Y1  1  0.132615  0.367494  0.765122  1
  Y  Y2  1  0.408933  0.138019  0.270914  1
  Y  Y3  1  0.590481  0.861422  0.729059  1
  Si  Si4  1  0.499788  0.750064  0.249986  1
  Si  Si5  1  0.499788  0.249803  0.749724  1
  Si  Si6  1  0.213404  0.942028  0.740286  1
  Si  Si7  1  0.787535  0.529263  0.731065  1
  Si  Si8  1  0.787535  0.056469  0.258272  1
  Si  Si9  1  0.213404  0.473119  0.271377  1
  Si  Si10  1  0.075085  0.908952  0.166133  1
  Si  Si11  1  0.925610  0.090952  0.834657  1
  Si  Si12  1  0.728961  0.401082  0.327881  1
  Si  Si13  1  0.270108  0.598631  0.671476  1
  Os  Os14  1  0.745258  0.143977  0.601281  1
  Os  Os15  1  0.437133  0.349990  0.087144  1
  Os  Os16  1  0.561997  0.650312  0.911685  1
  Ru  Ru17  1  0.999617  0.748219  0.748092  1
  Ru  Ru18  1  0.999617  0.251526  0.251398  1
  Ru  Ru19  1  0.255719  0.856186  0.399533  1
