# generated using pymatgen
data_Cs3Rb2ZrAs3
_symmetry_space_group_name_H-M   'P 1'
_cell_length_a   12.27773792
_cell_length_b   12.27689859
_cell_length_c   16.31892787
_cell_angle_alpha   89.99068927
_cell_angle_beta   90.01901026
_cell_angle_gamma   140.69899079
_symmetry_Int_Tables_number   1
_chemical_formula_structural   Cs3Rb2ZrAs3
_chemical_formula_sum   'Cs12 Rb8 Zr4 As12'
_cell_volume   1558.01958026
_cell_formula_units_Z   4
loop_
 _symmetry_equiv_pos_site_id
 _symmetry_equiv_pos_as_xyz
  1  'x, y, z'
loop_
 _atom_site_type_symbol
 _atom_site_label
 _atom_site_symmetry_multiplicity
 _atom_site_fract_x
 _atom_site_fract_y
 _atom_site_fract_z
 _atom_site_occupancy
  Cs  Cs0  1  0.391621  0.071176  0.685285  1
  Cs  Cs1  1  0.928249  0.608323  0.314508  1
  Cs  Cs2  1  0.108405  0.428370  0.185473  1
  Cs  Cs3  1  0.428383  0.108591  0.185531  1
  Cs  Cs4  1  0.608299  0.928069  0.314658  1
  Cs  Cs5  1  0.070839  0.391069  0.685402  1
  Cs  Cs6  1  0.891331  0.571712  0.814981  1
  Cs  Cs7  1  0.725485  0.725394  0.190257  1
  Cs  Cs8  1  0.571478  0.891027  0.814562  1
  Cs  Cs9  1  0.225626  0.225696  0.309756  1
  Cs  Cs10  1  0.274890  0.274905  0.809708  1
  Cs  Cs11  1  0.775032  0.774977  0.690235  1
  Rb  Rb12  1  0.077335  0.923013  0.999976  1
  Rb  Rb13  1  0.577088  0.422708  0.500008  1
  Rb  Rb14  1  0.922892  0.077207  0.000218  1
  Rb  Rb15  1  0.760212  0.240268  0.000147  1
  Rb  Rb16  1  0.740105  0.260088  0.499869  1
  Rb  Rb17  1  0.240624  0.760537  0.000213  1
  Rb  Rb18  1  0.259773  0.739906  0.499925  1
  Rb  Rb19  1  0.422706  0.577010  0.499980  1
  Zr  Zr20  1  0.079818  0.919906  0.499895  1
  Zr  Zr21  1  0.420015  0.579955  0.000090  1
  Zr  Zr22  1  0.919916  0.079877  0.499754  1
  Zr  Zr23  1  0.579975  0.420109  0.000043  1
  As  As24  1  0.037938  0.329073  0.404605  1
  As  As25  1  0.829029  0.538022  0.095238  1
  As  As26  1  0.462367  0.171332  0.904712  1
  As  As27  1  0.670981  0.961905  0.595028  1
  As  As28  1  0.962024  0.671049  0.595262  1
  As  As29  1  0.171069  0.462186  0.904813  1
  As  As30  1  0.537936  0.828843  0.095448  1
  As  As31  1  0.328817  0.037791  0.404680  1
  As  As32  1  0.172883  0.172950  0.582520  1
  As  As33  1  0.673089  0.673240  0.917358  1
  As  As34  1  0.326953  0.326902  0.082720  1
  As  As35  1  0.826819  0.826813  0.417141  1
