# generated using pymatgen
data_Yb2ErTm2CuPb3
_symmetry_space_group_name_H-M   'P 1'
_cell_length_a   9.12328927
_cell_length_b   9.12328953
_cell_length_c   6.80667700
_cell_angle_alpha   90.00000000
_cell_angle_beta   90.00000000
_cell_angle_gamma   120.02775536
_symmetry_Int_Tables_number   1
_chemical_formula_structural   Yb2ErTm2CuPb3
_chemical_formula_sum   'Yb4 Er2 Tm4 Cu2 Pb6'
_cell_volume   490.50918520
_cell_formula_units_Z   2
loop_
 _symmetry_equiv_pos_site_id
 _symmetry_equiv_pos_as_xyz
  1  'x, y, z'
loop_
 _atom_site_type_symbol
 _atom_site_label
 _atom_site_symmetry_multiplicity
 _atom_site_fract_x
 _atom_site_fract_y
 _atom_site_fract_z
 _atom_site_occupancy
  Yb  Yb0  1  0.333297  0.666703  0.000000  1
  Yb  Yb1  1  0.666703  0.333297  0.000000  1
  Yb  Yb2  1  0.666703  0.333297  0.500000  1
  Yb  Yb3  1  0.333297  0.666703  0.500000  1
  Er  Er4  1  0.745294  0.745294  0.250000  1
  Er  Er5  1  0.254706  0.254706  0.750000  1
  Tm  Tm6  1  0.254521  0.999960  0.250000  1
  Tm  Tm7  1  0.745479  0.000040  0.750000  1
  Tm  Tm8  1  0.999960  0.254521  0.250000  1
  Tm  Tm9  1  0.000040  0.745479  0.750000  1
  Cu  Cu10  1  0.000000  0.000000  0.000000  1
  Cu  Cu11  1  0.000000  0.000000  0.500000  1
  Pb  Pb12  1  0.610918  0.000137  0.250000  1
  Pb  Pb13  1  0.389082  0.999863  0.750000  1
  Pb  Pb14  1  0.000137  0.610918  0.250000  1
  Pb  Pb15  1  0.999863  0.389082  0.750000  1
  Pb  Pb16  1  0.388923  0.388923  0.250000  1
  Pb  Pb17  1  0.611077  0.611077  0.750000  1
