# generated using pymatgen
data_Ce7Ho(Si4W3)4
_symmetry_space_group_name_H-M   'P 1'
_cell_length_a   6.90109815
_cell_length_b   6.96353427
_cell_length_c   13.01064812
_cell_angle_alpha   90.09637305
_cell_angle_beta   89.97456268
_cell_angle_gamma   90.10361274
_symmetry_Int_Tables_number   1
_chemical_formula_structural   Ce7Ho(Si4W3)4
_chemical_formula_sum   'Ce7 Ho1 Si16 W12'
_cell_volume   625.23817448
_cell_formula_units_Z   1
loop_
 _symmetry_equiv_pos_site_id
 _symmetry_equiv_pos_as_xyz
  1  'x, y, z'
loop_
 _atom_site_type_symbol
 _atom_site_label
 _atom_site_symmetry_multiplicity
 _atom_site_fract_x
 _atom_site_fract_y
 _atom_site_fract_z
 _atom_site_occupancy
  Ce  Ce0  1  0.494519  0.660771  0.592221  1
  Ce  Ce1  1  0.994950  0.837843  0.907864  1
  Ce  Ce2  1  0.505330  0.338581  0.092050  1
  Ce  Ce3  1  0.003913  0.166650  0.405841  1
  Ce  Ce4  1  0.505990  0.338809  0.408862  1
  Ce  Ce5  1  0.006338  0.161873  0.092193  1
  Ce  Ce6  1  0.494236  0.662839  0.906989  1
  Ho  Ho7  1  0.994439  0.833185  0.593726  1
  Si  Si8  1  0.659533  0.954706  0.454340  1
  Si  Si9  1  0.157328  0.546512  0.046750  1
  Si  Si10  1  0.344509  0.047143  0.952088  1
  Si  Si11  1  0.843664  0.455989  0.546903  1
  Si  Si12  1  0.338830  0.043627  0.547307  1
  Si  Si13  1  0.841596  0.454288  0.953297  1
  Si  Si14  1  0.657584  0.953872  0.046937  1
  Si  Si15  1  0.156402  0.548188  0.453876  1
  Si  Si16  1  0.461380  0.363638  0.751489  1
  Si  Si17  1  0.962964  0.130199  0.748388  1
  Si  Si18  1  0.538285  0.635301  0.250648  1
  Si  Si19  1  0.038479  0.866975  0.250502  1
  Si  Si20  1  0.694081  0.867698  0.748658  1
  Si  Si21  1  0.191268  0.630320  0.749269  1
  Si  Si22  1  0.308746  0.131464  0.250131  1
  Si  Si23  1  0.807254  0.371175  0.249528  1
  W  W24  1  0.665969  0.162861  0.625889  1
  W  W25  1  0.164619  0.337743  0.872878  1
  W  W26  1  0.332435  0.838854  0.126369  1
  W  W27  1  0.831662  0.662432  0.373957  1
  W  W28  1  0.331453  0.838949  0.374244  1
  W  W29  1  0.832566  0.663304  0.126731  1
  W  W30  1  0.672701  0.159886  0.872823  1
  W  W31  1  0.165981  0.335754  0.626477  1
  W  W32  1  0.832270  0.495718  0.749966  1
  W  W33  1  0.332785  0.000115  0.750047  1
  W  W34  1  0.168327  0.503701  0.250030  1
  W  W35  1  0.667619  0.999035  0.250733  1
