# generated using pymatgen
data_Ca4Ho3Er(BO4)4
_symmetry_space_group_name_H-M   'P 1'
_cell_length_a   3.59028100
_cell_length_b   9.64274626
_cell_length_c   10.51319529
_cell_angle_alpha   89.97327958
_cell_angle_beta   90.00000000
_cell_angle_gamma   90.00000000
_symmetry_Int_Tables_number   1
_chemical_formula_structural   Ca4Ho3Er(BO4)4
_chemical_formula_sum   'Ca4 Ho3 Er1 B4 O16'
_cell_volume   363.96855472
_cell_formula_units_Z   1
loop_
 _symmetry_equiv_pos_site_id
 _symmetry_equiv_pos_as_xyz
  1  'x, y, z'
loop_
 _atom_site_type_symbol
 _atom_site_label
 _atom_site_symmetry_multiplicity
 _atom_site_fract_x
 _atom_site_fract_y
 _atom_site_fract_z
 _atom_site_occupancy
  Ca  Ca0  1  0.250000  0.669843  0.083824  1
  Ca  Ca1  1  0.750000  0.330176  0.916130  1
  Ca  Ca2  1  0.750000  0.169911  0.416246  1
  Ca  Ca3  1  0.250000  0.830118  0.583826  1
  Ho  Ho4  1  0.250000  0.087472  0.111714  1
  Ho  Ho5  1  0.750000  0.912544  0.888293  1
  Ho  Ho6  1  0.750000  0.587376  0.388412  1
  Er  Er7  1  0.250000  0.412693  0.611374  1
  B  B8  1  0.250000  0.367600  0.200378  1
  B  B9  1  0.750000  0.632292  0.799529  1
  B  B10  1  0.750000  0.867589  0.299595  1
  B  B11  1  0.250000  0.132516  0.700349  1
  O  O12  1  0.250000  0.499561  0.252689  1
  O  O13  1  0.750000  0.500280  0.747018  1
  O  O14  1  0.750000  0.999569  0.247310  1
  O  O15  1  0.250000  0.000447  0.752706  1
  O  O16  1  0.250000  0.248117  0.275636  1
  O  O17  1  0.750000  0.751894  0.724373  1
  O  O18  1  0.750000  0.748136  0.224381  1
  O  O19  1  0.250000  0.252238  0.775222  1
  O  O20  1  0.250000  0.350935  0.068006  1
  O  O21  1  0.750000  0.649038  0.931970  1
  O  O22  1  0.750000  0.850906  0.432008  1
  O  O23  1  0.250000  0.149203  0.567994  1
  O  O24  1  0.250000  0.613353  0.506639  1
  O  O25  1  0.750000  0.386199  0.494380  1
  O  O26  1  0.750000  0.113844  0.993670  1
  O  O27  1  0.250000  0.886151  0.006330  1
