# generated using pymatgen
data_Li7Ca6Ag9N
_symmetry_space_group_name_H-M   'P 1'
_cell_length_a   8.50583511
_cell_length_b   8.53118656
_cell_length_c   8.53118626
_cell_angle_alpha   109.44288478
_cell_angle_beta   109.54582495
_cell_angle_gamma   109.54582514
_symmetry_Int_Tables_number   1
_chemical_formula_structural   Li7Ca6Ag9N
_chemical_formula_sum   'Li7 Ca6 Ag9 N1'
_cell_volume   475.84338261
_cell_formula_units_Z   1
loop_
 _symmetry_equiv_pos_site_id
 _symmetry_equiv_pos_as_xyz
  1  'x, y, z'
loop_
 _atom_site_type_symbol
 _atom_site_label
 _atom_site_symmetry_multiplicity
 _atom_site_fract_x
 _atom_site_fract_y
 _atom_site_fract_z
 _atom_site_occupancy
  Li  Li0  1  0.673029  0.336515  0.336515  1
  Li  Li1  1  0.350947  0.006379  0.669261  1
  Li  Li2  1  0.350947  0.681685  0.344569  1
  Li  Li3  1  0.350947  0.344569  0.681685  1
  Li  Li4  1  0.350947  0.669261  0.006379  1
  Li  Li5  1  0.997511  0.341678  0.655833  1
  Li  Li6  1  0.997511  0.655833  0.341678  1
  Ca  Ca7  1  0.993893  0.245468  0.245468  1
  Ca  Ca8  1  0.253099  0.002195  0.250904  1
  Ca  Ca9  1  0.748792  0.000936  0.747856  1
  Ca  Ca10  1  0.748792  0.747856  0.000936  1
  Ca  Ca11  1  0.253099  0.250904  0.002195  1
  Ca  Ca12  1  0.993893  0.748425  0.748425  1
  Ag  Ag13  1  0.493063  0.494923  0.494923  1
  Ag  Ag14  1  0.493063  0.998140  0.998140  1
  Ag  Ag15  1  0.015769  0.507884  0.007884  1
  Ag  Ag16  1  0.015769  0.007884  0.507884  1
  Ag  Ag17  1  0.657278  0.651802  0.305657  1
  Ag  Ag18  1  0.657278  0.005476  0.351622  1
  Ag  Ag19  1  0.657278  0.351622  0.005476  1
  Ag  Ag20  1  0.657278  0.305657  0.651802  1
  Ag  Ag21  1  0.292518  0.646258  0.646258  1
  N  N22  1  0.997298  0.998649  0.998649  1
