# generated using pymatgen
data_Al4IrOsRh2
_symmetry_space_group_name_H-M   'P 1'
_cell_length_a   6.02422400
_cell_length_b   4.24686200
_cell_length_c   8.52212100
_cell_angle_alpha   89.99973058
_cell_angle_beta   90.00000115
_cell_angle_gamma   90.00024573
_symmetry_Int_Tables_number   1
_chemical_formula_structural   Al4IrOsRh2
_chemical_formula_sum   'Al8 Ir2 Os2 Rh4'
_cell_volume   218.03035260
_cell_formula_units_Z   2
loop_
 _symmetry_equiv_pos_site_id
 _symmetry_equiv_pos_as_xyz
  1  'x, y, z'
loop_
 _atom_site_type_symbol
 _atom_site_label
 _atom_site_symmetry_multiplicity
 _atom_site_fract_x
 _atom_site_fract_y
 _atom_site_fract_z
 _atom_site_occupancy
  Al  Al0  1  0.501334  0.749998  0.127193  1
  Al  Al1  1  0.998665  0.749999  0.127193  1
  Al  Al2  1  0.498672  0.249996  0.372804  1
  Al  Al3  1  0.001331  0.249996  0.372804  1
  Al  Al4  1  0.001333  0.750003  0.622719  1
  Al  Al5  1  0.498663  0.750003  0.622719  1
  Al  Al6  1  0.998666  0.250001  0.877281  1
  Al  Al7  1  0.501333  0.250000  0.877282  1
  Ir  Ir8  1  0.750000  0.250001  0.626032  1
  Ir  Ir9  1  0.249994  0.750005  0.873967  1
  Os  Os10  1  0.750007  0.249994  0.124084  1
  Os  Os11  1  0.249998  0.749997  0.375918  1
  Rh  Rh12  1  0.249996  0.249997  0.122479  1
  Rh  Rh13  1  0.750002  0.749996  0.377515  1
  Rh  Rh14  1  0.249997  0.250005  0.628032  1
  Rh  Rh15  1  0.750006  0.750001  0.871974  1
