# generated using pymatgen
data_Dy14Er2Zn3InRh4
_symmetry_space_group_name_H-M   'P 1'
_cell_length_a   9.52721812
_cell_length_b   9.53711721
_cell_length_c   9.52304345
_cell_angle_alpha   59.93832719
_cell_angle_beta   59.94412178
_cell_angle_gamma   59.87375397
_symmetry_Int_Tables_number   1
_chemical_formula_structural   Dy14Er2Zn3InRh4
_chemical_formula_sum   'Dy14 Er2 Zn3 In1 Rh4'
_cell_volume   610.72016386
_cell_formula_units_Z   1
loop_
 _symmetry_equiv_pos_site_id
 _symmetry_equiv_pos_as_xyz
  1  'x, y, z'
loop_
 _atom_site_type_symbol
 _atom_site_label
 _atom_site_symmetry_multiplicity
 _atom_site_fract_x
 _atom_site_fract_y
 _atom_site_fract_z
 _atom_site_occupancy
  Dy  Dy0  1  0.309478  0.691721  0.308892  1
  Dy  Dy1  1  0.933681  0.934713  0.558960  1
  Dy  Dy2  1  0.146888  0.147180  0.556111  1
  Dy  Dy3  1  0.563372  0.936711  0.562141  1
  Dy  Dy4  1  0.148084  0.149067  0.149191  1
  Dy  Dy5  1  0.309020  0.308616  0.692212  1
  Dy  Dy6  1  0.936213  0.563242  0.562875  1
  Dy  Dy7  1  0.562726  0.562032  0.937682  1
  Dy  Dy8  1  0.558966  0.934023  0.934525  1
  Dy  Dy9  1  0.933551  0.559272  0.934972  1
  Dy  Dy10  1  0.145767  0.557437  0.147411  1
  Dy  Dy11  1  0.309807  0.691196  0.691094  1
  Dy  Dy12  1  0.690980  0.309685  0.690508  1
  Dy  Dy13  1  0.558488  0.145742  0.147043  1
  Er  Er14  1  0.691869  0.309057  0.308857  1
  Er  Er15  1  0.690959  0.690665  0.308910  1
  Zn  Zn16  1  0.922093  0.922112  0.242765  1
  Zn  Zn17  1  0.242724  0.922181  0.922225  1
  Zn  Zn18  1  0.922070  0.242992  0.922148  1
  In  In19  1  0.923392  0.922650  0.922898  1
  Rh  Rh20  1  0.358356  0.356987  0.356819  1
  Rh  Rh21  1  0.927318  0.357857  0.356010  1
  Rh  Rh22  1  0.356244  0.356614  0.929468  1
  Rh  Rh23  1  0.357954  0.928246  0.356284  1
