# generated using pymatgen
data_ErTm11Co5Pb
_symmetry_space_group_name_H-M   'P 1'
_cell_length_a   8.16120801
_cell_length_b   8.16141259
_cell_length_c   8.16057470
_cell_angle_alpha   110.91194507
_cell_angle_beta   110.83051999
_cell_angle_gamma   106.71030198
_symmetry_Int_Tables_number   1
_chemical_formula_structural   ErTm11Co5Pb
_chemical_formula_sum   'Er1 Tm11 Co5 Pb1'
_cell_volume   417.67867110
_cell_formula_units_Z   1
loop_
 _symmetry_equiv_pos_site_id
 _symmetry_equiv_pos_as_xyz
  1  'x, y, z'
loop_
 _atom_site_type_symbol
 _atom_site_label
 _atom_site_symmetry_multiplicity
 _atom_site_fract_x
 _atom_site_fract_y
 _atom_site_fract_z
 _atom_site_occupancy
  Er  Er0  1  0.287727  0.184381  0.471927  1
  Tm  Tm1  1  0.712646  0.815752  0.528336  1
  Tm  Tm2  1  0.287411  0.815432  0.102763  1
  Tm  Tm3  1  0.712834  0.184639  0.897394  1
  Tm  Tm4  1  0.619391  0.312922  0.306402  1
  Tm  Tm5  1  0.380961  0.687720  0.693734  1
  Tm  Tm6  1  0.006319  0.312964  0.693814  1
  Tm  Tm7  1  0.993801  0.687267  0.306517  1
  Tm  Tm8  1  0.211026  0.405647  0.194357  1
  Tm  Tm9  1  0.789275  0.594850  0.805897  1
  Tm  Tm10  1  0.211092  0.016617  0.805821  1
  Tm  Tm11  1  0.788817  0.983353  0.194307  1
  Co  Co12  1  0.000108  0.376438  0.376428  1
  Co  Co13  1  0.000048  0.623882  0.623832  1
  Co  Co14  1  0.387626  0.887486  0.500306  1
  Co  Co15  1  0.612799  0.112674  0.500298  1
  Co  Co16  1  0.000078  0.000039  0.000001  1
  Pb  Pb17  1  0.498043  0.497938  0.997867  1
