# generated using pymatgen
data_Pr8Ho8Sc4Si15Pt
_symmetry_space_group_name_H-M   'P 1'
_cell_length_a   7.42267157
_cell_length_b   7.72801034
_cell_length_c   14.74597853
_cell_angle_alpha   89.90100140
_cell_angle_beta   89.75421147
_cell_angle_gamma   90.35784063
_symmetry_Int_Tables_number   1
_chemical_formula_structural   Pr8Ho8Sc4Si15Pt
_chemical_formula_sum   'Pr8 Ho8 Sc4 Si15 Pt1'
_cell_volume   845.84035561
_cell_formula_units_Z   1
loop_
 _symmetry_equiv_pos_site_id
 _symmetry_equiv_pos_as_xyz
  1  'x, y, z'
loop_
 _atom_site_type_symbol
 _atom_site_label
 _atom_site_symmetry_multiplicity
 _atom_site_fract_x
 _atom_site_fract_y
 _atom_site_fract_z
 _atom_site_occupancy
  Pr  Pr0  1  0.018972  0.182151  0.400453  1
  Pr  Pr1  1  0.520074  0.320479  0.398302  1
  Pr  Pr2  1  0.477546  0.678770  0.901028  1
  Pr  Pr3  1  0.478582  0.674558  0.600122  1
  Pr  Pr4  1  0.979298  0.821292  0.598476  1
  Pr  Pr5  1  0.978869  0.820562  0.901531  1
  Pr  Pr6  1  0.519954  0.322365  0.098271  1
  Pr  Pr7  1  0.021541  0.179035  0.099699  1
  Ho  Ho8  1  0.323334  0.183892  0.622090  1
  Ho  Ho9  1  0.676576  0.823855  0.373886  1
  Ho  Ho10  1  0.177310  0.666266  0.378128  1
  Ho  Ho11  1  0.823620  0.320835  0.876595  1
  Ho  Ho12  1  0.824789  0.326817  0.622895  1
  Ho  Ho13  1  0.320202  0.177007  0.875557  1
  Ho  Ho14  1  0.178435  0.677433  0.124713  1
  Ho  Ho15  1  0.682179  0.824973  0.125260  1
  Sc  Sc16  1  0.654714  0.991319  0.749628  1
  Sc  Sc17  1  0.846200  0.492596  0.251132  1
  Sc  Sc18  1  0.346870  0.004955  0.249578  1
  Sc  Sc19  1  0.155410  0.508718  0.745314  1
  Si  Si20  1  0.277432  0.877650  0.749945  1
  Si  Si21  1  0.477207  0.609834  0.248413  1
  Si  Si22  1  0.022278  0.109148  0.750654  1
  Si  Si23  1  0.528173  0.389547  0.753058  1
  Si  Si24  1  0.982264  0.888205  0.251651  1
  Si  Si25  1  0.720564  0.127696  0.248862  1
  Si  Si26  1  0.853604  0.532509  0.040148  1
  Si  Si27  1  0.354778  0.967915  0.040268  1
  Si  Si28  1  0.146763  0.467469  0.960886  1
  Si  Si29  1  0.645815  0.032466  0.538555  1
  Si  Si30  1  0.352924  0.966635  0.459394  1
  Si  Si31  1  0.844015  0.533676  0.456854  1
  Si  Si32  1  0.776439  0.624574  0.752391  1
  Si  Si33  1  0.223023  0.372169  0.248703  1
  Si  Si34  1  0.645968  0.030793  0.960255  1
  Pt  Pt35  1  0.144281  0.471836  0.547303  1
