# generated using pymatgen
data_Tb2HoSi(PPd4)5
_symmetry_space_group_name_H-M   'P 1'
_cell_length_a   8.69481777
_cell_length_b   8.68403783
_cell_length_c   8.68403770
_cell_angle_alpha   60.08214589
_cell_angle_beta   59.95893146
_cell_angle_gamma   59.95893093
_symmetry_Int_Tables_number   1
_chemical_formula_structural   Tb2HoSi(PPd4)5
_chemical_formula_sum   'Tb2 Ho1 Si1 P5 Pd20'
_cell_volume   463.64713444
_cell_formula_units_Z   1
loop_
 _symmetry_equiv_pos_site_id
 _symmetry_equiv_pos_as_xyz
  1  'x, y, z'
loop_
 _atom_site_type_symbol
 _atom_site_label
 _atom_site_symmetry_multiplicity
 _atom_site_fract_x
 _atom_site_fract_y
 _atom_site_fract_z
 _atom_site_occupancy
  Tb  Tb0  1  0.250507  0.249493  0.249493  1
  Tb  Tb1  1  0.750507  0.749493  0.749493  1
  Ho  Ho2  1  0.999589  0.000411  0.000411  1
  Si  Si3  1  0.734525  0.265475  0.265475  1
  P  P4  1  0.263452  0.736548  0.736548  1
  P  P5  1  0.264240  0.735760  0.262826  1
  P  P6  1  0.737174  0.262826  0.735760  1
  P  P7  1  0.264240  0.262826  0.735760  1
  P  P8  1  0.737174  0.735760  0.262826  1
  Pd  Pd9  1  0.383434  0.385001  0.385001  1
  Pd  Pd10  1  0.615247  0.615259  0.615259  1
  Pd  Pd11  1  0.384741  0.384753  0.845767  1
  Pd  Pd12  1  0.384741  0.845767  0.384753  1
  Pd  Pd13  1  0.614999  0.616566  0.153436  1
  Pd  Pd14  1  0.614999  0.153436  0.616566  1
  Pd  Pd15  1  0.846564  0.385001  0.385001  1
  Pd  Pd16  1  0.154233  0.615259  0.615259  1
  Pd  Pd17  1  0.343406  0.000571  0.000571  1
  Pd  Pd18  1  0.655451  0.000571  0.000571  1
  Pd  Pd19  1  0.999429  0.344549  0.656594  1
  Pd  Pd20  1  0.999429  0.656594  0.344549  1
  Pd  Pd21  1  0.000472  0.346059  0.999528  1
  Pd  Pd22  1  0.653941  0.999528  0.346059  1
  Pd  Pd23  1  0.000751  0.654204  0.999249  1
  Pd  Pd24  1  0.345796  0.999249  0.654204  1
  Pd  Pd25  1  0.000472  0.999528  0.346059  1
  Pd  Pd26  1  0.000751  0.999249  0.654204  1
  Pd  Pd27  1  0.653941  0.346059  0.999528  1
  Pd  Pd28  1  0.345796  0.654204  0.999249  1
