# generated using pymatgen
data_TaNb2Bi(PO4)6
_symmetry_space_group_name_H-M   'P 1'
_cell_length_a   8.90888541
_cell_length_b   9.03193409
_cell_length_c   12.53472312
_cell_angle_alpha   90.01551418
_cell_angle_beta   90.86944496
_cell_angle_gamma   90.00758940
_symmetry_Int_Tables_number   1
_chemical_formula_structural   TaNb2Bi(PO4)6
_chemical_formula_sum   'Ta2 Nb4 Bi2 P12 O48'
_cell_volume   1008.48363145
_cell_formula_units_Z   2
loop_
 _symmetry_equiv_pos_site_id
 _symmetry_equiv_pos_as_xyz
  1  'x, y, z'
loop_
 _atom_site_type_symbol
 _atom_site_label
 _atom_site_symmetry_multiplicity
 _atom_site_fract_x
 _atom_site_fract_y
 _atom_site_fract_z
 _atom_site_occupancy
  Ta  Ta0  1  0.750274  0.465733  0.114796  1
  Ta  Ta1  1  0.746625  0.035372  0.887527  1
  Nb  Nb2  1  0.752564  0.534301  0.615944  1
  Nb  Nb3  1  0.250442  0.034150  0.616033  1
  Nb  Nb4  1  0.252511  0.965703  0.115799  1
  Nb  Nb5  1  0.246876  0.464631  0.385845  1
  Bi  Bi6  1  0.746803  0.965749  0.377713  1
  Bi  Bi7  1  0.247085  0.534246  0.876976  1
  P  P8  1  0.542890  0.754879  0.004600  1
  P  P9  1  0.972685  0.260213  0.508808  1
  P  P10  1  0.472963  0.240206  0.008890  1
  P  P11  1  0.042728  0.744704  0.504674  1
  P  P12  1  0.612357  0.589013  0.349723  1
  P  P13  1  0.904266  0.125059  0.134349  1
  P  P14  1  0.868624  0.386875  0.852968  1
  P  P15  1  0.602932  0.885979  0.648865  1
  P  P16  1  0.403852  0.375816  0.633821  1
  P  P17  1  0.110141  0.910085  0.850680  1
  P  P18  1  0.100991  0.615174  0.147279  1
  P  P19  1  0.368570  0.111876  0.352498  1
  O  O20  1  0.927314  0.596535  0.138767  1
  O  O21  1  0.537599  0.120506  0.352735  1
  O  O22  1  0.575459  0.406276  0.641290  1
  O  O23  1  0.940376  0.951417  0.847155  1
  O  O24  1  0.037591  0.379060  0.853767  1
  O  O25  1  0.429032  0.902980  0.640878  1
  O  O26  1  0.442358  0.547540  0.345367  1
  O  O27  1  0.076053  0.095704  0.141011  1
  O  O28  1  0.960073  0.814450  0.411560  1
  O  O29  1  0.580977  0.326771  0.085223  1
  O  O30  1  0.565408  0.132898  0.939588  1
  O  O31  1  0.933574  0.657367  0.578549  1
  O  O32  1  0.080780  0.174807  0.585553  1
  O  O33  1  0.460319  0.685475  0.911265  1
  O  O34  1  0.433309  0.841584  0.078646  1
  O  O35  1  0.064200  0.367922  0.439202  1
  O  O36  1  0.690402  0.488821  0.265134  1
  O  O37  1  0.819105  0.024244  0.207253  1
  O  O38  1  0.810094  0.500698  0.767257  1
  O  O39  1  0.652952  0.959931  0.756181  1
  O  O40  1  0.317538  0.477667  0.705363  1
  O  O41  1  0.188242  0.011167  0.766732  1
  O  O42  1  0.151201  0.541118  0.254513  1
  O  O43  1  0.310270  0.997163  0.267040  1
  O  O44  1  0.679076  0.550833  0.461575  1
  O  O45  1  0.854294  0.098505  0.017232  1
  O  O46  1  0.806448  0.440124  0.962231  1
  O  O47  1  0.681943  0.957390  0.557237  1
  O  O48  1  0.355311  0.399630  0.516188  1
  O  O49  1  0.178022  0.948283  0.962201  1
  O  O50  1  0.180997  0.544400  0.055883  1
  O  O51  1  0.307370  0.059173  0.462041  1
  O  O52  1  0.624105  0.636188  0.075782  1
  O  O53  1  0.882235  0.161768  0.436478  1
  O  O54  1  0.871291  0.357123  0.580399  1
  O  O55  1  0.670411  0.859175  0.965971  1
  O  O56  1  0.381979  0.337978  0.936566  1
  O  O57  1  0.123042  0.863380  0.576663  1
  O  O58  1  0.171288  0.641946  0.466000  1
  O  O59  1  0.372332  0.142564  0.080473  1
  O  O60  1  0.626364  0.750600  0.322040  1
  O  O61  1  0.878056  0.292968  0.156477  1
  O  O62  1  0.798305  0.233108  0.825178  1
  O  O63  1  0.639287  0.717159  0.656255  1
  O  O64  1  0.379021  0.208313  0.658073  1
  O  O65  1  0.124544  0.748737  0.822526  1
  O  O66  1  0.136482  0.784022  0.155252  1
  O  O67  1  0.297389  0.264772  0.323466  1
