# generated using pymatgen
data_Cs4TmNpBr10
_symmetry_space_group_name_H-M   'P 1'
_cell_length_a   8.01851700
_cell_length_b   10.40659408
_cell_length_c   16.38451235
_cell_angle_alpha   89.26048287
_cell_angle_beta   90.00000000
_cell_angle_gamma   90.00000000
_symmetry_Int_Tables_number   1
_chemical_formula_structural   Cs4TmNpBr10
_chemical_formula_sum   'Cs8 Tm2 Np2 Br20'
_cell_volume   1367.09914993
_cell_formula_units_Z   2
loop_
 _symmetry_equiv_pos_site_id
 _symmetry_equiv_pos_as_xyz
  1  'x, y, z'
loop_
 _atom_site_type_symbol
 _atom_site_label
 _atom_site_symmetry_multiplicity
 _atom_site_fract_x
 _atom_site_fract_y
 _atom_site_fract_z
 _atom_site_occupancy
  Cs  Cs0  1  0.250000  0.664756  0.918520  1
  Cs  Cs1  1  0.750000  0.335244  0.081480  1
  Cs  Cs2  1  0.750000  0.836361  0.416426  1
  Cs  Cs3  1  0.250000  0.163639  0.583574  1
  Cs  Cs4  1  0.250000  0.973632  0.207748  1
  Cs  Cs5  1  0.750000  0.026368  0.792252  1
  Cs  Cs6  1  0.750000  0.525715  0.710535  1
  Cs  Cs7  1  0.250000  0.474285  0.289465  1
  Tm  Tm8  1  0.750000  0.824481  0.063397  1
  Tm  Tm9  1  0.250000  0.175519  0.936603  1
  Np  Np10  1  0.250000  0.681133  0.565769  1
  Np  Np11  1  0.750000  0.318867  0.434231  1
  Br  Br12  1  0.250000  0.518390  0.706798  1
  Br  Br13  1  0.750000  0.481610  0.293202  1
  Br  Br14  1  0.750000  0.974844  0.199369  1
  Br  Br15  1  0.250000  0.025156  0.800631  1
  Br  Br16  1  0.511440  0.839786  0.619761  1
  Br  Br17  1  0.488560  0.160214  0.380239  1
  Br  Br18  1  0.500002  0.669951  0.115861  1
  Br  Br19  1  0.011440  0.160214  0.380239  1
  Br  Br20  1  0.499998  0.330049  0.884139  1
  Br  Br21  1  0.988560  0.839786  0.619761  1
  Br  Br22  1  0.000002  0.330049  0.884139  1
  Br  Br23  1  0.999998  0.669951  0.115861  1
  Br  Br24  1  0.250000  0.787763  0.400155  1
  Br  Br25  1  0.750000  0.212237  0.599845  1
  Br  Br26  1  0.750000  0.715973  0.908183  1
  Br  Br27  1  0.250000  0.284027  0.091817  1
  Br  Br28  1  0.000000  0.500000  0.500000  1
  Br  Br29  1  0.000000  0.000000  0.000000  1
  Br  Br30  1  0.500000  0.500000  0.500000  1
  Br  Br31  1  0.500000  0.000000  0.000000  1
