# generated using pymatgen
data_Ba18Sr2Si11Pb
_symmetry_space_group_name_H-M   'P 1'
_cell_length_a   8.42279500
_cell_length_b   8.42279500
_cell_length_c   17.11661000
_cell_angle_alpha   90.00000000
_cell_angle_beta   90.00000000
_cell_angle_gamma   90.00000000
_symmetry_Int_Tables_number   1
_chemical_formula_structural   Ba18Sr2Si11Pb
_chemical_formula_sum   'Ba18 Sr2 Si11 Pb1'
_cell_volume   1214.31180410
_cell_formula_units_Z   1
loop_
 _symmetry_equiv_pos_site_id
 _symmetry_equiv_pos_as_xyz
  1  'x, y, z'
loop_
 _atom_site_type_symbol
 _atom_site_label
 _atom_site_symmetry_multiplicity
 _atom_site_fract_x
 _atom_site_fract_y
 _atom_site_fract_z
 _atom_site_occupancy
  Ba  Ba0  1  0.318612  0.680810  0.111094  1
  Ba  Ba1  1  0.180810  0.181388  0.111094  1
  Ba  Ba2  1  0.326524  0.692391  0.393925  1
  Ba  Ba3  1  0.663950  0.699381  0.887997  1
  Ba  Ba4  1  0.192391  0.173476  0.393925  1
  Ba  Ba5  1  0.673476  0.307609  0.393925  1
  Ba  Ba6  1  0.173415  0.808407  0.606561  1
  Ba  Ba7  1  0.336050  0.300619  0.887997  1
  Ba  Ba8  1  0.199381  0.836050  0.887997  1
  Ba  Ba9  1  0.826585  0.191593  0.606561  1
  Ba  Ba10  1  0.308407  0.326585  0.606561  1
  Ba  Ba11  1  0.807609  0.826524  0.393925  1
  Ba  Ba12  1  0.800619  0.163950  0.887997  1
  Ba  Ba13  1  0.819190  0.818612  0.111094  1
  Ba  Ba14  1  0.000000  0.500000  0.268071  1
  Ba  Ba15  1  0.000000  0.500000  0.768081  1
  Ba  Ba16  1  0.681388  0.319190  0.111094  1
  Ba  Ba17  1  0.691593  0.673415  0.606561  1
  Sr  Sr18  1  0.500000  0.000000  0.722115  1
  Sr  Sr19  1  0.500000  0.000000  0.238888  1
  Si  Si20  1  0.104308  0.100606  0.747066  1
  Si  Si21  1  0.399394  0.604308  0.747066  1
  Si  Si22  1  0.599854  0.604651  0.252570  1
  Si  Si23  1  0.500000  0.000000  0.015607  1
  Si  Si24  1  0.104651  0.900146  0.252570  1
  Si  Si25  1  0.600606  0.395692  0.747066  1
  Si  Si26  1  0.895692  0.899394  0.747066  1
  Si  Si27  1  0.400146  0.395349  0.252570  1
  Si  Si28  1  0.895349  0.099854  0.252570  1
  Si  Si29  1  0.500000  0.000000  0.514441  1
  Si  Si30  1  0.000000  0.500000  0.486395  1
  Pb  Pb31  1  0.000000  0.500000  0.989553  1
