# generated using pymatgen
data_Y4Ho4Si8Pd7Pt
_symmetry_space_group_name_H-M   'P 1'
_cell_length_a   4.33494400
_cell_length_b   7.48903803
_cell_length_c   13.93489705
_cell_angle_alpha   90.00970227
_cell_angle_beta   90.00000000
_cell_angle_gamma   90.00000000
_symmetry_Int_Tables_number   1
_chemical_formula_structural   Y4Ho4Si8Pd7Pt
_chemical_formula_sum   'Y4 Ho4 Si8 Pd7 Pt1'
_cell_volume   452.39030130
_cell_formula_units_Z   1
loop_
 _symmetry_equiv_pos_site_id
 _symmetry_equiv_pos_as_xyz
  1  'x, y, z'
loop_
 _atom_site_type_symbol
 _atom_site_label
 _atom_site_symmetry_multiplicity
 _atom_site_fract_x
 _atom_site_fract_y
 _atom_site_fract_z
 _atom_site_occupancy
  Y  Y0  1  0.500000  0.710256  0.999981  1
  Y  Y1  1  0.000000  0.289565  0.500221  1
  Y  Y2  1  0.500000  0.702097  0.499826  1
  Y  Y3  1  0.000000  0.298590  0.999835  1
  Ho  Ho4  1  0.500000  0.790258  0.748995  1
  Ho  Ho5  1  0.000000  0.209318  0.750429  1
  Ho  Ho6  1  0.500000  0.789522  0.250965  1
  Ho  Ho7  1  0.000000  0.210588  0.248940  1
  Si  Si8  1  0.500000  0.407565  0.644266  1
  Si  Si9  1  0.000000  0.591131  0.855326  1
  Si  Si10  1  0.500000  0.409132  0.355198  1
  Si  Si11  1  0.000000  0.591174  0.144813  1
  Si  Si12  1  0.500000  0.090276  0.094084  1
  Si  Si13  1  0.000000  0.909090  0.405137  1
  Si  Si14  1  0.500000  0.090297  0.906205  1
  Si  Si15  1  0.000000  0.911225  0.593501  1
  Pd  Pd16  1  0.000000  0.923876  0.890602  1
  Pd  Pd17  1  0.500000  0.076236  0.390757  1
  Pd  Pd18  1  0.000000  0.923885  0.109667  1
  Pd  Pd19  1  0.500000  0.420389  0.157184  1
  Pd  Pd20  1  0.000000  0.579519  0.342733  1
  Pd  Pd21  1  0.500000  0.420844  0.842883  1
  Pd  Pd22  1  0.000000  0.579947  0.657315  1
  Pt  Pt23  1  0.500000  0.075219  0.611138  1
