# generated using pymatgen
data_Li8Nd7SmSn3Sb5
_symmetry_space_group_name_H-M   'P 1'
_cell_length_a   9.54062367
_cell_length_b   9.54302458
_cell_length_c   7.50685128
_cell_angle_alpha   89.99999786
_cell_angle_beta   89.95747675
_cell_angle_gamma   120.00832810
_symmetry_Int_Tables_number   1
_chemical_formula_structural   Li8Nd7SmSn3Sb5
_chemical_formula_sum   'Li8 Nd7 Sm1 Sn3 Sb5'
_cell_volume   591.85407275
_cell_formula_units_Z   1
loop_
 _symmetry_equiv_pos_site_id
 _symmetry_equiv_pos_as_xyz
  1  'x, y, z'
loop_
 _atom_site_type_symbol
 _atom_site_label
 _atom_site_symmetry_multiplicity
 _atom_site_fract_x
 _atom_site_fract_y
 _atom_site_fract_z
 _atom_site_occupancy
  Li  Li0  1  0.832875  0.166520  0.727204  1
  Li  Li1  1  0.832875  0.666355  0.727204  1
  Li  Li2  1  0.334416  0.167208  0.724312  1
  Li  Li3  1  0.166996  0.833406  0.224903  1
  Li  Li4  1  0.166996  0.333590  0.224903  1
  Li  Li5  1  0.665834  0.832916  0.223796  1
  Li  Li6  1  0.666322  0.333160  0.311911  1
  Li  Li7  1  0.333878  0.666940  0.810852  1
  Nd  Nd8  1  0.492247  0.511204  0.506446  1
  Nd  Nd9  1  0.492247  0.981044  0.506446  1
  Nd  Nd10  1  0.017367  0.508684  0.506133  1
  Nd  Nd11  1  0.509845  0.492399  0.004869  1
  Nd  Nd12  1  0.509845  0.017444  0.004869  1
  Nd  Nd13  1  0.982659  0.491329  0.005408  1
  Nd  Nd14  1  0.997538  0.998768  0.499965  1
  Sm  Sm15  1  0.998150  0.999075  0.997769  1
  Sn  Sn16  1  0.668317  0.834160  0.764782  1
  Sn  Sn17  1  0.667476  0.333737  0.739274  1
  Sn  Sn18  1  0.332434  0.666217  0.239577  1
  Sb  Sb19  1  0.834346  0.166343  0.260669  1
  Sb  Sb20  1  0.834346  0.668002  0.260669  1
  Sb  Sb21  1  0.331795  0.165897  0.261120  1
  Sb  Sb22  1  0.165600  0.833929  0.762467  1
  Sb  Sb23  1  0.165600  0.331672  0.762467  1
