# generated using pymatgen
data_Gd2DyAuO7
_symmetry_space_group_name_H-M   'P 1'
_cell_length_a   6.54333113
_cell_length_b   6.54333183
_cell_length_c   7.53294090
_cell_angle_alpha   90.00422381
_cell_angle_beta   90.00422647
_cell_angle_gamma   108.97510870
_symmetry_Int_Tables_number   1
_chemical_formula_structural   Gd2DyAuO7
_chemical_formula_sum   'Gd4 Dy2 Au2 O14'
_cell_volume   304.99827618
_cell_formula_units_Z   2
loop_
 _symmetry_equiv_pos_site_id
 _symmetry_equiv_pos_as_xyz
  1  'x, y, z'
loop_
 _atom_site_type_symbol
 _atom_site_label
 _atom_site_symmetry_multiplicity
 _atom_site_fract_x
 _atom_site_fract_y
 _atom_site_fract_z
 _atom_site_occupancy
  Gd  Gd0  1  0.998124  0.527379  0.247368  1
  Gd  Gd1  1  0.472621  0.001876  0.252632  1
  Gd  Gd2  1  0.495060  0.494257  0.997676  1
  Gd  Gd3  1  0.505743  0.504940  0.502324  1
  Dy  Dy4  1  0.001802  0.471714  0.747528  1
  Dy  Dy5  1  0.528286  0.998198  0.752472  1
  Au  Au6  1  0.998724  0.998895  0.501336  1
  Au  Au7  1  0.001105  0.001276  0.998664  1
  O  O8  1  0.920364  0.079636  0.750000  1
  O  O9  1  0.639611  0.360389  0.750000  1
  O  O10  1  0.326368  0.076454  0.528626  1
  O  O11  1  0.923546  0.673632  0.971374  1
  O  O12  1  0.631436  0.368564  0.250000  1
  O  O13  1  0.918140  0.669602  0.524472  1
  O  O14  1  0.330398  0.081860  0.975528  1
  O  O15  1  0.082201  0.330718  0.019877  1
  O  O16  1  0.669282  0.917799  0.480123  1
  O  O17  1  0.366448  0.633552  0.750000  1
  O  O18  1  0.673106  0.922874  0.023793  1
  O  O19  1  0.077126  0.326894  0.476207  1
  O  O20  1  0.363118  0.636882  0.250000  1
  O  O21  1  0.077393  0.922607  0.250000  1
