# generated using pymatgen
data_Dy7Ho9Cd4NiOs3
_symmetry_space_group_name_H-M   'P 1'
_cell_length_a   9.50005951
_cell_length_b   9.68497400
_cell_length_c   9.68469500
_cell_angle_alpha   60.00094953
_cell_angle_beta   59.35497568
_cell_angle_gamma   59.36149003
_symmetry_Int_Tables_number   1
_chemical_formula_structural   Dy7Ho9Cd4NiOs3
_chemical_formula_sum   'Dy7 Ho9 Cd4 Ni1 Os3'
_cell_volume   623.90314007
_cell_formula_units_Z   1
loop_
 _symmetry_equiv_pos_site_id
 _symmetry_equiv_pos_as_xyz
  1  'x, y, z'
loop_
 _atom_site_type_symbol
 _atom_site_label
 _atom_site_symmetry_multiplicity
 _atom_site_fract_x
 _atom_site_fract_y
 _atom_site_fract_z
 _atom_site_occupancy
  Dy  Dy0  1  0.060729  0.061478  0.438896  1
  Dy  Dy1  1  0.186532  0.811498  0.811736  1
  Dy  Dy2  1  0.804413  0.189250  0.189082  1
  Dy  Dy3  1  0.804413  0.189250  0.817256  1
  Dy  Dy4  1  0.186532  0.811498  0.190235  1
  Dy  Dy5  1  0.804488  0.817095  0.189209  1
  Dy  Dy6  1  0.186460  0.190372  0.811585  1
  Ho  Ho7  1  0.601617  0.596112  0.595957  1
  Ho  Ho8  1  0.601617  0.596112  0.206315  1
  Ho  Ho9  1  0.601309  0.206545  0.596073  1
  Ho  Ho10  1  0.218285  0.593760  0.593978  1
  Ho  Ho11  1  0.060826  0.438951  0.438725  1
  Ho  Ho12  1  0.435060  0.061382  0.061203  1
  Ho  Ho13  1  0.435060  0.061382  0.442355  1
  Ho  Ho14  1  0.060826  0.438951  0.061497  1
  Ho  Ho15  1  0.434783  0.442304  0.061456  1
  Cd  Cd16  1  0.828678  0.829796  0.829948  1
  Cd  Cd17  1  0.828678  0.829796  0.511578  1
  Cd  Cd18  1  0.828744  0.511533  0.829861  1
  Cd  Cd19  1  0.505821  0.831384  0.831397  1
  Ni  Ni20  1  0.828715  0.390591  0.390347  1
  Os  Os21  1  0.398726  0.386707  0.386793  1
  Os  Os22  1  0.398726  0.386707  0.827774  1
  Os  Os23  1  0.398959  0.827549  0.386746  1
