# generated using pymatgen
data_YbDy(Ga2Ag)2
_symmetry_space_group_name_H-M   'P 1'
_cell_length_a   4.36589700
_cell_length_b   6.98491515
_cell_length_c   10.36285745
_cell_angle_alpha   90.66620561
_cell_angle_beta   90.00000000
_cell_angle_gamma   90.00000000
_symmetry_Int_Tables_number   1
_chemical_formula_structural   YbDy(Ga2Ag)2
_chemical_formula_sum   'Yb2 Dy2 Ga8 Ag4'
_cell_volume   315.99832924
_cell_formula_units_Z   2
loop_
 _symmetry_equiv_pos_site_id
 _symmetry_equiv_pos_as_xyz
  1  'x, y, z'
loop_
 _atom_site_type_symbol
 _atom_site_label
 _atom_site_symmetry_multiplicity
 _atom_site_fract_x
 _atom_site_fract_y
 _atom_site_fract_z
 _atom_site_occupancy
  Yb  Yb0  1  0.750000  0.723706  0.328559  1
  Yb  Yb1  1  0.250000  0.276294  0.671441  1
  Dy  Dy2  1  0.250000  0.777723  0.828440  1
  Dy  Dy3  1  0.750000  0.222277  0.171560  1
  Ga  Ga4  1  0.250000  0.701950  0.534846  1
  Ga  Ga5  1  0.750000  0.298050  0.465154  1
  Ga  Ga6  1  0.750000  0.796307  0.035880  1
  Ga  Ga7  1  0.250000  0.203693  0.964120  1
  Ga  Ga8  1  0.250000  0.926803  0.150878  1
  Ga  Ga9  1  0.750000  0.073197  0.849122  1
  Ga  Ga10  1  0.750000  0.572362  0.651922  1
  Ga  Ga11  1  0.250000  0.427638  0.348078  1
  Ag  Ag12  1  0.250000  0.542840  0.099429  1
  Ag  Ag13  1  0.750000  0.457160  0.900571  1
  Ag  Ag14  1  0.750000  0.959895  0.598873  1
  Ag  Ag15  1  0.250000  0.040105  0.401127  1
