# generated using pymatgen
data_Y5Ho3Sc12Si15As
_symmetry_space_group_name_H-M   'P 1'
_cell_length_a   7.13897731
_cell_length_b   7.37093676
_cell_length_c   13.97582404
_cell_angle_alpha   90.03465330
_cell_angle_beta   88.76502169
_cell_angle_gamma   90.15319323
_symmetry_Int_Tables_number   1
_chemical_formula_structural   Y5Ho3Sc12Si15As
_chemical_formula_sum   'Y5 Ho3 Sc12 Si15 As1'
_cell_volume   735.24757465
_cell_formula_units_Z   1
loop_
 _symmetry_equiv_pos_site_id
 _symmetry_equiv_pos_as_xyz
  1  'x, y, z'
loop_
 _atom_site_type_symbol
 _atom_site_label
 _atom_site_symmetry_multiplicity
 _atom_site_fract_x
 _atom_site_fract_y
 _atom_site_fract_z
 _atom_site_occupancy
  Y  Y0  1  0.011532  0.176049  0.097209  1
  Y  Y1  1  0.988946  0.824518  0.902570  1
  Y  Y2  1  0.489152  0.675379  0.902843  1
  Y  Y3  1  0.994318  0.821959  0.595577  1
  Y  Y4  1  0.511271  0.325148  0.097292  1
  Ho  Ho5  1  0.004046  0.178271  0.403700  1
  Ho  Ho6  1  0.503370  0.321100  0.402111  1
  Ho  Ho7  1  0.501270  0.677723  0.597431  1
  Sc  Sc8  1  0.166456  0.500733  0.749757  1
  Sc  Sc9  1  0.833453  0.499156  0.253086  1
  Sc  Sc10  1  0.333649  0.000902  0.251697  1
  Sc  Sc11  1  0.666428  0.999004  0.748820  1
  Sc  Sc12  1  0.342418  0.170583  0.626483  1
  Sc  Sc13  1  0.658604  0.827842  0.373852  1
  Sc  Sc14  1  0.156505  0.671906  0.377050  1
  Sc  Sc15  1  0.667370  0.823445  0.125684  1
  Sc  Sc16  1  0.840694  0.328927  0.622596  1
  Sc  Sc17  1  0.332285  0.176079  0.873988  1
  Sc  Sc18  1  0.833477  0.322835  0.874403  1
  Sc  Sc19  1  0.166720  0.677169  0.125238  1
  Si  Si20  1  0.037984  0.116804  0.749416  1
  Si  Si21  1  0.961860  0.883773  0.249734  1
  Si  Si22  1  0.458360  0.616940  0.249186  1
  Si  Si23  1  0.540570  0.383279  0.750491  1
  Si  Si24  1  0.290145  0.870756  0.750073  1
  Si  Si25  1  0.710943  0.127914  0.249460  1
  Si  Si26  1  0.209140  0.373504  0.250017  1
  Si  Si27  1  0.791961  0.626850  0.750221  1
  Si  Si28  1  0.810293  0.539781  0.457228  1
  Si  Si29  1  0.329391  0.962328  0.460550  1
  Si  Si30  1  0.842973  0.535434  0.039381  1
  Si  Si31  1  0.670202  0.038127  0.539888  1
  Si  Si32  1  0.156696  0.465182  0.960362  1
  Si  Si33  1  0.656091  0.034809  0.959867  1
  Si  Si34  1  0.343945  0.965794  0.040157  1
  As  As35  1  0.187485  0.459996  0.542580  1
