# generated using pymatgen
data_Rb6Na4ZrSnSb6
_symmetry_space_group_name_H-M   'P 1'
_cell_length_a   11.55815949
_cell_length_b   11.55816097
_cell_length_c   17.05927200
_cell_angle_alpha   90.00000000
_cell_angle_beta   90.00000000
_cell_angle_gamma   142.82832352
_symmetry_Int_Tables_number   1
_chemical_formula_structural   Rb6Na4ZrSnSb6
_chemical_formula_sum   'Rb12 Na8 Zr2 Sn2 Sb12'
_cell_volume   1376.96352268
_cell_formula_units_Z   2
loop_
 _symmetry_equiv_pos_site_id
 _symmetry_equiv_pos_as_xyz
  1  'x, y, z'
loop_
 _atom_site_type_symbol
 _atom_site_label
 _atom_site_symmetry_multiplicity
 _atom_site_fract_x
 _atom_site_fract_y
 _atom_site_fract_z
 _atom_site_occupancy
  Rb  Rb0  1  0.934478  0.599978  0.827041  1
  Rb  Rb1  1  0.565522  0.900022  0.327041  1
  Rb  Rb2  1  0.400022  0.065522  0.172959  1
  Rb  Rb3  1  0.051632  0.390987  0.171641  1
  Rb  Rb4  1  0.890987  0.551632  0.328359  1
  Rb  Rb5  1  0.448368  0.109013  0.671641  1
  Rb  Rb6  1  0.609013  0.948368  0.828359  1
  Rb  Rb7  1  0.273312  0.276338  0.320960  1
  Rb  Rb8  1  0.776338  0.773312  0.179040  1
  Rb  Rb9  1  0.226688  0.223662  0.820960  1
  Rb  Rb10  1  0.723662  0.726688  0.679040  1
  Rb  Rb11  1  0.099978  0.434478  0.672959  1
  Na  Na12  1  0.918585  0.081415  0.000000  1
  Na  Na13  1  0.581415  0.418585  0.500000  1
  Na  Na14  1  0.082029  0.917971  0.000000  1
  Na  Na15  1  0.417971  0.582029  0.500000  1
  Na  Na16  1  0.754071  0.245929  0.000000  1
  Na  Na17  1  0.745929  0.254071  0.500000  1
  Na  Na18  1  0.245661  0.754339  0.000000  1
  Na  Na19  1  0.254339  0.745661  0.500000  1
  Zr  Zr20  1  0.417097  0.582903  0.000000  1
  Zr  Zr21  1  0.082903  0.917097  0.500000  1
  Sn  Sn22  1  0.585131  0.414869  0.000000  1
  Sn  Sn23  1  0.914869  0.085131  0.500000  1
  Sb  Sb24  1  0.882311  0.565006  0.103766  1
  Sb  Sb25  1  0.434994  0.117689  0.896234  1
  Sb  Sb26  1  0.617689  0.934994  0.603766  1
  Sb  Sb27  1  0.941241  0.627218  0.600605  1
  Sb  Sb28  1  0.127218  0.441241  0.899395  1
  Sb  Sb29  1  0.558759  0.872782  0.100605  1
  Sb  Sb30  1  0.372782  0.058759  0.399395  1
  Sb  Sb31  1  0.213519  0.211403  0.596890  1
  Sb  Sb32  1  0.711403  0.713519  0.903110  1
  Sb  Sb33  1  0.286481  0.288597  0.096890  1
  Sb  Sb34  1  0.065006  0.382311  0.396234  1
  Sb  Sb35  1  0.788597  0.786481  0.403110  1
