# generated using pymatgen
data_V6Si2Ni4CN
_symmetry_space_group_name_H-M   'P 1'
_cell_length_a   7.62636521
_cell_length_b   7.62763626
_cell_length_c   7.65386300
_cell_angle_alpha   59.88642480
_cell_angle_beta   59.88064983
_cell_angle_gamma   59.76229813
_symmetry_Int_Tables_number   1
_chemical_formula_structural   V6Si2Ni4CN
_chemical_formula_sum   'V12 Si4 Ni8 C2 N2'
_cell_volume   313.70612346
_cell_formula_units_Z   2
loop_
 _symmetry_equiv_pos_site_id
 _symmetry_equiv_pos_as_xyz
  1  'x, y, z'
loop_
 _atom_site_type_symbol
 _atom_site_label
 _atom_site_symmetry_multiplicity
 _atom_site_fract_x
 _atom_site_fract_y
 _atom_site_fract_z
 _atom_site_occupancy
  V  V0  1  0.817511  0.817714  0.182381  1
  V  V1  1  0.186609  0.186704  0.813326  1
  V  V2  1  0.814159  0.184858  0.816368  1
  V  V3  1  0.184874  0.814193  0.184703  1
  V  V4  1  0.184862  0.814223  0.816211  1
  V  V5  1  0.814134  0.184869  0.184613  1
  V  V6  1  0.432489  0.432286  0.067619  1
  V  V7  1  0.063391  0.063296  0.436674  1
  V  V8  1  0.435841  0.065142  0.433632  1
  V  V9  1  0.065126  0.435807  0.065297  1
  V  V10  1  0.065138  0.435777  0.433789  1
  V  V11  1  0.435866  0.065131  0.065387  1
  Si  Si12  1  0.125000  0.625000  0.625000  1
  Si  Si13  1  0.625000  0.125000  0.625000  1
  Si  Si14  1  0.625000  0.625000  0.125000  1
  Si  Si15  1  0.625000  0.625000  0.625000  1
  Ni  Ni16  1  0.752260  0.416251  0.415757  1
  Ni  Ni17  1  0.416359  0.752207  0.415724  1
  Ni  Ni18  1  0.416905  0.416811  0.750070  1
  Ni  Ni19  1  0.416916  0.416816  0.416223  1
  Ni  Ni20  1  0.497740  0.833749  0.834243  1
  Ni  Ni21  1  0.833641  0.497793  0.834276  1
  Ni  Ni22  1  0.833095  0.833189  0.499930  1
  Ni  Ni23  1  0.833084  0.833184  0.833777  1
  C  C24  1  0.125000  0.125000  0.625000  1
  C  C25  1  0.125000  0.125000  0.125000  1
  N  N26  1  0.625000  0.125000  0.125000  1
  N  N27  1  0.125000  0.625000  0.125000  1
