# generated using pymatgen
data_Ba4Y2MnWO12
_symmetry_space_group_name_H-M   'P 1'
_cell_length_a   8.46509800
_cell_length_b   8.42591131
_cell_length_c   8.42575937
_cell_angle_alpha   90.03234087
_cell_angle_beta   90.00000000
_cell_angle_gamma   90.00000000
_symmetry_Int_Tables_number   1
_chemical_formula_structural   Ba4Y2MnWO12
_chemical_formula_sum   'Ba8 Y4 Mn2 W2 O24'
_cell_volume   600.97700661
_cell_formula_units_Z   2
loop_
 _symmetry_equiv_pos_site_id
 _symmetry_equiv_pos_as_xyz
  1  'x, y, z'
loop_
 _atom_site_type_symbol
 _atom_site_label
 _atom_site_symmetry_multiplicity
 _atom_site_fract_x
 _atom_site_fract_y
 _atom_site_fract_z
 _atom_site_occupancy
  Ba  Ba0  1  0.516241  0.500000  0.500000  1
  Ba  Ba1  1  0.983759  0.000000  0.000000  1
  Ba  Ba2  1  0.983299  0.000000  0.500000  1
  Ba  Ba3  1  0.983193  0.500000  0.000000  1
  Ba  Ba4  1  0.517634  0.000000  0.000000  1
  Ba  Ba5  1  0.516701  0.500000  0.000000  1
  Ba  Ba6  1  0.516807  0.000000  0.500000  1
  Ba  Ba7  1  0.982366  0.500000  0.500000  1
  Y  Y8  1  0.250000  0.250000  0.250000  1
  Y  Y9  1  0.250000  0.750000  0.750000  1
  Y  Y10  1  0.750000  0.250000  0.750000  1
  Y  Y11  1  0.750000  0.750000  0.250000  1
  Mn  Mn12  1  0.750000  0.750000  0.750000  1
  Mn  Mn13  1  0.750000  0.250000  0.250000  1
  W  W14  1  0.250000  0.750000  0.250000  1
  W  W15  1  0.250000  0.250000  0.750000  1
  O  O16  1  0.246379  0.261334  0.518784  1
  O  O17  1  0.246379  0.738666  0.481216  1
  O  O18  1  0.753193  0.249039  0.484595  1
  O  O19  1  0.753193  0.750961  0.515405  1
  O  O20  1  0.253617  0.518774  0.238550  1
  O  O21  1  0.746953  0.484594  0.251058  1
  O  O22  1  0.253617  0.481226  0.761450  1
  O  O23  1  0.746953  0.515406  0.748942  1
  O  O24  1  0.514720  0.246837  0.253219  1
  O  O25  1  0.481775  0.246518  0.746100  1
  O  O26  1  0.481775  0.753482  0.253900  1
  O  O27  1  0.514720  0.753163  0.746781  1
  O  O28  1  0.253621  0.238666  0.981216  1
  O  O29  1  0.253621  0.761334  0.018784  1
  O  O30  1  0.746807  0.250961  0.015405  1
  O  O31  1  0.746807  0.749039  0.984595  1
  O  O32  1  0.246383  0.981226  0.261450  1
  O  O33  1  0.753047  0.015406  0.248942  1
  O  O34  1  0.246383  0.018774  0.738550  1
  O  O35  1  0.753047  0.984594  0.751058  1
  O  O36  1  0.985280  0.253163  0.246781  1
  O  O37  1  0.018225  0.253482  0.753900  1
  O  O38  1  0.018225  0.746518  0.246100  1
  O  O39  1  0.985280  0.746837  0.753219  1
