# generated using pymatgen
data_Sm2P4OsRh5
_symmetry_space_group_name_H-M   'P 1'
_cell_length_a   3.98005200
_cell_length_b   11.37167051
_cell_length_c   12.69956871
_cell_angle_alpha   89.81242888
_cell_angle_beta   90.00000000
_cell_angle_gamma   90.00000000
_symmetry_Int_Tables_number   1
_chemical_formula_structural   Sm2P4OsRh5
_chemical_formula_sum   'Sm6 P12 Os3 Rh15'
_cell_volume   574.77736719
_cell_formula_units_Z   3
loop_
 _symmetry_equiv_pos_site_id
 _symmetry_equiv_pos_as_xyz
  1  'x, y, z'
loop_
 _atom_site_type_symbol
 _atom_site_label
 _atom_site_symmetry_multiplicity
 _atom_site_fract_x
 _atom_site_fract_y
 _atom_site_fract_z
 _atom_site_occupancy
  Sm  Sm0  1  0.000000  0.499824  0.518899  1
  Sm  Sm1  1  0.500000  0.000636  0.479934  1
  Sm  Sm2  1  0.500000  0.820327  0.204753  1
  Sm  Sm3  1  0.500000  0.177936  0.204792  1
  Sm  Sm4  1  0.000000  0.678044  0.794773  1
  Sm  Sm5  1  0.000000  0.321839  0.796367  1
  P  P6  1  0.500000  0.498232  0.886641  1
  P  P7  1  0.000000  0.998150  0.114501  1
  P  P8  1  0.500000  0.498924  0.345457  1
  P  P9  1  0.000000  0.000377  0.652356  1
  P  P10  1  0.500000  0.312017  0.619619  1
  P  P11  1  0.500000  0.686168  0.618203  1
  P  P12  1  0.000000  0.188753  0.381651  1
  P  P13  1  0.000000  0.813039  0.381939  1
  P  P14  1  0.500000  0.845346  0.890354  1
  P  P15  1  0.500000  0.161305  0.896034  1
  P  P16  1  0.000000  0.656254  0.108972  1
  P  P17  1  0.000000  0.339490  0.103409  1
  Os  Os18  1  0.000000  0.502711  0.994112  1
  Os  Os19  1  0.500000  0.998237  0.006912  1
  Os  Os20  1  0.500000  0.333866  0.998752  1
  Rh  Rh21  1  0.500000  0.511589  0.160144  1
  Rh  Rh22  1  0.000000  0.990760  0.836678  1
  Rh  Rh23  1  0.500000  0.499781  0.702240  1
  Rh  Rh24  1  0.000000  0.000399  0.298339  1
  Rh  Rh25  1  0.500000  0.670977  0.989317  1
  Rh  Rh26  1  0.000000  0.163155  0.003353  1
  Rh  Rh27  1  0.000000  0.830606  0.008811  1
  Rh  Rh28  1  0.500000  0.295290  0.430854  1
  Rh  Rh29  1  0.500000  0.707020  0.430890  1
  Rh  Rh30  1  0.000000  0.204167  0.570239  1
  Rh  Rh31  1  0.000000  0.794896  0.569716  1
  Rh  Rh32  1  0.500000  0.873480  0.709509  1
  Rh  Rh33  1  0.500000  0.126891  0.715315  1
  Rh  Rh34  1  0.000000  0.626799  0.290615  1
  Rh  Rh35  1  0.000000  0.372716  0.285547  1
