# generated using pymatgen
data_Zr6Zn22AgC
_symmetry_space_group_name_H-M   'P 1'
_cell_length_a   8.71088328
_cell_length_b   8.71088248
_cell_length_c   8.71088200
_cell_angle_alpha   59.99999422
_cell_angle_beta   59.99999726
_cell_angle_gamma   59.99999074
_symmetry_Int_Tables_number   1
_chemical_formula_structural   Zr6Zn22AgC
_chemical_formula_sum   'Zr6 Zn22 Ag1 C1'
_cell_volume   467.38139818
_cell_formula_units_Z   1
loop_
 _symmetry_equiv_pos_site_id
 _symmetry_equiv_pos_as_xyz
  1  'x, y, z'
loop_
 _atom_site_type_symbol
 _atom_site_label
 _atom_site_symmetry_multiplicity
 _atom_site_fract_x
 _atom_site_fract_y
 _atom_site_fract_z
 _atom_site_occupancy
  Zr  Zr0  1  0.689437  0.310563  0.310563  1
  Zr  Zr1  1  0.310563  0.689437  0.689437  1
  Zr  Zr2  1  0.310563  0.689437  0.310563  1
  Zr  Zr3  1  0.689437  0.310563  0.689437  1
  Zr  Zr4  1  0.310563  0.310563  0.689437  1
  Zr  Zr5  1  0.689437  0.689437  0.310563  1
  Zn  Zn6  1  0.121997  0.121997  0.121997  1
  Zn  Zn7  1  0.878003  0.878003  0.878003  1
  Zn  Zn8  1  0.121997  0.121997  0.634011  1
  Zn  Zn9  1  0.121997  0.634011  0.121997  1
  Zn  Zn10  1  0.878003  0.878003  0.365989  1
  Zn  Zn11  1  0.878003  0.365989  0.878003  1
  Zn  Zn12  1  0.634011  0.121997  0.121997  1
  Zn  Zn13  1  0.365989  0.878003  0.878003  1
  Zn  Zn14  1  0.500000  0.000000  0.000000  1
  Zn  Zn15  1  0.000000  0.500000  0.500000  1
  Zn  Zn16  1  0.000000  0.500000  0.000000  1
  Zn  Zn17  1  0.500000  0.000000  0.500000  1
  Zn  Zn18  1  0.000000  0.000000  0.500000  1
  Zn  Zn19  1  0.500000  0.500000  0.000000  1
  Zn  Zn20  1  0.330777  0.330777  0.330777  1
  Zn  Zn21  1  0.669223  0.669223  0.669223  1
  Zn  Zn22  1  0.330777  0.330777  0.007669  1
  Zn  Zn23  1  0.330777  0.007669  0.330777  1
  Zn  Zn24  1  0.669223  0.669223  0.992331  1
  Zn  Zn25  1  0.669223  0.992331  0.669223  1
  Zn  Zn26  1  0.007669  0.330777  0.330777  1
  Zn  Zn27  1  0.992331  0.669223  0.669223  1
  Ag  Ag28  1  0.000000  0.000000  0.000000  1
  C  C29  1  0.500000  0.500000  0.500000  1
