# generated using pymatgen
data_V3AsO8
_symmetry_space_group_name_H-M   'P 1'
_cell_length_a   4.51553812
_cell_length_b   5.43085592
_cell_length_c   5.42810114
_cell_angle_alpha   67.60982235
_cell_angle_beta   89.36268491
_cell_angle_gamma   89.30845309
_symmetry_Int_Tables_number   1
_chemical_formula_structural   V3AsO8
_chemical_formula_sum   'V3 As1 O8'
_cell_volume   123.06724864
_cell_formula_units_Z   1
loop_
 _symmetry_equiv_pos_site_id
 _symmetry_equiv_pos_as_xyz
  1  'x, y, z'
loop_
 _atom_site_type_symbol
 _atom_site_label
 _atom_site_symmetry_multiplicity
 _atom_site_fract_x
 _atom_site_fract_y
 _atom_site_fract_z
 _atom_site_occupancy
  V  V0  1  0.000110  0.750183  0.250021  1
  V  V1  1  0.499751  0.250041  0.250182  1
  V  V2  1  0.999703  0.249845  0.750082  1
  As  As3  1  0.499931  0.749832  0.750110  1
  O  O4  1  0.300490  0.418512  0.891215  1
  O  O5  1  0.803254  0.112547  0.096033  1
  O  O6  1  0.684059  0.609457  0.080097  1
  O  O7  1  0.213291  0.907783  0.895244  1
  O  O8  1  0.786874  0.592280  0.604844  1
  O  O9  1  0.316174  0.890504  0.419996  1
  O  O10  1  0.196634  0.387585  0.403654  1
  O  O11  1  0.699730  0.081431  0.608521  1
