# generated using pymatgen
data_CdNiPd3O8
_symmetry_space_group_name_H-M   'P 1'
_cell_length_a   6.14261242
_cell_length_b   10.64073414
_cell_length_c   6.52451350
_cell_angle_alpha   105.76946640
_cell_angle_beta   61.91488838
_cell_angle_gamma   89.99606866
_symmetry_Int_Tables_number   1
_chemical_formula_structural   CdNiPd3O8
_chemical_formula_sum   'Cd2 Ni2 Pd6 O16'
_cell_volume   357.93966373
_cell_formula_units_Z   2
loop_
 _symmetry_equiv_pos_site_id
 _symmetry_equiv_pos_as_xyz
  1  'x, y, z'
loop_
 _atom_site_type_symbol
 _atom_site_label
 _atom_site_symmetry_multiplicity
 _atom_site_fract_x
 _atom_site_fract_y
 _atom_site_fract_z
 _atom_site_occupancy
  Cd  Cd0  1  0.749988  0.750003  0.500024  1
  Cd  Cd1  1  0.249986  0.250005  0.500025  1
  Ni  Ni2  1  0.500008  0.499997  0.999985  1
  Ni  Ni3  1  0.000009  0.999998  0.999984  1
  Pd  Pd4  1  0.749960  0.750009  0.999983  1
  Pd  Pd5  1  0.750068  0.250016  0.999983  1
  Pd  Pd6  1  0.000009  0.499962  0.999980  1
  Pd  Pd7  1  0.249950  0.250015  0.999982  1
  Pd  Pd8  1  0.250058  0.750010  0.999982  1
  Pd  Pd9  1  0.500008  0.999965  0.999981  1
  O  O10  1  0.092045  0.635978  0.815913  1
  O  O11  1  0.592043  0.135979  0.815919  1
  O  O12  1  0.407950  0.864023  0.184095  1
  O  O13  1  0.907948  0.364023  0.184100  1
  O  O14  1  0.357957  0.880680  0.805954  1
  O  O15  1  0.857954  0.380682  0.805955  1
  O  O16  1  0.902918  0.858364  0.194099  1
  O  O17  1  0.402916  0.358366  0.194102  1
  O  O18  1  0.142026  0.619326  0.194058  1
  O  O19  1  0.642024  0.119326  0.194056  1
  O  O20  1  0.663897  0.619337  0.194077  1
  O  O21  1  0.163900  0.119338  0.194075  1
  O  O22  1  0.836111  0.880669  0.805937  1
  O  O23  1  0.336112  0.380671  0.805936  1
  O  O24  1  0.597079  0.641626  0.805912  1
  O  O25  1  0.097077  0.141629  0.805915  1
