# generated using pymatgen
data_La3MgHg2IrAu2
_symmetry_space_group_name_H-M   'P 1'
_cell_length_a   8.15485617
_cell_length_b   8.08072932
_cell_length_c   3.98039200
_cell_angle_alpha   90.00000000
_cell_angle_beta   90.00000000
_cell_angle_gamma   121.16015840
_symmetry_Int_Tables_number   1
_chemical_formula_structural   La3MgHg2IrAu2
_chemical_formula_sum   'La3 Mg1 Hg2 Ir1 Au2'
_cell_volume   224.45359234
_cell_formula_units_Z   1
loop_
 _symmetry_equiv_pos_site_id
 _symmetry_equiv_pos_as_xyz
  1  'x, y, z'
loop_
 _atom_site_type_symbol
 _atom_site_label
 _atom_site_symmetry_multiplicity
 _atom_site_fract_x
 _atom_site_fract_y
 _atom_site_fract_z
 _atom_site_occupancy
  La  La0  1  0.579112  0.984865  0.000000  1
  La  La1  1  0.031867  0.600547  0.000000  1
  La  La2  1  0.385520  0.409864  0.000000  1
  Mg  Mg3  1  0.743249  0.745614  0.500000  1
  Hg  Hg4  1  0.261303  0.000626  0.500000  1
  Hg  Hg5  1  0.991924  0.255737  0.500000  1
  Ir  Ir6  1  0.358054  0.670159  0.500000  1
  Au  Au7  1  0.671494  0.358447  0.500000  1
  Au  Au8  1  0.977476  0.974143  0.000000  1
