# generated using pymatgen
data_Ge2IrRh3Se10
_symmetry_space_group_name_H-M   'P 1'
_cell_length_a   3.73437400
_cell_length_b   7.74519445
_cell_length_c   13.06701414
_cell_angle_alpha   77.38545771
_cell_angle_beta   90.00000000
_cell_angle_gamma   90.00000000
_symmetry_Int_Tables_number   1
_chemical_formula_structural   Ge2IrRh3Se10
_chemical_formula_sum   'Ge2 Ir1 Rh3 Se10'
_cell_volume   368.82013335
_cell_formula_units_Z   1
loop_
 _symmetry_equiv_pos_site_id
 _symmetry_equiv_pos_as_xyz
  1  'x, y, z'
loop_
 _atom_site_type_symbol
 _atom_site_label
 _atom_site_symmetry_multiplicity
 _atom_site_fract_x
 _atom_site_fract_y
 _atom_site_fract_z
 _atom_site_occupancy
  Ge  Ge0  1  0.500000  0.161741  0.682112  1
  Ge  Ge1  1  0.500000  0.837499  0.317249  1
  Ir  Ir2  1  0.500000  0.254273  0.852231  1
  Rh  Rh3  1  0.000000  0.250924  0.149893  1
  Rh  Rh4  1  0.000000  0.749558  0.850234  1
  Rh  Rh5  1  0.500000  0.745022  0.148013  1
  Se  Se6  1  0.000000  0.955386  0.102102  1
  Se  Se7  1  0.000000  0.045084  0.899154  1
  Se  Se8  1  0.000000  0.468134  0.778918  1
  Se  Se9  1  0.000000  0.530840  0.221516  1
  Se  Se10  1  0.500000  0.663781  0.974281  1
  Se  Se11  1  0.500000  0.338022  0.025114  1
  Se  Se12  1  0.500000  0.167684  0.281279  1
  Se  Se13  1  0.500000  0.832328  0.718408  1
  Se  Se14  1  0.000000  0.234867  0.562519  1
  Se  Se15  1  0.000000  0.764859  0.436978  1
