# generated using pymatgen
data_Nb14Ga4AsP3
_symmetry_space_group_name_H-M   'P 1'
_cell_length_a   3.49950200
_cell_length_b   7.91444588
_cell_length_c   14.32768734
_cell_angle_alpha   104.71908025
_cell_angle_beta   90.00000000
_cell_angle_gamma   102.77266234
_symmetry_Int_Tables_number   1
_chemical_formula_structural   Nb14Ga4AsP3
_chemical_formula_sum   'Nb14 Ga4 As1 P3'
_cell_volume   373.64423120
_cell_formula_units_Z   1
loop_
 _symmetry_equiv_pos_site_id
 _symmetry_equiv_pos_as_xyz
  1  'x, y, z'
loop_
 _atom_site_type_symbol
 _atom_site_label
 _atom_site_symmetry_multiplicity
 _atom_site_fract_x
 _atom_site_fract_y
 _atom_site_fract_z
 _atom_site_occupancy
  Nb  Nb0  1  0.001170  0.002339  0.997802  1
  Nb  Nb1  1  0.500001  0.000003  0.500941  1
  Nb  Nb2  1  0.432430  0.864860  0.824749  1
  Nb  Nb3  1  0.572224  0.144447  0.174255  1
  Nb  Nb4  1  0.201546  0.403094  0.308726  1
  Nb  Nb5  1  0.797903  0.595805  0.691596  1
  Nb  Nb6  1  0.202914  0.405828  0.791979  1
  Nb  Nb7  1  0.794778  0.589557  0.210067  1
  Nb  Nb8  1  0.334762  0.669522  0.031818  1
  Nb  Nb9  1  0.660545  0.321090  0.962693  1
  Nb  Nb10  1  0.005908  0.011816  0.666375  1
  Nb  Nb11  1  0.994224  0.988449  0.338338  1
  Nb  Nb12  1  0.174875  0.349747  0.551731  1
  Nb  Nb13  1  0.825360  0.650721  0.449920  1
  Ga  Ga14  1  0.178089  0.356177  0.106674  1
  Ga  Ga15  1  0.823060  0.646120  0.890509  1
  Ga  Ga16  1  0.370491  0.740983  0.600662  1
  Ga  Ga17  1  0.629940  0.259880  0.400826  1
  As  As18  1  0.938233  0.876465  0.151592  1
  P  P19  1  0.373538  0.747075  0.338688  1
  P  P20  1  0.626199  0.252400  0.662513  1
  P  P21  1  0.061810  0.123621  0.847545  1
