# generated using pymatgen
data_Ac2Zn2Si3GeIr2
_symmetry_space_group_name_H-M   'P 1'
_cell_length_a   4.35214700
_cell_length_b   4.35214700
_cell_length_c   10.44221000
_cell_angle_alpha   90.00000000
_cell_angle_beta   90.00000000
_cell_angle_gamma   90.00000000
_symmetry_Int_Tables_number   1
_chemical_formula_structural   Ac2Zn2Si3GeIr2
_chemical_formula_sum   'Ac2 Zn2 Si3 Ge1 Ir2'
_cell_volume   197.78781586
_cell_formula_units_Z   1
loop_
 _symmetry_equiv_pos_site_id
 _symmetry_equiv_pos_as_xyz
  1  'x, y, z'
loop_
 _atom_site_type_symbol
 _atom_site_label
 _atom_site_symmetry_multiplicity
 _atom_site_fract_x
 _atom_site_fract_y
 _atom_site_fract_z
 _atom_site_occupancy
  Ac  Ac0  1  0.000000  0.500000  0.258884  1
  Ac  Ac1  1  0.500000  0.000000  0.738754  1
  Zn  Zn2  1  0.000000  0.000000  0.004777  1
  Zn  Zn3  1  0.500000  0.500000  0.004777  1
  Si  Si4  1  0.000000  0.000000  0.497111  1
  Si  Si5  1  0.500000  0.500000  0.497111  1
  Si  Si6  1  0.500000  0.000000  0.150872  1
  Ge  Ge7  1  0.000000  0.500000  0.854652  1
  Ir  Ir8  1  0.000000  0.500000  0.610038  1
  Ir  Ir9  1  0.500000  0.000000  0.383022  1
