# generated using pymatgen
data_Nd3ZnGaSi4
_symmetry_space_group_name_H-M   'P 1'
_cell_length_a   4.24243792
_cell_length_b   4.19988398
_cell_length_c   21.37893053
_cell_angle_alpha   84.39611095
_cell_angle_beta   95.68839781
_cell_angle_gamma   89.97940807
_symmetry_Int_Tables_number   1
_chemical_formula_structural   Nd3ZnGaSi4
_chemical_formula_sum   'Nd6 Zn2 Ga2 Si8'
_cell_volume   377.21763661
_cell_formula_units_Z   2
loop_
 _symmetry_equiv_pos_site_id
 _symmetry_equiv_pos_as_xyz
  1  'x, y, z'
loop_
 _atom_site_type_symbol
 _atom_site_label
 _atom_site_symmetry_multiplicity
 _atom_site_fract_x
 _atom_site_fract_y
 _atom_site_fract_z
 _atom_site_occupancy
  Nd  Nd0  1  0.374341  0.875881  0.248563  1
  Nd  Nd1  1  0.040290  0.210162  0.580088  1
  Nd  Nd2  1  0.705635  0.544216  0.911485  1
  Nd  Nd3  1  0.293804  0.456434  0.087078  1
  Nd  Nd4  1  0.960081  0.790229  0.419367  1
  Nd  Nd5  1  0.626316  0.124097  0.751683  1
  Zn  Zn6  1  0.903960  0.346207  0.307850  1
  Zn  Zn7  1  0.570092  0.679989  0.639925  1
  Ga  Ga8  1  0.235779  0.014244  0.971405  1
  Ga  Ga9  1  0.763670  0.986267  0.027721  1
  Si  Si10  1  0.430322  0.319260  0.361608  1
  Si  Si11  1  0.096254  0.653388  0.693533  1
  Si  Si12  1  0.846924  0.401798  0.195613  1
  Si  Si13  1  0.513048  0.735776  0.527602  1
  Si  Si14  1  0.178500  0.070515  0.858481  1
  Si  Si15  1  0.821298  0.929602  0.141039  1
  Si  Si16  1  0.487014  0.263891  0.472650  1
  Si  Si17  1  0.152676  0.598043  0.804309  1
