# generated using pymatgen
data_Ho3Tm4Lu9(In3Co)2
_symmetry_space_group_name_H-M   'P 1'
_cell_length_a   10.18488100
_cell_length_b   10.18488103
_cell_length_c   6.90094000
_cell_angle_alpha   90.00000000
_cell_angle_beta   90.00000000
_cell_angle_gamma   119.99999667
_symmetry_Int_Tables_number   1
_chemical_formula_structural   Ho3Tm4Lu9(In3Co)2
_chemical_formula_sum   'Ho3 Tm4 Lu9 In6 Co2'
_cell_volume   619.94165311
_cell_formula_units_Z   1
loop_
 _symmetry_equiv_pos_site_id
 _symmetry_equiv_pos_as_xyz
  1  'x, y, z'
loop_
 _atom_site_type_symbol
 _atom_site_label
 _atom_site_symmetry_multiplicity
 _atom_site_fract_x
 _atom_site_fract_y
 _atom_site_fract_z
 _atom_site_occupancy
  Ho  Ho0  1  0.534064  0.068130  0.513058  1
  Ho  Ho1  1  0.931870  0.465936  0.513058  1
  Ho  Ho2  1  0.534064  0.465936  0.513058  1
  Tm  Tm3  1  0.666667  0.333333  0.904938  1
  Tm  Tm4  1  0.333333  0.666667  0.403454  1
  Tm  Tm5  1  0.000000  0.000000  0.501008  1
  Tm  Tm6  1  0.000000  0.000000  0.001619  1
  Lu  Lu7  1  0.464802  0.929602  0.013449  1
  Lu  Lu8  1  0.070398  0.535198  0.013449  1
  Lu  Lu9  1  0.464802  0.535198  0.013449  1
  Lu  Lu10  1  0.179065  0.358129  0.721602  1
  Lu  Lu11  1  0.641871  0.820935  0.721602  1
  Lu  Lu12  1  0.179065  0.820935  0.721602  1
  Lu  Lu13  1  0.821216  0.642432  0.218764  1
  Lu  Lu14  1  0.357568  0.178784  0.218764  1
  Lu  Lu15  1  0.821216  0.178784  0.218764  1
  In  In16  1  0.837801  0.675602  0.762324  1
  In  In17  1  0.324398  0.162199  0.762324  1
  In  In18  1  0.837801  0.162199  0.762324  1
  In  In19  1  0.162879  0.325760  0.260688  1
  In  In20  1  0.674240  0.837121  0.260688  1
  In  In21  1  0.162879  0.837121  0.260688  1
  Co  Co22  1  0.666667  0.333333  0.287888  1
  Co  Co23  1  0.333333  0.666667  0.789441  1
