# generated using pymatgen
data_CoCu2Ni3S8
_symmetry_space_group_name_H-M   'P 1'
_cell_length_a   6.76503734
_cell_length_b   6.74992619
_cell_length_c   6.76503700
_cell_angle_alpha   59.92591303
_cell_angle_beta   59.99999676
_cell_angle_gamma   59.92591411
_symmetry_Int_Tables_number   1
_chemical_formula_structural   CoCu2Ni3S8
_chemical_formula_sum   'Co1 Cu2 Ni3 S8'
_cell_volume   218.19115970
_cell_formula_units_Z   1
loop_
 _symmetry_equiv_pos_site_id
 _symmetry_equiv_pos_as_xyz
  1  'x, y, z'
loop_
 _atom_site_type_symbol
 _atom_site_label
 _atom_site_symmetry_multiplicity
 _atom_site_fract_x
 _atom_site_fract_y
 _atom_site_fract_z
 _atom_site_occupancy
  Co  Co0  1  0.125000  0.625000  0.125000  1
  Cu  Cu1  1  0.749827  0.750518  0.749827  1
  Cu  Cu2  1  0.500173  0.499482  0.500173  1
  Ni  Ni3  1  0.125000  0.125000  0.625000  1
  Ni  Ni4  1  0.125000  0.125000  0.125000  1
  Ni  Ni5  1  0.625000  0.125000  0.125000  1
  S  S6  1  0.886713  0.339861  0.886713  1
  S  S7  1  0.360427  0.366522  0.912625  1
  S  S8  1  0.360427  0.366522  0.360427  1
  S  S9  1  0.912625  0.366522  0.360427  1
  S  S10  1  0.889573  0.883478  0.889573  1
  S  S11  1  0.337375  0.883478  0.889573  1
  S  S12  1  0.363287  0.910139  0.363287  1
  S  S13  1  0.889573  0.883478  0.337375  1
