# generated using pymatgen
data_Tb4GaBi5Rh7
_symmetry_space_group_name_H-M   'P 1'
_cell_length_a   7.74646258
_cell_length_b   7.74646305
_cell_length_c   7.74646275
_cell_angle_alpha   110.73185720
_cell_angle_beta   110.73185275
_cell_angle_gamma   106.97835013
_symmetry_Int_Tables_number   1
_chemical_formula_structural   Tb4GaBi5Rh7
_chemical_formula_sum   'Tb4 Ga1 Bi5 Rh7'
_cell_volume   357.33432912
_cell_formula_units_Z   1
loop_
 _symmetry_equiv_pos_site_id
 _symmetry_equiv_pos_as_xyz
  1  'x, y, z'
loop_
 _atom_site_type_symbol
 _atom_site_label
 _atom_site_symmetry_multiplicity
 _atom_site_fract_x
 _atom_site_fract_y
 _atom_site_fract_z
 _atom_site_occupancy
  Tb  Tb0  1  0.470668  0.015706  0.000000  1
  Tb  Tb1  1  0.015706  0.470668  0.000000  1
  Tb  Tb2  1  0.015706  0.015706  0.545038  1
  Tb  Tb3  1  0.470668  0.470668  0.454962  1
  Ga  Ga4  1  0.350966  0.350966  0.000000  1
  Bi  Bi5  1  0.985528  0.296917  0.311391  1
  Bi  Bi6  1  0.674137  0.985528  0.688609  1
  Bi  Bi7  1  0.691655  0.691655  0.000000  1
  Bi  Bi8  1  0.985528  0.674137  0.688609  1
  Bi  Bi9  1  0.296917  0.985528  0.311391  1
  Rh  Rh10  1  0.074698  0.074698  0.000000  1
  Rh  Rh11  1  0.497640  0.743886  0.246246  1
  Rh  Rh12  1  0.743886  0.497640  0.246246  1
  Rh  Rh13  1  0.238631  0.738631  0.500000  1
  Rh  Rh14  1  0.251394  0.497640  0.753754  1
  Rh  Rh15  1  0.497640  0.251394  0.753754  1
  Rh  Rh16  1  0.738631  0.238631  0.500000  1
