# generated using pymatgen
data_Tb8Y4Co5Sb
_symmetry_space_group_name_H-M   'P 1'
_cell_length_a   8.32333917
_cell_length_b   8.32333882
_cell_length_c   8.32333942
_cell_angle_alpha   110.80121820
_cell_angle_beta   110.55006484
_cell_angle_gamma   107.08843779
_symmetry_Int_Tables_number   1
_chemical_formula_structural   Tb8Y4Co5Sb
_chemical_formula_sum   'Tb8 Y4 Co5 Sb1'
_cell_volume   443.31041618
_cell_formula_units_Z   1
loop_
 _symmetry_equiv_pos_site_id
 _symmetry_equiv_pos_as_xyz
  1  'x, y, z'
loop_
 _atom_site_type_symbol
 _atom_site_label
 _atom_site_symmetry_multiplicity
 _atom_site_fract_x
 _atom_site_fract_y
 _atom_site_fract_z
 _atom_site_occupancy
  Tb  Tb0  1  0.687121  0.379364  0.692244  1
  Tb  Tb1  1  0.312879  0.620636  0.307756  1
  Tb  Tb2  1  0.687121  0.994876  0.307756  1
  Tb  Tb3  1  0.312879  0.005124  0.692244  1
  Tb  Tb4  1  0.601280  0.794244  0.807037  1
  Tb  Tb5  1  0.398720  0.205756  0.192963  1
  Tb  Tb6  1  0.987207  0.794244  0.192963  1
  Tb  Tb7  1  0.012793  0.205756  0.807037  1
  Y  Y8  1  0.814168  0.707473  0.521640  1
  Y  Y9  1  0.185832  0.292527  0.478360  1
  Y  Y10  1  0.185832  0.707473  0.893305  1
  Y  Y11  1  0.814168  0.292527  0.106695  1
  Co  Co12  1  0.624325  0.000000  0.624325  1
  Co  Co13  1  0.375675  0.000000  0.375675  1
  Co  Co14  1  0.111917  0.611917  0.500000  1
  Co  Co15  1  0.888083  0.388083  0.500000  1
  Co  Co16  1  0.000000  0.000000  0.000000  1
  Sb  Sb17  1  0.500000  0.500000  0.000000  1
