# generated using pymatgen
data_Dy4Al18IrRu3Au2
_symmetry_space_group_name_H-M   'P 1'
_cell_length_a   7.60882870
_cell_length_b   7.60882925
_cell_length_c   9.52893614
_cell_angle_alpha   90.06040276
_cell_angle_beta   90.06040252
_cell_angle_gamma   119.28008607
_symmetry_Int_Tables_number   1
_chemical_formula_structural   Dy4Al18IrRu3Au2
_chemical_formula_sum   'Dy4 Al18 Ir1 Ru3 Au2'
_cell_volume   481.18798299
_cell_formula_units_Z   1
loop_
 _symmetry_equiv_pos_site_id
 _symmetry_equiv_pos_as_xyz
  1  'x, y, z'
loop_
 _atom_site_type_symbol
 _atom_site_label
 _atom_site_symmetry_multiplicity
 _atom_site_fract_x
 _atom_site_fract_y
 _atom_site_fract_z
 _atom_site_occupancy
  Dy  Dy0  1  0.996730  0.677665  0.749962  1
  Dy  Dy1  1  0.002535  0.321689  0.249810  1
  Dy  Dy2  1  0.678311  0.997465  0.750190  1
  Dy  Dy3  1  0.322335  0.003270  0.250038  1
  Al  Al4  1  0.144947  0.144455  0.750039  1
  Al  Al5  1  0.855545  0.855053  0.249961  1
  Al  Al6  1  0.003102  0.347860  0.576533  1
  Al  Al7  1  0.997856  0.651417  0.423616  1
  Al  Al8  1  0.999718  0.654692  0.077825  1
  Al  Al9  1  0.345308  0.000282  0.922175  1
  Al  Al10  1  0.004401  0.347983  0.922614  1
  Al  Al11  1  0.652017  0.995599  0.077386  1
  Al  Al12  1  0.652140  0.996898  0.423467  1
  Al  Al13  1  0.348583  0.002144  0.576384  1
  Al  Al14  1  0.342166  0.345040  0.055329  1
  Al  Al15  1  0.654960  0.657834  0.944671  1
  Al  Al16  1  0.656294  0.655941  0.553614  1
  Al  Al17  1  0.344059  0.343706  0.446386  1
  Al  Al18  1  0.338070  0.557058  0.749592  1
  Al  Al19  1  0.662411  0.445308  0.251583  1
  Al  Al20  1  0.554692  0.337589  0.748417  1
  Al  Al21  1  0.442942  0.661930  0.250408  1
  Ir  Ir22  1  0.672327  0.327673  0.000000  1
  Ru  Ru23  1  0.672920  0.327080  0.500000  1
  Ru  Ru24  1  0.327822  0.672178  0.500000  1
  Ru  Ru25  1  0.327453  0.672547  0.000000  1
  Au  Au26  1  0.000462  0.999538  0.500000  1
  Au  Au27  1  0.999895  0.000105  0.000000  1
