# generated using pymatgen
data_Eu3BSbO3
_symmetry_space_group_name_H-M   'P 1'
_cell_length_a   5.30529500
_cell_length_b   5.30529454
_cell_length_c   13.50625100
_cell_angle_alpha   90.00000000
_cell_angle_beta   90.00000000
_cell_angle_gamma   119.99999664
_symmetry_Int_Tables_number   1
_chemical_formula_structural   Eu3BSbO3
_chemical_formula_sum   'Eu6 B2 Sb2 O6'
_cell_volume   329.21870368
_cell_formula_units_Z   2
loop_
 _symmetry_equiv_pos_site_id
 _symmetry_equiv_pos_as_xyz
  1  'x, y, z'
loop_
 _atom_site_type_symbol
 _atom_site_label
 _atom_site_symmetry_multiplicity
 _atom_site_fract_x
 _atom_site_fract_y
 _atom_site_fract_z
 _atom_site_occupancy
  Eu  Eu0  1  0.333333  0.666667  0.392758  1
  Eu  Eu1  1  0.000000  0.000000  0.250000  1
  Eu  Eu2  1  0.000000  0.000000  0.750000  1
  Eu  Eu3  1  0.666667  0.333333  0.892758  1
  Eu  Eu4  1  0.666667  0.333333  0.607242  1
  Eu  Eu5  1  0.333333  0.666667  0.107242  1
  B  B6  1  0.333333  0.666667  0.750000  1
  B  B7  1  0.666667  0.333333  0.250000  1
  Sb  Sb8  1  0.000000  0.000000  0.000000  1
  Sb  Sb9  1  0.000000  0.000000  0.500000  1
  O  O10  1  0.515238  0.484762  0.250000  1
  O  O11  1  0.969525  0.484762  0.250000  1
  O  O12  1  0.484762  0.969525  0.750000  1
  O  O13  1  0.515238  0.030475  0.250000  1
  O  O14  1  0.030475  0.515238  0.750000  1
  O  O15  1  0.484762  0.515238  0.750000  1
