# generated using pymatgen
data_Tb2Mn3Fe4Co5P7
_symmetry_space_group_name_H-M   'P 1'
_cell_length_a   9.03602965
_cell_length_b   9.05485975
_cell_length_c   3.60345500
_cell_angle_alpha   90.00000000
_cell_angle_beta   90.00000000
_cell_angle_gamma   120.08021260
_symmetry_Int_Tables_number   1
_chemical_formula_structural   Tb2Mn3Fe4Co5P7
_chemical_formula_sum   'Tb2 Mn3 Fe4 Co5 P7'
_cell_volume   255.12764046
_cell_formula_units_Z   1
loop_
 _symmetry_equiv_pos_site_id
 _symmetry_equiv_pos_as_xyz
  1  'x, y, z'
loop_
 _atom_site_type_symbol
 _atom_site_label
 _atom_site_symmetry_multiplicity
 _atom_site_fract_x
 _atom_site_fract_y
 _atom_site_fract_z
 _atom_site_occupancy
  Tb  Tb0  1  0.667106  0.333560  0.000000  1
  Tb  Tb1  1  0.332662  0.666351  0.500000  1
  Mn  Mn2  1  0.104509  0.878107  0.500000  1
  Mn  Mn3  1  0.771581  0.894851  0.500000  1
  Mn  Mn4  1  0.121537  0.225061  0.500000  1
  Fe  Fe5  1  0.275550  0.119873  0.000000  1
  Fe  Fe6  1  0.844746  0.725776  0.000000  1
  Fe  Fe7  1  0.880286  0.153232  0.000000  1
  Fe  Fe8  1  0.950845  0.386862  0.500000  1
  Co  Co9  1  0.061149  0.632363  0.000000  1
  Co  Co10  1  0.569607  0.939173  0.000000  1
  Co  Co11  1  0.368555  0.430364  0.000000  1
  Co  Co12  1  0.438590  0.050530  0.500000  1
  Co  Co13  1  0.612457  0.562390  0.500000  1
  P  P14  1  0.300419  0.890844  0.000000  1
  P  P15  1  0.589832  0.699695  0.000000  1
  P  P16  1  0.107270  0.409386  0.000000  1
  P  P17  1  0.402932  0.287004  0.500000  1
  P  P18  1  0.883807  0.594867  0.500000  1
  P  P19  1  0.716108  0.119609  0.500000  1
  P  P20  1  0.000452  0.000104  0.000000  1
