# generated using pymatgen
data_Ca2Nd3Rh2
_symmetry_space_group_name_H-M   'P 1'
_cell_length_a   8.85812478
_cell_length_b   8.85812379
_cell_length_c   7.42410672
_cell_angle_alpha   83.06481253
_cell_angle_beta   83.06481593
_cell_angle_gamma   44.63290597
_symmetry_Int_Tables_number   1
_chemical_formula_structural   Ca2Nd3Rh2
_chemical_formula_sum   'Ca4 Nd6 Rh4'
_cell_volume   405.77108524
_cell_formula_units_Z   2
loop_
 _symmetry_equiv_pos_site_id
 _symmetry_equiv_pos_as_xyz
  1  'x, y, z'
loop_
 _atom_site_type_symbol
 _atom_site_label
 _atom_site_symmetry_multiplicity
 _atom_site_fract_x
 _atom_site_fract_y
 _atom_site_fract_z
 _atom_site_occupancy
  Ca  Ca0  1  0.015396  0.797870  0.917930  1
  Ca  Ca1  1  0.202130  0.984604  0.582070  1
  Ca  Ca2  1  0.984604  0.202130  0.082070  1
  Ca  Ca3  1  0.797870  0.015396  0.417930  1
  Nd  Nd4  1  0.348693  0.213690  0.812703  1
  Nd  Nd5  1  0.786310  0.651307  0.687297  1
  Nd  Nd6  1  0.651307  0.786310  0.187297  1
  Nd  Nd7  1  0.213690  0.348693  0.312703  1
  Nd  Nd8  1  0.568583  0.431417  0.750000  1
  Nd  Nd9  1  0.431417  0.568583  0.250000  1
  Rh  Rh10  1  0.187650  0.582892  0.568944  1
  Rh  Rh11  1  0.417108  0.812350  0.931056  1
  Rh  Rh12  1  0.812350  0.417108  0.431056  1
  Rh  Rh13  1  0.582892  0.187650  0.068944  1
