# generated using pymatgen
data_Cs2Pr2GaAgTe6
_symmetry_space_group_name_H-M   'P 1'
_cell_length_a   8.97418564
_cell_length_b   8.97418503
_cell_length_c   12.08717700
_cell_angle_alpha   90.00000000
_cell_angle_beta   90.00000000
_cell_angle_gamma   150.26482891
_symmetry_Int_Tables_number   1
_chemical_formula_structural   Cs2Pr2GaAgTe6
_chemical_formula_sum   'Cs2 Pr2 Ga1 Ag1 Te6'
_cell_volume   482.82465061
_cell_formula_units_Z   1
loop_
 _symmetry_equiv_pos_site_id
 _symmetry_equiv_pos_as_xyz
  1  'x, y, z'
loop_
 _atom_site_type_symbol
 _atom_site_label
 _atom_site_symmetry_multiplicity
 _atom_site_fract_x
 _atom_site_fract_y
 _atom_site_fract_z
 _atom_site_occupancy
  Cs  Cs0  1  0.249161  0.750840  0.250000  1
  Cs  Cs1  1  0.743731  0.256270  0.750000  1
  Pr  Pr2  1  0.005514  0.994486  0.019820  1
  Pr  Pr3  1  0.005514  0.994486  0.480180  1
  Ga  Ga4  1  0.463089  0.536911  0.750000  1
  Ag  Ag5  1  0.532936  0.467064  0.250000  1
  Te  Te6  1  0.625599  0.374402  0.054104  1
  Te  Te7  1  0.927994  0.072006  0.250000  1
  Te  Te8  1  0.625599  0.374402  0.445896  1
  Te  Te9  1  0.382290  0.617711  0.567550  1
  Te  Te10  1  0.056284  0.943716  0.750000  1
  Te  Te11  1  0.382290  0.617711  0.932449  1
