# generated using pymatgen
data_La6RuPtBr6
_symmetry_space_group_name_H-M   'P 1'
_cell_length_a   10.60901677
_cell_length_b   10.71790325
_cell_length_c   10.60901672
_cell_angle_alpha   109.41977972
_cell_angle_beta   109.15963436
_cell_angle_gamma   109.41978854
_symmetry_Int_Tables_number   1
_chemical_formula_structural   La6RuPtBr6
_chemical_formula_sum   'La12 Ru2 Pt2 Br12'
_cell_volume   933.33522515
_cell_formula_units_Z   2
loop_
 _symmetry_equiv_pos_site_id
 _symmetry_equiv_pos_as_xyz
  1  'x, y, z'
loop_
 _atom_site_type_symbol
 _atom_site_label
 _atom_site_symmetry_multiplicity
 _atom_site_fract_x
 _atom_site_fract_y
 _atom_site_fract_z
 _atom_site_occupancy
  La  La0  1  0.264077  0.750000  0.235923  1
  La  La1  1  0.485923  0.750000  0.014077  1
  La  La2  1  0.234236  0.468470  0.484236  1
  La  La3  1  0.015764  0.031530  0.265764  1
  La  La4  1  0.230448  0.261583  0.741568  1
  La  La5  1  0.010070  0.479880  0.742063  1
  La  La6  1  0.479986  0.238417  0.468865  1
  La  La7  1  0.262183  0.020120  0.030191  1
  La  La8  1  0.758432  0.238417  0.269552  1
  La  La9  1  0.757937  0.020120  0.489930  1
  La  La10  1  0.469809  0.479880  0.237817  1
  La  La11  1  0.031135  0.261583  0.020014  1
  Ru  Ru12  1  0.999205  0.250000  0.500795  1
  Ru  Ru13  1  0.250795  0.250000  0.249205  1
  Pt  Pt14  1  0.499947  0.999894  0.249947  1
  Pt  Pt15  1  0.250053  0.500106  0.000053  1
  Br  Br16  1  0.249845  0.993831  0.505190  1
  Br  Br17  1  0.511359  0.506169  0.756013  1
  Br  Br18  1  0.249542  0.754236  0.745035  1
  Br  Br19  1  0.990798  0.745764  0.995306  1
  Br  Br20  1  0.994810  0.506169  0.250155  1
  Br  Br21  1  0.743987  0.993831  0.988641  1
  Br  Br22  1  0.754965  0.745764  0.250458  1
  Br  Br23  1  0.504694  0.754236  0.509202  1
  Br  Br24  1  0.505062  0.250000  0.994938  1
  Br  Br25  1  0.755860  0.511721  0.505860  1
  Br  Br26  1  0.744938  0.250000  0.755062  1
  Br  Br27  1  0.994140  0.988279  0.744140  1
