# generated using pymatgen
data_Sr4Ho2SbRuO12
_symmetry_space_group_name_H-M   'P 1'
_cell_length_a   5.83047927
_cell_length_b   5.88558580
_cell_length_c   8.27119644
_cell_angle_alpha   89.79537393
_cell_angle_beta   90.29009929
_cell_angle_gamma   89.95683414
_symmetry_Int_Tables_number   1
_chemical_formula_structural   Sr4Ho2SbRuO12
_chemical_formula_sum   'Sr4 Ho2 Sb1 Ru1 O12'
_cell_volume   283.82707442
_cell_formula_units_Z   1
loop_
 _symmetry_equiv_pos_site_id
 _symmetry_equiv_pos_as_xyz
  1  'x, y, z'
loop_
 _atom_site_type_symbol
 _atom_site_label
 _atom_site_symmetry_multiplicity
 _atom_site_fract_x
 _atom_site_fract_y
 _atom_site_fract_z
 _atom_site_occupancy
  Sr  Sr0  1  0.508243  0.468005  0.253628  1
  Sr  Sr1  1  0.992110  0.963572  0.254809  1
  Sr  Sr2  1  0.007889  0.036427  0.745191  1
  Sr  Sr3  1  0.491756  0.531995  0.746372  1
  Ho  Ho4  1  0.000000  0.500001  0.000000  1
  Ho  Ho5  1  0.500000  0.000000  0.500000  1
  Sb  Sb6  1  0.500000  0.000000  0.000000  1
  Ru  Ru7  1  0.000000  0.500001  0.500000  1
  O  O8  1  0.772940  0.201401  0.040485  1
  O  O9  1  0.698415  0.725460  0.042716  1
  O  O10  1  0.423426  0.019238  0.236941  1
  O  O11  1  0.072903  0.519228  0.265797  1
  O  O12  1  0.800808  0.229611  0.461584  1
  O  O13  1  0.730513  0.701952  0.463015  1
  O  O14  1  0.269486  0.298048  0.536985  1
  O  O15  1  0.199191  0.770388  0.538416  1
  O  O16  1  0.927096  0.480774  0.734203  1
  O  O17  1  0.576574  0.980762  0.763059  1
  O  O18  1  0.301583  0.274539  0.957284  1
  O  O19  1  0.227059  0.798598  0.959515  1
