# generated using pymatgen
data_YTh(ZnRh)2
_symmetry_space_group_name_H-M   'P 1'
_cell_length_a   4.00319000
_cell_length_b   7.11336102
_cell_length_c   8.37533718
_cell_angle_alpha   90.62901107
_cell_angle_beta   90.00000000
_cell_angle_gamma   90.00000000
_symmetry_Int_Tables_number   1
_chemical_formula_structural   YTh(ZnRh)2
_chemical_formula_sum   'Y2 Th2 Zn4 Rh4'
_cell_volume   238.48286586
_cell_formula_units_Z   2
loop_
 _symmetry_equiv_pos_site_id
 _symmetry_equiv_pos_as_xyz
  1  'x, y, z'
loop_
 _atom_site_type_symbol
 _atom_site_label
 _atom_site_symmetry_multiplicity
 _atom_site_fract_x
 _atom_site_fract_y
 _atom_site_fract_z
 _atom_site_occupancy
  Y  Y0  1  0.750000  0.958589  0.685372  1
  Y  Y1  1  0.250000  0.041411  0.314628  1
  Th  Th2  1  0.250000  0.540508  0.192121  1
  Th  Th3  1  0.750000  0.459492  0.807879  1
  Zn  Zn4  1  0.250000  0.649799  0.561831  1
  Zn  Zn5  1  0.750000  0.350201  0.438169  1
  Zn  Zn6  1  0.750000  0.876592  0.063975  1
  Zn  Zn7  1  0.250000  0.123408  0.936025  1
  Rh  Rh8  1  0.250000  0.740234  0.881081  1
  Rh  Rh9  1  0.750000  0.259766  0.118919  1
  Rh  Rh10  1  0.750000  0.742956  0.369020  1
  Rh  Rh11  1  0.250000  0.257044  0.630980  1
