# generated using pymatgen
data_Sr3Ca3(C3Br2)2
_symmetry_space_group_name_H-M   'P 1'
_cell_length_a   7.37921524
_cell_length_b   7.37921556
_cell_length_c   11.88598000
_cell_angle_alpha   89.37484593
_cell_angle_beta   90.62515410
_cell_angle_gamma   148.25176481
_symmetry_Int_Tables_number   1
_chemical_formula_structural   Sr3Ca3(C3Br2)2
_chemical_formula_sum   'Sr3 Ca3 C6 Br4'
_cell_volume   340.54001086
_cell_formula_units_Z   1
loop_
 _symmetry_equiv_pos_site_id
 _symmetry_equiv_pos_as_xyz
  1  'x, y, z'
loop_
 _atom_site_type_symbol
 _atom_site_label
 _atom_site_symmetry_multiplicity
 _atom_site_fract_x
 _atom_site_fract_y
 _atom_site_fract_z
 _atom_site_occupancy
  Sr  Sr0  1  0.657824  0.342184  0.558150  1
  Sr  Sr1  1  0.122510  0.877491  0.241470  1
  Sr  Sr2  1  0.878817  0.121191  0.753110  1
  Ca  Ca3  1  0.335017  0.664996  0.440826  1
  Ca  Ca4  1  0.337973  0.662010  0.057387  1
  Ca  Ca5  1  0.667003  0.332992  0.941071  1
  C  C6  1  0.267735  0.732267  0.638828  1
  C  C7  1  0.738111  0.261888  0.357046  1
  C  C8  1  0.738275  0.261713  0.132842  1
  C  C9  1  0.264487  0.735521  0.863153  1
  C  C10  1  0.746847  0.253138  0.245120  1
  C  C11  1  0.256786  0.743218  0.750443  1
  Br  Br12  1  0.536155  0.463849  0.758609  1
  Br  Br13  1  0.461647  0.538351  0.253136  1
  Br  Br14  1  0.001612  0.998388  0.003898  1
  Br  Br15  1  0.989200  0.010804  0.504911  1
