# generated using pymatgen
data_Ca9Pr8Nd3Sn16
_symmetry_space_group_name_H-M   'P 1'
_cell_length_a   8.02867474
_cell_length_b   8.56893018
_cell_length_c   16.15514377
_cell_angle_alpha   90.02236148
_cell_angle_beta   89.95132891
_cell_angle_gamma   89.99301359
_symmetry_Int_Tables_number   1
_chemical_formula_structural   Ca9Pr8Nd3Sn16
_chemical_formula_sum   'Ca9 Pr8 Nd3 Sn16'
_cell_volume   1111.42740774
_cell_formula_units_Z   1
loop_
 _symmetry_equiv_pos_site_id
 _symmetry_equiv_pos_as_xyz
  1  'x, y, z'
loop_
 _atom_site_type_symbol
 _atom_site_label
 _atom_site_symmetry_multiplicity
 _atom_site_fract_x
 _atom_site_fract_y
 _atom_site_fract_z
 _atom_site_occupancy
  Ca  Ca0  1  0.166041  0.327060  0.123430  1
  Ca  Ca1  1  0.667295  0.173472  0.123402  1
  Ca  Ca2  1  0.166912  0.326415  0.376897  1
  Ca  Ca3  1  0.332745  0.827168  0.623023  1
  Ca  Ca4  1  0.833191  0.672914  0.877431  1
  Ca  Ca5  1  0.163263  0.499093  0.749918  1
  Ca  Ca6  1  0.663309  0.000903  0.750327  1
  Ca  Ca7  1  0.837734  0.499906  0.249088  1
  Ca  Ca8  1  0.335938  0.000698  0.249156  1
  Pr  Pr9  1  0.493618  0.314710  0.904025  1
  Pr  Pr10  1  0.994150  0.184882  0.595677  1
  Pr  Pr11  1  0.504524  0.684747  0.403910  1
  Pr  Pr12  1  0.006373  0.813570  0.095834  1
  Pr  Pr13  1  0.507096  0.685026  0.096445  1
  Pr  Pr14  1  0.008663  0.814868  0.404272  1
  Pr  Pr15  1  0.492858  0.315086  0.595976  1
  Pr  Pr16  1  0.993329  0.186059  0.904792  1
  Nd  Nd17  1  0.333591  0.825867  0.875447  1
  Nd  Nd18  1  0.833892  0.674457  0.624414  1
  Nd  Nd19  1  0.664771  0.175266  0.374935  1
  Sn  Sn20  1  0.328913  0.033952  0.038077  1
  Sn  Sn21  1  0.827096  0.464765  0.461806  1
  Sn  Sn22  1  0.672782  0.964624  0.537770  1
  Sn  Sn23  1  0.171466  0.534797  0.961885  1
  Sn  Sn24  1  0.671186  0.966298  0.961460  1
  Sn  Sn25  1  0.172094  0.534117  0.538831  1
  Sn  Sn26  1  0.328263  0.034132  0.461339  1
  Sn  Sn27  1  0.828485  0.465914  0.038540  1
  Sn  Sn28  1  0.535141  0.602138  0.750494  1
  Sn  Sn29  1  0.035314  0.896920  0.750092  1
  Sn  Sn30  1  0.464308  0.397230  0.250630  1
  Sn  Sn31  1  0.964292  0.101508  0.250334  1
  Sn  Sn32  1  0.290485  0.141971  0.750534  1
  Sn  Sn33  1  0.790955  0.358200  0.749101  1
  Sn  Sn34  1  0.709622  0.858859  0.250777  1
  Sn  Sn35  1  0.210305  0.642412  0.249927  1
