# generated using pymatgen
data_Li2Re2(OF2)3
_symmetry_space_group_name_H-M   'P 1'
_cell_length_a   5.55657500
_cell_length_b   5.55657429
_cell_length_c   21.05064400
_cell_angle_alpha   90.00000000
_cell_angle_beta   90.00000000
_cell_angle_gamma   120.00001018
_symmetry_Int_Tables_number   1
_chemical_formula_structural   Li2Re2(OF2)3
_chemical_formula_sum   'Li6 Re6 O9 F18'
_cell_volume   562.87282218
_cell_formula_units_Z   3
loop_
 _symmetry_equiv_pos_site_id
 _symmetry_equiv_pos_as_xyz
  1  'x, y, z'
loop_
 _atom_site_type_symbol
 _atom_site_label
 _atom_site_symmetry_multiplicity
 _atom_site_fract_x
 _atom_site_fract_y
 _atom_site_fract_z
 _atom_site_occupancy
  Li  Li0  1  0.432181  0.439900  0.143606  1
  Li  Li1  1  0.992281  0.560100  0.523060  1
  Li  Li2  1  0.439900  0.432181  0.856394  1
  Li  Li3  1  0.560100  0.992281  0.476940  1
  Li  Li4  1  0.567819  0.007719  0.189727  1
  Li  Li5  1  0.007719  0.567819  0.810273  1
  Re  Re6  1  0.770867  0.103641  0.044004  1
  Re  Re7  1  0.667226  0.896359  0.622663  1
  Re  Re8  1  0.229133  0.332774  0.289330  1
  Re  Re9  1  0.896359  0.667226  0.377337  1
  Re  Re10  1  0.332774  0.229133  0.710670  1
  Re  Re11  1  0.103641  0.770867  0.955996  1
  O  O12  1  0.082248  0.000000  0.333333  1
  O  O13  1  0.917752  0.917752  0.000000  1
  O  O14  1  0.499137  0.576888  0.672108  1
  O  O15  1  0.576888  0.499137  0.327892  1
  O  O16  1  0.423112  0.922249  0.005442  1
  O  O17  1  0.000000  0.082248  0.666667  1
  O  O18  1  0.922249  0.423112  0.994558  1
  O  O19  1  0.077751  0.500863  0.338775  1
  O  O20  1  0.500863  0.077751  0.661225  1
  F  F21  1  0.358887  0.722251  0.558308  1
  F  F22  1  0.170975  0.887161  0.762783  1
  F  F23  1  0.283815  0.112839  0.903884  1
  F  F24  1  0.816617  0.633686  0.886289  1
  F  F25  1  0.636636  0.277749  0.108359  1
  F  F26  1  0.633686  0.816617  0.113711  1
  F  F27  1  0.182931  0.366314  0.780378  1
  F  F28  1  0.183383  0.817069  0.447044  1
  F  F29  1  0.641113  0.363364  0.775025  1
  F  F30  1  0.716185  0.829025  0.429450  1
  F  F31  1  0.366314  0.182931  0.219622  1
  F  F32  1  0.112839  0.283815  0.096116  1
  F  F33  1  0.887161  0.170975  0.237217  1
  F  F34  1  0.363364  0.641113  0.224975  1
  F  F35  1  0.277749  0.636636  0.891641  1
  F  F36  1  0.722251  0.358887  0.441692  1
  F  F37  1  0.817069  0.183383  0.552956  1
  F  F38  1  0.829025  0.716185  0.570550  1
