# generated using pymatgen
data_Ca(TaB3)2
_symmetry_space_group_name_H-M   'P 1'
_cell_length_a   3.10893500
_cell_length_b   3.10893502
_cell_length_c   10.77665500
_cell_angle_alpha   90.00000000
_cell_angle_beta   90.00000000
_cell_angle_gamma   119.99998915
_symmetry_Int_Tables_number   1
_chemical_formula_structural   Ca(TaB3)2
_chemical_formula_sum   'Ca1 Ta2 B6'
_cell_volume   90.20652354
_cell_formula_units_Z   1
loop_
 _symmetry_equiv_pos_site_id
 _symmetry_equiv_pos_as_xyz
  1  'x, y, z'
loop_
 _atom_site_type_symbol
 _atom_site_label
 _atom_site_symmetry_multiplicity
 _atom_site_fract_x
 _atom_site_fract_y
 _atom_site_fract_z
 _atom_site_occupancy
  Ca  Ca0  1  0.000000  0.000000  0.000000  1
  Ta  Ta1  1  0.000000  0.000000  0.652466  1
  Ta  Ta2  1  0.000000  0.000000  0.347534  1
  B  B3  1  0.666667  0.333333  0.809973  1
  B  B4  1  0.666667  0.333333  0.500000  1
  B  B5  1  0.666667  0.333333  0.190027  1
  B  B6  1  0.333333  0.666667  0.809973  1
  B  B7  1  0.333333  0.666667  0.500000  1
  B  B8  1  0.333333  0.666667  0.190027  1
