# generated using pymatgen
data_Lu3Al12Ru3Rh
_symmetry_space_group_name_H-M   'P 1'
_cell_length_a   8.73464000
_cell_length_b   8.73464174
_cell_length_c   9.54872300
_cell_angle_alpha   90.00000000
_cell_angle_beta   90.00000000
_cell_angle_gamma   119.59748599
_symmetry_Int_Tables_number   1
_chemical_formula_structural   Lu3Al12Ru3Rh
_chemical_formula_sum   'Lu6 Al24 Ru6 Rh2'
_cell_volume   633.45137049
_cell_formula_units_Z   2
loop_
 _symmetry_equiv_pos_site_id
 _symmetry_equiv_pos_as_xyz
  1  'x, y, z'
loop_
 _atom_site_type_symbol
 _atom_site_label
 _atom_site_symmetry_multiplicity
 _atom_site_fract_x
 _atom_site_fract_y
 _atom_site_fract_z
 _atom_site_occupancy
  Lu  Lu0  1  0.187748  0.388539  0.250000  1
  Lu  Lu1  1  0.812252  0.611461  0.750000  1
  Lu  Lu2  1  0.611461  0.812252  0.250000  1
  Lu  Lu3  1  0.388539  0.187748  0.750000  1
  Lu  Lu4  1  0.194862  0.805138  0.250000  1
  Lu  Lu5  1  0.805138  0.194862  0.750000  1
  Al  Al6  1  0.332865  0.667135  0.024853  1
  Al  Al7  1  0.667135  0.332865  0.975147  1
  Al  Al8  1  0.667135  0.332865  0.524853  1
  Al  Al9  1  0.332865  0.667135  0.475147  1
  Al  Al10  1  0.162381  0.325086  0.578196  1
  Al  Al11  1  0.837619  0.674914  0.421804  1
  Al  Al12  1  0.674914  0.837619  0.578196  1
  Al  Al13  1  0.837619  0.674914  0.078196  1
  Al  Al14  1  0.325086  0.162381  0.421804  1
  Al  Al15  1  0.162381  0.325086  0.921804  1
  Al  Al16  1  0.163803  0.836197  0.577247  1
  Al  Al17  1  0.325086  0.162381  0.078196  1
  Al  Al18  1  0.836197  0.163803  0.422753  1
  Al  Al19  1  0.674914  0.837619  0.921804  1
  Al  Al20  1  0.836197  0.163803  0.077247  1
  Al  Al21  1  0.163803  0.836197  0.922753  1
  Al  Al22  1  0.560483  0.125466  0.250000  1
  Al  Al23  1  0.439517  0.874534  0.750000  1
  Al  Al24  1  0.874534  0.439517  0.250000  1
  Al  Al25  1  0.125466  0.560483  0.750000  1
  Al  Al26  1  0.559475  0.440525  0.250000  1
  Al  Al27  1  0.440525  0.559475  0.750000  1
  Al  Al28  1  0.998750  0.001250  0.250000  1
  Al  Al29  1  0.001250  0.998750  0.750000  1
  Ru  Ru30  1  0.500000  0.000000  0.000000  1
  Ru  Ru31  1  0.000000  0.500000  0.000000  1
  Ru  Ru32  1  0.500000  0.000000  0.500000  1
  Ru  Ru33  1  0.000000  0.500000  0.500000  1
  Ru  Ru34  1  0.000000  0.000000  0.000000  1
  Ru  Ru35  1  0.000000  0.000000  0.500000  1
  Rh  Rh36  1  0.500000  0.500000  0.000000  1
  Rh  Rh37  1  0.500000  0.500000  0.500000  1
