# generated using pymatgen
data_Tb4Al19Ir5
_symmetry_space_group_name_H-M   'P 1'
_cell_length_a   7.60301033
_cell_length_b   7.60301309
_cell_length_c   9.48180405
_cell_angle_alpha   89.80542830
_cell_angle_beta   89.80542242
_cell_angle_gamma   119.22561799
_symmetry_Int_Tables_number   1
_chemical_formula_structural   Tb4Al19Ir5
_chemical_formula_sum   'Tb4 Al19 Ir5'
_cell_volume   478.32095062
_cell_formula_units_Z   1
loop_
 _symmetry_equiv_pos_site_id
 _symmetry_equiv_pos_as_xyz
  1  'x, y, z'
loop_
 _atom_site_type_symbol
 _atom_site_label
 _atom_site_symmetry_multiplicity
 _atom_site_fract_x
 _atom_site_fract_y
 _atom_site_fract_z
 _atom_site_occupancy
  Tb  Tb0  1  0.995427  0.680199  0.247520  1
  Tb  Tb1  1  0.004573  0.319801  0.752480  1
  Tb  Tb2  1  0.680199  0.995427  0.247520  1
  Tb  Tb3  1  0.319801  0.004573  0.752480  1
  Al  Al4  1  0.139208  0.139208  0.259908  1
  Al  Al5  1  0.860792  0.860792  0.740092  1
  Al  Al6  1  0.004214  0.349778  0.082151  1
  Al  Al7  1  0.995786  0.650222  0.917849  1
  Al  Al8  1  0.001201  0.663217  0.569631  1
  Al  Al9  1  0.336782  0.998799  0.430368  1
  Al  Al10  1  0.998799  0.336783  0.430369  1
  Al  Al11  1  0.663218  0.001201  0.569632  1
  Al  Al12  1  0.650222  0.995786  0.917849  1
  Al  Al13  1  0.349778  0.004214  0.082151  1
  Al  Al14  1  0.332204  0.332204  0.548463  1
  Al  Al15  1  0.667796  0.667796  0.451537  1
  Al  Al16  1  0.652818  0.652818  0.062242  1
  Al  Al17  1  0.347182  0.347182  0.937758  1
  Al  Al18  1  0.338417  0.552406  0.252574  1
  Al  Al19  1  0.661583  0.447594  0.747426  1
  Al  Al20  1  0.552406  0.338417  0.252574  1
  Al  Al21  1  0.447594  0.661583  0.747426  1
  Al  Al22  1  0.000000  0.000000  0.000000  1
  Ir  Ir23  1  0.672284  0.327715  0.000000  1
  Ir  Ir24  1  0.327716  0.672285  0.000000  1
  Ir  Ir25  1  0.329099  0.670899  0.500000  1
  Ir  Ir26  1  0.670901  0.329101  0.500000  1
  Ir  Ir27  1  0.000000  0.000000  0.500000  1
