# generated using pymatgen
data_DyTmMo2O7
_symmetry_space_group_name_H-M   'P 1'
_cell_length_a   7.34079123
_cell_length_b   7.43708664
_cell_length_c   7.34079099
_cell_angle_alpha   59.56511031
_cell_angle_beta   59.19147229
_cell_angle_gamma   59.56510956
_symmetry_Int_Tables_number   1
_chemical_formula_structural   DyTmMo2O7
_chemical_formula_sum   'Dy2 Tm2 Mo4 O14'
_cell_volume   279.76801112
_cell_formula_units_Z   2
loop_
 _symmetry_equiv_pos_site_id
 _symmetry_equiv_pos_as_xyz
  1  'x, y, z'
loop_
 _atom_site_type_symbol
 _atom_site_label
 _atom_site_symmetry_multiplicity
 _atom_site_fract_x
 _atom_site_fract_y
 _atom_site_fract_z
 _atom_site_occupancy
  Dy  Dy0  1  0.125000  0.625000  0.125000  1
  Dy  Dy1  1  0.125000  0.125000  0.125000  1
  Tm  Tm2  1  0.625000  0.125000  0.125000  1
  Tm  Tm3  1  0.125000  0.125000  0.625000  1
  Mo  Mo4  1  0.125000  0.625000  0.625000  1
  Mo  Mo5  1  0.625000  0.125000  0.625000  1
  Mo  Mo6  1  0.625000  0.625000  0.125000  1
  Mo  Mo7  1  0.625000  0.625000  0.625000  1
  O  O8  1  0.710112  0.720952  0.283945  1
  O  O9  1  0.283945  0.284991  0.710112  1
  O  O10  1  0.719182  0.280818  0.719182  1
  O  O11  1  0.285765  0.714235  0.285765  1
  O  O12  1  0.283945  0.720952  0.710112  1
  O  O13  1  0.710112  0.284991  0.283945  1
  O  O14  1  0.539888  0.529048  0.966055  1
  O  O15  1  0.966055  0.965009  0.539888  1
  O  O16  1  0.530818  0.969182  0.530818  1
  O  O17  1  0.964235  0.535765  0.964235  1
  O  O18  1  0.966055  0.529048  0.539888  1
  O  O19  1  0.539888  0.965009  0.966055  1
  O  O20  1  0.249378  0.250622  0.249378  1
  O  O21  1  0.000622  0.999378  0.000622  1
