# generated using pymatgen
data_Dy5Y5(Bi2Sb)2
_symmetry_space_group_name_H-M   'P 1'
_cell_length_a   8.19546400
_cell_length_b   9.46759721
_cell_length_c   12.03641027
_cell_angle_alpha   90.02430130
_cell_angle_beta   90.00000000
_cell_angle_gamma   90.00000000
_symmetry_Int_Tables_number   1
_chemical_formula_structural   Dy5Y5(Bi2Sb)2
_chemical_formula_sum   'Dy10 Y10 Bi8 Sb4'
_cell_volume   933.92126363
_cell_formula_units_Z   2
loop_
 _symmetry_equiv_pos_site_id
 _symmetry_equiv_pos_as_xyz
  1  'x, y, z'
loop_
 _atom_site_type_symbol
 _atom_site_label
 _atom_site_symmetry_multiplicity
 _atom_site_fract_x
 _atom_site_fract_y
 _atom_site_fract_z
 _atom_site_occupancy
  Dy  Dy0  1  0.028430  0.749942  0.988368  1
  Dy  Dy1  1  0.528430  0.750058  0.511632  1
  Dy  Dy2  1  0.971206  0.250254  0.011623  1
  Dy  Dy3  1  0.471206  0.249746  0.488377  1
  Dy  Dy4  1  0.309917  0.438300  0.941599  1
  Dy  Dy5  1  0.809917  0.061700  0.558401  1
  Dy  Dy6  1  0.690433  0.937856  0.058513  1
  Dy  Dy7  1  0.190433  0.562144  0.441487  1
  Dy  Dy8  1  0.690088  0.562080  0.058385  1
  Dy  Dy9  1  0.190088  0.937920  0.441615  1
  Y  Y10  1  0.182980  0.749979  0.718191  1
  Y  Y11  1  0.682980  0.750021  0.781809  1
  Y  Y12  1  0.817079  0.249887  0.281635  1
  Y  Y13  1  0.317079  0.250113  0.218365  1
  Y  Y14  1  0.309926  0.061132  0.941606  1
  Y  Y15  1  0.809926  0.438868  0.558394  1
  Y  Y16  1  0.353767  0.750006  0.213014  1
  Y  Y17  1  0.853767  0.749994  0.286986  1
  Y  Y18  1  0.646269  0.249929  0.787116  1
  Y  Y19  1  0.146269  0.250071  0.712884  1
  Bi  Bi20  1  0.433575  0.003818  0.673695  1
  Bi  Bi21  1  0.933575  0.496182  0.826305  1
  Bi  Bi22  1  0.566353  0.503739  0.326216  1
  Bi  Bi23  1  0.066353  0.996261  0.173784  1
  Bi  Bi24  1  0.566409  0.996259  0.326296  1
  Bi  Bi25  1  0.066409  0.503741  0.173704  1
  Bi  Bi26  1  0.433509  0.496098  0.673732  1
  Bi  Bi27  1  0.933509  0.003902  0.826268  1
  Sb  Sb28  1  0.409661  0.749892  0.959218  1
  Sb  Sb29  1  0.909661  0.750108  0.540782  1
  Sb  Sb30  1  0.590397  0.249968  0.040907  1
  Sb  Sb31  1  0.090397  0.250032  0.459093  1
