# generated using pymatgen
data_HoEr2Fe8Co3B4
_symmetry_space_group_name_H-M   'P 1'
_cell_length_a   5.04049900
_cell_length_b   5.04049909
_cell_length_c   9.97544700
_cell_angle_alpha   90.00000000
_cell_angle_beta   90.00000000
_cell_angle_gamma   120.00000596
_symmetry_Int_Tables_number   1
_chemical_formula_structural   HoEr2Fe8Co3B4
_chemical_formula_sum   'Ho1 Er2 Fe8 Co3 B4'
_cell_volume   219.48762794
_cell_formula_units_Z   1
loop_
 _symmetry_equiv_pos_site_id
 _symmetry_equiv_pos_as_xyz
  1  'x, y, z'
loop_
 _atom_site_type_symbol
 _atom_site_label
 _atom_site_symmetry_multiplicity
 _atom_site_fract_x
 _atom_site_fract_y
 _atom_site_fract_z
 _atom_site_occupancy
  Ho  Ho0  1  0.000000  0.000000  0.000000  1
  Er  Er1  1  0.000000  0.000000  0.652130  1
  Er  Er2  1  0.000000  0.000000  0.347870  1
  Fe  Fe3  1  0.666667  0.333333  0.000000  1
  Fe  Fe4  1  0.333333  0.666667  0.000000  1
  Fe  Fe5  1  0.500000  0.500000  0.797542  1
  Fe  Fe6  1  0.500000  0.000000  0.797542  1
  Fe  Fe7  1  0.000000  0.500000  0.797542  1
  Fe  Fe8  1  0.500000  0.500000  0.202458  1
  Fe  Fe9  1  0.500000  0.000000  0.202458  1
  Fe  Fe10  1  0.000000  0.500000  0.202458  1
  Co  Co11  1  0.500000  0.500000  0.500000  1
  Co  Co12  1  0.500000  0.000000  0.500000  1
  Co  Co13  1  0.000000  0.500000  0.500000  1
  B  B14  1  0.666667  0.333333  0.647227  1
  B  B15  1  0.333333  0.666667  0.647227  1
  B  B16  1  0.333333  0.666667  0.352773  1
  B  B17  1  0.666667  0.333333  0.352773  1
