# generated using pymatgen
data_Th3MgPd12
_symmetry_space_group_name_H-M   'P 1'
_cell_length_a   5.88629000
_cell_length_b   5.88628942
_cell_length_c   9.65807800
_cell_angle_alpha   90.00000000
_cell_angle_beta   90.00000000
_cell_angle_gamma   120.00000328
_symmetry_Int_Tables_number   1
_chemical_formula_structural   Th3MgPd12
_chemical_formula_sum   'Th3 Mg1 Pd12'
_cell_volume   289.80414457
_cell_formula_units_Z   1
loop_
 _symmetry_equiv_pos_site_id
 _symmetry_equiv_pos_as_xyz
  1  'x, y, z'
loop_
 _atom_site_type_symbol
 _atom_site_label
 _atom_site_symmetry_multiplicity
 _atom_site_fract_x
 _atom_site_fract_y
 _atom_site_fract_z
 _atom_site_occupancy
  Th  Th0  1  0.000000  0.000000  0.491515  1
  Th  Th1  1  0.000000  0.000000  0.008485  1
  Th  Th2  1  0.666667  0.333333  0.750000  1
  Mg  Mg3  1  0.333333  0.666667  0.250000  1
  Pd  Pd4  1  0.497632  0.502368  0.495363  1
  Pd  Pd5  1  0.497632  0.995264  0.495363  1
  Pd  Pd6  1  0.004736  0.502368  0.495363  1
  Pd  Pd7  1  0.497632  0.502368  0.004637  1
  Pd  Pd8  1  0.497632  0.995264  0.004637  1
  Pd  Pd9  1  0.004736  0.502368  0.004637  1
  Pd  Pd10  1  0.824719  0.649438  0.250000  1
  Pd  Pd11  1  0.350562  0.175281  0.250000  1
  Pd  Pd12  1  0.824719  0.175281  0.250000  1
  Pd  Pd13  1  0.173062  0.346123  0.750000  1
  Pd  Pd14  1  0.653877  0.826938  0.750000  1
  Pd  Pd15  1  0.173062  0.826938  0.750000  1
