# generated using pymatgen
data_Er16In6PtRh
_symmetry_space_group_name_H-M   'P 1'
_cell_length_a   10.40127300
_cell_length_b   10.40127169
_cell_length_c   6.96086800
_cell_angle_alpha   90.00000000
_cell_angle_beta   90.00000000
_cell_angle_gamma   119.99999463
_symmetry_Int_Tables_number   1
_chemical_formula_structural   Er16In6PtRh
_chemical_formula_sum   'Er16 In6 Pt1 Rh1'
_cell_volume   652.17926853
_cell_formula_units_Z   1
loop_
 _symmetry_equiv_pos_site_id
 _symmetry_equiv_pos_as_xyz
  1  'x, y, z'
loop_
 _atom_site_type_symbol
 _atom_site_label
 _atom_site_symmetry_multiplicity
 _atom_site_fract_x
 _atom_site_fract_y
 _atom_site_fract_z
 _atom_site_occupancy
  Er  Er0  1  0.530978  0.061956  0.795294  1
  Er  Er1  1  0.938044  0.469022  0.795294  1
  Er  Er2  1  0.530978  0.469022  0.795294  1
  Er  Er3  1  0.466185  0.932371  0.294563  1
  Er  Er4  1  0.067629  0.533815  0.294563  1
  Er  Er5  1  0.466185  0.533815  0.294563  1
  Er  Er6  1  0.824619  0.649238  0.499802  1
  Er  Er7  1  0.350762  0.175381  0.499802  1
  Er  Er8  1  0.824619  0.175381  0.499802  1
  Er  Er9  1  0.176560  0.353120  0.999907  1
  Er  Er10  1  0.646880  0.823440  0.999907  1
  Er  Er11  1  0.176560  0.823440  0.999907  1
  Er  Er12  1  0.666667  0.333333  0.170830  1
  Er  Er13  1  0.333333  0.666667  0.675555  1
  Er  Er14  1  0.000000  0.000000  0.777399  1
  Er  Er15  1  0.000000  0.000000  0.277266  1
  In  In16  1  0.837578  0.675155  0.037717  1
  In  In17  1  0.324845  0.162422  0.037717  1
  In  In18  1  0.837578  0.162422  0.037717  1
  In  In19  1  0.162680  0.325360  0.538415  1
  In  In20  1  0.674640  0.837320  0.538415  1
  In  In21  1  0.162680  0.837320  0.538415  1
  Pt  Pt22  1  0.666667  0.333333  0.568462  1
  Rh  Rh23  1  0.333333  0.666667  0.069297  1
