# generated using pymatgen
data_NaCeH9W
_symmetry_space_group_name_H-M   'P 1'
_cell_length_a   8.91247600
_cell_length_b   8.91247546
_cell_length_c   5.01270200
_cell_angle_alpha   90.00000000
_cell_angle_beta   90.00000000
_cell_angle_gamma   120.00000201
_symmetry_Int_Tables_number   1
_chemical_formula_structural   NaCeH9W
_chemical_formula_sum   'Na3 Ce3 H27 W3'
_cell_volume   344.82538534
_cell_formula_units_Z   3
loop_
 _symmetry_equiv_pos_site_id
 _symmetry_equiv_pos_as_xyz
  1  'x, y, z'
loop_
 _atom_site_type_symbol
 _atom_site_label
 _atom_site_symmetry_multiplicity
 _atom_site_fract_x
 _atom_site_fract_y
 _atom_site_fract_z
 _atom_site_occupancy
  Na  Na0  1  0.000000  0.599093  0.000000  1
  Na  Na1  1  0.400907  0.400907  0.000000  1
  Na  Na2  1  0.599093  0.000000  0.000000  1
  Ce  Ce3  1  0.000000  0.266462  0.500000  1
  Ce  Ce4  1  0.733538  0.733538  0.500000  1
  Ce  Ce5  1  0.266462  0.000000  0.500000  1
  H  H6  1  0.809463  0.337429  0.754525  1
  H  H7  1  0.662571  0.472033  0.754525  1
  H  H8  1  0.527967  0.190537  0.754525  1
  H  H9  1  0.190537  0.527967  0.245475  1
  H  H10  1  0.527967  0.190537  0.245475  1
  H  H11  1  0.809463  0.337429  0.245475  1
  H  H12  1  0.662571  0.472033  0.245475  1
  H  H13  1  0.337429  0.809463  0.754525  1
  H  H14  1  0.472033  0.662571  0.754525  1
  H  H15  1  0.203997  0.000000  0.000000  1
  H  H16  1  0.796003  0.796003  0.000000  1
  H  H17  1  0.000000  0.203997  0.000000  1
  H  H18  1  0.852017  0.000000  0.255344  1
  H  H19  1  0.147983  0.147983  0.744656  1
  H  H20  1  0.000000  0.852017  0.744656  1
  H  H21  1  0.000000  0.852017  0.255344  1
  H  H22  1  0.147983  0.147983  0.255344  1
  H  H23  1  0.852017  0.000000  0.744656  1
  H  H24  1  0.140463  0.677744  0.500000  1
  H  H25  1  0.537281  0.859537  0.500000  1
  H  H26  1  0.322256  0.462719  0.500000  1
  H  H27  1  0.462719  0.322256  0.500000  1
  H  H28  1  0.859537  0.537281  0.500000  1
  H  H29  1  0.677744  0.140463  0.500000  1
  H  H30  1  0.190537  0.527967  0.754525  1
  H  H31  1  0.337429  0.809463  0.245475  1
  H  H32  1  0.472033  0.662571  0.245475  1
  W  W33  1  0.666667  0.333333  0.500000  1
  W  W34  1  0.333333  0.666667  0.500000  1
  W  W35  1  0.000000  0.000000  0.000000  1
