# generated using pymatgen
data_LiSm6AlAu10
_symmetry_space_group_name_H-M   'P 1'
_cell_length_a   8.60264800
_cell_length_b   8.60264937
_cell_length_c   13.50349400
_cell_angle_alpha   90.00000000
_cell_angle_beta   90.00000000
_cell_angle_gamma   127.51648027
_symmetry_Int_Tables_number   1
_chemical_formula_structural   LiSm6AlAu10
_chemical_formula_sum   'Li2 Sm12 Al2 Au20'
_cell_volume   792.64970792
_cell_formula_units_Z   2
loop_
 _symmetry_equiv_pos_site_id
 _symmetry_equiv_pos_as_xyz
  1  'x, y, z'
loop_
 _atom_site_type_symbol
 _atom_site_label
 _atom_site_symmetry_multiplicity
 _atom_site_fract_x
 _atom_site_fract_y
 _atom_site_fract_z
 _atom_site_occupancy
  Li  Li0  1  0.532760  0.467240  0.250000  1
  Li  Li1  1  0.467240  0.532760  0.750000  1
  Sm  Sm2  1  0.932887  0.067113  0.250000  1
  Sm  Sm3  1  0.067113  0.932887  0.750000  1
  Sm  Sm4  1  0.320683  0.679317  0.250000  1
  Sm  Sm5  1  0.679317  0.320683  0.750000  1
  Sm  Sm6  1  0.628802  0.371198  0.463924  1
  Sm  Sm7  1  0.371198  0.628802  0.536076  1
  Sm  Sm8  1  0.628802  0.371198  0.036076  1
  Sm  Sm9  1  0.371198  0.628802  0.963924  1
  Sm  Sm10  1  0.881404  0.118596  0.949057  1
  Sm  Sm11  1  0.118596  0.881404  0.050943  1
  Sm  Sm12  1  0.881404  0.118596  0.550943  1
  Sm  Sm13  1  0.118596  0.881404  0.449057  1
  Al  Al14  1  0.722825  0.277175  0.250000  1
  Al  Al15  1  0.277175  0.722825  0.750000  1
  Au  Au16  1  0.327425  0.074240  0.250000  1
  Au  Au17  1  0.074240  0.327425  0.750000  1
  Au  Au18  1  0.672575  0.925760  0.750000  1
  Au  Au19  1  0.925760  0.672575  0.250000  1
  Au  Au20  1  0.572675  0.006521  0.395559  1
  Au  Au21  1  0.006521  0.572675  0.604441  1
  Au  Au22  1  0.572675  0.006521  0.104441  1
  Au  Au23  1  0.006521  0.572675  0.895559  1
  Au  Au24  1  0.427325  0.993479  0.604441  1
  Au  Au25  1  0.993479  0.427325  0.395559  1
  Au  Au26  1  0.427325  0.993479  0.895559  1
  Au  Au27  1  0.993479  0.427325  0.104441  1
  Au  Au28  1  0.686723  0.741471  0.393008  1
  Au  Au29  1  0.741471  0.686723  0.606992  1
  Au  Au30  1  0.686723  0.741471  0.106992  1
  Au  Au31  1  0.741471  0.686723  0.893008  1
  Au  Au32  1  0.313277  0.258529  0.606992  1
  Au  Au33  1  0.258529  0.313277  0.393008  1
  Au  Au34  1  0.313277  0.258529  0.893008  1
  Au  Au35  1  0.258529  0.313277  0.106992  1
