# generated using pymatgen
data_Ac5La3(Er3Pt4)4
_symmetry_space_group_name_H-M   'P 1'
_cell_length_a   7.70318508
_cell_length_b   7.77726526
_cell_length_c   15.12366700
_cell_angle_alpha   89.97142307
_cell_angle_beta   90.00818916
_cell_angle_gamma   90.19980722
_symmetry_Int_Tables_number   1
_chemical_formula_structural   Ac5La3(Er3Pt4)4
_chemical_formula_sum   'Ac5 La3 Er12 Pt16'
_cell_volume   906.04892856
_cell_formula_units_Z   1
loop_
 _symmetry_equiv_pos_site_id
 _symmetry_equiv_pos_as_xyz
  1  'x, y, z'
loop_
 _atom_site_type_symbol
 _atom_site_label
 _atom_site_symmetry_multiplicity
 _atom_site_fract_x
 _atom_site_fract_y
 _atom_site_fract_z
 _atom_site_occupancy
  Ac  Ac0  1  0.002614  0.174954  0.402228  1
  Ac  Ac1  1  0.502612  0.326144  0.404070  1
  Ac  Ac2  1  0.002130  0.174260  0.094916  1
  Ac  Ac3  1  0.498065  0.674707  0.904494  1
  Ac  Ac4  1  0.997366  0.823967  0.596921  1
  La  La5  1  0.499804  0.678000  0.599452  1
  La  La6  1  0.999931  0.822816  0.900020  1
  La  La7  1  0.500528  0.322712  0.099159  1
  Er  Er8  1  0.653545  0.167399  0.625368  1
  Er  Er9  1  0.153576  0.332545  0.875129  1
  Er  Er10  1  0.345860  0.832900  0.123856  1
  Er  Er11  1  0.846439  0.667614  0.374921  1
  Er  Er12  1  0.348793  0.831168  0.376502  1
  Er  Er13  1  0.846012  0.666509  0.122356  1
  Er  Er14  1  0.653982  0.166704  0.877196  1
  Er  Er15  1  0.154446  0.334877  0.624635  1
  Er  Er16  1  0.819148  0.501444  0.750523  1
  Er  Er17  1  0.319761  0.999267  0.750509  1
  Er  Er18  1  0.180683  0.499780  0.248408  1
  Er  Er19  1  0.678964  0.000745  0.248592  1
  Pt  Pt20  1  0.675511  0.957589  0.455992  1
  Pt  Pt21  1  0.180535  0.536974  0.045888  1
  Pt  Pt22  1  0.319111  0.037591  0.954132  1
  Pt  Pt23  1  0.818310  0.463614  0.546641  1
  Pt  Pt24  1  0.326139  0.038221  0.546022  1
  Pt  Pt25  1  0.827197  0.462702  0.954221  1
  Pt  Pt26  1  0.673220  0.962202  0.045169  1
  Pt  Pt27  1  0.175846  0.540584  0.455814  1
  Pt  Pt28  1  0.449798  0.366176  0.749869  1
  Pt  Pt29  1  0.949502  0.134301  0.750747  1
  Pt  Pt30  1  0.550100  0.635059  0.249025  1
  Pt  Pt31  1  0.050949  0.863909  0.249689  1
  Pt  Pt32  1  0.684418  0.867846  0.749055  1
  Pt  Pt33  1  0.185153  0.632699  0.751746  1
  Pt  Pt34  1  0.316804  0.132543  0.247821  1
  Pt  Pt35  1  0.813147  0.369478  0.248914  1
