# generated using pymatgen
data_Tb2Al2Co5NiB2
_symmetry_space_group_name_H-M   'P 1'
_cell_length_a   5.15917601
_cell_length_b   5.18481023
_cell_length_c   6.65859901
_cell_angle_alpha   89.99564846
_cell_angle_beta   90.00486183
_cell_angle_gamma   120.16256575
_symmetry_Int_Tables_number   1
_chemical_formula_structural   Tb2Al2Co5NiB2
_chemical_formula_sum   'Tb2 Al2 Co5 Ni1 B2'
_cell_volume   153.99724125
_cell_formula_units_Z   1
loop_
 _symmetry_equiv_pos_site_id
 _symmetry_equiv_pos_as_xyz
  1  'x, y, z'
loop_
 _atom_site_type_symbol
 _atom_site_label
 _atom_site_symmetry_multiplicity
 _atom_site_fract_x
 _atom_site_fract_y
 _atom_site_fract_z
 _atom_site_occupancy
  Tb  Tb0  1  0.000015  0.999999  0.995698  1
  Tb  Tb1  1  0.000020  0.000015  0.500171  1
  Al  Al2  1  0.336213  0.668010  0.999479  1
  Al  Al3  1  0.663803  0.331975  0.999471  1
  Co  Co4  1  0.500002  0.000007  0.295363  1
  Co  Co5  1  0.499973  0.499987  0.295362  1
  Co  Co6  1  0.500013  0.999983  0.705672  1
  Co  Co7  1  0.500011  0.500002  0.705664  1
  Co  Co8  1  0.000027  0.500001  0.705142  1
  Ni  Ni9  1  0.999735  0.500045  0.293799  1
  B  B10  1  0.340022  0.670031  0.502085  1
  B  B11  1  0.659967  0.329945  0.502093  1
