# generated using pymatgen
data_V5Mo(AsO4)6
_symmetry_space_group_name_H-M   'P 1'
_cell_length_a   9.46759126
_cell_length_b   9.46759109
_cell_length_c   9.48201237
_cell_angle_alpha   138.51232628
_cell_angle_beta   109.78109453
_cell_angle_gamma   84.88343012
_symmetry_Int_Tables_number   1
_chemical_formula_structural   V5Mo(AsO4)6
_chemical_formula_sum   'V5 Mo1 As6 O24'
_cell_volume   511.07393990
_cell_formula_units_Z   1
loop_
 _symmetry_equiv_pos_site_id
 _symmetry_equiv_pos_as_xyz
  1  'x, y, z'
loop_
 _atom_site_type_symbol
 _atom_site_label
 _atom_site_symmetry_multiplicity
 _atom_site_fract_x
 _atom_site_fract_y
 _atom_site_fract_z
 _atom_site_occupancy
  V  V0  1  0.999000  0.500660  0.501771  1
  V  V1  1  0.498889  0.997231  0.498229  1
  V  V2  1  0.884999  0.884999  0.500000  1
  V  V3  1  0.618094  0.118094  0.000000  1
  V  V4  1  0.114020  0.114020  0.500000  1
  Mo  Mo5  1  0.384452  0.884452  0.000000  1
  As  As6  1  0.250821  0.816550  0.565140  1
  As  As7  1  0.751409  0.185681  0.434860  1
  As  As8  1  0.824757  0.324757  0.000000  1
  As  As9  1  0.677726  0.677726  0.500000  1
  As  As10  1  0.170700  0.670700  0.000000  1
  As  As11  1  0.322296  0.322296  0.500000  1
  O  O12  1  0.120510  0.972240  0.593402  1
  O  O13  1  0.384651  0.977049  0.849428  1
  O  O14  1  0.627621  0.035223  0.150572  1
  O  O15  1  0.878839  0.027109  0.406598  1
  O  O16  1  0.151047  0.587032  0.447480  1
  O  O17  1  0.352915  0.783884  0.429469  1
  O  O18  1  0.854415  0.423446  0.570531  1
  O  O19  1  0.639552  0.203567  0.552520  1
  O  O20  1  0.138407  0.400536  0.827121  1
  O  O21  1  0.345337  0.195283  0.261790  1
  O  O22  1  0.433492  0.583546  0.738210  1
  O  O23  1  0.073414  0.811287  0.172879  1
  O  O24  1  0.653759  0.812374  0.431813  1
  O  O25  1  0.850493  0.280350  0.158742  1
  O  O26  1  0.621609  0.191752  0.841258  1
  O  O27  1  0.880563  0.721947  0.568187  1
  O  O28  1  0.344437  0.182607  0.563086  1
  O  O29  1  0.144108  0.719073  0.844221  1
  O  O30  1  0.374851  0.799887  0.155779  1
  O  O31  1  0.119523  0.281351  0.436914  1
  O  O32  1  0.922159  0.186220  0.826925  1
  O  O33  1  0.577907  0.409759  0.255825  1
  O  O34  1  0.653934  0.822082  0.744175  1
  O  O35  1  0.859294  0.595233  0.173075  1
