# generated using pymatgen
data_HoTm5P13Rh20
_symmetry_space_group_name_H-M   'P 1'
_cell_length_a   13.31508202
_cell_length_b   13.31345049
_cell_length_c   3.90275000
_cell_angle_alpha   90.00030439
_cell_angle_beta   90.00284588
_cell_angle_gamma   119.99793317
_symmetry_Int_Tables_number   1
_chemical_formula_structural   HoTm5P13Rh20
_chemical_formula_sum   'Ho1 Tm5 P13 Rh20'
_cell_volume   599.16285508
_cell_formula_units_Z   1
loop_
 _symmetry_equiv_pos_site_id
 _symmetry_equiv_pos_as_xyz
  1  'x, y, z'
loop_
 _atom_site_type_symbol
 _atom_site_label
 _atom_site_symmetry_multiplicity
 _atom_site_fract_x
 _atom_site_fract_y
 _atom_site_fract_z
 _atom_site_occupancy
  Ho  Ho0  1  0.529294  0.717158  0.248260  1
  Tm  Tm1  1  0.282769  0.812110  0.248314  1
  Tm  Tm2  1  0.187853  0.470669  0.248435  1
  Tm  Tm3  1  0.470882  0.282969  0.751649  1
  Tm  Tm4  1  0.717155  0.188062  0.751694  1
  Tm  Tm5  1  0.811928  0.529095  0.751561  1
  P  P6  1  0.527149  0.140241  0.250401  1
  P  P7  1  0.859859  0.387029  0.250278  1
  P  P8  1  0.612944  0.472747  0.250372  1
  P  P9  1  0.944839  0.714051  0.254759  1
  P  P10  1  0.285931  0.230604  0.254797  1
  P  P11  1  0.769214  0.055262  0.254496  1
  P  P12  1  0.386541  0.526669  0.749610  1
  P  P13  1  0.472778  0.860124  0.749596  1
  P  P14  1  0.139798  0.612848  0.749714  1
  P  P15  1  0.714640  0.769546  0.745202  1
  P  P16  1  0.230702  0.944746  0.745337  1
  P  P17  1  0.055194  0.285937  0.745138  1
  P  P18  1  0.000101  0.000058  0.000160  1
  Rh  Rh19  1  0.332906  0.666571  0.752460  1
  Rh  Rh20  1  0.919564  0.250139  0.253833  1
  Rh  Rh21  1  0.750064  0.669410  0.253905  1
  Rh  Rh22  1  0.330590  0.080443  0.253736  1
  Rh  Rh23  1  0.438157  0.022113  0.751448  1
  Rh  Rh24  1  0.977849  0.416221  0.751476  1
  Rh  Rh25  1  0.583837  0.561062  0.751506  1
  Rh  Rh26  1  0.666711  0.333337  0.247588  1
  Rh  Rh27  1  0.094290  0.187627  0.247083  1
  Rh  Rh28  1  0.812389  0.906636  0.247334  1
  Rh  Rh29  1  0.093483  0.905628  0.247025  1
  Rh  Rh30  1  0.022040  0.583753  0.248524  1
  Rh  Rh31  1  0.416072  0.437927  0.248453  1
  Rh  Rh32  1  0.561682  0.978271  0.248582  1
  Rh  Rh33  1  0.669921  0.920659  0.746321  1
  Rh  Rh34  1  0.080259  0.749785  0.746185  1
  Rh  Rh35  1  0.249893  0.330178  0.746105  1
  Rh  Rh36  1  0.906137  0.812529  0.752901  1
  Rh  Rh37  1  0.187701  0.093351  0.752815  1
  Rh  Rh38  1  0.906885  0.094436  0.752945  1
