# generated using pymatgen
data_Ho8ErTm(In2Ni)4
_symmetry_space_group_name_H-M   'P 1'
_cell_length_a   3.57673200
_cell_length_b   7.97424511
_cell_length_c   17.87250923
_cell_angle_alpha   89.98143803
_cell_angle_beta   90.00000000
_cell_angle_gamma   90.00000000
_symmetry_Int_Tables_number   1
_chemical_formula_structural   Ho8ErTm(In2Ni)4
_chemical_formula_sum   'Ho8 Er1 Tm1 In8 Ni4'
_cell_volume   509.75499263
_cell_formula_units_Z   1
loop_
 _symmetry_equiv_pos_site_id
 _symmetry_equiv_pos_as_xyz
  1  'x, y, z'
loop_
 _atom_site_type_symbol
 _atom_site_label
 _atom_site_symmetry_multiplicity
 _atom_site_fract_x
 _atom_site_fract_y
 _atom_site_fract_z
 _atom_site_occupancy
  Ho  Ho0  1  0.000000  0.500017  0.500079  1
  Ho  Ho1  1  0.000000  0.000065  0.999902  1
  Ho  Ho2  1  0.000000  0.746007  0.278500  1
  Ho  Ho3  1  0.000000  0.254023  0.721680  1
  Ho  Ho4  1  0.000000  0.754115  0.778136  1
  Ho  Ho5  1  0.000000  0.245712  0.221801  1
  Ho  Ho6  1  0.000000  0.617156  0.087931  1
  Ho  Ho7  1  0.000000  0.382770  0.911855  1
  Er  Er8  1  0.000000  0.883102  0.588263  1
  Tm  Tm9  1  0.000000  0.116861  0.411616  1
  In  In10  1  0.500000  0.705563  0.930923  1
  In  In11  1  0.500000  0.294363  0.068988  1
  In  In12  1  0.500000  0.795825  0.431404  1
  In  In13  1  0.500000  0.204748  0.568567  1
  In  In14  1  0.500000  0.573543  0.651710  1
  In  In15  1  0.500000  0.425887  0.348446  1
  In  In16  1  0.500000  0.926891  0.151893  1
  In  In17  1  0.500000  0.073016  0.848051  1
  Ni  Ni18  1  0.500000  0.524302  0.195689  1
  Ni  Ni19  1  0.500000  0.475670  0.804154  1
  Ni  Ni20  1  0.500000  0.975522  0.695444  1
  Ni  Ni21  1  0.500000  0.024842  0.304968  1
