# generated using pymatgen
data_Nd5V3(As3Rh4)4
_symmetry_space_group_name_H-M   'P 1'
_cell_length_a   13.16380000
_cell_length_b   13.16380118
_cell_length_c   3.97952400
_cell_angle_alpha   90.00000000
_cell_angle_beta   90.00000000
_cell_angle_gamma   120.00000205
_symmetry_Int_Tables_number   1
_chemical_formula_structural   Nd5V3(As3Rh4)4
_chemical_formula_sum   'Nd5 V3 As12 Rh16'
_cell_volume   597.20624529
_cell_formula_units_Z   1
loop_
 _symmetry_equiv_pos_site_id
 _symmetry_equiv_pos_as_xyz
  1  'x, y, z'
loop_
 _atom_site_type_symbol
 _atom_site_label
 _atom_site_symmetry_multiplicity
 _atom_site_fract_x
 _atom_site_fract_y
 _atom_site_fract_z
 _atom_site_occupancy
  Nd  Nd0  1  0.189754  0.189754  0.500000  1
  Nd  Nd1  1  0.810246  0.000000  0.500000  1
  Nd  Nd2  1  0.000000  0.810246  0.500000  1
  Nd  Nd3  1  0.333333  0.666667  0.000000  1
  Nd  Nd4  1  0.666667  0.333333  0.000000  1
  V  V5  1  0.555246  0.555246  0.000000  1
  V  V6  1  0.444754  0.000000  0.000000  1
  V  V7  1  0.000000  0.444754  0.000000  1
  As  As8  1  0.822191  0.822191  0.000000  1
  As  As9  1  0.177809  0.000000  0.000000  1
  As  As10  1  0.000000  0.177809  0.000000  1
  As  As11  1  0.163801  0.484083  0.500000  1
  As  As12  1  0.515917  0.679719  0.500000  1
  As  As13  1  0.320281  0.836199  0.500000  1
  As  As14  1  0.679719  0.515917  0.500000  1
  As  As15  1  0.836199  0.320281  0.500000  1
  As  As16  1  0.484083  0.163801  0.500000  1
  As  As17  1  0.365805  0.365805  0.000000  1
  As  As18  1  0.634195  0.000000  0.000000  1
  As  As19  1  0.000000  0.634195  0.000000  1
  Rh  Rh20  1  0.715158  0.715158  0.500000  1
  Rh  Rh21  1  0.284842  0.000000  0.500000  1
  Rh  Rh22  1  0.000000  0.284842  0.500000  1
  Rh  Rh23  1  0.176731  0.377665  0.000000  1
  Rh  Rh24  1  0.622335  0.799067  0.000000  1
  Rh  Rh25  1  0.200933  0.823269  0.000000  1
  Rh  Rh26  1  0.799067  0.622335  0.000000  1
  Rh  Rh27  1  0.823269  0.200933  0.000000  1
  Rh  Rh28  1  0.377665  0.176731  0.000000  1
  Rh  Rh29  1  0.354794  0.481727  0.500000  1
  Rh  Rh30  1  0.518273  0.873067  0.500000  1
  Rh  Rh31  1  0.126933  0.645206  0.500000  1
  Rh  Rh32  1  0.873067  0.518273  0.500000  1
  Rh  Rh33  1  0.645206  0.126933  0.500000  1
  Rh  Rh34  1  0.481727  0.354794  0.500000  1
  Rh  Rh35  1  0.000000  0.000000  0.000000  1
