# generated using pymatgen
data_Tb8Dy9Er3Sn16
_symmetry_space_group_name_H-M   'P 1'
_cell_length_a   8.03410606
_cell_length_b   8.18068906
_cell_length_c   15.46806700
_cell_angle_alpha   90.00000000
_cell_angle_beta   90.00000000
_cell_angle_gamma   90.01346997
_symmetry_Int_Tables_number   1
_chemical_formula_structural   Tb8Dy9Er3Sn16
_chemical_formula_sum   'Tb8 Dy9 Er3 Sn16'
_cell_volume   1016.63130475
_cell_formula_units_Z   1
loop_
 _symmetry_equiv_pos_site_id
 _symmetry_equiv_pos_as_xyz
  1  'x, y, z'
loop_
 _atom_site_type_symbol
 _atom_site_label
 _atom_site_symmetry_multiplicity
 _atom_site_fract_x
 _atom_site_fract_y
 _atom_site_fract_z
 _atom_site_occupancy
  Tb  Tb0  1  0.520372  0.319820  0.902482  1
  Tb  Tb1  1  0.020267  0.180081  0.597526  1
  Tb  Tb2  1  0.479671  0.680127  0.402452  1
  Tb  Tb3  1  0.979694  0.819860  0.097531  1
  Tb  Tb4  1  0.479671  0.680127  0.097548  1
  Tb  Tb5  1  0.979694  0.819860  0.402469  1
  Tb  Tb6  1  0.520372  0.319820  0.597518  1
  Tb  Tb7  1  0.020267  0.180081  0.902474  1
  Dy  Dy8  1  0.367590  0.835837  0.878114  1
  Dy  Dy9  1  0.867397  0.664307  0.621889  1
  Dy  Dy10  1  0.632469  0.164240  0.378107  1
  Dy  Dy11  1  0.132475  0.335772  0.121922  1
  Dy  Dy12  1  0.632469  0.164240  0.121893  1
  Dy  Dy13  1  0.132475  0.335772  0.378078  1
  Dy  Dy14  1  0.367590  0.835837  0.621886  1
  Dy  Dy15  1  0.867397  0.664307  0.878111  1
  Dy  Dy16  1  0.197983  0.502921  0.750000  1
  Er  Er17  1  0.698191  0.997107  0.750000  1
  Er  Er18  1  0.801885  0.497018  0.250000  1
  Er  Er19  1  0.301934  0.002933  0.250000  1
  Sn  Sn20  1  0.293178  0.035390  0.042067  1
  Sn  Sn21  1  0.793177  0.464625  0.457935  1
  Sn  Sn22  1  0.706807  0.964595  0.542038  1
  Sn  Sn23  1  0.206811  0.535402  0.958115  1
  Sn  Sn24  1  0.706807  0.964595  0.957962  1
  Sn  Sn25  1  0.206811  0.535402  0.541885  1
  Sn  Sn26  1  0.293178  0.035390  0.457933  1
  Sn  Sn27  1  0.793177  0.464625  0.042065  1
  Sn  Sn28  1  0.565169  0.619782  0.750000  1
  Sn  Sn29  1  0.064734  0.880519  0.750000  1
  Sn  Sn30  1  0.435255  0.380287  0.250000  1
  Sn  Sn31  1  0.935212  0.119687  0.250000  1
  Sn  Sn32  1  0.328414  0.145997  0.750000  1
  Sn  Sn33  1  0.828246  0.353545  0.750000  1
  Sn  Sn34  1  0.671629  0.853651  0.250000  1
  Sn  Sn35  1  0.171531  0.646438  0.250000  1
