# generated using pymatgen
data_Pr6Cd23Ge
_symmetry_space_group_name_H-M   'P 1'
_cell_length_a   10.11010415
_cell_length_b   10.11085845
_cell_length_c   10.11037603
_cell_angle_alpha   59.99820648
_cell_angle_beta   60.00519649
_cell_angle_gamma   59.99860989
_symmetry_Int_Tables_number   1
_chemical_formula_structural   Pr6Cd23Ge
_chemical_formula_sum   'Pr6 Cd23 Ge1'
_cell_volume   730.80678837
_cell_formula_units_Z   1
loop_
 _symmetry_equiv_pos_site_id
 _symmetry_equiv_pos_as_xyz
  1  'x, y, z'
loop_
 _atom_site_type_symbol
 _atom_site_label
 _atom_site_symmetry_multiplicity
 _atom_site_fract_x
 _atom_site_fract_y
 _atom_site_fract_z
 _atom_site_occupancy
  Pr  Pr0  1  0.791118  0.791108  0.208888  1
  Pr  Pr1  1  0.208894  0.791108  0.208893  1
  Pr  Pr2  1  0.791106  0.208892  0.208889  1
  Pr  Pr3  1  0.208879  0.208892  0.791110  1
  Pr  Pr4  1  0.791107  0.208891  0.791110  1
  Pr  Pr5  1  0.208895  0.791107  0.791109  1
  Cd  Cd6  1  0.834351  0.834352  0.496952  1
  Cd  Cd7  1  0.834347  0.496948  0.834356  1
  Cd  Cd8  1  0.496942  0.834352  0.834359  1
  Cd  Cd9  1  0.834350  0.834356  0.834352  1
  Cd  Cd10  1  0.165647  0.165646  0.503051  1
  Cd  Cd11  1  0.165652  0.503054  0.165645  1
  Cd  Cd12  1  0.503056  0.165648  0.165645  1
  Cd  Cd13  1  0.165647  0.165644  0.165651  1
  Cd  Cd14  1  0.621395  0.621407  0.135821  1
  Cd  Cd15  1  0.621384  0.135820  0.621405  1
  Cd  Cd16  1  0.135815  0.621385  0.621395  1
  Cd  Cd17  1  0.621407  0.621392  0.621382  1
  Cd  Cd18  1  0.378605  0.378593  0.864179  1
  Cd  Cd19  1  0.378615  0.864181  0.378596  1
  Cd  Cd20  1  0.864186  0.378616  0.378606  1
  Cd  Cd21  1  0.378591  0.378610  0.378618  1
  Cd  Cd22  1  0.000000  0.000000  0.500000  1
  Cd  Cd23  1  0.500001  0.999998  0.499999  1
  Cd  Cd24  1  0.999999  0.500000  0.500001  1
  Cd  Cd25  1  0.499998  0.500001  0.000001  1
  Cd  Cd26  1  0.999999  0.499999  0.000001  1
  Cd  Cd27  1  0.500001  0.999999  0.000000  1
  Cd  Cd28  1  0.500001  0.500001  0.499999  1
  Ge  Ge29  1  0.000014  0.999999  0.999989  1
