# generated using pymatgen
data_Dy2Sn(PRh2)6
_symmetry_space_group_name_H-M   'P 1'
_cell_length_a   9.77434300
_cell_length_b   9.77434295
_cell_length_c   3.87524700
_cell_angle_alpha   90.00000000
_cell_angle_beta   90.00000000
_cell_angle_gamma   120.00000354
_symmetry_Int_Tables_number   1
_chemical_formula_structural   Dy2Sn(PRh2)6
_chemical_formula_sum   'Dy2 Sn1 P6 Rh12'
_cell_volume   320.63073689
_cell_formula_units_Z   1
loop_
 _symmetry_equiv_pos_site_id
 _symmetry_equiv_pos_as_xyz
  1  'x, y, z'
loop_
 _atom_site_type_symbol
 _atom_site_label
 _atom_site_symmetry_multiplicity
 _atom_site_fract_x
 _atom_site_fract_y
 _atom_site_fract_z
 _atom_site_occupancy
  Dy  Dy0  1  0.333333  0.666667  0.750569  1
  Dy  Dy1  1  0.666667  0.333333  0.249431  1
  Sn  Sn2  1  0.000000  0.000000  0.500000  1
  P  P3  1  0.405954  0.287717  0.746858  1
  P  P4  1  0.712283  0.118237  0.746858  1
  P  P5  1  0.881763  0.594046  0.746858  1
  P  P6  1  0.594046  0.712283  0.253142  1
  P  P7  1  0.287717  0.881763  0.253142  1
  P  P8  1  0.118237  0.405954  0.253142  1
  Rh  Rh9  1  0.453269  0.067314  0.747284  1
  Rh  Rh10  1  0.932686  0.385955  0.747284  1
  Rh  Rh11  1  0.614045  0.546731  0.747284  1
  Rh  Rh12  1  0.546731  0.932686  0.252716  1
  Rh  Rh13  1  0.067314  0.614045  0.252716  1
  Rh  Rh14  1  0.385955  0.453269  0.252716  1
  Rh  Rh15  1  0.161899  0.287377  0.759190  1
  Rh  Rh16  1  0.712623  0.874523  0.759190  1
  Rh  Rh17  1  0.125477  0.838101  0.759190  1
  Rh  Rh18  1  0.838101  0.712623  0.240810  1
  Rh  Rh19  1  0.287377  0.125477  0.240810  1
  Rh  Rh20  1  0.874523  0.161899  0.240810  1
