# generated using pymatgen
data_Ca12RhAu3
_symmetry_space_group_name_H-M   'P 1'
_cell_length_a   6.75022002
_cell_length_b   7.85207882
_cell_length_c   9.73494500
_cell_angle_alpha   90.00000000
_cell_angle_beta   90.00000000
_cell_angle_gamma   90.20708068
_symmetry_Int_Tables_number   1
_chemical_formula_structural   Ca12RhAu3
_chemical_formula_sum   'Ca12 Rh1 Au3'
_cell_volume   515.98044767
_cell_formula_units_Z   1
loop_
 _symmetry_equiv_pos_site_id
 _symmetry_equiv_pos_as_xyz
  1  'x, y, z'
loop_
 _atom_site_type_symbol
 _atom_site_label
 _atom_site_symmetry_multiplicity
 _atom_site_fract_x
 _atom_site_fract_y
 _atom_site_fract_z
 _atom_site_occupancy
  Ca  Ca0  1  0.659057  0.173548  0.438985  1
  Ca  Ca1  1  0.158407  0.336742  0.569476  1
  Ca  Ca2  1  0.842639  0.674425  0.057877  1
  Ca  Ca3  1  0.330019  0.818251  0.931788  1
  Ca  Ca4  1  0.141944  0.037969  0.250000  1
  Ca  Ca5  1  0.653300  0.468656  0.750000  1
  Ca  Ca6  1  0.359824  0.535670  0.250000  1
  Ca  Ca7  1  0.866053  0.950053  0.750000  1
  Ca  Ca8  1  0.659057  0.173548  0.061015  1
  Ca  Ca9  1  0.158407  0.336742  0.930524  1
  Ca  Ca10  1  0.842639  0.674425  0.442123  1
  Ca  Ca11  1  0.330019  0.818251  0.568212  1
  Rh  Rh12  1  0.042840  0.623913  0.750000  1
  Au  Au13  1  0.551246  0.877058  0.250000  1
  Au  Au14  1  0.456353  0.121993  0.750000  1
  Au  Au15  1  0.948197  0.378756  0.250000  1
