# generated using pymatgen
data_La8CdTc2Hg
_symmetry_space_group_name_H-M   'P 1'
_cell_length_a   10.08752632
_cell_length_b   10.08676110
_cell_length_c   10.08752743
_cell_angle_alpha   60.00251739
_cell_angle_beta   60.09290292
_cell_angle_gamma   60.00250719
_symmetry_Int_Tables_number   1
_chemical_formula_structural   La8CdTc2Hg
_chemical_formula_sum   'La16 Cd2 Tc4 Hg2'
_cell_volume   726.31774870
_cell_formula_units_Z   2
loop_
 _symmetry_equiv_pos_site_id
 _symmetry_equiv_pos_as_xyz
  1  'x, y, z'
loop_
 _atom_site_type_symbol
 _atom_site_label
 _atom_site_symmetry_multiplicity
 _atom_site_fract_x
 _atom_site_fract_y
 _atom_site_fract_z
 _atom_site_occupancy
  La  La0  1  0.903698  0.903042  0.903698  1
  La  La1  1  0.438472  0.438343  0.061489  1
  La  La2  1  0.061489  0.061696  0.438472  1
  La  La3  1  0.438472  0.061696  0.061489  1
  La  La4  1  0.305943  0.694057  0.305943  1
  La  La5  1  0.693371  0.692932  0.306234  1
  La  La6  1  0.693371  0.307464  0.306234  1
  La  La7  1  0.287871  0.903946  0.904239  1
  La  La8  1  0.903698  0.289564  0.903698  1
  La  La9  1  0.306234  0.692932  0.693371  1
  La  La10  1  0.904239  0.903946  0.287871  1
  La  La11  1  0.060535  0.439465  0.060535  1
  La  La12  1  0.306234  0.307464  0.693371  1
  La  La13  1  0.061489  0.438343  0.438472  1
  La  La14  1  0.437437  0.062563  0.437437  1
  La  La15  1  0.692533  0.307467  0.692533  1
  Cd  Cd16  1  0.671637  0.984326  0.671637  1
  Cd  Cd17  1  0.671637  0.672399  0.671637  1
  Tc  Tc18  1  0.116664  0.116284  0.650765  1
  Tc  Tc19  1  0.116155  0.115640  0.116155  1
  Tc  Tc20  1  0.116155  0.652048  0.116155  1
  Tc  Tc21  1  0.650765  0.116284  0.116664  1
  Hg  Hg22  1  0.666967  0.669050  0.994931  1
  Hg  Hg23  1  0.994931  0.669050  0.666967  1
