# generated using pymatgen
data_Zr3Al2RhC
_symmetry_space_group_name_H-M   'P 1'
_cell_length_a   8.67407418
_cell_length_b   8.67405736
_cell_length_c   8.67405200
_cell_angle_alpha   60.00002045
_cell_angle_beta   60.00008460
_cell_angle_gamma   60.00005422
_symmetry_Int_Tables_number   1
_chemical_formula_structural   Zr3Al2RhC
_chemical_formula_sum   'Zr12 Al8 Rh4 C4'
_cell_volume   461.48008946
_cell_formula_units_Z   4
loop_
 _symmetry_equiv_pos_site_id
 _symmetry_equiv_pos_as_xyz
  1  'x, y, z'
loop_
 _atom_site_type_symbol
 _atom_site_label
 _atom_site_symmetry_multiplicity
 _atom_site_fract_x
 _atom_site_fract_y
 _atom_site_fract_z
 _atom_site_occupancy
  Zr  Zr0  1  0.442168  0.442175  0.057826  1
  Zr  Zr1  1  0.057830  0.442175  0.057828  1
  Zr  Zr2  1  0.442170  0.057826  0.057832  1
  Zr  Zr3  1  0.057835  0.057829  0.442169  1
  Zr  Zr4  1  0.442171  0.057826  0.442172  1
  Zr  Zr5  1  0.057829  0.442172  0.442170  1
  Zr  Zr6  1  0.807832  0.807825  0.192174  1
  Zr  Zr7  1  0.192170  0.807825  0.192172  1
  Zr  Zr8  1  0.807830  0.192174  0.192168  1
  Zr  Zr9  1  0.192165  0.192171  0.807831  1
  Zr  Zr10  1  0.807829  0.192174  0.807828  1
  Zr  Zr11  1  0.192171  0.807828  0.807830  1
  Al  Al12  1  0.829994  0.830006  0.509998  1
  Al  Al13  1  0.829998  0.509996  0.830000  1
  Al  Al14  1  0.509996  0.830005  0.829998  1
  Al  Al15  1  0.829996  0.830009  0.829998  1
  Al  Al16  1  0.420006  0.419994  0.740002  1
  Al  Al17  1  0.420002  0.740004  0.420000  1
  Al  Al18  1  0.740004  0.419995  0.420002  1
  Al  Al19  1  0.420004  0.419991  0.420002  1
  Rh  Rh20  1  0.625000  0.625000  0.125000  1
  Rh  Rh21  1  0.625000  0.125000  0.625000  1
  Rh  Rh22  1  0.125000  0.625000  0.625000  1
  Rh  Rh23  1  0.625000  0.625000  0.625000  1
  C  C24  1  0.125000  0.125000  0.625000  1
  C  C25  1  0.125000  0.625000  0.125000  1
  C  C26  1  0.625000  0.125000  0.125000  1
  C  C27  1  0.125000  0.125000  0.125000  1
