# generated using pymatgen
data_Tb15HoCd4(CoPt)2
_symmetry_space_group_name_H-M   'P 1'
_cell_length_a   9.65556392
_cell_length_b   9.63994636
_cell_length_c   9.64018351
_cell_angle_alpha   59.98333198
_cell_angle_beta   60.14158692
_cell_angle_gamma   60.10627607
_symmetry_Int_Tables_number   1
_chemical_formula_structural   Tb15HoCd4(CoPt)2
_chemical_formula_sum   'Tb15 Ho1 Cd4 Co2 Pt2'
_cell_volume   635.59216690
_cell_formula_units_Z   1
loop_
 _symmetry_equiv_pos_site_id
 _symmetry_equiv_pos_as_xyz
  1  'x, y, z'
loop_
 _atom_site_type_symbol
 _atom_site_label
 _atom_site_symmetry_multiplicity
 _atom_site_fract_x
 _atom_site_fract_y
 _atom_site_fract_z
 _atom_site_occupancy
  Tb  Tb0  1  0.587140  0.600295  0.601423  1
  Tb  Tb1  1  0.185636  0.815246  0.815909  1
  Tb  Tb2  1  0.069482  0.052653  0.437228  1
  Tb  Tb3  1  0.437701  0.062046  0.061743  1
  Tb  Tb4  1  0.812146  0.188855  0.814682  1
  Tb  Tb5  1  0.440511  0.052639  0.438000  1
  Tb  Tb6  1  0.597376  0.197352  0.610362  1
  Tb  Tb7  1  0.812571  0.814202  0.188859  1
  Tb  Tb8  1  0.206084  0.602260  0.602437  1
  Tb  Tb9  1  0.808919  0.189871  0.189181  1
  Tb  Tb10  1  0.059989  0.440896  0.440065  1
  Tb  Tb11  1  0.186150  0.813111  0.187693  1
  Tb  Tb12  1  0.597522  0.610600  0.197011  1
  Tb  Tb13  1  0.185621  0.187794  0.813618  1
  Tb  Tb14  1  0.070085  0.437335  0.052694  1
  Ho  Ho15  1  0.440766  0.438375  0.052628  1
  Cd  Cd16  1  0.831337  0.829254  0.507405  1
  Cd  Cd17  1  0.832854  0.830550  0.830408  1
  Cd  Cd18  1  0.504583  0.830475  0.830848  1
  Cd  Cd19  1  0.831096  0.507268  0.829409  1
  Co  Co20  1  0.391837  0.825263  0.390941  1
  Co  Co21  1  0.391831  0.390985  0.825865  1
  Pt  Pt22  1  0.395761  0.391777  0.390426  1
  Pt  Pt23  1  0.823002  0.390898  0.391162  1
