# generated using pymatgen
data_CeHo2In3Pd2Rh
_symmetry_space_group_name_H-M   'P 1'
_cell_length_a   7.74513262
_cell_length_b   7.78520200
_cell_length_c   3.80836700
_cell_angle_alpha   90.00000000
_cell_angle_beta   90.00000000
_cell_angle_gamma   120.62314260
_symmetry_Int_Tables_number   1
_chemical_formula_structural   CeHo2In3Pd2Rh
_chemical_formula_sum   'Ce1 Ho2 In3 Pd2 Rh1'
_cell_volume   197.60901634
_cell_formula_units_Z   1
loop_
 _symmetry_equiv_pos_site_id
 _symmetry_equiv_pos_as_xyz
  1  'x, y, z'
loop_
 _atom_site_type_symbol
 _atom_site_label
 _atom_site_symmetry_multiplicity
 _atom_site_fract_x
 _atom_site_fract_y
 _atom_site_fract_z
 _atom_site_occupancy
  Ce  Ce0  1  0.984997  0.577688  0.000000  1
  Ho  Ho1  1  0.411493  0.404711  0.000000  1
  Ho  Ho2  1  0.595633  0.010270  0.000000  1
  In  In3  1  0.731237  0.740514  0.500000  1
  In  In4  1  0.266296  0.003886  0.500000  1
  In  In5  1  0.000441  0.253912  0.500000  1
  Pd  Pd6  1  0.000776  0.997706  0.000000  1
  Pd  Pd7  1  0.327767  0.665632  0.500000  1
  Rh  Rh8  1  0.681359  0.345683  0.500000  1
