# generated using pymatgen
data_DyZn10Ag
_symmetry_space_group_name_H-M   'P 1'
_cell_length_a   8.26389556
_cell_length_b   8.26389448
_cell_length_c   8.26389433
_cell_angle_alpha   99.97066924
_cell_angle_beta   99.97065428
_cell_angle_gamma   130.82207447
_symmetry_Int_Tables_number   1
_chemical_formula_structural   DyZn10Ag
_chemical_formula_sum   'Dy2 Zn20 Ag2'
_cell_volume   388.34513699
_cell_formula_units_Z   2
loop_
 _symmetry_equiv_pos_site_id
 _symmetry_equiv_pos_as_xyz
  1  'x, y, z'
loop_
 _atom_site_type_symbol
 _atom_site_label
 _atom_site_symmetry_multiplicity
 _atom_site_fract_x
 _atom_site_fract_y
 _atom_site_fract_z
 _atom_site_occupancy
  Dy  Dy0  1  0.000000  0.000000  0.000000  1
  Dy  Dy1  1  0.250000  0.750000  0.500000  1
  Zn  Zn2  1  0.125000  0.375000  0.750000  1
  Zn  Zn3  1  0.625000  0.875000  0.250000  1
  Zn  Zn4  1  0.625000  0.375000  0.750000  1
  Zn  Zn5  1  0.625000  0.375000  0.250000  1
  Zn  Zn6  1  0.180086  0.508006  0.086120  1
  Zn  Zn7  1  0.180086  0.093966  0.672080  1
  Zn  Zn8  1  0.758006  0.930086  0.586120  1
  Zn  Zn9  1  0.758006  0.171886  0.827920  1
  Zn  Zn10  1  0.421886  0.508006  0.327920  1
  Zn  Zn11  1  0.421886  0.093966  0.913880  1
  Zn  Zn12  1  0.343966  0.930086  0.172080  1
  Zn  Zn13  1  0.343966  0.171886  0.413880  1
  Zn  Zn14  1  0.069914  0.241994  0.413880  1
  Zn  Zn15  1  0.069914  0.656034  0.827920  1
  Zn  Zn16  1  0.491994  0.819914  0.913880  1
  Zn  Zn17  1  0.491994  0.578114  0.672080  1
  Zn  Zn18  1  0.828114  0.241994  0.172080  1
  Zn  Zn19  1  0.828114  0.656034  0.586120  1
  Zn  Zn20  1  0.906034  0.819914  0.327920  1
  Zn  Zn21  1  0.906034  0.578114  0.086120  1
  Ag  Ag22  1  0.750000  0.250000  0.500000  1
  Ag  Ag23  1  0.500000  0.500000  0.000000  1
