# generated using pymatgen
data_ZrGeI26
_symmetry_space_group_name_H-M   'P 1'
_cell_length_a   13.03502852
_cell_length_b   11.68831247
_cell_length_c   15.75375711
_cell_angle_alpha   124.71666605
_cell_angle_beta   82.91044795
_cell_angle_gamma   107.57935460
_symmetry_Int_Tables_number   1
_chemical_formula_structural   ZrGeI26
_chemical_formula_sum   'Zr1 Ge1 I26'
_cell_volume   1877.15962490
_cell_formula_units_Z   1
loop_
 _symmetry_equiv_pos_site_id
 _symmetry_equiv_pos_as_xyz
  1  'x, y, z'
loop_
 _atom_site_type_symbol
 _atom_site_label
 _atom_site_symmetry_multiplicity
 _atom_site_fract_x
 _atom_site_fract_y
 _atom_site_fract_z
 _atom_site_occupancy
  Zr  Zr0  1  0.668498  0.119305  0.048530  1
  Ge  Ge1  1  0.311562  0.863991  0.940702  1
  I  I2  1  0.361734  0.663628  0.977592  1
  I  I3  1  0.617491  0.322840  0.020376  1
  I  I4  1  0.575000  0.821600  0.416806  1
  I  I5  1  0.433483  0.197341  0.600494  1
  I  I6  1  0.731657  0.694929  0.008202  1
  I  I7  1  0.261368  0.296653  0.984274  1
  I  I8  1  0.718134  0.984671  0.147101  1
  I  I9  1  0.281923  0.018305  0.839603  1
  I  I10  1  0.464768  0.139971  0.139859  1
  I  I11  1  0.579543  0.855144  0.870155  1
  I  I12  1  0.224274  0.644203  0.725548  1
  I  I13  1  0.772275  0.353905  0.262532  1
  I  I14  1  0.111688  0.848674  0.017462  1
  I  I15  1  0.870381  0.165545  0.971709  1
  I  I16  1  0.084416  0.124674  0.234656  1
  I  I17  1  0.909924  0.863325  0.748297  1
  I  I18  1  0.281048  0.912371  0.462558  1
  I  I19  1  0.730186  0.102474  0.552493  1
  I  I20  1  0.327553  0.417877  0.657357  1
  I  I21  1  0.673986  0.594052  0.347638  1
  I  I22  1  0.867524  0.395748  0.703160  1
  I  I23  1  0.142531  0.620443  0.314063  1
  I  I24  1  0.954979  0.626673  0.566653  1
  I  I25  1  0.044924  0.344873  0.433698  1
  I  I26  1  0.245535  0.626929  0.134197  1
  I  I27  1  0.753613  0.379853  0.874284  1
