# generated using pymatgen
data_TbHo2Mg3Si2Pd
_symmetry_space_group_name_H-M   'P 1'
_cell_length_a   7.21917800
_cell_length_b   7.23276849
_cell_length_c   4.25655800
_cell_angle_alpha   90.00000000
_cell_angle_beta   90.00000000
_cell_angle_gamma   119.93787123
_symmetry_Int_Tables_number   1
_chemical_formula_structural   TbHo2Mg3Si2Pd
_chemical_formula_sum   'Tb1 Ho2 Mg3 Si2 Pd1'
_cell_volume   192.59856702
_cell_formula_units_Z   1
loop_
 _symmetry_equiv_pos_site_id
 _symmetry_equiv_pos_as_xyz
  1  'x, y, z'
loop_
 _atom_site_type_symbol
 _atom_site_label
 _atom_site_symmetry_multiplicity
 _atom_site_fract_x
 _atom_site_fract_y
 _atom_site_fract_z
 _atom_site_occupancy
  Tb  Tb0  1  0.582097  0.000000  0.000000  1
  Ho  Ho1  1  0.000225  0.582445  0.000000  1
  Ho  Ho2  1  0.417780  0.417555  0.000000  1
  Mg  Mg3  1  0.244277  0.000000  0.500000  1
  Mg  Mg4  1  0.000362  0.244943  0.500000  1
  Mg  Mg5  1  0.755419  0.755057  0.500000  1
  Si  Si6  1  0.332697  0.665965  0.500000  1
  Si  Si7  1  0.666732  0.334035  0.500000  1
  Pd  Pd8  1  0.000411  0.000000  0.000000  1
